# generated using pymatgen
data_Er3TmPb4F28
_symmetry_space_group_name_H-M   'P 1'
_cell_length_a   5.68628526
_cell_length_b   9.06369226
_cell_length_c   12.29146800
_cell_angle_alpha   62.76009846
_cell_angle_beta   90.01743171
_cell_angle_gamma   90.01617141
_symmetry_Int_Tables_number   1
_chemical_formula_structural   Er3TmPb4F28
_chemical_formula_sum   'Er3 Tm1 Pb4 F28'
_cell_volume   563.23167819
_cell_formula_units_Z   1
loop_
 _symmetry_equiv_pos_site_id
 _symmetry_equiv_pos_as_xyz
  1  'x, y, z'
loop_
 _atom_site_type_symbol
 _atom_site_label
 _atom_site_symmetry_multiplicity
 _atom_site_fract_x
 _atom_site_fract_y
 _atom_site_fract_z
 _atom_site_occupancy
  Er  Er0  1  0.258101  0.181231  0.736099  1
  Er  Er1  1  0.241770  0.182070  0.236020  1
  Er  Er2  1  0.741676  0.817696  0.263972  1
  Tm  Tm3  1  0.758166  0.817937  0.763889  1
  Pb  Pb4  1  0.756646  0.273427  0.957445  1
  Pb  Pb5  1  0.256726  0.727249  0.542837  1
  Pb  Pb6  1  0.243134  0.727192  0.041818  1
  Pb  Pb7  1  0.743458  0.272436  0.457941  1
  F  F8  1  0.453824  0.706178  0.909657  1
  F  F9  1  0.953135  0.294116  0.590121  1
  F  F10  1  0.547331  0.294372  0.089925  1
  F  F11  1  0.047386  0.705908  0.410310  1
  F  F12  1  0.428831  0.273112  0.550001  1
  F  F13  1  0.928368  0.727371  0.949035  1
  F  F14  1  0.570808  0.726671  0.450325  1
  F  F15  1  0.071267  0.273559  0.049679  1
  F  F16  1  0.779182  0.531141  0.855749  1
  F  F17  1  0.279376  0.469835  0.644092  1
  F  F18  1  0.220382  0.469938  0.143850  1
  F  F19  1  0.720632  0.529872  0.356198  1
  F  F20  1  0.756506  0.014287  0.057876  1
  F  F21  1  0.256528  0.986147  0.442164  1
  F  F22  1  0.243619  0.986299  0.941757  1
  F  F23  1  0.743404  0.013260  0.558804  1
  F  F24  1  0.960711  0.727916  0.645672  1
  F  F25  1  0.460740  0.272608  0.854839  1
  F  F26  1  0.039382  0.272660  0.355117  1
  F  F27  1  0.538961  0.727345  0.144800  1
  F  F28  1  0.041855  0.748246  0.178303  1
  F  F29  1  0.541876  0.251633  0.321467  1
  F  F30  1  0.958325  0.251852  0.821314  1
  F  F31  1  0.460034  0.748737  0.678862  1
  F  F32  1  0.423008  0.971661  0.234307  1
  F  F33  1  0.922955  0.028336  0.265694  1
  F  F34  1  0.577173  0.026691  0.765504  1
  F  F35  1  0.074726  0.971012  0.734557  1
