# generated using pymatgen
data_Dy3Er4Hf3(Si5Ir2)4
_symmetry_space_group_name_H-M   'P 1'
_cell_length_a   12.54170618
_cell_length_b   12.54148700
_cell_length_c   4.19194400
_cell_angle_alpha   90.00000000
_cell_angle_beta   90.00000000
_cell_angle_gamma   90.01323511
_symmetry_Int_Tables_number   1
_chemical_formula_structural   Dy3Er4Hf3(Si5Ir2)4
_chemical_formula_sum   'Dy3 Er4 Hf3 Si20 Ir8'
_cell_volume   659.35774991
_cell_formula_units_Z   1
loop_
 _symmetry_equiv_pos_site_id
 _symmetry_equiv_pos_as_xyz
  1  'x, y, z'
loop_
 _atom_site_type_symbol
 _atom_site_label
 _atom_site_symmetry_multiplicity
 _atom_site_fract_x
 _atom_site_fract_y
 _atom_site_fract_z
 _atom_site_occupancy
  Dy  Dy0  1  0.118015  0.615576  0.500000  1
  Dy  Dy1  1  0.384083  0.115878  0.500000  1
  Dy  Dy2  1  0.611682  0.888286  0.500000  1
  Er  Er3  1  0.499805  0.501326  0.000000  1
  Er  Er4  1  0.998629  0.000433  0.000000  1
  Er  Er5  1  0.824781  0.675151  0.500000  1
  Er  Er6  1  0.884358  0.381945  0.500000  1
  Hf  Hf7  1  0.674201  0.174706  0.500000  1
  Hf  Hf8  1  0.325414  0.825890  0.500000  1
  Hf  Hf9  1  0.174552  0.325353  0.500000  1
  Si  Si10  1  0.565899  0.067860  0.000000  1
  Si  Si11  1  0.432148  0.934121  0.000000  1
  Si  Si12  1  0.067388  0.432511  0.000000  1
  Si  Si13  1  0.934428  0.565403  0.000000  1
  Si  Si14  1  0.662225  0.701660  0.000000  1
  Si  Si15  1  0.334829  0.299736  0.000000  1
  Si  Si16  1  0.166181  0.800506  0.000000  1
  Si  Si17  1  0.835060  0.200478  0.000000  1
  Si  Si18  1  0.299710  0.664882  0.000000  1
  Si  Si19  1  0.699640  0.333745  0.000000  1
  Si  Si20  1  0.200081  0.165241  0.000000  1
  Si  Si21  1  0.798185  0.837819  0.000000  1
  Si  Si22  1  0.656326  0.498342  0.500000  1
  Si  Si23  1  0.344173  0.490237  0.500000  1
  Si  Si24  1  0.155621  0.991677  0.500000  1
  Si  Si25  1  0.841510  0.004720  0.500000  1
  Si  Si26  1  0.495368  0.658460  0.500000  1
  Si  Si27  1  0.508352  0.344361  0.500000  1
  Si  Si28  1  0.009601  0.156075  0.500000  1
  Si  Si29  1  0.001570  0.843911  0.500000  1
  Ir  Ir30  1  0.744373  0.519096  0.000000  1
  Ir  Ir31  1  0.254547  0.478032  0.000000  1
  Ir  Ir32  1  0.245145  0.979423  0.000000  1
  Ir  Ir33  1  0.753394  0.023942  0.000000  1
  Ir  Ir34  1  0.476145  0.746580  0.000000  1
  Ir  Ir35  1  0.520678  0.254814  0.000000  1
  Ir  Ir36  1  0.021488  0.245822  0.000000  1
  Ir  Ir37  1  0.980412  0.756006  0.000000  1
