# generated using pymatgen
data_Tb5GaRuO12
_symmetry_space_group_name_H-M   'P 1'
_cell_length_a   6.85747312
_cell_length_b   6.85747203
_cell_length_c   7.32861633
_cell_angle_alpha   74.46801156
_cell_angle_beta   74.46801650
_cell_angle_gamma   51.11016089
_symmetry_Int_Tables_number   1
_chemical_formula_structural   Tb5GaRuO12
_chemical_formula_sum   'Tb5 Ga1 Ru1 O12'
_cell_volume   256.15429737
_cell_formula_units_Z   1
loop_
 _symmetry_equiv_pos_site_id
 _symmetry_equiv_pos_as_xyz
  1  'x, y, z'
loop_
 _atom_site_type_symbol
 _atom_site_label
 _atom_site_symmetry_multiplicity
 _atom_site_fract_x
 _atom_site_fract_y
 _atom_site_fract_z
 _atom_site_occupancy
  Tb  Tb0  1  0.692956  0.690876  0.669004  1
  Tb  Tb1  1  0.690184  0.703088  0.140719  1
  Tb  Tb2  1  0.995753  0.004247  0.000000  1
  Tb  Tb3  1  0.296912  0.309816  0.859281  1
  Tb  Tb4  1  0.309124  0.307044  0.330996  1
  Ga  Ga5  1  0.248904  0.751096  0.500000  1
  Ru  Ru6  1  0.760539  0.239461  0.500000  1
  O  O7  1  0.400611  0.906191  0.923930  1
  O  O8  1  0.576145  0.099671  0.581633  1
  O  O9  1  0.900329  0.423855  0.418367  1
  O  O10  1  0.093809  0.599389  0.076070  1
  O  O11  1  0.992857  0.007545  0.317799  1
  O  O12  1  0.513362  0.487001  0.685489  1
  O  O13  1  0.901021  0.404799  0.925809  1
  O  O14  1  0.100448  0.573606  0.581448  1
  O  O15  1  0.426394  0.899552  0.418552  1
  O  O16  1  0.595201  0.098979  0.074191  1
  O  O17  1  0.512999  0.486638  0.314511  1
  O  O18  1  0.992455  0.007143  0.682201  1
