# generated using pymatgen
data_Nd2Th2CdTc
_symmetry_space_group_name_H-M   'P 1'
_cell_length_a   9.89763128
_cell_length_b   9.90296544
_cell_length_c   10.00750800
_cell_angle_alpha   59.65016867
_cell_angle_beta   59.63208694
_cell_angle_gamma   60.61147866
_symmetry_Int_Tables_number   1
_chemical_formula_structural   Nd2Th2CdTc
_chemical_formula_sum   'Nd8 Th8 Cd4 Tc4'
_cell_volume   692.90671778
_cell_formula_units_Z   4
loop_
 _symmetry_equiv_pos_site_id
 _symmetry_equiv_pos_as_xyz
  1  'x, y, z'
loop_
 _atom_site_type_symbol
 _atom_site_label
 _atom_site_symmetry_multiplicity
 _atom_site_fract_x
 _atom_site_fract_y
 _atom_site_fract_z
 _atom_site_occupancy
  Nd  Nd0  1  0.444523  0.444520  0.055478  1
  Nd  Nd1  1  0.055380  0.055633  0.444493  1
  Nd  Nd2  1  0.189983  0.810837  0.810907  1
  Nd  Nd3  1  0.810806  0.190012  0.188250  1
  Nd  Nd4  1  0.810806  0.190012  0.810933  1
  Nd  Nd5  1  0.189983  0.810837  0.188273  1
  Nd  Nd6  1  0.810533  0.810444  0.189511  1
  Nd  Nd7  1  0.190484  0.190532  0.809492  1
  Th  Th8  1  0.595558  0.595312  0.597357  1
  Th  Th9  1  0.595558  0.595312  0.211773  1
  Th  Th10  1  0.597414  0.212088  0.595249  1
  Th  Th11  1  0.211993  0.597259  0.595374  1
  Th  Th12  1  0.061826  0.437705  0.438474  1
  Th  Th13  1  0.437713  0.061965  0.061864  1
  Th  Th14  1  0.437713  0.061965  0.438458  1
  Th  Th15  1  0.061826  0.437705  0.061995  1
  Cd  Cd16  1  0.829643  0.829644  0.829865  1
  Cd  Cd17  1  0.829643  0.829644  0.510848  1
  Cd  Cd18  1  0.829167  0.509700  0.830567  1
  Cd  Cd19  1  0.509691  0.829156  0.830577  1
  Tc  Tc20  1  0.380161  0.380153  0.404998  1
  Tc  Tc21  1  0.380161  0.380153  0.834688  1
  Tc  Tc22  1  0.406355  0.833094  0.380275  1
  Tc  Tc23  1  0.833079  0.406319  0.380301  1
