# generated using pymatgen
data_Dy3TaZn2Ir3
_symmetry_space_group_name_H-M   'P 1'
_cell_length_a   7.06708799
_cell_length_b   6.88631450
_cell_length_c   4.20843300
_cell_angle_alpha   90.00000000
_cell_angle_beta   90.00000000
_cell_angle_gamma   119.15737571
_symmetry_Int_Tables_number   1
_chemical_formula_structural   Dy3TaZn2Ir3
_chemical_formula_sum   'Dy3 Ta1 Zn2 Ir3'
_cell_volume   178.85605839
_cell_formula_units_Z   1
loop_
 _symmetry_equiv_pos_site_id
 _symmetry_equiv_pos_as_xyz
  1  'x, y, z'
loop_
 _atom_site_type_symbol
 _atom_site_label
 _atom_site_symmetry_multiplicity
 _atom_site_fract_x
 _atom_site_fract_y
 _atom_site_fract_z
 _atom_site_occupancy
  Dy  Dy0  1  0.571876  0.581237  0.000000  1
  Dy  Dy1  1  0.428124  0.009361  0.000000  1
  Dy  Dy2  1  0.000000  0.393797  0.000000  1
  Ta  Ta3  1  0.000000  0.761265  0.500000  1
  Zn  Zn4  1  0.242768  0.245832  0.500000  1
  Zn  Zn5  1  0.757232  0.003063  0.500000  1
  Ir  Ir6  1  0.000000  0.971073  0.000000  1
  Ir  Ir7  1  0.679366  0.356869  0.500000  1
  Ir  Ir8  1  0.320634  0.677504  0.500000  1
