# generated using pymatgen
data_V3Si2Mo2Os
_symmetry_space_group_name_H-M   'P 1'
_cell_length_a   4.76195129
_cell_length_b   4.81871328
_cell_length_c   4.76195080
_cell_angle_alpha   89.85074300
_cell_angle_beta   90.01875328
_cell_angle_gamma   90.14924123
_symmetry_Int_Tables_number   1
_chemical_formula_structural   V3Si2Mo2Os
_chemical_formula_sum   'V3 Si2 Mo2 Os1'
_cell_volume   109.26925186
_cell_formula_units_Z   1
loop_
 _symmetry_equiv_pos_site_id
 _symmetry_equiv_pos_as_xyz
  1  'x, y, z'
loop_
 _atom_site_type_symbol
 _atom_site_label
 _atom_site_symmetry_multiplicity
 _atom_site_fract_x
 _atom_site_fract_y
 _atom_site_fract_z
 _atom_site_occupancy
  V  V0  1  0.499774  0.250000  0.999774  1
  V  V1  1  0.749403  0.001913  0.499985  1
  V  V2  1  0.999985  0.498087  0.249403  1
  Si  Si3  1  0.505116  0.495263  0.494296  1
  Si  Si4  1  0.994296  0.004737  0.005116  1
  Mo  Mo5  1  0.249423  0.001339  0.500008  1
  Mo  Mo6  1  0.000008  0.498661  0.749423  1
  Os  Os7  1  0.501995  0.750000  0.001995  1
