# generated using pymatgen
data_NdEu7(MoO6)4
_symmetry_space_group_name_H-M   'P 1'
_cell_length_a   10.16311392
_cell_length_b   10.16311415
_cell_length_c   5.51251700
_cell_angle_alpha   75.05737380
_cell_angle_beta   75.05736763
_cell_angle_gamma   68.19618185
_symmetry_Int_Tables_number   1
_chemical_formula_structural   NdEu7(MoO6)4
_chemical_formula_sum   'Nd1 Eu7 Mo4 O24'
_cell_volume   502.36633043
_cell_formula_units_Z   1
loop_
 _symmetry_equiv_pos_site_id
 _symmetry_equiv_pos_as_xyz
  1  'x, y, z'
loop_
 _atom_site_type_symbol
 _atom_site_label
 _atom_site_symmetry_multiplicity
 _atom_site_fract_x
 _atom_site_fract_y
 _atom_site_fract_z
 _atom_site_occupancy
  Nd  Nd0  1  0.633245  0.366755  0.250000  1
  Eu  Eu1  1  0.288516  0.054524  0.616440  1
  Eu  Eu2  1  0.945476  0.711484  0.883560  1
  Eu  Eu3  1  0.711654  0.944583  0.384228  1
  Eu  Eu4  1  0.055417  0.288346  0.115772  1
  Eu  Eu5  1  0.889743  0.110257  0.750000  1
  Eu  Eu6  1  0.111317  0.888683  0.250000  1
  Eu  Eu7  1  0.364930  0.635070  0.750000  1
  Mo  Mo8  1  0.798836  0.508868  0.561033  1
  Mo  Mo9  1  0.491132  0.201164  0.938967  1
  Mo  Mo10  1  0.201743  0.491201  0.439298  1
  Mo  Mo11  1  0.508799  0.798257  0.060702  1
  O  O12  1  0.827203  0.382871  0.866769  1
  O  O13  1  0.617129  0.172797  0.633231  1
  O  O14  1  0.170556  0.617312  0.137571  1
  O  O15  1  0.382688  0.829444  0.362429  1
  O  O16  1  0.933160  0.522490  0.262948  1
  O  O17  1  0.477510  0.066840  0.237052  1
  O  O18  1  0.065683  0.478645  0.735981  1
  O  O19  1  0.521355  0.934317  0.764019  1
  O  O20  1  0.786221  0.678786  0.634489  1
  O  O21  1  0.321214  0.213779  0.865511  1
  O  O22  1  0.214196  0.321164  0.366881  1
  O  O23  1  0.678836  0.785804  0.133119  1
  O  O24  1  0.076607  0.103859  0.931637  1
  O  O25  1  0.896141  0.923393  0.568363  1
  O  O26  1  0.923844  0.895206  0.069524  1
  O  O27  1  0.104794  0.076156  0.430476  1
  O  O28  1  0.309576  0.839281  0.918785  1
  O  O29  1  0.160719  0.690424  0.581215  1
  O  O30  1  0.690643  0.159115  0.079661  1
  O  O31  1  0.840885  0.309357  0.420339  1
  O  O32  1  0.544035  0.616523  0.013969  1
  O  O33  1  0.383477  0.455965  0.486031  1
  O  O34  1  0.455063  0.382339  0.986291  1
  O  O35  1  0.617661  0.544937  0.513709  1
