# generated using pymatgen
data_Tb2PrTh3Si4
_symmetry_space_group_name_H-M   'P 1'
_cell_length_a   7.68893791
_cell_length_b   7.68893783
_cell_length_c   4.27963500
_cell_angle_alpha   90.00000000
_cell_angle_beta   90.00000000
_cell_angle_gamma   90.36153136
_symmetry_Int_Tables_number   1
_chemical_formula_structural   Tb2PrTh3Si4
_chemical_formula_sum   'Tb2 Pr1 Th3 Si4'
_cell_volume   253.00598134
_cell_formula_units_Z   1
loop_
 _symmetry_equiv_pos_site_id
 _symmetry_equiv_pos_as_xyz
  1  'x, y, z'
loop_
 _atom_site_type_symbol
 _atom_site_label
 _atom_site_symmetry_multiplicity
 _atom_site_fract_x
 _atom_site_fract_y
 _atom_site_fract_z
 _atom_site_occupancy
  Tb  Tb0  1  0.999239  0.000490  0.000000  1
  Tb  Tb1  1  0.499510  0.500761  0.000000  1
  Pr  Pr2  1  0.823020  0.676980  0.500000  1
  Th  Th3  1  0.677695  0.178848  0.500000  1
  Th  Th4  1  0.321152  0.822305  0.500000  1
  Th  Th5  1  0.178606  0.321394  0.500000  1
  Si  Si6  1  0.119182  0.614056  0.000000  1
  Si  Si7  1  0.885944  0.380818  0.000000  1
  Si  Si8  1  0.612598  0.887402  0.000000  1
  Si  Si9  1  0.383053  0.116947  0.000000  1
