# generated using pymatgen
data_Y5Nb3(P3Ir4)4
_symmetry_space_group_name_H-M   'P 1'
_cell_length_a   12.77423500
_cell_length_b   12.77423473
_cell_length_c   4.00552800
_cell_angle_alpha   90.00000000
_cell_angle_beta   90.00000000
_cell_angle_gamma   119.99999811
_symmetry_Int_Tables_number   1
_chemical_formula_structural   Y5Nb3(P3Ir4)4
_chemical_formula_sum   'Y5 Nb3 P12 Ir16'
_cell_volume   566.05705221
_cell_formula_units_Z   1
loop_
 _symmetry_equiv_pos_site_id
 _symmetry_equiv_pos_as_xyz
  1  'x, y, z'
loop_
 _atom_site_type_symbol
 _atom_site_label
 _atom_site_symmetry_multiplicity
 _atom_site_fract_x
 _atom_site_fract_y
 _atom_site_fract_z
 _atom_site_occupancy
  Y  Y0  1  0.333333  0.666667  0.500000  1
  Y  Y1  1  0.666667  0.333333  0.500000  1
  Y  Y2  1  0.000000  0.813860  0.000000  1
  Y  Y3  1  0.186140  0.186140  0.000000  1
  Y  Y4  1  0.813860  0.000000  0.000000  1
  Nb  Nb5  1  0.000000  0.452470  0.500000  1
  Nb  Nb6  1  0.547530  0.547530  0.500000  1
  Nb  Nb7  1  0.452470  0.000000  0.500000  1
  P  P8  1  0.000000  0.642219  0.500000  1
  P  P9  1  0.357781  0.357781  0.500000  1
  P  P10  1  0.642219  0.000000  0.500000  1
  P  P11  1  0.517387  0.684581  0.000000  1
  P  P12  1  0.315419  0.832807  0.000000  1
  P  P13  1  0.167193  0.482613  0.000000  1
  P  P14  1  0.482613  0.167193  0.000000  1
  P  P15  1  0.684581  0.517387  0.000000  1
  P  P16  1  0.832807  0.315419  0.000000  1
  P  P17  1  0.000000  0.176865  0.500000  1
  P  P18  1  0.823135  0.823135  0.500000  1
  P  P19  1  0.176865  0.000000  0.500000  1
  Ir  Ir20  1  0.507564  0.863635  0.000000  1
  Ir  Ir21  1  0.136365  0.643930  0.000000  1
  Ir  Ir22  1  0.356070  0.492436  0.000000  1
  Ir  Ir23  1  0.492436  0.356070  0.000000  1
  Ir  Ir24  1  0.863635  0.507564  0.000000  1
  Ir  Ir25  1  0.643930  0.136365  0.000000  1
  Ir  Ir26  1  0.000000  0.282854  0.000000  1
  Ir  Ir27  1  0.717146  0.717146  0.000000  1
  Ir  Ir28  1  0.282854  0.000000  0.000000  1
  Ir  Ir29  1  0.627288  0.805415  0.500000  1
  Ir  Ir30  1  0.194585  0.821872  0.500000  1
  Ir  Ir31  1  0.178128  0.372712  0.500000  1
  Ir  Ir32  1  0.372712  0.178128  0.500000  1
  Ir  Ir33  1  0.805415  0.627288  0.500000  1
  Ir  Ir34  1  0.821872  0.194585  0.500000  1
  Ir  Ir35  1  0.000000  0.000000  0.500000  1
