# generated using pymatgen
data_MnTl4Rh3O14
_symmetry_space_group_name_H-M   'P 1'
_cell_length_a   7.24783647
_cell_length_b   7.24783715
_cell_length_c   7.26954000
_cell_angle_alpha   60.09870473
_cell_angle_beta   60.09870164
_cell_angle_gamma   60.00000470
_symmetry_Int_Tables_number   1
_chemical_formula_structural   MnTl4Rh3O14
_chemical_formula_sum   'Mn1 Tl4 Rh3 O14'
_cell_volume   270.43012918
_cell_formula_units_Z   1
loop_
 _symmetry_equiv_pos_site_id
 _symmetry_equiv_pos_as_xyz
  1  'x, y, z'
loop_
 _atom_site_type_symbol
 _atom_site_label
 _atom_site_symmetry_multiplicity
 _atom_site_fract_x
 _atom_site_fract_y
 _atom_site_fract_z
 _atom_site_occupancy
  Mn  Mn0  1  0.625000  0.625000  0.125000  1
  Tl  Tl1  1  0.125000  0.625000  0.125000  1
  Tl  Tl2  1  0.125000  0.125000  0.625000  1
  Tl  Tl3  1  0.625000  0.125000  0.125000  1
  Tl  Tl4  1  0.125000  0.125000  0.125000  1
  Rh  Rh5  1  0.625000  0.625000  0.625000  1
  Rh  Rh6  1  0.125000  0.625000  0.625000  1
  Rh  Rh7  1  0.625000  0.125000  0.625000  1
  O  O8  1  0.295104  0.704924  0.704867  1
  O  O9  1  0.548049  0.949041  0.954860  1
  O  O10  1  0.701951  0.701951  0.295140  1
  O  O11  1  0.295104  0.295104  0.704867  1
  O  O12  1  0.998659  0.998659  0.004024  1
  O  O13  1  0.704924  0.295104  0.704867  1
  O  O14  1  0.300959  0.701951  0.295140  1
  O  O15  1  0.949041  0.548049  0.954860  1
  O  O16  1  0.548049  0.548049  0.954860  1
  O  O17  1  0.954896  0.954896  0.545133  1
  O  O18  1  0.251341  0.251341  0.245976  1
  O  O19  1  0.545076  0.954896  0.545133  1
  O  O20  1  0.701951  0.300959  0.295140  1
  O  O21  1  0.954896  0.545076  0.545133  1
