# generated using pymatgen
data_Er3Th7(In2Ir)4
_symmetry_space_group_name_H-M   'P 1'
_cell_length_a   3.78826900
_cell_length_b   8.19932385
_cell_length_c   18.40651146
_cell_angle_alpha   89.90419663
_cell_angle_beta   90.00000000
_cell_angle_gamma   90.00000000
_symmetry_Int_Tables_number   1
_chemical_formula_structural   Er3Th7(In2Ir)4
_chemical_formula_sum   'Er3 Th7 In8 Ir4'
_cell_volume   571.72835131
_cell_formula_units_Z   1
loop_
 _symmetry_equiv_pos_site_id
 _symmetry_equiv_pos_as_xyz
  1  'x, y, z'
loop_
 _atom_site_type_symbol
 _atom_site_label
 _atom_site_symmetry_multiplicity
 _atom_site_fract_x
 _atom_site_fract_y
 _atom_site_fract_z
 _atom_site_occupancy
  Er  Er0  1  0.000000  0.504862  0.499148  1
  Er  Er1  1  0.000000  0.999894  0.001103  1
  Er  Er2  1  0.000000  0.116364  0.413941  1
  Th  Th3  1  0.000000  0.753955  0.279578  1
  Th  Th4  1  0.000000  0.248455  0.721744  1
  Th  Th5  1  0.000000  0.747711  0.776962  1
  Th  Th6  1  0.000000  0.249518  0.225126  1
  Th  Th7  1  0.000000  0.617298  0.085824  1
  Th  Th8  1  0.000000  0.380588  0.915637  1
  Th  Th9  1  0.000000  0.881659  0.584962  1
  In  In10  1  0.500000  0.715744  0.933804  1
  In  In11  1  0.500000  0.283395  0.066896  1
  In  In12  1  0.500000  0.796677  0.433761  1
  In  In13  1  0.500000  0.213599  0.560803  1
  In  In14  1  0.500000  0.559394  0.644935  1
  In  In15  1  0.500000  0.430920  0.356820  1
  In  In16  1  0.500000  0.939881  0.146319  1
  In  In17  1  0.500000  0.059416  0.854268  1
  Ir  Ir18  1  0.500000  0.527521  0.197761  1
  Ir  Ir19  1  0.500000  0.470995  0.803367  1
  Ir  Ir20  1  0.500000  0.973085  0.695660  1
  Ir  Ir21  1  0.500000  0.029071  0.301580  1
