# generated using pymatgen
data_Hf3Zr2Nb5(ZnSn3)2
_symmetry_space_group_name_H-M   'P 1'
_cell_length_a   8.50318033
_cell_length_b   8.50317968
_cell_length_c   5.72585100
_cell_angle_alpha   90.00000000
_cell_angle_beta   90.00000000
_cell_angle_gamma   120.11093271
_symmetry_Int_Tables_number   1
_chemical_formula_structural   Hf3Zr2Nb5(ZnSn3)2
_chemical_formula_sum   'Hf3 Zr2 Nb5 Zn2 Sn6'
_cell_volume   358.13508212
_cell_formula_units_Z   1
loop_
 _symmetry_equiv_pos_site_id
 _symmetry_equiv_pos_as_xyz
  1  'x, y, z'
loop_
 _atom_site_type_symbol
 _atom_site_label
 _atom_site_symmetry_multiplicity
 _atom_site_fract_x
 _atom_site_fract_y
 _atom_site_fract_z
 _atom_site_occupancy
  Hf  Hf0  1  0.275626  0.003825  0.750000  1
  Hf  Hf1  1  0.003825  0.275626  0.750000  1
  Hf  Hf2  1  0.266788  0.266788  0.250000  1
  Zr  Zr3  1  0.729937  0.000909  0.250000  1
  Zr  Zr4  1  0.000909  0.729937  0.250000  1
  Nb  Nb5  1  0.665526  0.332848  0.000124  1
  Nb  Nb6  1  0.332848  0.665526  0.000124  1
  Nb  Nb7  1  0.332848  0.665526  0.499876  1
  Nb  Nb8  1  0.665526  0.332848  0.499876  1
  Nb  Nb9  1  0.727732  0.727732  0.750000  1
  Zn  Zn10  1  0.997014  0.997014  0.992611  1
  Zn  Zn11  1  0.997014  0.997014  0.507389  1
  Sn  Sn12  1  0.391295  0.391295  0.750000  1
  Sn  Sn13  1  0.615671  0.997561  0.750000  1
  Sn  Sn14  1  0.997561  0.615671  0.750000  1
  Sn  Sn15  1  0.612965  0.612965  0.250000  1
  Sn  Sn16  1  0.386783  0.000132  0.250000  1
  Sn  Sn17  1  0.000132  0.386783  0.250000  1
