# generated using pymatgen
data_Np4Si4As2Ru7
_symmetry_space_group_name_H-M   'P 1'
_cell_length_a   7.15907141
_cell_length_b   7.15690312
_cell_length_c   7.14608855
_cell_angle_alpha   109.56211473
_cell_angle_beta   109.32329099
_cell_angle_gamma   109.39568309
_symmetry_Int_Tables_number   1
_chemical_formula_structural   Np4Si4As2Ru7
_chemical_formula_sum   'Np4 Si4 As2 Ru7'
_cell_volume   282.31592663
_cell_formula_units_Z   1
loop_
 _symmetry_equiv_pos_site_id
 _symmetry_equiv_pos_as_xyz
  1  'x, y, z'
loop_
 _atom_site_type_symbol
 _atom_site_label
 _atom_site_symmetry_multiplicity
 _atom_site_fract_x
 _atom_site_fract_y
 _atom_site_fract_z
 _atom_site_occupancy
  Np  Np0  1  0.003142  0.001572  0.501547  1
  Np  Np1  1  0.498301  0.001126  0.001120  1
  Np  Np2  1  0.003141  0.501554  0.001583  1
  Np  Np3  1  0.498302  0.497181  0.497184  1
  Si  Si4  1  0.313689  0.001359  0.312386  1
  Si  Si5  1  0.001962  0.317168  0.317125  1
  Si  Si6  1  0.001732  0.684679  0.684728  1
  Si  Si7  1  0.313653  0.312398  0.001376  1
  As  As8  1  0.692619  0.691493  0.001016  1
  As  As9  1  0.692609  0.001020  0.691500  1
  Ru  Ru10  1  0.746974  0.496739  0.250487  1
  Ru  Ru11  1  0.491724  0.745731  0.245955  1
  Ru  Ru12  1  0.491817  0.246025  0.745793  1
  Ru  Ru13  1  0.747003  0.250446  0.496728  1
  Ru  Ru14  1  0.244373  0.747877  0.496331  1
  Ru  Ru15  1  0.244396  0.496327  0.747832  1
  Ru  Ru16  1  0.014563  0.007305  0.007310  1
