# generated using pymatgen
data_Zr8Ta12Si15Ge
_symmetry_space_group_name_H-M   'P 1'
_cell_length_a   6.70029941
_cell_length_b   6.86378614
_cell_length_c   13.12909400
_cell_angle_alpha   90.00000000
_cell_angle_beta   90.00000000
_cell_angle_gamma   90.03141201
_symmetry_Int_Tables_number   1
_chemical_formula_structural   Zr8Ta12Si15Ge
_chemical_formula_sum   'Zr8 Ta12 Si15 Ge1'
_cell_volume   603.79935612
_cell_formula_units_Z   1
loop_
 _symmetry_equiv_pos_site_id
 _symmetry_equiv_pos_as_xyz
  1  'x, y, z'
loop_
 _atom_site_type_symbol
 _atom_site_label
 _atom_site_symmetry_multiplicity
 _atom_site_fract_x
 _atom_site_fract_y
 _atom_site_fract_z
 _atom_site_occupancy
  Zr  Zr0  1  0.495769  0.673154  0.594199  1
  Zr  Zr1  1  0.995901  0.826649  0.906150  1
  Zr  Zr2  1  0.502413  0.327042  0.092829  1
  Zr  Zr3  1  0.006731  0.170311  0.408530  1
  Zr  Zr4  1  0.502413  0.327042  0.407171  1
  Zr  Zr5  1  0.006731  0.170311  0.091470  1
  Zr  Zr6  1  0.495769  0.673154  0.905801  1
  Zr  Zr7  1  0.995901  0.826649  0.593850  1
  Ta  Ta8  1  0.662082  0.171746  0.623968  1
  Ta  Ta9  1  0.162152  0.328709  0.876152  1
  Ta  Ta10  1  0.336892  0.829128  0.123559  1
  Ta  Ta11  1  0.838292  0.673831  0.376935  1
  Ta  Ta12  1  0.336892  0.829128  0.376441  1
  Ta  Ta13  1  0.838292  0.673831  0.123065  1
  Ta  Ta14  1  0.662082  0.171746  0.876032  1
  Ta  Ta15  1  0.162152  0.328709  0.623848  1
  Ta  Ta16  1  0.837362  0.495171  0.750000  1
  Ta  Ta17  1  0.337458  0.005509  0.750000  1
  Ta  Ta18  1  0.165149  0.506775  0.250000  1
  Ta  Ta19  1  0.660806  0.991404  0.250000  1
  Si  Si20  1  0.670768  0.963409  0.461479  1
  Si  Si21  1  0.171023  0.537191  0.038672  1
  Si  Si22  1  0.328642  0.036848  0.960533  1
  Si  Si23  1  0.828210  0.463070  0.538748  1
  Si  Si24  1  0.328642  0.036848  0.539467  1
  Si  Si25  1  0.828210  0.463070  0.961252  1
  Si  Si26  1  0.670768  0.963409  0.038521  1
  Si  Si27  1  0.171023  0.537191  0.461328  1
  Si  Si28  1  0.460705  0.387121  0.750000  1
  Si  Si29  1  0.960567  0.113707  0.750000  1
  Si  Si30  1  0.538570  0.615345  0.250000  1
  Si  Si31  1  0.039077  0.887109  0.250000  1
  Si  Si32  1  0.703562  0.862446  0.750000  1
  Si  Si33  1  0.203158  0.637985  0.750000  1
  Si  Si34  1  0.296596  0.138533  0.250000  1
  Ge  Ge35  1  0.799239  0.356712  0.250000  1
