# generated using pymatgen
data_SrV2PbO8
_symmetry_space_group_name_H-M   'P 1'
_cell_length_a   5.32942057
_cell_length_b   5.32942010
_cell_length_c   7.55838908
_cell_angle_alpha   90.29878492
_cell_angle_beta   90.29878230
_cell_angle_gamma   67.25125315
_symmetry_Int_Tables_number   1
_chemical_formula_structural   SrV2PbO8
_chemical_formula_sum   'Sr1 V2 Pb1 O8'
_cell_volume   197.97494692
_cell_formula_units_Z   1
loop_
 _symmetry_equiv_pos_site_id
 _symmetry_equiv_pos_as_xyz
  1  'x, y, z'
loop_
 _atom_site_type_symbol
 _atom_site_label
 _atom_site_symmetry_multiplicity
 _atom_site_fract_x
 _atom_site_fract_y
 _atom_site_fract_z
 _atom_site_occupancy
  Sr  Sr0  1  0.000000  0.000000  0.000000  1
  V  V1  1  0.634518  0.634518  0.276262  1
  V  V2  1  0.365481  0.365481  0.723738  1
  Pb  Pb3  1  0.000000  0.000000  0.500000  1
  O  O4  1  0.723383  0.723383  0.081159  1
  O  O5  1  0.775933  0.269390  0.283445  1
  O  O6  1  0.269390  0.775933  0.283445  1
  O  O7  1  0.757266  0.757266  0.454248  1
  O  O8  1  0.242734  0.242734  0.545752  1
  O  O9  1  0.730609  0.224066  0.716555  1
  O  O10  1  0.224066  0.730609  0.716555  1
  O  O11  1  0.276616  0.276616  0.918841  1
