# generated using pymatgen
data_Er9ScZn3Ru
_symmetry_space_group_name_H-M   'P 1'
_cell_length_a   9.27724900
_cell_length_b   9.27724848
_cell_length_c   9.52952800
_cell_angle_alpha   90.00000000
_cell_angle_beta   90.00000000
_cell_angle_gamma   119.99999829
_symmetry_Int_Tables_number   1
_chemical_formula_structural   Er9ScZn3Ru
_chemical_formula_sum   'Er18 Sc2 Zn6 Ru2'
_cell_volume   710.29773801
_cell_formula_units_Z   2
loop_
 _symmetry_equiv_pos_site_id
 _symmetry_equiv_pos_as_xyz
  1  'x, y, z'
loop_
 _atom_site_type_symbol
 _atom_site_label
 _atom_site_symmetry_multiplicity
 _atom_site_fract_x
 _atom_site_fract_y
 _atom_site_fract_z
 _atom_site_occupancy
  Er  Er0  1  0.206428  0.793572  0.442688  1
  Er  Er1  1  0.206428  0.412855  0.442688  1
  Er  Er2  1  0.587145  0.793572  0.442688  1
  Er  Er3  1  0.793572  0.206428  0.557312  1
  Er  Er4  1  0.793572  0.587145  0.557312  1
  Er  Er5  1  0.412855  0.206428  0.557312  1
  Er  Er6  1  0.793572  0.206428  0.942688  1
  Er  Er7  1  0.793572  0.587145  0.942688  1
  Er  Er8  1  0.412855  0.206428  0.942688  1
  Er  Er9  1  0.206428  0.793572  0.057312  1
  Er  Er10  1  0.206428  0.412855  0.057312  1
  Er  Er11  1  0.587145  0.793572  0.057312  1
  Er  Er12  1  0.540859  0.459141  0.250000  1
  Er  Er13  1  0.540859  0.081717  0.250000  1
  Er  Er14  1  0.918283  0.459141  0.250000  1
  Er  Er15  1  0.459141  0.540859  0.750000  1
  Er  Er16  1  0.459141  0.918283  0.750000  1
  Er  Er17  1  0.081717  0.540859  0.750000  1
  Sc  Sc18  1  0.000000  0.000000  0.500000  1
  Sc  Sc19  1  0.000000  0.000000  0.000000  1
  Zn  Zn20  1  0.890700  0.109300  0.250000  1
  Zn  Zn21  1  0.890700  0.781402  0.250000  1
  Zn  Zn22  1  0.218598  0.109300  0.250000  1
  Zn  Zn23  1  0.109300  0.890700  0.750000  1
  Zn  Zn24  1  0.109300  0.218598  0.750000  1
  Zn  Zn25  1  0.781402  0.890700  0.750000  1
  Ru  Ru26  1  0.333333  0.666667  0.250000  1
  Ru  Ru27  1  0.666667  0.333333  0.750000  1
