# generated using pymatgen
data_LiCeCo3P3Rh
_symmetry_space_group_name_H-M   'P 1'
_cell_length_a   3.76135100
_cell_length_b   10.45973200
_cell_length_c   12.21723000
_cell_angle_alpha   90.00000000
_cell_angle_beta   90.00000000
_cell_angle_gamma   90.00000000
_symmetry_Int_Tables_number   1
_chemical_formula_structural   LiCeCo3P3Rh
_chemical_formula_sum   'Li4 Ce4 Co12 P12 Rh4'
_cell_volume   480.65910082
_cell_formula_units_Z   4
loop_
 _symmetry_equiv_pos_site_id
 _symmetry_equiv_pos_as_xyz
  1  'x, y, z'
loop_
 _atom_site_type_symbol
 _atom_site_label
 _atom_site_symmetry_multiplicity
 _atom_site_fract_x
 _atom_site_fract_y
 _atom_site_fract_z
 _atom_site_occupancy
  Li  Li0  1  0.250000  0.702794  0.992946  1
  Li  Li1  1  0.250000  0.797206  0.492946  1
  Li  Li2  1  0.750000  0.297206  0.007054  1
  Li  Li3  1  0.750000  0.202794  0.507054  1
  Ce  Ce4  1  0.250000  0.583310  0.707047  1
  Ce  Ce5  1  0.250000  0.916690  0.207047  1
  Ce  Ce6  1  0.750000  0.416690  0.292953  1
  Ce  Ce7  1  0.750000  0.083310  0.792953  1
  Co  Co8  1  0.250000  0.218149  0.177787  1
  Co  Co9  1  0.250000  0.281851  0.677787  1
  Co  Co10  1  0.750000  0.781851  0.822213  1
  Co  Co11  1  0.750000  0.718149  0.322213  1
  Co  Co12  1  0.250000  0.883984  0.695911  1
  Co  Co13  1  0.250000  0.616016  0.195911  1
  Co  Co14  1  0.750000  0.116016  0.304089  1
  Co  Co15  1  0.750000  0.383984  0.804089  1
  Co  Co16  1  0.250000  0.471077  0.933872  1
  Co  Co17  1  0.250000  0.028923  0.433872  1
  Co  Co18  1  0.750000  0.528923  0.066128  1
  Co  Co19  1  0.750000  0.971077  0.566128  1
  P  P20  1  0.250000  0.420776  0.112616  1
  P  P21  1  0.250000  0.079224  0.612616  1
  P  P22  1  0.750000  0.579224  0.887384  1
  P  P23  1  0.750000  0.920776  0.387384  1
  P  P24  1  0.250000  0.281590  0.859296  1
  P  P25  1  0.250000  0.218410  0.359296  1
  P  P26  1  0.750000  0.718410  0.140704  1
  P  P27  1  0.750000  0.781590  0.640704  1
  P  P28  1  0.250000  0.610189  0.381099  1
  P  P29  1  0.250000  0.889811  0.881099  1
  P  P30  1  0.750000  0.389811  0.618901  1
  P  P31  1  0.750000  0.110189  0.118901  1
  Rh  Rh32  1  0.250000  0.401933  0.480608  1
  Rh  Rh33  1  0.250000  0.098067  0.980608  1
  Rh  Rh34  1  0.750000  0.598067  0.519392  1
  Rh  Rh35  1  0.750000  0.901933  0.019392  1
