# generated using pymatgen
data_Nb10SiB4As
_symmetry_space_group_name_H-M   'P 1'
_cell_length_a   7.35105439
_cell_length_b   7.35105452
_cell_length_c   7.35105541
_cell_angle_alpha   129.32791561
_cell_angle_beta   129.32792062
_cell_angle_gamma   74.48350705
_symmetry_Int_Tables_number   1
_chemical_formula_structural   Nb10SiB4As
_chemical_formula_sum   'Nb10 Si1 B4 As1'
_cell_volume   231.63755324
_cell_formula_units_Z   1
loop_
 _symmetry_equiv_pos_site_id
 _symmetry_equiv_pos_as_xyz
  1  'x, y, z'
loop_
 _atom_site_type_symbol
 _atom_site_label
 _atom_site_symmetry_multiplicity
 _atom_site_fract_x
 _atom_site_fract_y
 _atom_site_fract_z
 _atom_site_occupancy
  Nb  Nb0  1  0.999458  0.999458  0.000000  1
  Nb  Nb1  1  0.500542  0.500542  0.000000  1
  Nb  Nb2  1  0.803559  0.307049  0.835644  1
  Nb  Nb3  1  0.192951  0.696441  0.164356  1
  Nb  Nb4  1  0.471405  0.967916  0.164356  1
  Nb  Nb5  1  0.307049  0.471405  0.503490  1
  Nb  Nb6  1  0.028595  0.192951  0.496510  1
  Nb  Nb7  1  0.532084  0.028595  0.835644  1
  Nb  Nb8  1  0.696441  0.532084  0.503490  1
  Nb  Nb9  1  0.967916  0.803559  0.496510  1
  Si  Si10  1  0.750000  0.750000  0.000000  1
  B  B11  1  0.113180  0.613180  0.726359  1
  B  B12  1  0.886820  0.386820  0.273641  1
  B  B13  1  0.613180  0.886820  0.500000  1
  B  B14  1  0.386820  0.113180  0.500000  1
  As  As15  1  0.250000  0.250000  0.000000  1
