# generated using pymatgen
data_Li4PrEr3Si8
_symmetry_space_group_name_H-M   'P 1'
_cell_length_a   3.81362500
_cell_length_b   7.62466763
_cell_length_c   10.19093942
_cell_angle_alpha   89.73147178
_cell_angle_beta   90.00000000
_cell_angle_gamma   90.00000000
_symmetry_Int_Tables_number   1
_chemical_formula_structural   Li4PrEr3Si8
_chemical_formula_sum   'Li4 Pr1 Er3 Si8'
_cell_volume   296.32504066
_cell_formula_units_Z   1
loop_
 _symmetry_equiv_pos_site_id
 _symmetry_equiv_pos_as_xyz
  1  'x, y, z'
loop_
 _atom_site_type_symbol
 _atom_site_label
 _atom_site_symmetry_multiplicity
 _atom_site_fract_x
 _atom_site_fract_y
 _atom_site_fract_z
 _atom_site_occupancy
  Li  Li0  1  0.250000  0.994443  0.392080  1
  Li  Li1  1  0.750000  0.010619  0.610233  1
  Li  Li2  1  0.250000  0.488883  0.107351  1
  Li  Li3  1  0.750000  0.510442  0.893169  1
  Pr  Pr4  1  0.750000  0.359830  0.363019  1
  Er  Er5  1  0.250000  0.133165  0.862883  1
  Er  Er6  1  0.750000  0.862964  0.135173  1
  Er  Er7  1  0.250000  0.637488  0.637339  1
  Si  Si8  1  0.750000  0.261316  0.061063  1
  Si  Si9  1  0.250000  0.732287  0.932183  1
  Si  Si10  1  0.750000  0.774335  0.432881  1
  Si  Si11  1  0.250000  0.230440  0.575718  1
  Si  Si12  1  0.750000  0.841539  0.819754  1
  Si  Si13  1  0.250000  0.152043  0.173055  1
  Si  Si14  1  0.750000  0.342863  0.684943  1
  Si  Si15  1  0.250000  0.667342  0.319158  1
