# generated using pymatgen
data_CaErPa2(Al3Rh)6
_symmetry_space_group_name_H-M   'P 1'
_cell_length_a   7.59784012
_cell_length_b   7.59469091
_cell_length_c   9.39324100
_cell_angle_alpha   90.00000000
_cell_angle_beta   90.00000000
_cell_angle_gamma   119.55926955
_symmetry_Int_Tables_number   1
_chemical_formula_structural   CaErPa2(Al3Rh)6
_chemical_formula_sum   'Ca1 Er1 Pa2 Al18 Rh6'
_cell_volume   471.47428631
_cell_formula_units_Z   1
loop_
 _symmetry_equiv_pos_site_id
 _symmetry_equiv_pos_as_xyz
  1  'x, y, z'
loop_
 _atom_site_type_symbol
 _atom_site_label
 _atom_site_symmetry_multiplicity
 _atom_site_fract_x
 _atom_site_fract_y
 _atom_site_fract_z
 _atom_site_occupancy
  Ca  Ca0  1  0.670656  0.993878  0.750000  1
  Er  Er1  1  0.330369  0.006439  0.250000  1
  Pa  Pa2  1  0.997121  0.671605  0.750000  1
  Pa  Pa3  1  0.002591  0.327910  0.250000  1
  Al  Al4  1  0.131103  0.126069  0.750000  1
  Al  Al5  1  0.870263  0.873400  0.250000  1
  Al  Al6  1  0.000052  0.332099  0.577961  1
  Al  Al7  1  0.999737  0.667794  0.421571  1
  Al  Al8  1  0.999737  0.667794  0.078429  1
  Al  Al9  1  0.338350  0.002667  0.924993  1
  Al  Al10  1  0.000052  0.332099  0.922039  1
  Al  Al11  1  0.661725  0.997104  0.074830  1
  Al  Al12  1  0.661725  0.997104  0.425170  1
  Al  Al13  1  0.338350  0.002667  0.575007  1
  Al  Al14  1  0.334776  0.332965  0.053168  1
  Al  Al15  1  0.664849  0.666681  0.947808  1
  Al  Al16  1  0.664849  0.666681  0.552192  1
  Al  Al17  1  0.334776  0.332965  0.446832  1
  Al  Al18  1  0.338377  0.548191  0.750000  1
  Al  Al19  1  0.659809  0.451255  0.250000  1
  Al  Al20  1  0.550146  0.344001  0.750000  1
  Al  Al21  1  0.450761  0.658948  0.250000  1
  Rh  Rh22  1  0.674689  0.330047  0.498256  1
  Rh  Rh23  1  0.323699  0.669631  0.499040  1
  Rh  Rh24  1  0.323699  0.669631  0.000960  1
  Rh  Rh25  1  0.674689  0.330047  0.001744  1
  Rh  Rh26  1  0.001525  0.000163  0.498684  1
  Rh  Rh27  1  0.001525  0.000163  0.001316  1
