# generated using pymatgen
data_Ho3Lu5(AgPd)2
_symmetry_space_group_name_H-M   'P 1'
_cell_length_a   9.49837385
_cell_length_b   9.49837426
_cell_length_c   9.49837500
_cell_angle_alpha   60.00000091
_cell_angle_beta   59.99999946
_cell_angle_gamma   59.99999707
_symmetry_Int_Tables_number   1
_chemical_formula_structural   Ho3Lu5(AgPd)2
_chemical_formula_sum   'Ho6 Lu10 Ag4 Pd4'
_cell_volume   605.94449227
_cell_formula_units_Z   2
loop_
 _symmetry_equiv_pos_site_id
 _symmetry_equiv_pos_as_xyz
  1  'x, y, z'
loop_
 _atom_site_type_symbol
 _atom_site_label
 _atom_site_symmetry_multiplicity
 _atom_site_fract_x
 _atom_site_fract_y
 _atom_site_fract_z
 _atom_site_occupancy
  Ho  Ho0  1  0.935152  0.564848  0.564848  1
  Ho  Ho1  1  0.564848  0.935152  0.935152  1
  Ho  Ho2  1  0.564848  0.935152  0.564848  1
  Ho  Ho3  1  0.935152  0.564848  0.935152  1
  Ho  Ho4  1  0.564848  0.564848  0.935152  1
  Ho  Ho5  1  0.935152  0.935152  0.564848  1
  Lu  Lu6  1  0.357853  0.357853  0.357853  1
  Lu  Lu7  1  0.357853  0.357853  0.926443  1
  Lu  Lu8  1  0.357853  0.926443  0.357853  1
  Lu  Lu9  1  0.926443  0.357853  0.357853  1
  Lu  Lu10  1  0.813737  0.186263  0.186263  1
  Lu  Lu11  1  0.186263  0.813737  0.813737  1
  Lu  Lu12  1  0.186263  0.813737  0.186263  1
  Lu  Lu13  1  0.813737  0.186263  0.813737  1
  Lu  Lu14  1  0.186263  0.186263  0.813737  1
  Lu  Lu15  1  0.813737  0.813737  0.186263  1
  Ag  Ag16  1  0.582755  0.582755  0.582755  1
  Ag  Ag17  1  0.582755  0.582755  0.251733  1
  Ag  Ag18  1  0.582755  0.251733  0.582755  1
  Ag  Ag19  1  0.251733  0.582755  0.582755  1
  Pd  Pd20  1  0.146590  0.146590  0.146590  1
  Pd  Pd21  1  0.146590  0.146590  0.560231  1
  Pd  Pd22  1  0.146590  0.560231  0.146590  1
  Pd  Pd23  1  0.560231  0.146590  0.146590  1
