# generated using pymatgen
data_CaNd3(Si3Ni5)4
_symmetry_space_group_name_H-M   'P 1'
_cell_length_a   3.83115900
_cell_length_b   18.91675559
_cell_length_c   6.62018298
_cell_angle_alpha   90.14036916
_cell_angle_beta   90.00000000
_cell_angle_gamma   90.00000000
_symmetry_Int_Tables_number   1
_chemical_formula_structural   CaNd3(Si3Ni5)4
_chemical_formula_sum   'Ca1 Nd3 Si12 Ni20'
_cell_volume   479.78373281
_cell_formula_units_Z   1
loop_
 _symmetry_equiv_pos_site_id
 _symmetry_equiv_pos_as_xyz
  1  'x, y, z'
loop_
 _atom_site_type_symbol
 _atom_site_label
 _atom_site_symmetry_multiplicity
 _atom_site_fract_x
 _atom_site_fract_y
 _atom_site_fract_z
 _atom_site_occupancy
  Ca  Ca0  1  0.750000  0.143060  0.378887  1
  Nd  Nd1  1  0.750000  0.643146  0.123702  1
  Nd  Nd2  1  0.250000  0.356547  0.874877  1
  Nd  Nd3  1  0.250000  0.857561  0.624837  1
  Si  Si4  1  0.750000  0.736050  0.617371  1
  Si  Si5  1  0.250000  0.261982  0.382928  1
  Si  Si6  1  0.250000  0.764842  0.116327  1
  Si  Si7  1  0.750000  0.235402  0.882266  1
  Si  Si8  1  0.750000  0.928253  0.340519  1
  Si  Si9  1  0.250000  0.073353  0.657456  1
  Si  Si10  1  0.250000  0.571128  0.839015  1
  Si  Si11  1  0.750000  0.427468  0.159844  1
  Si  Si12  1  0.750000  0.915194  0.928989  1
  Si  Si13  1  0.250000  0.087644  0.077960  1
  Si  Si14  1  0.250000  0.586902  0.430347  1
  Si  Si15  1  0.750000  0.411773  0.567341  1
  Ni  Ni16  1  0.750000  0.801940  0.309506  1
  Ni  Ni17  1  0.250000  0.198146  0.690143  1
  Ni  Ni18  1  0.250000  0.698721  0.809392  1
  Ni  Ni19  1  0.750000  0.299993  0.190458  1
  Ni  Ni20  1  0.750000  0.995907  0.636240  1
  Ni  Ni21  1  0.250000  0.005629  0.363771  1
  Ni  Ni22  1  0.250000  0.504826  0.137499  1
  Ni  Ni23  1  0.750000  0.493634  0.861262  1
  Ni  Ni24  1  0.750000  0.516214  0.390389  1
  Ni  Ni25  1  0.250000  0.482494  0.607787  1
  Ni  Ni26  1  0.250000  0.985863  0.891097  1
  Ni  Ni27  1  0.750000  0.018090  0.114884  1
  Ni  Ni28  1  0.750000  0.793158  0.927067  1
  Ni  Ni29  1  0.250000  0.207141  0.072089  1
  Ni  Ni30  1  0.250000  0.708640  0.426549  1
  Ni  Ni31  1  0.750000  0.290006  0.570269  1
  Ni  Ni32  1  0.750000  0.615270  0.646637  1
  Ni  Ni33  1  0.250000  0.383118  0.353214  1
  Ni  Ni34  1  0.250000  0.885743  0.144488  1
  Ni  Ni35  1  0.750000  0.115163  0.854595  1
