# generated using pymatgen
data_CeDyHoIn5
_symmetry_space_group_name_H-M   'P 1'
_cell_length_a   6.47446762
_cell_length_b   6.47446846
_cell_length_c   10.36294800
_cell_angle_alpha   90.00000000
_cell_angle_beta   90.00000000
_cell_angle_gamma   102.46700525
_symmetry_Int_Tables_number   1
_chemical_formula_structural   CeDyHoIn5
_chemical_formula_sum   'Ce2 Dy2 Ho2 In10'
_cell_volume   424.15870523
_cell_formula_units_Z   2
loop_
 _symmetry_equiv_pos_site_id
 _symmetry_equiv_pos_as_xyz
  1  'x, y, z'
loop_
 _atom_site_type_symbol
 _atom_site_label
 _atom_site_symmetry_multiplicity
 _atom_site_fract_x
 _atom_site_fract_y
 _atom_site_fract_z
 _atom_site_occupancy
  Ce  Ce0  1  0.204526  0.795474  0.500000  1
  Ce  Ce1  1  0.204526  0.795474  0.000000  1
  Dy  Dy2  1  0.795889  0.204111  0.500000  1
  Dy  Dy3  1  0.795889  0.204111  0.000000  1
  Ho  Ho4  1  0.623779  0.623295  0.250000  1
  Ho  Ho5  1  0.376705  0.376221  0.750000  1
  In  In6  1  0.008900  0.009485  0.250000  1
  In  In7  1  0.990515  0.991100  0.750000  1
  In  In8  1  0.308138  0.308442  0.045981  1
  In  In9  1  0.691558  0.691862  0.954019  1
  In  In10  1  0.308138  0.308442  0.454019  1
  In  In11  1  0.691558  0.691862  0.545981  1
  In  In12  1  0.507070  0.070796  0.250000  1
  In  In13  1  0.929204  0.492930  0.750000  1
  In  In14  1  0.494458  0.930854  0.750000  1
  In  In15  1  0.069146  0.505542  0.250000  1
