# generated using pymatgen
data_Al5GaFe2Si2(BO9)2
_symmetry_space_group_name_H-M   'P 1'
_cell_length_a   5.83352700
_cell_length_b   10.46132300
_cell_length_c   11.23762700
_cell_angle_alpha   90.00000000
_cell_angle_beta   90.00000000
_cell_angle_gamma   90.00000000
_symmetry_Int_Tables_number   1
_chemical_formula_structural   Al5GaFe2Si2(BO9)2
_chemical_formula_sum   'Al10 Ga2 Fe4 Si4 B4 O36'
_cell_volume   685.79203471
_cell_formula_units_Z   2
loop_
 _symmetry_equiv_pos_site_id
 _symmetry_equiv_pos_as_xyz
  1  'x, y, z'
loop_
 _atom_site_type_symbol
 _atom_site_label
 _atom_site_symmetry_multiplicity
 _atom_site_fract_x
 _atom_site_fract_y
 _atom_site_fract_z
 _atom_site_occupancy
  Al  Al0  1  0.750000  0.772746  0.448024  1
  Al  Al1  1  0.250000  0.227254  0.551976  1
  Al  Al2  1  0.000000  0.500000  0.000000  1
  Al  Al3  1  0.000000  0.000000  0.500000  1
  Al  Al4  1  0.500000  0.500000  0.000000  1
  Al  Al5  1  0.500000  0.000000  0.500000  1
  Al  Al6  1  0.000000  0.000000  0.000000  1
  Al  Al7  1  0.000000  0.500000  0.500000  1
  Al  Al8  1  0.500000  0.000000  0.000000  1
  Al  Al9  1  0.500000  0.500000  0.500000  1
  Ga  Ga10  1  0.250000  0.270743  0.054098  1
  Ga  Ga11  1  0.750000  0.729257  0.945902  1
  Fe  Fe12  1  0.250000  0.409083  0.282133  1
  Fe  Fe13  1  0.750000  0.590917  0.717867  1
  Fe  Fe14  1  0.750000  0.908476  0.220258  1
  Fe  Fe15  1  0.250000  0.091524  0.779742  1
  Si  Si16  1  0.250000  0.063834  0.238478  1
  Si  Si17  1  0.750000  0.936166  0.761522  1
  Si  Si18  1  0.750000  0.565447  0.263403  1
  Si  Si19  1  0.250000  0.434553  0.736597  1
  B  B20  1  0.250000  0.747955  0.001411  1
  B  B21  1  0.750000  0.252045  0.998589  1
  B  B22  1  0.750000  0.248806  0.500344  1
  B  B23  1  0.250000  0.751194  0.499656  1
  O  O24  1  0.049423  0.678362  0.004172  1
  O  O25  1  0.950577  0.321638  0.995828  1
  O  O26  1  0.954363  0.180875  0.499191  1
  O  O27  1  0.549423  0.321638  0.995828  1
  O  O28  1  0.045637  0.819125  0.500809  1
  O  O29  1  0.450577  0.678362  0.004172  1
  O  O30  1  0.454363  0.819125  0.500809  1
  O  O31  1  0.545637  0.180875  0.499191  1
  O  O32  1  0.026110  0.006285  0.169448  1
  O  O33  1  0.973890  0.993715  0.830552  1
  O  O34  1  0.974013  0.505865  0.331102  1
  O  O35  1  0.526110  0.993715  0.830552  1
  O  O36  1  0.025987  0.494135  0.668898  1
  O  O37  1  0.473890  0.006285  0.169448  1
  O  O38  1  0.474013  0.494135  0.668898  1
  O  O39  1  0.525987  0.505865  0.331102  1
  O  O40  1  0.250000  0.457057  0.097886  1
  O  O41  1  0.750000  0.542943  0.902114  1
  O  O42  1  0.750000  0.952834  0.404276  1
  O  O43  1  0.250000  0.047166  0.595724  1
  O  O44  1  0.250000  0.221507  0.217413  1
  O  O45  1  0.750000  0.778493  0.782587  1
  O  O46  1  0.750000  0.722416  0.291650  1
  O  O47  1  0.250000  0.277584  0.708350  1
  O  O48  1  0.250000  0.023403  0.379444  1
  O  O49  1  0.750000  0.976597  0.620556  1
  O  O50  1  0.750000  0.525488  0.121942  1
  O  O51  1  0.250000  0.474512  0.878058  1
  O  O52  1  0.250000  0.382822  0.480851  1
  O  O53  1  0.750000  0.617178  0.519149  1
  O  O54  1  0.750000  0.887537  0.022929  1
  O  O55  1  0.250000  0.112463  0.977071  1
  O  O56  1  0.250000  0.621728  0.494954  1
  O  O57  1  0.750000  0.378272  0.505046  1
  O  O58  1  0.750000  0.122659  0.005130  1
  O  O59  1  0.250000  0.877341  0.994870  1
