# generated using pymatgen
data_Ac3(Ag2Pt)2
_symmetry_space_group_name_H-M   'P 1'
_cell_length_a   7.95566100
_cell_length_b   7.95566079
_cell_length_c   4.17434400
_cell_angle_alpha   90.00000000
_cell_angle_beta   90.00000000
_cell_angle_gamma   120.00000503
_symmetry_Int_Tables_number   1
_chemical_formula_structural   Ac3(Ag2Pt)2
_chemical_formula_sum   'Ac3 Ag4 Pt2'
_cell_volume   228.80808800
_cell_formula_units_Z   1
loop_
 _symmetry_equiv_pos_site_id
 _symmetry_equiv_pos_as_xyz
  1  'x, y, z'
loop_
 _atom_site_type_symbol
 _atom_site_label
 _atom_site_symmetry_multiplicity
 _atom_site_fract_x
 _atom_site_fract_y
 _atom_site_fract_z
 _atom_site_occupancy
  Ac  Ac0  1  0.000000  0.587644  0.500000  1
  Ac  Ac1  1  0.587644  0.000000  0.500000  1
  Ac  Ac2  1  0.412356  0.412356  0.500000  1
  Ag  Ag3  1  0.000000  0.244670  0.000000  1
  Ag  Ag4  1  0.244670  0.000000  0.000000  1
  Ag  Ag5  1  0.755330  0.755330  0.000000  1
  Ag  Ag6  1  0.000000  0.000000  0.500000  1
  Pt  Pt7  1  0.666667  0.333333  0.000000  1
  Pt  Pt8  1  0.333333  0.666667  0.000000  1
