# generated using pymatgen
data_Y6Fe4Co13P12Ru
_symmetry_space_group_name_H-M   'P 1'
_cell_length_a   3.72154100
_cell_length_b   10.61580452
_cell_length_c   12.15749561
_cell_angle_alpha   89.96388112
_cell_angle_beta   90.00000000
_cell_angle_gamma   90.00000000
_symmetry_Int_Tables_number   1
_chemical_formula_structural   Y6Fe4Co13P12Ru
_chemical_formula_sum   'Y6 Fe4 Co13 P12 Ru1'
_cell_volume   480.30792886
_cell_formula_units_Z   1
loop_
 _symmetry_equiv_pos_site_id
 _symmetry_equiv_pos_as_xyz
  1  'x, y, z'
loop_
 _atom_site_type_symbol
 _atom_site_label
 _atom_site_symmetry_multiplicity
 _atom_site_fract_x
 _atom_site_fract_y
 _atom_site_fract_z
 _atom_site_occupancy
  Y  Y0  1  0.000000  0.499776  0.525709  1
  Y  Y1  1  0.500000  0.000067  0.478378  1
  Y  Y2  1  0.500000  0.819588  0.204056  1
  Y  Y3  1  0.500000  0.181198  0.203573  1
  Y  Y4  1  0.000000  0.681460  0.795677  1
  Y  Y5  1  0.000000  0.318259  0.795872  1
  Fe  Fe6  1  0.000000  0.999099  0.844587  1
  Fe  Fe7  1  0.000000  0.500995  0.988206  1
  Fe  Fe8  1  0.500000  0.997933  0.011545  1
  Fe  Fe9  1  0.000000  0.167252  0.004053  1
  Co  Co10  1  0.500000  0.500051  0.700899  1
  Co  Co11  1  0.000000  0.999873  0.298351  1
  Co  Co12  1  0.500000  0.333920  0.991792  1
  Co  Co13  1  0.500000  0.668701  0.991441  1
  Co  Co14  1  0.000000  0.830931  0.005196  1
  Co  Co15  1  0.500000  0.296695  0.430219  1
  Co  Co16  1  0.500000  0.703119  0.430029  1
  Co  Co17  1  0.000000  0.203251  0.569187  1
  Co  Co18  1  0.000000  0.796010  0.568870  1
  Co  Co19  1  0.500000  0.878888  0.708906  1
  Co  Co20  1  0.500000  0.121124  0.710678  1
  Co  Co21  1  0.000000  0.620592  0.291995  1
  Co  Co22  1  0.000000  0.379419  0.291515  1
  P  P23  1  0.500000  0.500545  0.883259  1
  P  P24  1  0.000000  0.000731  0.113972  1
  P  P25  1  0.500000  0.499856  0.348315  1
  P  P26  1  0.000000  0.000173  0.659159  1
  P  P27  1  0.500000  0.308823  0.616987  1
  P  P28  1  0.500000  0.690583  0.616527  1
  P  P29  1  0.000000  0.189047  0.383225  1
  P  P30  1  0.000000  0.811081  0.383450  1
  P  P31  1  0.500000  0.848209  0.893074  1
  P  P32  1  0.500000  0.152452  0.896264  1
  P  P33  1  0.000000  0.654497  0.104644  1
  P  P34  1  0.000000  0.344815  0.103011  1
  Ru  Ru35  1  0.500000  0.500988  0.157379  1
