# generated using pymatgen
data_Cs4CrReP4
_symmetry_space_group_name_H-M   'P 1'
_cell_length_a   8.71612566
_cell_length_b   8.71612638
_cell_length_c   8.71612624
_cell_angle_alpha   139.96068079
_cell_angle_beta   125.03311171
_cell_angle_gamma   70.14427068
_symmetry_Int_Tables_number   1
_chemical_formula_structural   Cs4CrReP4
_chemical_formula_sum   'Cs4 Cr1 Re1 P4'
_cell_volume   342.48139965
_cell_formula_units_Z   1
loop_
 _symmetry_equiv_pos_site_id
 _symmetry_equiv_pos_as_xyz
  1  'x, y, z'
loop_
 _atom_site_type_symbol
 _atom_site_label
 _atom_site_symmetry_multiplicity
 _atom_site_fract_x
 _atom_site_fract_y
 _atom_site_fract_z
 _atom_site_occupancy
  Cs  Cs0  1  0.987270  0.152017  0.835686  1
  Cs  Cs1  1  0.012730  0.848418  0.164749  1
  Cs  Cs2  1  0.683669  0.347983  0.335251  1
  Cs  Cs3  1  0.316331  0.651582  0.664314  1
  Cr  Cr4  1  0.500000  0.750000  0.250000  1
  Re  Re5  1  0.500000  0.250000  0.750000  1
  P  P6  1  0.737734  0.592915  0.158645  1
  P  P7  1  0.565730  0.907085  0.644819  1
  P  P8  1  0.434270  0.079089  0.341355  1
  P  P9  1  0.262266  0.420911  0.855181  1
