# generated using pymatgen
data_Sc12Co4GeRh
_symmetry_space_group_name_H-M   'P 1'
_cell_length_a   7.64863378
_cell_length_b   7.64863356
_cell_length_c   7.64863292
_cell_angle_alpha   110.76395022
_cell_angle_beta   110.90317876
_cell_angle_gamma   106.77963164
_symmetry_Int_Tables_number   1
_chemical_formula_structural   Sc12Co4GeRh
_chemical_formula_sum   'Sc12 Co4 Ge1 Rh1'
_cell_volume   343.88547385
_cell_formula_units_Z   1
loop_
 _symmetry_equiv_pos_site_id
 _symmetry_equiv_pos_as_xyz
  1  'x, y, z'
loop_
 _atom_site_type_symbol
 _atom_site_label
 _atom_site_symmetry_multiplicity
 _atom_site_fract_x
 _atom_site_fract_y
 _atom_site_fract_z
 _atom_site_occupancy
  Sc  Sc0  1  0.425386  0.227115  0.198271  1
  Sc  Sc1  1  0.574614  0.772885  0.801729  1
  Sc  Sc2  1  0.028844  0.227115  0.801729  1
  Sc  Sc3  1  0.971156  0.772885  0.198271  1
  Sc  Sc4  1  0.315685  0.614512  0.298825  1
  Sc  Sc5  1  0.684315  0.385488  0.701175  1
  Sc  Sc6  1  0.315685  0.016859  0.701175  1
  Sc  Sc7  1  0.684315  0.983141  0.298825  1
  Sc  Sc8  1  0.187104  0.280649  0.467753  1
  Sc  Sc9  1  0.812896  0.719350  0.532247  1
  Sc  Sc10  1  0.187104  0.719350  0.906454  1
  Sc  Sc11  1  0.812896  0.280649  0.093546  1
  Co  Co12  1  0.363149  0.000000  0.363149  1
  Co  Co13  1  0.636851  0.000000  0.636851  1
  Co  Co14  1  0.119722  0.619722  0.500000  1
  Co  Co15  1  0.880278  0.380278  0.500000  1
  Ge  Ge16  1  0.500000  0.500000  0.000000  1
  Rh  Rh17  1  0.000000  0.000000  0.000000  1
