# generated using pymatgen
data_Sc5In4GaRh
_symmetry_space_group_name_H-M   'P 1'
_cell_length_a   3.37592900
_cell_length_b   7.84094581
_cell_length_c   17.65242121
_cell_angle_alpha   88.91628707
_cell_angle_beta   90.00000000
_cell_angle_gamma   90.00000000
_symmetry_Int_Tables_number   1
_chemical_formula_structural   Sc5In4GaRh
_chemical_formula_sum   'Sc10 In8 Ga2 Rh2'
_cell_volume   467.18441751
_cell_formula_units_Z   2
loop_
 _symmetry_equiv_pos_site_id
 _symmetry_equiv_pos_as_xyz
  1  'x, y, z'
loop_
 _atom_site_type_symbol
 _atom_site_label
 _atom_site_symmetry_multiplicity
 _atom_site_fract_x
 _atom_site_fract_y
 _atom_site_fract_z
 _atom_site_occupancy
  Sc  Sc0  1  0.000000  0.000000  0.000000  1
  Sc  Sc1  1  0.000000  0.500000  0.500000  1
  Sc  Sc2  1  0.000000  0.734756  0.783480  1
  Sc  Sc3  1  0.000000  0.265244  0.216520  1
  Sc  Sc4  1  0.000000  0.275105  0.723119  1
  Sc  Sc5  1  0.000000  0.724895  0.276881  1
  Sc  Sc6  1  0.000000  0.872628  0.576589  1
  Sc  Sc7  1  0.000000  0.127372  0.423411  1
  Sc  Sc8  1  0.000000  0.374706  0.917491  1
  Sc  Sc9  1  0.000000  0.625294  0.082509  1
  In  In10  1  0.500000  0.794567  0.431192  1
  In  In11  1  0.500000  0.205433  0.568808  1
  In  In12  1  0.500000  0.298042  0.065533  1
  In  In13  1  0.500000  0.701958  0.934467  1
  In  In14  1  0.500000  0.922951  0.148363  1
  In  In15  1  0.500000  0.077049  0.851637  1
  In  In16  1  0.500000  0.426670  0.352415  1
  In  In17  1  0.500000  0.573330  0.647585  1
  Ga  Ga18  1  0.500000  0.968465  0.696313  1
  Ga  Ga19  1  0.500000  0.031535  0.303687  1
  Rh  Rh20  1  0.500000  0.465435  0.805830  1
  Rh  Rh21  1  0.500000  0.534565  0.194170  1
