# generated using pymatgen
data_Dy3Tl2Cd3Ag
_symmetry_space_group_name_H-M   'P 1'
_cell_length_a   7.56481400
_cell_length_b   7.56481491
_cell_length_c   4.47036200
_cell_angle_alpha   90.00000000
_cell_angle_beta   90.00000000
_cell_angle_gamma   120.00001349
_symmetry_Int_Tables_number   1
_chemical_formula_structural   Dy3Tl2Cd3Ag
_chemical_formula_sum   'Dy3 Tl2 Cd3 Ag1'
_cell_volume   221.54901649
_cell_formula_units_Z   1
loop_
 _symmetry_equiv_pos_site_id
 _symmetry_equiv_pos_as_xyz
  1  'x, y, z'
loop_
 _atom_site_type_symbol
 _atom_site_label
 _atom_site_symmetry_multiplicity
 _atom_site_fract_x
 _atom_site_fract_y
 _atom_site_fract_z
 _atom_site_occupancy
  Dy  Dy0  1  0.585021  0.000000  0.000000  1
  Dy  Dy1  1  0.000000  0.585021  0.000000  1
  Dy  Dy2  1  0.414979  0.414979  0.000000  1
  Tl  Tl3  1  0.333333  0.666667  0.500000  1
  Tl  Tl4  1  0.666667  0.333333  0.500000  1
  Cd  Cd5  1  0.239153  0.000000  0.500000  1
  Cd  Cd6  1  0.000000  0.239153  0.500000  1
  Cd  Cd7  1  0.760847  0.760847  0.500000  1
  Ag  Ag8  1  0.000000  0.000000  0.000000  1
