# generated using pymatgen
data_HoTmZn(Co2B)3
_symmetry_space_group_name_H-M   'P 1'
_cell_length_a   5.05940900
_cell_length_b   5.05940949
_cell_length_c   12.59867000
_cell_angle_alpha   90.00000000
_cell_angle_beta   90.00000000
_cell_angle_gamma   120.00000333
_symmetry_Int_Tables_number   1
_chemical_formula_structural   HoTmZn(Co2B)3
_chemical_formula_sum   'Ho2 Tm2 Zn2 Co12 B6'
_cell_volume   279.28971167
_cell_formula_units_Z   2
loop_
 _symmetry_equiv_pos_site_id
 _symmetry_equiv_pos_as_xyz
  1  'x, y, z'
loop_
 _atom_site_type_symbol
 _atom_site_label
 _atom_site_symmetry_multiplicity
 _atom_site_fract_x
 _atom_site_fract_y
 _atom_site_fract_z
 _atom_site_occupancy
  Ho  Ho0  1  0.000000  0.000000  0.000344  1
  Ho  Ho1  1  0.000000  0.000000  0.739070  1
  Tm  Tm2  1  0.000000  0.000000  0.499925  1
  Tm  Tm3  1  0.000000  0.000000  0.260654  1
  Zn  Zn4  1  0.666667  0.333333  0.000104  1
  Zn  Zn5  1  0.333333  0.666667  0.000104  1
  Co  Co6  1  0.500000  0.500000  0.839296  1
  Co  Co7  1  0.500000  0.000000  0.839296  1
  Co  Co8  1  0.000000  0.500000  0.839296  1
  Co  Co9  1  0.500000  0.500000  0.161036  1
  Co  Co10  1  0.500000  0.000000  0.161036  1
  Co  Co11  1  0.000000  0.500000  0.161036  1
  Co  Co12  1  0.500000  0.500000  0.613761  1
  Co  Co13  1  0.500000  0.000000  0.613761  1
  Co  Co14  1  0.000000  0.500000  0.613761  1
  Co  Co15  1  0.500000  0.500000  0.385942  1
  Co  Co16  1  0.500000  0.000000  0.385942  1
  Co  Co17  1  0.000000  0.500000  0.385942  1
  B  B18  1  0.666667  0.333333  0.499956  1
  B  B19  1  0.333333  0.666667  0.499956  1
  B  B20  1  0.666667  0.333333  0.730546  1
  B  B21  1  0.333333  0.666667  0.730546  1
  B  B22  1  0.333333  0.666667  0.269345  1
  B  B23  1  0.666667  0.333333  0.269345  1
