# generated using pymatgen
data_Sr2In(SiPd2)6
_symmetry_space_group_name_H-M   'P 1'
_cell_length_a   10.36975400
_cell_length_b   10.36975279
_cell_length_c   3.83534600
_cell_angle_alpha   90.00000000
_cell_angle_beta   90.00000000
_cell_angle_gamma   120.00000385
_symmetry_Int_Tables_number   1
_chemical_formula_structural   Sr2In(SiPd2)6
_chemical_formula_sum   'Sr2 In1 Si6 Pd12'
_cell_volume   357.16757171
_cell_formula_units_Z   1
loop_
 _symmetry_equiv_pos_site_id
 _symmetry_equiv_pos_as_xyz
  1  'x, y, z'
loop_
 _atom_site_type_symbol
 _atom_site_label
 _atom_site_symmetry_multiplicity
 _atom_site_fract_x
 _atom_site_fract_y
 _atom_site_fract_z
 _atom_site_occupancy
  Sr  Sr0  1  0.666667  0.333333  0.245902  1
  Sr  Sr1  1  0.000000  0.000000  0.752324  1
  In  In2  1  0.333333  0.666667  0.460608  1
  Si  Si3  1  0.735399  0.777477  0.254016  1
  Si  Si4  1  0.042078  0.264601  0.254016  1
  Si  Si5  1  0.222523  0.957922  0.254016  1
  Si  Si6  1  0.931656  0.557420  0.744518  1
  Si  Si7  1  0.625765  0.068344  0.744518  1
  Si  Si8  1  0.442580  0.374235  0.744518  1
  Pd  Pd9  1  0.773346  0.048310  0.251797  1
  Pd  Pd10  1  0.274964  0.226654  0.251797  1
  Pd  Pd11  1  0.951690  0.725036  0.251797  1
  Pd  Pd12  1  0.892638  0.282167  0.746885  1
  Pd  Pd13  1  0.389528  0.107362  0.746885  1
  Pd  Pd14  1  0.717833  0.610472  0.746885  1
  Pd  Pd15  1  0.491752  0.543061  0.240336  1
  Pd  Pd16  1  0.051307  0.508248  0.240336  1
  Pd  Pd17  1  0.456939  0.948693  0.240336  1
  Pd  Pd18  1  0.179292  0.787267  0.760009  1
  Pd  Pd19  1  0.607975  0.820708  0.760009  1
  Pd  Pd20  1  0.212733  0.392025  0.760009  1
