# generated using pymatgen
data_Dy11YIn8(GaO4)12
_symmetry_space_group_name_H-M   'P 1'
_cell_length_a   11.00844577
_cell_length_b   11.00803806
_cell_length_c   11.00804200
_cell_angle_alpha   109.46836390
_cell_angle_beta   109.47206188
_cell_angle_gamma   109.47192523
_symmetry_Int_Tables_number   1
_chemical_formula_structural   Dy11YIn8(GaO4)12
_chemical_formula_sum   'Dy11 Y1 In8 Ga12 O48'
_cell_volume   1026.90706685
_cell_formula_units_Z   1
loop_
 _symmetry_equiv_pos_site_id
 _symmetry_equiv_pos_as_xyz
  1  'x, y, z'
loop_
 _atom_site_type_symbol
 _atom_site_label
 _atom_site_symmetry_multiplicity
 _atom_site_fract_x
 _atom_site_fract_y
 _atom_site_fract_z
 _atom_site_occupancy
  Dy  Dy0  1  0.375009  0.750009  0.125023  1
  Dy  Dy1  1  0.249999  0.375000  0.125000  1
  Dy  Dy2  1  0.875030  0.624993  0.250055  1
  Dy  Dy3  1  0.375010  0.125000  0.249986  1
  Dy  Dy4  1  0.124991  0.250014  0.374999  1
  Dy  Dy5  1  0.750000  0.124999  0.374999  1
  Dy  Dy6  1  0.875030  0.750037  0.624974  1
  Dy  Dy7  1  0.249999  0.875000  0.625001  1
  Dy  Dy8  1  0.124992  0.374977  0.749991  1
  Dy  Dy9  1  0.624970  0.875025  0.749963  1
  Dy  Dy10  1  0.624970  0.249945  0.875007  1
  Y  Y11  1  0.750000  0.625000  0.875001  1
  In  In12  1  0.000089  0.000124  0.000043  1
  In  In13  1  0.499992  0.999998  0.999981  1
  In  In14  1  0.000087  0.499965  0.000046  1
  In  In15  1  0.499911  0.499953  0.000034  1
  In  In16  1  0.000010  0.999993  0.500003  1
  In  In17  1  0.499910  0.499956  0.499875  1
  In  In18  1  0.499990  0.999995  0.500009  1
  In  In19  1  0.000011  0.500015  0.500005  1
  Ga  Ga20  1  0.750001  0.875097  0.125098  1
  Ga  Ga21  1  0.874996  0.249994  0.124995  1
  Ga  Ga22  1  0.625003  0.375005  0.250005  1
  Ga  Ga23  1  0.125096  0.875092  0.250094  1
  Ga  Ga24  1  0.625003  0.749999  0.374999  1
  Ga  Ga25  1  0.250000  0.625011  0.375014  1
  Ga  Ga26  1  0.750000  0.374904  0.624903  1
  Ga  Ga27  1  0.374905  0.249906  0.624908  1
  Ga  Ga28  1  0.374906  0.624998  0.749997  1
  Ga  Ga29  1  0.874996  0.125003  0.750002  1
  Ga  Ga30  1  0.125094  0.750003  0.875001  1
  Ga  Ga31  1  0.250001  0.124996  0.874994  1
  O  O32  1  0.218919  0.130204  0.033557  1
  O  O33  1  0.314707  0.903387  0.033569  1
  O  O34  1  0.718885  0.685530  0.089130  1
  O  O35  1  0.869820  0.403353  0.088710  1
  O  O36  1  0.966858  0.685356  0.097049  1
  O  O37  1  0.630180  0.411291  0.096645  1
  O  O38  1  0.033544  0.218905  0.130182  1
  O  O39  1  0.596598  0.911311  0.130191  1
  O  O40  1  0.218918  0.588715  0.185361  1
  O  O41  1  0.466455  0.596639  0.185361  1
  O  O42  1  0.130174  0.033553  0.218891  1
  O  O43  1  0.588710  0.185348  0.218884  1
  O  O44  1  0.314708  0.911321  0.281140  1
  O  O45  1  0.466454  0.369815  0.281094  1
  O  O46  1  0.911290  0.281116  0.314652  1
  O  O47  1  0.903402  0.033594  0.314714  1
  O  O48  1  0.281081  0.466443  0.369797  1
  O  O49  1  0.588710  0.903360  0.369827  1
  O  O50  1  0.814665  0.533533  0.403363  1
  O  O51  1  0.088729  0.869866  0.403423  1
  O  O52  1  0.096641  0.630174  0.411293  1
  O  O53  1  0.814662  0.781131  0.411302  1
  O  O54  1  0.596597  0.185286  0.466406  1
  O  O55  1  0.369827  0.281108  0.466449  1
  O  O56  1  0.403359  0.814653  0.533533  1
  O  O57  1  0.630180  0.718889  0.533531  1
  O  O58  1  0.185294  0.218860  0.588679  1
  O  O59  1  0.903404  0.369809  0.588691  1
  O  O60  1  0.911290  0.130174  0.596637  1
  O  O61  1  0.185294  0.466434  0.596613  1
  O  O62  1  0.411267  0.096576  0.630131  1
  O  O63  1  0.718886  0.533358  0.629753  1
  O  O64  1  0.096642  0.966469  0.685349  1
  O  O65  1  0.088731  0.718863  0.685308  1
  O  O66  1  0.685336  0.088699  0.718870  1
  O  O67  1  0.533143  0.630189  0.718498  1
  O  O68  1  0.411268  0.814692  0.781136  1
  O  O69  1  0.869819  0.966464  0.781109  1
  O  O70  1  0.533141  0.402951  0.814643  1
  O  O71  1  0.781114  0.410868  0.814472  1
  O  O72  1  0.403359  0.088707  0.869827  1
  O  O73  1  0.966859  0.781501  0.869810  1
  O  O74  1  0.033546  0.314640  0.903362  1
  O  O75  1  0.369829  0.588718  0.903378  1
  O  O76  1  0.281082  0.314638  0.911286  1
  O  O77  1  0.130174  0.596622  0.911283  1
  O  O78  1  0.685337  0.096639  0.966469  1
  O  O79  1  0.781114  0.870245  0.966642  1
