# generated using pymatgen
data_Th2Si4Ni17Ir
_symmetry_space_group_name_H-M   'P 1'
_cell_length_a   7.64745563
_cell_length_b   7.64681989
_cell_length_c   7.64653746
_cell_angle_alpha   99.47998857
_cell_angle_beta   99.48235946
_cell_angle_gamma   132.10672440
_symmetry_Int_Tables_number   1
_chemical_formula_structural   Th2Si4Ni17Ir
_chemical_formula_sum   'Th2 Si4 Ni17 Ir1'
_cell_volume   303.19817102
_cell_formula_units_Z   1
loop_
 _symmetry_equiv_pos_site_id
 _symmetry_equiv_pos_as_xyz
  1  'x, y, z'
loop_
 _atom_site_type_symbol
 _atom_site_label
 _atom_site_symmetry_multiplicity
 _atom_site_fract_x
 _atom_site_fract_y
 _atom_site_fract_z
 _atom_site_occupancy
  Th  Th0  1  0.500042  0.500089  0.000001  1
  Th  Th1  1  0.749985  0.250025  0.499958  1
  Si  Si2  1  0.626506  0.875535  0.751022  1
  Si  Si3  1  0.124435  0.373477  0.248994  1
  Si  Si4  1  0.124467  0.875433  0.750974  1
  Si  Si5  1  0.124516  0.875496  0.249009  1
  Ni  Ni6  1  0.999991  0.000046  0.999985  1
  Ni  Ni7  1  0.689316  0.015685  0.079090  1
  Ni  Ni8  1  0.689320  0.610212  0.673629  1
  Ni  Ni9  1  0.267050  0.435514  0.581501  1
  Ni  Ni10  1  0.267044  0.685595  0.831595  1
  Ni  Ni11  1  0.936606  0.015685  0.326356  1
  Ni  Ni12  1  0.936644  0.610226  0.920960  1
  Ni  Ni13  1  0.853995  0.435446  0.168413  1
  Ni  Ni14  1  0.853995  0.685541  0.418489  1
  Ni  Ni15  1  0.564491  0.732921  0.418445  1
  Ni  Ni16  1  0.564563  0.146073  0.831612  1
  Ni  Ni17  1  0.984331  0.310670  0.920958  1
  Ni  Ni18  1  0.984298  0.063357  0.673689  1
  Ni  Ni19  1  0.314515  0.733029  0.168411  1
  Ni  Ni20  1  0.314509  0.146071  0.581519  1
  Ni  Ni21  1  0.389674  0.310587  0.326312  1
  Ni  Ni22  1  0.389701  0.063318  0.079064  1
  Ir  Ir23  1  0.250006  0.749970  0.500015  1
