# generated using pymatgen
data_Zr10GaCuBi5Pb
_symmetry_space_group_name_H-M   'P 1'
_cell_length_a   8.84320723
_cell_length_b   8.85560978
_cell_length_c   5.93746782
_cell_angle_alpha   90.03012253
_cell_angle_beta   89.93966395
_cell_angle_gamma   119.95368165
_symmetry_Int_Tables_number   1
_chemical_formula_structural   Zr10GaCuBi5Pb
_chemical_formula_sum   'Zr10 Ga1 Cu1 Bi5 Pb1'
_cell_volume   402.86769549
_cell_formula_units_Z   1
loop_
 _symmetry_equiv_pos_site_id
 _symmetry_equiv_pos_as_xyz
  1  'x, y, z'
loop_
 _atom_site_type_symbol
 _atom_site_label
 _atom_site_symmetry_multiplicity
 _atom_site_fract_x
 _atom_site_fract_y
 _atom_site_fract_z
 _atom_site_occupancy
  Zr  Zr0  1  0.736166  0.000000  0.247369  1
  Zr  Zr1  1  0.000527  0.737329  0.246535  1
  Zr  Zr2  1  0.263199  0.262671  0.246535  1
  Zr  Zr3  1  0.261141  0.000000  0.753473  1
  Zr  Zr4  1  0.000869  0.263362  0.753219  1
  Zr  Zr5  1  0.737506  0.736638  0.753219  1
  Zr  Zr6  1  0.334171  0.667863  0.498876  1
  Zr  Zr7  1  0.666308  0.332137  0.498876  1
  Zr  Zr8  1  0.666553  0.332697  0.000861  1
  Zr  Zr9  1  0.333855  0.667303  0.000861  1
  Ga  Ga10  1  0.000160  0.000000  0.499725  1
  Cu  Cu11  1  0.000583  0.000000  0.000074  1
  Bi  Bi12  1  0.999789  0.386838  0.249527  1
  Bi  Bi13  1  0.612951  0.613162  0.249527  1
  Bi  Bi14  1  0.612098  0.000000  0.751277  1
  Bi  Bi15  1  0.001204  0.613706  0.750226  1
  Bi  Bi16  1  0.387498  0.386294  0.750226  1
  Pb  Pb17  1  0.385421  0.000000  0.249596  1
