# generated using pymatgen
data_La6Pr2Co3Si12Pd
_symmetry_space_group_name_H-M   'P 1'
_cell_length_a   8.19296200
_cell_length_b   8.19296367
_cell_length_c   8.65260200
_cell_angle_alpha   90.00000000
_cell_angle_beta   90.00000000
_cell_angle_gamma   120.00000940
_symmetry_Int_Tables_number   1
_chemical_formula_structural   La6Pr2Co3Si12Pd
_chemical_formula_sum   'La6 Pr2 Co3 Si12 Pd1'
_cell_volume   502.98992705
_cell_formula_units_Z   1
loop_
 _symmetry_equiv_pos_site_id
 _symmetry_equiv_pos_as_xyz
  1  'x, y, z'
loop_
 _atom_site_type_symbol
 _atom_site_label
 _atom_site_symmetry_multiplicity
 _atom_site_fract_x
 _atom_site_fract_y
 _atom_site_fract_z
 _atom_site_occupancy
  La  La0  1  0.498116  0.501884  0.753391  1
  La  La1  1  0.498147  0.501853  0.246612  1
  La  La2  1  0.003767  0.501884  0.753391  1
  La  La3  1  0.003707  0.501853  0.246612  1
  La  La4  1  0.498116  0.996233  0.753391  1
  La  La5  1  0.498147  0.996293  0.246612  1
  Pr  Pr6  1  0.000000  0.000000  0.751075  1
  Pr  Pr7  1  0.000000  0.000000  0.248806  1
  Co  Co8  1  0.666667  0.333333  0.999465  1
  Co  Co9  1  0.333333  0.666667  0.000457  1
  Co  Co10  1  0.333333  0.666667  0.500176  1
  Si  Si11  1  0.829359  0.170641  0.000074  1
  Si  Si12  1  0.169846  0.830154  0.999939  1
  Si  Si13  1  0.341282  0.170641  0.000074  1
  Si  Si14  1  0.171200  0.828800  0.500079  1
  Si  Si15  1  0.660307  0.830154  0.999939  1
  Si  Si16  1  0.837106  0.162894  0.499938  1
  Si  Si17  1  0.829359  0.658718  0.000074  1
  Si  Si18  1  0.657602  0.828800  0.500079  1
  Si  Si19  1  0.169846  0.339693  0.999939  1
  Si  Si20  1  0.325788  0.162894  0.499938  1
  Si  Si21  1  0.171200  0.342398  0.500079  1
  Si  Si22  1  0.837106  0.674212  0.499938  1
  Pd  Pd23  1  0.666667  0.333333  0.499927  1
