# generated using pymatgen
data_Nd7(TmPb2)3
_symmetry_space_group_name_H-M   'P 1'
_cell_length_a   6.76673000
_cell_length_b   9.27225171
_cell_length_c   9.27233500
_cell_angle_alpha   119.99861619
_cell_angle_beta   90.00007278
_cell_angle_gamma   90.00073526
_symmetry_Int_Tables_number   1
_chemical_formula_structural   Nd7(TmPb2)3
_chemical_formula_sum   'Nd7 Tm3 Pb6'
_cell_volume   503.83677316
_cell_formula_units_Z   1
loop_
 _symmetry_equiv_pos_site_id
 _symmetry_equiv_pos_as_xyz
  1  'x, y, z'
loop_
 _atom_site_type_symbol
 _atom_site_label
 _atom_site_symmetry_multiplicity
 _atom_site_fract_x
 _atom_site_fract_y
 _atom_site_fract_z
 _atom_site_occupancy
  Nd  Nd0  1  0.499999  0.333323  0.666681  1
  Nd  Nd1  1  0.750844  0.239119  0.998946  1
  Nd  Nd2  1  0.750824  0.759814  0.760869  1
  Nd  Nd3  1  0.750828  0.001042  0.240188  1
  Nd  Nd4  1  0.249166  0.759830  0.998953  1
  Nd  Nd5  1  0.249169  0.239157  0.240194  1
  Nd  Nd6  1  0.249166  0.001064  0.760864  1
  Tm  Tm7  1  0.499995  0.666658  0.333324  1
  Tm  Tm8  1  0.999994  0.666669  0.333332  1
  Tm  Tm9  1  0.000007  0.333337  0.666669  1
  Pb  Pb10  1  0.754458  0.604179  0.004198  1
  Pb  Pb11  1  0.754445  0.400024  0.395821  1
  Pb  Pb12  1  0.754446  0.995793  0.599974  1
  Pb  Pb13  1  0.245545  0.400020  0.004200  1
  Pb  Pb14  1  0.245560  0.604179  0.599976  1
  Pb  Pb15  1  0.245555  0.995791  0.395815  1
