# generated using pymatgen
data_MgSc11(Si3Os)4
_symmetry_space_group_name_H-M   'P 1'
_cell_length_a   4.00065100
_cell_length_b   10.30317730
_cell_length_c   11.69050596
_cell_angle_alpha   89.88398829
_cell_angle_beta   90.00000000
_cell_angle_gamma   90.00000000
_symmetry_Int_Tables_number   1
_chemical_formula_structural   MgSc11(Si3Os)4
_chemical_formula_sum   'Mg1 Sc11 Si12 Os4'
_cell_volume   481.87484762
_cell_formula_units_Z   1
loop_
 _symmetry_equiv_pos_site_id
 _symmetry_equiv_pos_as_xyz
  1  'x, y, z'
loop_
 _atom_site_type_symbol
 _atom_site_label
 _atom_site_symmetry_multiplicity
 _atom_site_fract_x
 _atom_site_fract_y
 _atom_site_fract_z
 _atom_site_occupancy
  Mg  Mg0  1  0.250000  0.880088  0.018440  1
  Sc  Sc1  1  0.250000  0.623403  0.518418  1
  Sc  Sc2  1  0.750000  0.121796  0.981654  1
  Sc  Sc3  1  0.750000  0.376619  0.480439  1
  Sc  Sc4  1  0.250000  0.920573  0.603639  1
  Sc  Sc5  1  0.250000  0.580155  0.103333  1
  Sc  Sc6  1  0.750000  0.079116  0.398014  1
  Sc  Sc7  1  0.750000  0.422426  0.895168  1
  Sc  Sc8  1  0.250000  0.659756  0.798787  1
  Sc  Sc9  1  0.250000  0.842672  0.294752  1
  Sc  Sc10  1  0.750000  0.342052  0.201476  1
  Sc  Sc11  1  0.750000  0.159846  0.702015  1
  Si  Si12  1  0.250000  0.013508  0.820058  1
  Si  Si13  1  0.250000  0.484237  0.321610  1
  Si  Si14  1  0.750000  0.985508  0.182409  1
  Si  Si15  1  0.750000  0.514694  0.677678  1
  Si  Si16  1  0.250000  0.251460  0.844329  1
  Si  Si17  1  0.250000  0.248143  0.341888  1
  Si  Si18  1  0.750000  0.746484  0.158175  1
  Si  Si19  1  0.750000  0.750955  0.656914  1
  Si  Si20  1  0.250000  0.193192  0.545790  1
  Si  Si21  1  0.250000  0.306213  0.046224  1
  Si  Si22  1  0.750000  0.806776  0.453134  1
  Si  Si23  1  0.750000  0.693389  0.954315  1
  Os  Os24  1  0.250000  0.388315  0.677238  1
  Os  Os25  1  0.250000  0.109304  0.176222  1
  Os  Os26  1  0.750000  0.609391  0.324506  1
  Os  Os27  1  0.750000  0.889929  0.823374  1
