# generated using pymatgen
data_CeSmLu4(Co3P2)6
_symmetry_space_group_name_H-M   'P 1'
_cell_length_a   3.68747600
_cell_length_b   10.51072000
_cell_length_c   12.14950700
_cell_angle_alpha   90.00000000
_cell_angle_beta   90.00000000
_cell_angle_gamma   90.00000000
_symmetry_Int_Tables_number   1
_chemical_formula_structural   CeSmLu4(Co3P2)6
_chemical_formula_sum   'Ce1 Sm1 Lu4 Co18 P12'
_cell_volume   470.89092937
_cell_formula_units_Z   1
loop_
 _symmetry_equiv_pos_site_id
 _symmetry_equiv_pos_as_xyz
  1  'x, y, z'
loop_
 _atom_site_type_symbol
 _atom_site_label
 _atom_site_symmetry_multiplicity
 _atom_site_fract_x
 _atom_site_fract_y
 _atom_site_fract_z
 _atom_site_occupancy
  Ce  Ce0  1  0.500000  0.000000  0.473181  1
  Sm  Sm1  1  0.000000  0.500000  0.523099  1
  Lu  Lu2  1  0.500000  0.816874  0.204353  1
  Lu  Lu3  1  0.500000  0.183126  0.204353  1
  Lu  Lu4  1  0.000000  0.682813  0.795009  1
  Lu  Lu5  1  0.000000  0.317187  0.795009  1
  Co  Co6  1  0.500000  0.500000  0.157489  1
  Co  Co7  1  0.000000  0.000000  0.842852  1
  Co  Co8  1  0.500000  0.500000  0.706540  1
  Co  Co9  1  0.000000  0.000000  0.298025  1
  Co  Co10  1  0.000000  0.500000  0.985860  1
  Co  Co11  1  0.500000  0.000000  0.014694  1
  Co  Co12  1  0.500000  0.333047  0.994461  1
  Co  Co13  1  0.500000  0.666953  0.994461  1
  Co  Co14  1  0.000000  0.166556  0.005838  1
  Co  Co15  1  0.000000  0.833444  0.005838  1
  Co  Co16  1  0.500000  0.297194  0.429526  1
  Co  Co17  1  0.500000  0.702806  0.429526  1
  Co  Co18  1  0.000000  0.201368  0.569938  1
  Co  Co19  1  0.000000  0.798632  0.569938  1
  Co  Co20  1  0.500000  0.878930  0.711868  1
  Co  Co21  1  0.500000  0.121070  0.711868  1
  Co  Co22  1  0.000000  0.621391  0.287349  1
  Co  Co23  1  0.000000  0.378609  0.287349  1
  P  P24  1  0.500000  0.500000  0.882565  1
  P  P25  1  0.000000  0.000000  0.119050  1
  P  P26  1  0.500000  0.500000  0.341682  1
  P  P27  1  0.000000  0.000000  0.657996  1
  P  P28  1  0.500000  0.309388  0.618816  1
  P  P29  1  0.500000  0.690612  0.618816  1
  P  P30  1  0.000000  0.192980  0.381548  1
  P  P31  1  0.000000  0.807020  0.381548  1
  P  P32  1  0.500000  0.846396  0.893231  1
  P  P33  1  0.500000  0.153604  0.893231  1
  P  P34  1  0.000000  0.653830  0.106547  1
  P  P35  1  0.000000  0.346170  0.106547  1
