# generated using pymatgen
data_Er6Al4Pd3Pt10
_symmetry_space_group_name_H-M   'P 1'
_cell_length_a   8.20634859
_cell_length_b   8.20634957
_cell_length_c   8.20635000
_cell_angle_alpha   109.49970540
_cell_angle_beta   109.49970040
_cell_angle_gamma   109.49972154
_symmetry_Int_Tables_number   1
_chemical_formula_structural   Er6Al4Pd3Pt10
_chemical_formula_sum   'Er6 Al4 Pd3 Pt10'
_cell_volume   424.98068913
_cell_formula_units_Z   1
loop_
 _symmetry_equiv_pos_site_id
 _symmetry_equiv_pos_as_xyz
  1  'x, y, z'
loop_
 _atom_site_type_symbol
 _atom_site_label
 _atom_site_symmetry_multiplicity
 _atom_site_fract_x
 _atom_site_fract_y
 _atom_site_fract_z
 _atom_site_occupancy
  Er  Er0  1  0.699183  0.699183  0.002142  1
  Er  Er1  1  0.299310  0.999356  0.299310  1
  Er  Er2  1  0.999356  0.299310  0.299310  1
  Er  Er3  1  0.299310  0.299310  0.999356  1
  Er  Er4  1  0.699183  0.002142  0.699183  1
  Er  Er5  1  0.002142  0.699183  0.699183  1
  Al  Al6  1  0.999891  0.999891  0.499852  1
  Al  Al7  1  0.999891  0.499852  0.999891  1
  Al  Al8  1  0.499852  0.999891  0.999891  1
  Al  Al9  1  0.499428  0.499428  0.499428  1
  Pd  Pd10  1  0.676826  0.676826  0.352852  1
  Pd  Pd11  1  0.676826  0.352852  0.676826  1
  Pd  Pd12  1  0.352852  0.676826  0.676826  1
  Pt  Pt13  1  0.322969  0.322969  0.641859  1
  Pt  Pt14  1  0.680791  0.002125  0.323687  1
  Pt  Pt15  1  0.002125  0.680791  0.323687  1
  Pt  Pt16  1  0.680791  0.323687  0.002125  1
  Pt  Pt17  1  0.322969  0.641859  0.322969  1
  Pt  Pt18  1  0.002125  0.323687  0.680791  1
  Pt  Pt19  1  0.323687  0.680791  0.002125  1
  Pt  Pt20  1  0.323687  0.002125  0.680791  1
  Pt  Pt21  1  0.641859  0.322969  0.322969  1
  Pt  Pt22  1  0.994949  0.994949  0.994949  1
