# generated using pymatgen
data_Dy3BBr3
_symmetry_space_group_name_H-M   'P 1'
_cell_length_a   9.73658864
_cell_length_b   9.73658741
_cell_length_c   9.73658800
_cell_angle_alpha   109.47121977
_cell_angle_beta   109.47121722
_cell_angle_gamma   109.47122661
_symmetry_Int_Tables_number   1
_chemical_formula_structural   Dy3BBr3
_chemical_formula_sum   'Dy12 B4 Br12'
_cell_volume   710.55628119
_cell_formula_units_Z   4
loop_
 _symmetry_equiv_pos_site_id
 _symmetry_equiv_pos_as_xyz
  1  'x, y, z'
loop_
 _atom_site_type_symbol
 _atom_site_label
 _atom_site_symmetry_multiplicity
 _atom_site_fract_x
 _atom_site_fract_y
 _atom_site_fract_z
 _atom_site_occupancy
  Dy  Dy0  1  0.460708  0.480354  0.230354  1
  Dy  Dy1  1  0.750000  0.230354  0.269646  1
  Dy  Dy2  1  0.750000  0.019646  0.480354  1
  Dy  Dy3  1  0.230354  0.460708  0.480354  1
  Dy  Dy4  1  0.269646  0.750000  0.230354  1
  Dy  Dy5  1  0.039292  0.269646  0.019646  1
  Dy  Dy6  1  0.019646  0.039292  0.269646  1
  Dy  Dy7  1  0.480354  0.750000  0.019646  1
  Dy  Dy8  1  0.480354  0.230354  0.460708  1
  Dy  Dy9  1  0.019646  0.480354  0.750000  1
  Dy  Dy10  1  0.269646  0.019646  0.039292  1
  Dy  Dy11  1  0.230354  0.269646  0.750000  1
  B  B12  1  0.250000  0.250000  0.250000  1
  B  B13  1  0.500000  0.000000  0.250000  1
  B  B14  1  0.000000  0.250000  0.500000  1
  B  B15  1  0.250000  0.500000  0.000000  1
  Br  Br16  1  0.250000  0.758284  0.741716  1
  Br  Br17  1  0.516569  0.508284  0.758284  1
  Br  Br18  1  0.983431  0.741716  0.991716  1
  Br  Br19  1  0.741716  0.250000  0.758284  1
  Br  Br20  1  0.991716  0.983431  0.741716  1
  Br  Br21  1  0.250000  0.991716  0.508284  1
  Br  Br22  1  0.758284  0.516569  0.508284  1
  Br  Br23  1  0.508284  0.250000  0.991716  1
  Br  Br24  1  0.758284  0.741716  0.250000  1
  Br  Br25  1  0.741716  0.991716  0.983431  1
  Br  Br26  1  0.991716  0.508284  0.250000  1
  Br  Br27  1  0.508284  0.758284  0.516569  1
