# generated using pymatgen
data_Hf3Ga3TcPd2
_symmetry_space_group_name_H-M   'P 1'
_cell_length_a   7.33797800
_cell_length_b   7.33797769
_cell_length_c   6.72911600
_cell_angle_alpha   90.00000000
_cell_angle_beta   90.00000000
_cell_angle_gamma   120.00000141
_symmetry_Int_Tables_number   1
_chemical_formula_structural   Hf3Ga3TcPd2
_chemical_formula_sum   'Hf6 Ga6 Tc2 Pd4'
_cell_volume   313.79168608
_cell_formula_units_Z   2
loop_
 _symmetry_equiv_pos_site_id
 _symmetry_equiv_pos_as_xyz
  1  'x, y, z'
loop_
 _atom_site_type_symbol
 _atom_site_label
 _atom_site_symmetry_multiplicity
 _atom_site_fract_x
 _atom_site_fract_y
 _atom_site_fract_z
 _atom_site_occupancy
  Hf  Hf0  1  0.736642  0.052216  0.000000  1
  Hf  Hf1  1  0.315573  0.263358  0.000000  1
  Hf  Hf2  1  0.947784  0.684427  0.000000  1
  Hf  Hf3  1  0.319843  0.262981  0.500000  1
  Hf  Hf4  1  0.737019  0.056862  0.500000  1
  Hf  Hf5  1  0.943138  0.680157  0.500000  1
  Ga  Ga6  1  0.606497  0.664725  0.750208  1
  Ga  Ga7  1  0.058228  0.393503  0.750208  1
  Ga  Ga8  1  0.335275  0.941772  0.750208  1
  Ga  Ga9  1  0.606497  0.664725  0.249792  1
  Ga  Ga10  1  0.058228  0.393503  0.249792  1
  Ga  Ga11  1  0.335275  0.941772  0.249792  1
  Tc  Tc12  1  0.000000  0.000000  0.250931  1
  Tc  Tc13  1  0.000000  0.000000  0.749069  1
  Pd  Pd14  1  0.333333  0.666667  0.000000  1
  Pd  Pd15  1  0.333333  0.666667  0.500000  1
  Pd  Pd16  1  0.666667  0.333333  0.756006  1
  Pd  Pd17  1  0.666667  0.333333  0.243994  1
