# generated using pymatgen
data_Tb6Al24Re3Ni5
_symmetry_space_group_name_H-M   'P 1'
_cell_length_a   8.72482198
_cell_length_b   8.85752718
_cell_length_c   9.44775552
_cell_angle_alpha   89.45392448
_cell_angle_beta   90.54377959
_cell_angle_gamma   120.02828096
_symmetry_Int_Tables_number   1
_chemical_formula_structural   Tb6Al24Re3Ni5
_chemical_formula_sum   'Tb6 Al24 Re3 Ni5'
_cell_volume   632.08913980
_cell_formula_units_Z   1
loop_
 _symmetry_equiv_pos_site_id
 _symmetry_equiv_pos_as_xyz
  1  'x, y, z'
loop_
 _atom_site_type_symbol
 _atom_site_label
 _atom_site_symmetry_multiplicity
 _atom_site_fract_x
 _atom_site_fract_y
 _atom_site_fract_z
 _atom_site_occupancy
  Tb  Tb0  1  0.198377  0.385799  0.251108  1
  Tb  Tb1  1  0.801623  0.614201  0.748892  1
  Tb  Tb2  1  0.608464  0.808728  0.251230  1
  Tb  Tb3  1  0.391536  0.191272  0.748770  1
  Tb  Tb4  1  0.204482  0.815828  0.249090  1
  Tb  Tb5  1  0.795518  0.184172  0.750910  1
  Al  Al6  1  0.330216  0.662973  0.019323  1
  Al  Al7  1  0.669784  0.337027  0.980677  1
  Al  Al8  1  0.671290  0.335470  0.517991  1
  Al  Al9  1  0.328710  0.664530  0.482009  1
  Al  Al10  1  0.161476  0.323470  0.579096  1
  Al  Al11  1  0.838524  0.676530  0.420904  1
  Al  Al12  1  0.673711  0.835374  0.578236  1
  Al  Al13  1  0.839612  0.676484  0.077617  1
  Al  Al14  1  0.326289  0.164626  0.421764  1
  Al  Al15  1  0.160388  0.323516  0.922383  1
  Al  Al16  1  0.161240  0.837102  0.577059  1
  Al  Al17  1  0.326171  0.163668  0.076010  1
  Al  Al18  1  0.838760  0.162898  0.422941  1
  Al  Al19  1  0.673829  0.836332  0.923990  1
  Al  Al20  1  0.838902  0.164198  0.078682  1
  Al  Al21  1  0.161098  0.835802  0.921318  1
  Al  Al22  1  0.567038  0.129145  0.248914  1
  Al  Al23  1  0.432962  0.870855  0.751086  1
  Al  Al24  1  0.884255  0.444083  0.248169  1
  Al  Al25  1  0.115745  0.555917  0.751831  1
  Al  Al26  1  0.565084  0.442537  0.246135  1
  Al  Al27  1  0.434916  0.557463  0.753865  1
  Al  Al28  1  0.003496  0.004074  0.250718  1
  Al  Al29  1  0.996504  0.995926  0.749282  1
  Re  Re30  1  0.500000  0.000000  0.000000  1
  Re  Re31  1  0.500000  0.000000  0.500000  1
  Re  Re32  1  0.500000  0.500000  0.500000  1
  Ni  Ni33  1  0.000000  0.500000  0.000000  1
  Ni  Ni34  1  0.500000  0.500000  0.000000  1
  Ni  Ni35  1  0.000000  0.500000  0.500000  1
  Ni  Ni36  1  0.000000  0.000000  0.000000  1
  Ni  Ni37  1  0.000000  0.000000  0.500000  1
