# generated using pymatgen
data_Sr4CaMnN5
_symmetry_space_group_name_H-M   'P 1'
_cell_length_a   7.52850484
_cell_length_b   7.52850596
_cell_length_c   8.49794230
_cell_angle_alpha   76.59604509
_cell_angle_beta   76.59604541
_cell_angle_gamma   95.98636911
_symmetry_Int_Tables_number   1
_chemical_formula_structural   Sr4CaMnN5
_chemical_formula_sum   'Sr8 Ca2 Mn2 N10'
_cell_volume   449.36598644
_cell_formula_units_Z   2
loop_
 _symmetry_equiv_pos_site_id
 _symmetry_equiv_pos_as_xyz
  1  'x, y, z'
loop_
 _atom_site_type_symbol
 _atom_site_label
 _atom_site_symmetry_multiplicity
 _atom_site_fract_x
 _atom_site_fract_y
 _atom_site_fract_z
 _atom_site_occupancy
  Sr  Sr0  1  0.669156  0.669156  0.005122  1
  Sr  Sr1  1  0.330844  0.330844  0.994878  1
  Sr  Sr2  1  0.924472  0.924472  0.210780  1
  Sr  Sr3  1  0.075528  0.075528  0.789220  1
  Sr  Sr4  1  0.558256  0.092588  0.745906  1
  Sr  Sr5  1  0.907412  0.441744  0.254094  1
  Sr  Sr6  1  0.441744  0.907412  0.254094  1
  Sr  Sr7  1  0.092588  0.558256  0.745906  1
  Ca  Ca8  1  0.406806  0.406806  0.380563  1
  Ca  Ca9  1  0.593194  0.593194  0.619437  1
  Mn  Mn10  1  0.754909  0.245091  0.000000  1
  Mn  Mn11  1  0.245091  0.754909  0.000000  1
  N  N12  1  0.656101  0.656101  0.325990  1
  N  N13  1  0.343899  0.343899  0.674010  1
  N  N14  1  0.717792  0.017261  0.986114  1
  N  N15  1  0.982739  0.282208  0.013886  1
  N  N16  1  0.282208  0.982739  0.013886  1
  N  N17  1  0.017261  0.717792  0.986114  1
  N  N18  1  0.399293  0.729435  0.820766  1
  N  N19  1  0.270565  0.600707  0.179233  1
  N  N20  1  0.600707  0.270565  0.179233  1
  N  N21  1  0.729435  0.399293  0.820766  1
