# generated using pymatgen
data_Tb4Ga4NiRu3
_symmetry_space_group_name_H-M   'P 1'
_cell_length_a   4.51092100
_cell_length_b   7.13594245
_cell_length_c   7.13640415
_cell_angle_alpha   89.37608576
_cell_angle_beta   90.00000000
_cell_angle_gamma   90.00000000
_symmetry_Int_Tables_number   1
_chemical_formula_structural   Tb4Ga4NiRu3
_chemical_formula_sum   'Tb4 Ga4 Ni1 Ru3'
_cell_volume   229.70489388
_cell_formula_units_Z   1
loop_
 _symmetry_equiv_pos_site_id
 _symmetry_equiv_pos_as_xyz
  1  'x, y, z'
loop_
 _atom_site_type_symbol
 _atom_site_label
 _atom_site_symmetry_multiplicity
 _atom_site_fract_x
 _atom_site_fract_y
 _atom_site_fract_z
 _atom_site_occupancy
  Tb  Tb0  1  0.250000  0.020954  0.803640  1
  Tb  Tb1  1  0.250000  0.521974  0.694503  1
  Tb  Tb2  1  0.750000  0.983094  0.199171  1
  Tb  Tb3  1  0.750000  0.480793  0.303300  1
  Ga  Ga4  1  0.250000  0.199572  0.400602  1
  Ga  Ga5  1  0.250000  0.691255  0.103380  1
  Ga  Ga6  1  0.750000  0.796841  0.604305  1
  Ga  Ga7  1  0.750000  0.310679  0.893508  1
  Ni  Ni8  1  0.750000  0.664259  0.933555  1
  Ru  Ru9  1  0.250000  0.839437  0.433470  1
  Ru  Ru10  1  0.250000  0.333895  0.063869  1
  Ru  Ru11  1  0.750000  0.157247  0.566697  1
