# generated using pymatgen
data_Zr6Co13Si7Rh3
_symmetry_space_group_name_H-M   'P 1'
_cell_length_a   8.16376814
_cell_length_b   8.16376759
_cell_length_c   8.16376810
_cell_angle_alpha   59.89543369
_cell_angle_beta   59.89543901
_cell_angle_gamma   59.89542988
_symmetry_Int_Tables_number   1
_chemical_formula_structural   Zr6Co13Si7Rh3
_chemical_formula_sum   'Zr6 Co13 Si7 Rh3'
_cell_volume   383.81809468
_cell_formula_units_Z   1
loop_
 _symmetry_equiv_pos_site_id
 _symmetry_equiv_pos_as_xyz
  1  'x, y, z'
loop_
 _atom_site_type_symbol
 _atom_site_label
 _atom_site_symmetry_multiplicity
 _atom_site_fract_x
 _atom_site_fract_y
 _atom_site_fract_z
 _atom_site_occupancy
  Zr  Zr0  1  0.795079  0.795079  0.206493  1
  Zr  Zr1  1  0.795079  0.206493  0.795079  1
  Zr  Zr2  1  0.202219  0.202219  0.796184  1
  Zr  Zr3  1  0.796184  0.202219  0.202219  1
  Zr  Zr4  1  0.202219  0.796184  0.202219  1
  Zr  Zr5  1  0.206493  0.795079  0.795079  1
  Co  Co6  1  0.621168  0.621168  0.621168  1
  Co  Co7  1  0.380376  0.863816  0.380376  1
  Co  Co8  1  0.863816  0.380376  0.380376  1
  Co  Co9  1  0.380376  0.380376  0.863816  1
  Co  Co10  1  0.378720  0.378720  0.378720  1
  Co  Co11  1  0.506949  0.829019  0.829019  1
  Co  Co12  1  0.829019  0.506949  0.829019  1
  Co  Co13  1  0.173436  0.173436  0.480200  1
  Co  Co14  1  0.172938  0.172938  0.172938  1
  Co  Co15  1  0.829019  0.829019  0.506949  1
  Co  Co16  1  0.832284  0.832284  0.832284  1
  Co  Co17  1  0.173436  0.480200  0.173436  1
  Co  Co18  1  0.480200  0.173436  0.173436  1
  Si  Si19  1  0.505704  0.505704  0.505704  1
  Si  Si20  1  0.498905  0.498905  0.995944  1
  Si  Si21  1  0.498905  0.995944  0.498905  1
  Si  Si22  1  0.001676  0.001676  0.497420  1
  Si  Si23  1  0.001676  0.497420  0.001676  1
  Si  Si24  1  0.995944  0.498905  0.498905  1
  Si  Si25  1  0.497420  0.001676  0.001676  1
  Rh  Rh26  1  0.144908  0.617925  0.617925  1
  Rh  Rh27  1  0.617925  0.144908  0.617925  1
  Rh  Rh28  1  0.617925  0.617925  0.144908  1
