# generated using pymatgen
data_Y16Cd3AgIr3Rh
_symmetry_space_group_name_H-M   'P 1'
_cell_length_a   9.67318278
_cell_length_b   9.67318283
_cell_length_c   9.67318323
_cell_angle_alpha   59.86543474
_cell_angle_beta   59.86543272
_cell_angle_gamma   59.86543937
_symmetry_Int_Tables_number   1
_chemical_formula_structural   Y16Cd3AgIr3Rh
_chemical_formula_sum   'Y16 Cd3 Ag1 Ir3 Rh1'
_cell_volume   638.06521173
_cell_formula_units_Z   1
loop_
 _symmetry_equiv_pos_site_id
 _symmetry_equiv_pos_as_xyz
  1  'x, y, z'
loop_
 _atom_site_type_symbol
 _atom_site_label
 _atom_site_symmetry_multiplicity
 _atom_site_fract_x
 _atom_site_fract_y
 _atom_site_fract_z
 _atom_site_occupancy
  Y  Y0  1  0.349118  0.349118  0.349118  1
  Y  Y1  1  0.350517  0.350517  0.951552  1
  Y  Y2  1  0.350517  0.951552  0.350517  1
  Y  Y3  1  0.951552  0.350517  0.350517  1
  Y  Y4  1  0.808999  0.189641  0.189641  1
  Y  Y5  1  0.187644  0.810006  0.810006  1
  Y  Y6  1  0.189641  0.808999  0.189641  1
  Y  Y7  1  0.810006  0.187644  0.810006  1
  Y  Y8  1  0.189641  0.189641  0.808999  1
  Y  Y9  1  0.810006  0.810006  0.187644  1
  Y  Y10  1  0.937127  0.561213  0.561213  1
  Y  Y11  1  0.563651  0.935939  0.935939  1
  Y  Y12  1  0.561213  0.937127  0.561213  1
  Y  Y13  1  0.935939  0.563651  0.935939  1
  Y  Y14  1  0.561213  0.561213  0.937127  1
  Y  Y15  1  0.935939  0.935939  0.563651  1
  Cd  Cd16  1  0.581565  0.581565  0.258351  1
  Cd  Cd17  1  0.581565  0.258351  0.581565  1
  Cd  Cd18  1  0.258351  0.581565  0.581565  1
  Ag  Ag19  1  0.582738  0.582738  0.582738  1
  Ir  Ir20  1  0.143090  0.143090  0.575306  1
  Ir  Ir21  1  0.143090  0.575306  0.143090  1
  Ir  Ir22  1  0.575306  0.143090  0.143090  1
  Rh  Rh23  1  0.141574  0.141574  0.141574  1
