# generated using pymatgen
data_Nd4Cd(InAu5)2
_symmetry_space_group_name_H-M   'P 1'
_cell_length_a   8.77717964
_cell_length_b   8.77801186
_cell_length_c   10.34490981
_cell_angle_alpha   89.97795102
_cell_angle_beta   89.77556835
_cell_angle_gamma   108.26200974
_symmetry_Int_Tables_number   1
_chemical_formula_structural   Nd4Cd(InAu5)2
_chemical_formula_sum   'Nd8 Cd2 In4 Au20'
_cell_volume   756.88502168
_cell_formula_units_Z   2
loop_
 _symmetry_equiv_pos_site_id
 _symmetry_equiv_pos_as_xyz
  1  'x, y, z'
loop_
 _atom_site_type_symbol
 _atom_site_label
 _atom_site_symmetry_multiplicity
 _atom_site_fract_x
 _atom_site_fract_y
 _atom_site_fract_z
 _atom_site_occupancy
  Nd  Nd0  1  0.701691  0.297927  0.000490  1
  Nd  Nd1  1  0.200414  0.799547  0.499566  1
  Nd  Nd2  1  0.803765  0.802649  0.295753  1
  Nd  Nd3  1  0.302352  0.303550  0.202004  1
  Nd  Nd4  1  0.797901  0.200398  0.499853  1
  Nd  Nd5  1  0.298967  0.701481  0.000593  1
  Nd  Nd6  1  0.700362  0.699950  0.799299  1
  Nd  Nd7  1  0.199439  0.199916  0.703504  1
  Cd  Cd8  1  0.518657  0.019102  0.250229  1
  Cd  Cd9  1  0.999930  0.000883  0.000022  1
  In  In10  1  0.981885  0.482332  0.749444  1
  In  In11  1  0.017368  0.516416  0.250504  1
  In  In12  1  0.482576  0.981585  0.749923  1
  In  In13  1  0.501240  0.500234  0.500527  1
  Au  Au14  1  0.157543  0.429705  0.477499  1
  Au  Au15  1  0.903529  0.904504  0.594943  1
  Au  Au16  1  0.568805  0.842622  0.520637  1
  Au  Au17  1  0.887433  0.168855  0.209407  1
  Au  Au18  1  0.389531  0.668568  0.290219  1
  Au  Au19  1  0.668122  0.387318  0.289970  1
  Au  Au20  1  0.404508  0.403559  0.905906  1
  Au  Au21  1  0.930523  0.657778  0.023286  1
  Au  Au22  1  0.330973  0.608931  0.709936  1
  Au  Au23  1  0.342638  0.068521  0.978195  1
  Au  Au24  1  0.596617  0.595700  0.095079  1
  Au  Au25  1  0.658044  0.930083  0.023313  1
  Au  Au26  1  0.095610  0.096656  0.403875  1
  Au  Au27  1  0.609322  0.330043  0.710850  1
  Au  Au28  1  0.109763  0.829951  0.790585  1
  Au  Au29  1  0.069874  0.342294  0.975426  1
  Au  Au30  1  0.842255  0.570413  0.523286  1
  Au  Au31  1  0.169492  0.890201  0.209202  1
  Au  Au32  1  0.429466  0.158227  0.477106  1
  Au  Au33  1  0.829401  0.110101  0.789568  1
