# generated using pymatgen
data_Zr8CdHg3Pd8
_symmetry_space_group_name_H-M   'P 1'
_cell_length_a   7.59966200
_cell_length_b   7.59966200
_cell_length_c   6.77214100
_cell_angle_alpha   90.00000000
_cell_angle_beta   90.00000000
_cell_angle_gamma   90.00000000
_symmetry_Int_Tables_number   1
_chemical_formula_structural   Zr8CdHg3Pd8
_chemical_formula_sum   'Zr8 Cd1 Hg3 Pd8'
_cell_volume   391.12407238
_cell_formula_units_Z   1
loop_
 _symmetry_equiv_pos_site_id
 _symmetry_equiv_pos_as_xyz
  1  'x, y, z'
loop_
 _atom_site_type_symbol
 _atom_site_label
 _atom_site_symmetry_multiplicity
 _atom_site_fract_x
 _atom_site_fract_y
 _atom_site_fract_z
 _atom_site_occupancy
  Zr  Zr0  1  0.657358  0.657169  0.500355  1
  Zr  Zr1  1  0.813902  0.185379  0.499715  1
  Zr  Zr2  1  0.685379  0.686098  0.000285  1
  Zr  Zr3  1  0.842831  0.157358  0.999645  1
  Zr  Zr4  1  0.186098  0.814621  0.499715  1
  Zr  Zr5  1  0.314621  0.313902  0.000285  1
  Zr  Zr6  1  0.157169  0.842642  0.999645  1
  Zr  Zr7  1  0.342642  0.342831  0.500355  1
  Cd  Cd8  1  0.000000  0.500000  0.750000  1
  Hg  Hg9  1  0.000000  0.500000  0.250000  1
  Hg  Hg10  1  0.500000  0.000000  0.750000  1
  Hg  Hg11  1  0.500000  0.000000  0.250000  1
  Pd  Pd12  1  0.627462  0.372202  0.220632  1
  Pd  Pd13  1  0.371056  0.627085  0.779191  1
  Pd  Pd14  1  0.872915  0.871056  0.720809  1
  Pd  Pd15  1  0.628944  0.372915  0.779191  1
  Pd  Pd16  1  0.372538  0.627798  0.220632  1
  Pd  Pd17  1  0.127798  0.127462  0.279368  1
  Pd  Pd18  1  0.872202  0.872538  0.279368  1
  Pd  Pd19  1  0.127085  0.128944  0.720809  1
