# generated using pymatgen
data_La2Be(Co3P2)3
_symmetry_space_group_name_H-M   'P 1'
_cell_length_a   6.02732867
_cell_length_b   6.02732800
_cell_length_c   11.34204007
_cell_angle_alpha   91.06716793
_cell_angle_beta   88.93283232
_cell_angle_gamma   145.01623869
_symmetry_Int_Tables_number   1
_chemical_formula_structural   La2Be(Co3P2)3
_chemical_formula_sum   'La2 Be1 Co9 P6'
_cell_volume   236.19653376
_cell_formula_units_Z   1
loop_
 _symmetry_equiv_pos_site_id
 _symmetry_equiv_pos_as_xyz
  1  'x, y, z'
loop_
 _atom_site_type_symbol
 _atom_site_label
 _atom_site_symmetry_multiplicity
 _atom_site_fract_x
 _atom_site_fract_y
 _atom_site_fract_z
 _atom_site_occupancy
  La  La0  1  0.334826  0.665174  0.246722  1
  La  La1  1  0.665174  0.334826  0.753278  1
  Be  Be2  1  0.500000  0.500000  0.500000  1
  Co  Co3  1  0.051758  0.948242  0.146086  1
  Co  Co4  1  0.047073  0.952927  0.366379  1
  Co  Co5  1  0.688719  0.311281  0.438833  1
  Co  Co6  1  0.311281  0.688719  0.561167  1
  Co  Co7  1  0.302839  0.697161  0.931219  1
  Co  Co8  1  0.697161  0.302839  0.068781  1
  Co  Co9  1  0.500000  0.500000  0.000000  1
  Co  Co10  1  0.952927  0.047073  0.633621  1
  Co  Co11  1  0.948242  0.051758  0.853914  1
  P  P12  1  0.607148  0.392852  0.252027  1
  P  P13  1  0.392852  0.607148  0.747973  1
  P  P14  1  0.123961  0.876039  0.541055  1
  P  P15  1  0.876039  0.123961  0.458945  1
  P  P16  1  0.882394  0.117606  0.036738  1
  P  P17  1  0.117606  0.882394  0.963262  1
