# generated using pymatgen
data_Tb3Dy(WF7)4
_symmetry_space_group_name_H-M   'P 1'
_cell_length_a   5.71558803
_cell_length_b   9.07101367
_cell_length_c   12.19319800
_cell_angle_alpha   62.25749154
_cell_angle_beta   90.00543327
_cell_angle_gamma   89.99333888
_symmetry_Int_Tables_number   1
_chemical_formula_structural   Tb3Dy(WF7)4
_chemical_formula_sum   'Tb3 Dy1 W4 F28'
_cell_volume   559.50172706
_cell_formula_units_Z   1
loop_
 _symmetry_equiv_pos_site_id
 _symmetry_equiv_pos_as_xyz
  1  'x, y, z'
loop_
 _atom_site_type_symbol
 _atom_site_label
 _atom_site_symmetry_multiplicity
 _atom_site_fract_x
 _atom_site_fract_y
 _atom_site_fract_z
 _atom_site_occupancy
  Tb  Tb0  1  0.746819  0.185569  0.733013  1
  Tb  Tb1  1  0.752880  0.185092  0.233049  1
  Tb  Tb2  1  0.246904  0.814219  0.766942  1
  Dy  Dy3  1  0.253085  0.814378  0.267061  1
  W  W4  1  0.756149  0.726650  0.044977  1
  W  W5  1  0.244221  0.272944  0.955919  1
  W  W6  1  0.255786  0.274054  0.455302  1
  W  W7  1  0.744150  0.726613  0.543835  1
  F  F8  1  0.966849  0.707450  0.419581  1
  F  F9  1  0.033990  0.293074  0.580094  1
  F  F10  1  0.465892  0.292750  0.080345  1
  F  F11  1  0.533728  0.707467  0.920233  1
  F  F12  1  0.481683  0.733298  0.144392  1
  F  F13  1  0.519839  0.267097  0.856833  1
  F  F14  1  0.980729  0.266911  0.356432  1
  F  F15  1  0.019535  0.732716  0.643145  1
  F  F16  1  0.971561  0.746241  0.172594  1
  F  F17  1  0.030440  0.253875  0.827842  1
  F  F18  1  0.469942  0.254683  0.327506  1
  F  F19  1  0.529770  0.745667  0.671628  1
  F  F20  1  0.771964  0.478853  0.141122  1
  F  F21  1  0.228354  0.520879  0.859374  1
  F  F22  1  0.271149  0.522020  0.358819  1
  F  F23  1  0.728119  0.478748  0.640618  1
  F  F24  1  0.954459  0.279273  0.047903  1
  F  F25  1  0.044816  0.720473  0.952299  1
  F  F26  1  0.454346  0.720729  0.451333  1
  F  F27  1  0.545387  0.279892  0.547582  1
  F  F28  1  0.737988  0.974116  0.446309  1
  F  F29  1  0.262097  0.026515  0.553279  1
  F  F30  1  0.238267  0.025472  0.053858  1
  F  F31  1  0.762215  0.974094  0.946856  1
  F  F32  1  0.572690  0.970404  0.233793  1
  F  F33  1  0.424814  0.029464  0.766359  1
  F  F34  1  0.074561  0.027886  0.266198  1
  F  F35  1  0.924823  0.970431  0.733575  1
