# generated using pymatgen
data_Zr5Ga2PO
_symmetry_space_group_name_H-M   'P 1'
_cell_length_a   8.01225592
_cell_length_b   7.96841131
_cell_length_c   5.63182700
_cell_angle_alpha   90.00000000
_cell_angle_beta   90.00000000
_cell_angle_gamma   119.81913789
_symmetry_Int_Tables_number   1
_chemical_formula_structural   Zr5Ga2PO
_chemical_formula_sum   'Zr10 Ga4 P2 O2'
_cell_volume   311.95726728
_cell_formula_units_Z   2
loop_
 _symmetry_equiv_pos_site_id
 _symmetry_equiv_pos_as_xyz
  1  'x, y, z'
loop_
 _atom_site_type_symbol
 _atom_site_label
 _atom_site_symmetry_multiplicity
 _atom_site_fract_x
 _atom_site_fract_y
 _atom_site_fract_z
 _atom_site_occupancy
  Zr  Zr0  1  0.000000  0.756608  0.750000  1
  Zr  Zr1  1  0.000000  0.243392  0.250000  1
  Zr  Zr2  1  0.320615  0.660308  0.000000  1
  Zr  Zr3  1  0.320615  0.660308  0.500000  1
  Zr  Zr4  1  0.237576  0.241588  0.750000  1
  Zr  Zr5  1  0.237576  0.995988  0.250000  1
  Zr  Zr6  1  0.762424  0.758412  0.250000  1
  Zr  Zr7  1  0.679385  0.339692  0.000000  1
  Zr  Zr8  1  0.679385  0.339692  0.500000  1
  Zr  Zr9  1  0.762424  0.004012  0.750000  1
  Ga  Ga10  1  0.403877  0.399976  0.250000  1
  Ga  Ga11  1  0.596123  0.600024  0.750000  1
  Ga  Ga12  1  0.403877  0.003902  0.750000  1
  Ga  Ga13  1  0.596123  0.996098  0.250000  1
  P  P14  1  0.000000  0.605164  0.250000  1
  P  P15  1  0.000000  0.394836  0.750000  1
  O  O16  1  0.000000  0.000000  0.000000  1
  O  O17  1  0.000000  0.000000  0.500000  1
