# generated using pymatgen
data_Li4B4OsRu3
_symmetry_space_group_name_H-M   'P 1'
_cell_length_a   6.75808248
_cell_length_b   6.01625151
_cell_length_c   5.53187422
_cell_angle_alpha   71.49572283
_cell_angle_beta   57.58691938
_cell_angle_gamma   51.25889957
_symmetry_Int_Tables_number   1
_chemical_formula_structural   Li4B4OsRu3
_chemical_formula_sum   'Li4 B4 Os1 Ru3'
_cell_volume   148.04401613
_cell_formula_units_Z   1
loop_
 _symmetry_equiv_pos_site_id
 _symmetry_equiv_pos_as_xyz
  1  'x, y, z'
loop_
 _atom_site_type_symbol
 _atom_site_label
 _atom_site_symmetry_multiplicity
 _atom_site_fract_x
 _atom_site_fract_y
 _atom_site_fract_z
 _atom_site_occupancy
  Li  Li0  1  0.126998  0.624157  0.626295  1
  Li  Li1  1  0.623775  0.626377  0.625344  1
  Li  Li2  1  0.626377  0.623775  0.124504  1
  Li  Li3  1  0.624157  0.126998  0.622551  1
  B  B4  1  0.429896  0.071076  0.430212  1
  B  B5  1  0.186081  0.814383  0.178751  1
  B  B6  1  0.071076  0.429896  0.068816  1
  B  B7  1  0.814383  0.186081  0.820785  1
  Os  Os8  1  0.385144  0.385144  0.114856  1
  Ru  Ru9  1  0.863530  0.863530  0.136470  1
  Ru  Ru10  1  0.136506  0.136506  0.863494  1
  Ru  Ru11  1  0.112078  0.112078  0.387922  1
