# generated using pymatgen
data_Sc3Pa(ReB6)2
_symmetry_space_group_name_H-M   'P 1'
_cell_length_a   3.58925900
_cell_length_b   8.95820409
_cell_length_c   11.29708665
_cell_angle_alpha   90.20291210
_cell_angle_beta   90.00000000
_cell_angle_gamma   90.00000000
_symmetry_Int_Tables_number   1
_chemical_formula_structural   Sc3Pa(ReB6)2
_chemical_formula_sum   'Sc6 Pa2 Re4 B24'
_cell_volume   363.23650396
_cell_formula_units_Z   2
loop_
 _symmetry_equiv_pos_site_id
 _symmetry_equiv_pos_as_xyz
  1  'x, y, z'
loop_
 _atom_site_type_symbol
 _atom_site_label
 _atom_site_symmetry_multiplicity
 _atom_site_fract_x
 _atom_site_fract_y
 _atom_site_fract_z
 _atom_site_occupancy
  Sc  Sc0  1  0.000000  0.822233  0.085072  1
  Sc  Sc1  1  0.000000  0.177767  0.914928  1
  Sc  Sc2  1  0.000000  0.945710  0.371323  1
  Sc  Sc3  1  0.000000  0.054290  0.628677  1
  Sc  Sc4  1  0.000000  0.444472  0.124618  1
  Sc  Sc5  1  0.000000  0.555528  0.875382  1
  Pa  Pa6  1  0.000000  0.319734  0.413286  1
  Pa  Pa7  1  0.000000  0.680266  0.586714  1
  Re  Re8  1  0.000000  0.639092  0.319731  1
  Re  Re9  1  0.000000  0.360908  0.680269  1
  Re  Re10  1  0.000000  0.140324  0.179717  1
  Re  Re11  1  0.000000  0.859676  0.820283  1
  B  B12  1  0.500000  0.555001  0.432220  1
  B  B13  1  0.500000  0.444999  0.567780  1
  B  B14  1  0.500000  0.053335  0.064778  1
  B  B15  1  0.500000  0.946665  0.935222  1
  B  B16  1  0.500000  0.754271  0.417980  1
  B  B17  1  0.500000  0.245729  0.582020  1
  B  B18  1  0.500000  0.251801  0.077249  1
  B  B19  1  0.500000  0.748199  0.922751  1
  B  B20  1  0.500000  0.795291  0.261841  1
  B  B21  1  0.500000  0.204709  0.738159  1
  B  B22  1  0.500000  0.293878  0.232648  1
  B  B23  1  0.500000  0.706122  0.767352  1
  B  B24  1  0.500000  0.631147  0.181024  1
  B  B25  1  0.500000  0.368853  0.818976  1
  B  B26  1  0.500000  0.128715  0.315069  1
  B  B27  1  0.500000  0.871285  0.684931  1
  B  B28  1  0.500000  0.979463  0.210697  1
  B  B29  1  0.500000  0.020537  0.789303  1
  B  B30  1  0.500000  0.482107  0.283789  1
  B  B31  1  0.500000  0.517893  0.716211  1
  B  B32  1  0.500000  0.599735  0.027372  1
  B  B33  1  0.500000  0.400265  0.972628  1
  B  B34  1  0.500000  0.099628  0.472428  1
  B  B35  1  0.500000  0.900372  0.527572  1
