# generated using pymatgen
data_Tb20Bi8Os3Au
_symmetry_space_group_name_H-M   'P 1'
_cell_length_a   8.05329353
_cell_length_b   9.10668800
_cell_length_c   12.52519055
_cell_angle_alpha   90.00000000
_cell_angle_beta   89.89245591
_cell_angle_gamma   90.00000000
_symmetry_Int_Tables_number   1
_chemical_formula_structural   Tb20Bi8Os3Au
_chemical_formula_sum   'Tb20 Bi8 Os3 Au1'
_cell_volume   918.58122114
_cell_formula_units_Z   1
loop_
 _symmetry_equiv_pos_site_id
 _symmetry_equiv_pos_as_xyz
  1  'x, y, z'
loop_
 _atom_site_type_symbol
 _atom_site_label
 _atom_site_symmetry_multiplicity
 _atom_site_fract_x
 _atom_site_fract_y
 _atom_site_fract_z
 _atom_site_occupancy
  Tb  Tb0  1  0.843282  0.750000  0.794657  1
  Tb  Tb1  1  0.158115  0.250000  0.207121  1
  Tb  Tb2  1  0.339606  0.250000  0.708472  1
  Tb  Tb3  1  0.668485  0.750000  0.282280  1
  Tb  Tb4  1  0.366531  0.750000  0.702377  1
  Tb  Tb5  1  0.623151  0.250000  0.306439  1
  Tb  Tb6  1  0.878260  0.250000  0.805441  1
  Tb  Tb7  1  0.124720  0.750000  0.196135  1
  Tb  Tb8  1  0.957985  0.750000  0.501524  1
  Tb  Tb9  1  0.051887  0.250000  0.497723  1
  Tb  Tb10  1  0.440958  0.250000  0.996308  1
  Tb  Tb11  1  0.555276  0.750000  0.001588  1
  Tb  Tb12  1  0.678863  0.054550  0.565969  1
  Tb  Tb13  1  0.319915  0.967169  0.432520  1
  Tb  Tb14  1  0.174519  0.957108  0.937329  1
  Tb  Tb15  1  0.319915  0.532831  0.432520  1
  Tb  Tb16  1  0.824888  0.040615  0.063254  1
  Tb  Tb17  1  0.678863  0.445450  0.565969  1
  Tb  Tb18  1  0.824888  0.459385  0.063254  1
  Tb  Tb19  1  0.174519  0.542892  0.937329  1
  Bi  Bi20  1  0.569027  0.491720  0.826248  1
  Bi  Bi21  1  0.431769  0.508381  0.172292  1
  Bi  Bi22  1  0.069391  0.508608  0.672158  1
  Bi  Bi23  1  0.431769  0.991619  0.172292  1
  Bi  Bi24  1  0.928774  0.491365  0.328084  1
  Bi  Bi25  1  0.569027  0.008280  0.826248  1
  Bi  Bi26  1  0.928774  0.008635  0.328084  1
  Bi  Bi27  1  0.069391  0.991392  0.672158  1
  Os  Os28  1  0.424122  0.250000  0.489267  1
  Os  Os29  1  0.075450  0.250000  0.988643  1
  Os  Os30  1  0.922299  0.750000  0.013888  1
  Au  Au31  1  0.575581  0.750000  0.512431  1
