# generated using pymatgen
data_YEr3Ni2(B8Pt)2
_symmetry_space_group_name_H-M   'P 1'
_cell_length_a   6.91195921
_cell_length_b   6.91195824
_cell_length_c   6.91195973
_cell_angle_alpha   111.40554685
_cell_angle_beta   113.46507853
_cell_angle_gamma   103.70028966
_symmetry_Int_Tables_number   1
_chemical_formula_structural   YEr3Ni2(B8Pt)2
_chemical_formula_sum   'Y1 Er3 Ni2 B16 Pt2'
_cell_volume   252.20474601
_cell_formula_units_Z   1
loop_
 _symmetry_equiv_pos_site_id
 _symmetry_equiv_pos_as_xyz
  1  'x, y, z'
loop_
 _atom_site_type_symbol
 _atom_site_label
 _atom_site_symmetry_multiplicity
 _atom_site_fract_x
 _atom_site_fract_y
 _atom_site_fract_z
 _atom_site_occupancy
  Y  Y0  1  0.252804  0.752804  0.500000  1
  Er  Er1  1  0.796130  0.796130  0.000000  1
  Er  Er2  1  0.203644  0.203644  0.000000  1
  Er  Er3  1  0.746376  0.246376  0.500000  1
  Ni  Ni4  1  0.501362  0.744750  0.243388  1
  Ni  Ni5  1  0.501362  0.257974  0.756612  1
  B  B6  1  0.272438  0.107891  0.380279  1
  B  B7  1  0.727611  0.892158  0.619721  1
  B  B8  1  0.272438  0.892158  0.164547  1
  B  B9  1  0.727611  0.107891  0.835453  1
  B  B10  1  0.110102  0.735467  0.845126  1
  B  B11  1  0.890340  0.264976  0.154874  1
  B  B12  1  0.110102  0.264976  0.374636  1
  B  B13  1  0.890340  0.735467  0.625364  1
  B  B14  1  0.113198  0.106189  0.526069  1
  B  B15  1  0.580120  0.587129  0.473931  1
  B  B16  1  0.113198  0.587129  0.007009  1
  B  B17  1  0.580120  0.106189  0.992991  1
  B  B18  1  0.885761  0.894040  0.473217  1
  B  B19  1  0.420823  0.412544  0.526783  1
  B  B20  1  0.885761  0.412544  0.991721  1
  B  B21  1  0.420823  0.894040  0.008279  1
  Pt  Pt22  1  0.272017  0.498769  0.773248  1
  Pt  Pt23  1  0.725521  0.498769  0.226752  1
