# generated using pymatgen
data_Dy2ZnRh2
_symmetry_space_group_name_H-M   'P 1'
_cell_length_a   5.46052991
_cell_length_b   5.46053020
_cell_length_c   5.46052972
_cell_angle_alpha   135.56174754
_cell_angle_beta   114.55282954
_cell_angle_gamma   82.55713978
_symmetry_Int_Tables_number   1
_chemical_formula_structural   Dy2ZnRh2
_chemical_formula_sum   'Dy2 Zn1 Rh2'
_cell_volume   100.05272669
_cell_formula_units_Z   1
loop_
 _symmetry_equiv_pos_site_id
 _symmetry_equiv_pos_as_xyz
  1  'x, y, z'
loop_
 _atom_site_type_symbol
 _atom_site_label
 _atom_site_symmetry_multiplicity
 _atom_site_fract_x
 _atom_site_fract_y
 _atom_site_fract_z
 _atom_site_occupancy
  Dy  Dy0  1  0.702874  0.202874  0.500001  1
  Dy  Dy1  1  0.297126  0.797127  0.500000  1
  Zn  Zn2  1  0.000000  0.000000  0.000000  1
  Rh  Rh3  1  0.736317  0.500000  0.236317  1
  Rh  Rh4  1  0.263684  0.500000  0.763684  1
