# generated using pymatgen
data_Li7Tb6Ho2ZnSn8
_symmetry_space_group_name_H-M   'P 1'
_cell_length_a   9.40198400
_cell_length_b   9.39876279
_cell_length_c   7.29235709
_cell_angle_alpha   89.94431492
_cell_angle_beta   90.00000000
_cell_angle_gamma   120.01134500
_symmetry_Int_Tables_number   1
_chemical_formula_structural   Li7Tb6Ho2ZnSn8
_chemical_formula_sum   'Li7 Tb6 Ho2 Zn1 Sn8'
_cell_volume   558.00593988
_cell_formula_units_Z   1
loop_
 _symmetry_equiv_pos_site_id
 _symmetry_equiv_pos_as_xyz
  1  'x, y, z'
loop_
 _atom_site_type_symbol
 _atom_site_label
 _atom_site_symmetry_multiplicity
 _atom_site_fract_x
 _atom_site_fract_y
 _atom_site_fract_z
 _atom_site_occupancy
  Li  Li0  1  0.165149  0.832552  0.288923  1
  Li  Li1  1  0.667402  0.832552  0.288923  1
  Li  Li2  1  0.833269  0.666537  0.789233  1
  Li  Li3  1  0.832086  0.165995  0.788302  1
  Li  Li4  1  0.333911  0.165995  0.788302  1
  Li  Li5  1  0.334031  0.668062  0.679495  1
  Li  Li6  1  0.668209  0.336417  0.175931  1
  Tb  Tb7  1  0.511326  0.022651  0.496823  1
  Tb  Tb8  1  0.511374  0.488802  0.493172  1
  Tb  Tb9  1  0.977429  0.488802  0.493172  1
  Tb  Tb10  1  0.488956  0.977915  0.990167  1
  Tb  Tb11  1  0.487023  0.510075  0.992757  1
  Tb  Tb12  1  0.023051  0.510075  0.992757  1
  Ho  Ho13  1  0.999371  0.998742  0.498715  1
  Ho  Ho14  1  0.000966  0.001932  0.997850  1
  Zn  Zn15  1  0.166421  0.332843  0.300099  1
  Sn  Sn16  1  0.165885  0.331772  0.729402  1
  Sn  Sn17  1  0.165379  0.833031  0.728343  1
  Sn  Sn18  1  0.667651  0.833031  0.728343  1
  Sn  Sn19  1  0.834136  0.668269  0.229575  1
  Sn  Sn20  1  0.832057  0.165477  0.226836  1
  Sn  Sn21  1  0.333422  0.165477  0.226836  1
  Sn  Sn22  1  0.334444  0.668888  0.257869  1
  Sn  Sn23  1  0.667052  0.334105  0.760142  1
