# generated using pymatgen
data_Yb4Sc4B24IrRu3
_symmetry_space_group_name_H-M   'P 1'
_cell_length_a   3.53470100
_cell_length_b   8.97868695
_cell_length_c   11.36082401
_cell_angle_alpha   90.02449682
_cell_angle_beta   90.00000000
_cell_angle_gamma   90.00000000
_symmetry_Int_Tables_number   1
_chemical_formula_structural   Yb4Sc4B24IrRu3
_chemical_formula_sum   'Yb4 Sc4 B24 Ir1 Ru3'
_cell_volume   360.55814031
_cell_formula_units_Z   1
loop_
 _symmetry_equiv_pos_site_id
 _symmetry_equiv_pos_as_xyz
  1  'x, y, z'
loop_
 _atom_site_type_symbol
 _atom_site_label
 _atom_site_symmetry_multiplicity
 _atom_site_fract_x
 _atom_site_fract_y
 _atom_site_fract_z
 _atom_site_occupancy
  Yb  Yb0  1  0.500000  0.321072  0.415267  1
  Yb  Yb1  1  0.500000  0.677767  0.587139  1
  Yb  Yb2  1  0.500000  0.176910  0.914335  1
  Yb  Yb3  1  0.500000  0.824258  0.083538  1
  Sc  Sc4  1  0.500000  0.440649  0.128214  1
  Sc  Sc5  1  0.500000  0.556790  0.869938  1
  Sc  Sc6  1  0.500000  0.056594  0.630691  1
  Sc  Sc7  1  0.500000  0.946102  0.369759  1
  B  B8  1  0.000000  0.095256  0.474232  1
  B  B9  1  0.000000  0.904275  0.525929  1
  B  B10  1  0.000000  0.404243  0.973954  1
  B  B11  1  0.000000  0.595768  0.026024  1
  B  B12  1  0.000000  0.129930  0.316974  1
  B  B13  1  0.000000  0.870188  0.683444  1
  B  B14  1  0.000000  0.370446  0.816486  1
  B  B15  1  0.000000  0.630165  0.182480  1
  B  B16  1  0.000000  0.054581  0.067219  1
  B  B17  1  0.000000  0.945640  0.932368  1
  B  B18  1  0.000000  0.445137  0.567685  1
  B  B19  1  0.000000  0.554581  0.433494  1
  B  B20  1  0.000000  0.481987  0.287163  1
  B  B21  1  0.000000  0.518192  0.713108  1
  B  B22  1  0.000000  0.018011  0.787040  1
  B  B23  1  0.000000  0.982577  0.213041  1
  B  B24  1  0.000000  0.252173  0.082276  1
  B  B25  1  0.000000  0.747778  0.917684  1
  B  B26  1  0.000000  0.246989  0.582449  1
  B  B27  1  0.000000  0.752381  0.418440  1
  B  B28  1  0.000000  0.293746  0.235869  1
  B  B29  1  0.000000  0.705866  0.764651  1
  B  B30  1  0.000000  0.205932  0.735533  1
  B  B31  1  0.000000  0.793814  0.263735  1
  Ir  Ir32  1  0.500000  0.640650  0.318246  1
  Ru  Ru33  1  0.500000  0.140553  0.182250  1
  Ru  Ru34  1  0.500000  0.859353  0.817907  1
  Ru  Ru35  1  0.500000  0.359648  0.681437  1
