# generated using pymatgen
data_MgFe4HgBr16
_symmetry_space_group_name_H-M   'P 1'
_cell_length_a   10.65745681
_cell_length_b   10.65745712
_cell_length_c   12.76880597
_cell_angle_alpha   55.66043017
_cell_angle_beta   55.66042832
_cell_angle_gamma   49.33534349
_symmetry_Int_Tables_number   1
_chemical_formula_structural   MgFe4HgBr16
_chemical_formula_sum   'Mg1 Fe4 Hg1 Br16'
_cell_volume   862.49731144
_cell_formula_units_Z   1
loop_
 _symmetry_equiv_pos_site_id
 _symmetry_equiv_pos_as_xyz
  1  'x, y, z'
loop_
 _atom_site_type_symbol
 _atom_site_label
 _atom_site_symmetry_multiplicity
 _atom_site_fract_x
 _atom_site_fract_y
 _atom_site_fract_z
 _atom_site_occupancy
  Mg  Mg0  1  0.005258  0.994742  0.250000  1
  Fe  Fe1  1  0.156123  0.677773  0.527816  1
  Fe  Fe2  1  0.322227  0.843877  0.972184  1
  Fe  Fe3  1  0.843868  0.322364  0.468404  1
  Fe  Fe4  1  0.677636  0.156132  0.031596  1
  Hg  Hg5  1  0.999345  0.000655  0.750000  1
  Br  Br6  1  0.303673  0.388624  0.548470  1
  Br  Br7  1  0.611376  0.696327  0.951530  1
  Br  Br8  1  0.696681  0.610816  0.449854  1
  Br  Br9  1  0.389184  0.303319  0.050146  1
  Br  Br10  1  0.874167  0.830825  0.507599  1
  Br  Br11  1  0.169175  0.125833  0.992401  1
  Br  Br12  1  0.129301  0.179577  0.478071  1
  Br  Br13  1  0.820423  0.870699  0.021929  1
  Br  Br14  1  0.146343  0.680402  0.718170  1
  Br  Br15  1  0.319598  0.853657  0.781830  1
  Br  Br16  1  0.860890  0.303337  0.281728  1
  Br  Br17  1  0.696663  0.139110  0.218272  1
  Br  Br18  1  0.285823  0.839960  0.322593  1
  Br  Br19  1  0.160040  0.714177  0.177407  1
  Br  Br20  1  0.701986  0.169779  0.671280  1
  Br  Br21  1  0.830221  0.298014  0.828720  1
