# generated using pymatgen
data_Y2Al9Ir2Pd
_symmetry_space_group_name_H-M   'P 1'
_cell_length_a   7.58187003
_cell_length_b   7.58187097
_cell_length_c   9.48600135
_cell_angle_alpha   89.96932654
_cell_angle_beta   89.96932810
_cell_angle_gamma   119.60675051
_symmetry_Int_Tables_number   1
_chemical_formula_structural   Y2Al9Ir2Pd
_chemical_formula_sum   'Y4 Al18 Ir4 Pd2'
_cell_volume   474.10402573
_cell_formula_units_Z   2
loop_
 _symmetry_equiv_pos_site_id
 _symmetry_equiv_pos_as_xyz
  1  'x, y, z'
loop_
 _atom_site_type_symbol
 _atom_site_label
 _atom_site_symmetry_multiplicity
 _atom_site_fract_x
 _atom_site_fract_y
 _atom_site_fract_z
 _atom_site_occupancy
  Y  Y0  1  0.995221  0.670462  0.251359  1
  Y  Y1  1  0.004779  0.329538  0.748641  1
  Y  Y2  1  0.670462  0.995221  0.251359  1
  Y  Y3  1  0.329538  0.004779  0.748641  1
  Al  Al4  1  0.127925  0.127925  0.250954  1
  Al  Al5  1  0.872075  0.872075  0.749046  1
  Al  Al6  1  0.000980  0.331770  0.077288  1
  Al  Al7  1  0.999020  0.668230  0.922712  1
  Al  Al8  1  0.999946  0.665027  0.573847  1
  Al  Al9  1  0.334973  0.000054  0.426153  1
  Al  Al10  1  0.000054  0.334973  0.426153  1
  Al  Al11  1  0.665027  0.999946  0.573847  1
  Al  Al12  1  0.668230  0.999020  0.922712  1
  Al  Al13  1  0.331770  0.000980  0.077288  1
  Al  Al14  1  0.332616  0.332616  0.550138  1
  Al  Al15  1  0.667384  0.667384  0.449862  1
  Al  Al16  1  0.668548  0.668548  0.056966  1
  Al  Al17  1  0.331452  0.331452  0.943034  1
  Al  Al18  1  0.340158  0.547186  0.253025  1
  Al  Al19  1  0.659842  0.452814  0.746975  1
  Al  Al20  1  0.547186  0.340158  0.253025  1
  Al  Al21  1  0.452814  0.659842  0.746975  1
  Ir  Ir22  1  0.328109  0.671891  0.500000  1
  Ir  Ir23  1  0.671891  0.328109  0.500000  1
  Ir  Ir24  1  0.000000  0.000000  0.000000  1
  Ir  Ir25  1  0.000000  0.000000  0.500000  1
  Pd  Pd26  1  0.672040  0.327960  0.000000  1
  Pd  Pd27  1  0.327960  0.672040  0.000000  1
