# generated using pymatgen
data_Ho4Er8InCo4Rh
_symmetry_space_group_name_H-M   'P 1'
_cell_length_a   8.25092323
_cell_length_b   8.25079742
_cell_length_c   8.25092527
_cell_angle_alpha   110.83306593
_cell_angle_beta   110.84379221
_cell_angle_gamma   106.77068618
_symmetry_Int_Tables_number   1
_chemical_formula_structural   Ho4Er8InCo4Rh
_chemical_formula_sum   'Ho4 Er8 In1 Co4 Rh1'
_cell_volume   431.67416004
_cell_formula_units_Z   1
loop_
 _symmetry_equiv_pos_site_id
 _symmetry_equiv_pos_as_xyz
  1  'x, y, z'
loop_
 _atom_site_type_symbol
 _atom_site_label
 _atom_site_symmetry_multiplicity
 _atom_site_fract_x
 _atom_site_fract_y
 _atom_site_fract_z
 _atom_site_occupancy
  Ho  Ho0  1  0.186285  0.289727  0.476002  1
  Ho  Ho1  1  0.813715  0.710273  0.523998  1
  Ho  Ho2  1  0.186275  0.710273  0.896558  1
  Ho  Ho3  1  0.813725  0.289727  0.103442  1
  Er  Er4  1  0.314319  0.619918  0.305599  1
  Er  Er5  1  0.685681  0.380082  0.694401  1
  Er  Er6  1  0.314320  0.008727  0.694407  1
  Er  Er7  1  0.685680  0.991273  0.305593  1
  Er  Er8  1  0.409405  0.214570  0.194836  1
  Er  Er9  1  0.590595  0.785430  0.805164  1
  Er  Er10  1  0.019735  0.214570  0.805165  1
  Er  Er11  1  0.980265  0.785430  0.194835  1
  In  In12  1  0.500000  0.500000  0.000000  1
  Co  Co13  1  0.111977  0.611976  0.499999  1
  Co  Co14  1  0.888023  0.388024  0.500001  1
  Co  Co15  1  0.378787  0.000000  0.378787  1
  Co  Co16  1  0.621213  0.000000  0.621213  1
  Rh  Rh17  1  0.000000  0.000000  0.000000  1
