# generated using pymatgen
data_ErMgB6Ir
_symmetry_space_group_name_H-M   'P 1'
_cell_length_a   3.54303500
_cell_length_b   8.89359900
_cell_length_c   11.29973400
_cell_angle_alpha   90.00000000
_cell_angle_beta   90.00000000
_cell_angle_gamma   90.00000000
_symmetry_Int_Tables_number   1
_chemical_formula_structural   ErMgB6Ir
_chemical_formula_sum   'Er4 Mg4 B24 Ir4'
_cell_volume   356.05837587
_cell_formula_units_Z   4
loop_
 _symmetry_equiv_pos_site_id
 _symmetry_equiv_pos_as_xyz
  1  'x, y, z'
loop_
 _atom_site_type_symbol
 _atom_site_label
 _atom_site_symmetry_multiplicity
 _atom_site_fract_x
 _atom_site_fract_y
 _atom_site_fract_z
 _atom_site_occupancy
  Er  Er0  1  0.500000  0.318018  0.414466  1
  Er  Er1  1  0.500000  0.681982  0.585534  1
  Er  Er2  1  0.500000  0.181982  0.914466  1
  Er  Er3  1  0.500000  0.818018  0.085534  1
  Mg  Mg4  1  0.500000  0.448067  0.118434  1
  Mg  Mg5  1  0.500000  0.551933  0.881566  1
  Mg  Mg6  1  0.500000  0.051933  0.618434  1
  Mg  Mg7  1  0.500000  0.948067  0.381566  1
  B  B8  1  0.000000  0.100822  0.472814  1
  B  B9  1  0.000000  0.899178  0.527186  1
  B  B10  1  0.000000  0.399178  0.972814  1
  B  B11  1  0.000000  0.600822  0.027186  1
  B  B12  1  0.000000  0.127936  0.319200  1
  B  B13  1  0.000000  0.872064  0.680800  1
  B  B14  1  0.000000  0.372064  0.819200  1
  B  B15  1  0.000000  0.627936  0.180800  1
  B  B16  1  0.000000  0.055615  0.066767  1
  B  B17  1  0.000000  0.944385  0.933233  1
  B  B18  1  0.000000  0.444385  0.566767  1
  B  B19  1  0.000000  0.555615  0.433233  1
  B  B20  1  0.000000  0.481225  0.284980  1
  B  B21  1  0.000000  0.518775  0.715020  1
  B  B22  1  0.000000  0.018775  0.784980  1
  B  B23  1  0.000000  0.981225  0.215020  1
  B  B24  1  0.000000  0.255344  0.079368  1
  B  B25  1  0.000000  0.744656  0.920632  1
  B  B26  1  0.000000  0.244656  0.579368  1
  B  B27  1  0.000000  0.755344  0.420632  1
  B  B28  1  0.000000  0.294039  0.234905  1
  B  B29  1  0.000000  0.705961  0.765095  1
  B  B30  1  0.000000  0.205961  0.734905  1
  B  B31  1  0.000000  0.794039  0.265095  1
  Ir  Ir32  1  0.500000  0.140503  0.181777  1
  Ir  Ir33  1  0.500000  0.859497  0.818223  1
  Ir  Ir34  1  0.500000  0.359497  0.681777  1
  Ir  Ir35  1  0.500000  0.640503  0.318223  1
