# generated using pymatgen
data_La2Nd14Cd4IrPd3
_symmetry_space_group_name_H-M   'P 1'
_cell_length_a   10.04496434
_cell_length_b   10.02115350
_cell_length_c   10.01940200
_cell_angle_alpha   60.00578153
_cell_angle_beta   60.08414539
_cell_angle_gamma   60.09405715
_symmetry_Int_Tables_number   1
_chemical_formula_structural   La2Nd14Cd4IrPd3
_chemical_formula_sum   'La2 Nd14 Cd4 Ir1 Pd3'
_cell_volume   714.15999166
_cell_formula_units_Z   1
loop_
 _symmetry_equiv_pos_site_id
 _symmetry_equiv_pos_as_xyz
  1  'x, y, z'
loop_
 _atom_site_type_symbol
 _atom_site_label
 _atom_site_symmetry_multiplicity
 _atom_site_fract_x
 _atom_site_fract_y
 _atom_site_fract_z
 _atom_site_occupancy
  La  La0  1  0.353074  0.346850  0.347752  1
  La  La1  1  0.353074  0.346850  0.952323  1
  Nd  Nd2  1  0.354760  0.944657  0.350291  1
  Nd  Nd3  1  0.934468  0.355205  0.355163  1
  Nd  Nd4  1  0.807708  0.189136  0.189218  1
  Nd  Nd5  1  0.193050  0.810092  0.807461  1
  Nd  Nd6  1  0.193050  0.810092  0.189397  1
  Nd  Nd7  1  0.807708  0.189136  0.813936  1
  Nd  Nd8  1  0.193080  0.188853  0.809033  1
  Nd  Nd9  1  0.805749  0.815012  0.189619  1
  Nd  Nd10  1  0.939527  0.563432  0.564510  1
  Nd  Nd11  1  0.566489  0.936977  0.934768  1
  Nd  Nd12  1  0.566489  0.936977  0.561766  1
  Nd  Nd13  1  0.939527  0.563432  0.932531  1
  Nd  Nd14  1  0.567774  0.561982  0.935122  1
  Nd  Nd15  1  0.937424  0.935206  0.563685  1
  Cd  Cd16  1  0.580570  0.582068  0.580234  1
  Cd  Cd17  1  0.580570  0.582068  0.257127  1
  Cd  Cd18  1  0.581528  0.256411  0.581029  1
  Cd  Cd19  1  0.257995  0.581402  0.580301  1
  Ir  Ir20  1  0.569355  0.143761  0.143442  1
  Pd  Pd21  1  0.139265  0.144729  0.147071  1
  Pd  Pd22  1  0.139265  0.144729  0.568934  1
  Pd  Pd23  1  0.138497  0.570936  0.145283  1
