# generated using pymatgen
data_Sm8Lu11Si16W
_symmetry_space_group_name_H-M   'P 1'
_cell_length_a   7.31861771
_cell_length_b   7.57416563
_cell_length_c   14.39332100
_cell_angle_alpha   90.27471068
_cell_angle_beta   89.42409028
_cell_angle_gamma   89.68901726
_symmetry_Int_Tables_number   1
_chemical_formula_structural   Sm8Lu11Si16W
_chemical_formula_sum   'Sm8 Lu11 Si16 W1'
_cell_volume   797.79521603
_cell_formula_units_Z   1
loop_
 _symmetry_equiv_pos_site_id
 _symmetry_equiv_pos_as_xyz
  1  'x, y, z'
loop_
 _atom_site_type_symbol
 _atom_site_label
 _atom_site_symmetry_multiplicity
 _atom_site_fract_x
 _atom_site_fract_y
 _atom_site_fract_z
 _atom_site_occupancy
  Sm  Sm0  1  0.016195  0.175768  0.097696  1
  Sm  Sm1  1  0.986403  0.824906  0.897038  1
  Sm  Sm2  1  0.484330  0.678034  0.896352  1
  Sm  Sm3  1  0.991793  0.830958  0.596684  1
  Sm  Sm4  1  0.517295  0.323997  0.096285  1
  Sm  Sm5  1  0.013628  0.178588  0.403047  1
  Sm  Sm6  1  0.505958  0.322439  0.411098  1
  Sm  Sm7  1  0.486281  0.676675  0.597919  1
  Lu  Lu8  1  0.164711  0.497923  0.743723  1
  Lu  Lu9  1  0.837438  0.493223  0.253587  1
  Lu  Lu10  1  0.336752  0.009440  0.251400  1
  Lu  Lu11  1  0.658144  0.997519  0.746709  1
  Lu  Lu12  1  0.663353  0.828005  0.381230  1
  Lu  Lu13  1  0.169417  0.675768  0.383307  1
  Lu  Lu14  1  0.672564  0.822486  0.122776  1
  Lu  Lu15  1  0.835784  0.323785  0.620310  1
  Lu  Lu16  1  0.329725  0.178478  0.876231  1
  Lu  Lu17  1  0.825073  0.323345  0.871965  1
  Lu  Lu18  1  0.172893  0.678367  0.123711  1
  Si  Si19  1  0.046366  0.119531  0.742792  1
  Si  Si20  1  0.963606  0.886808  0.252695  1
  Si  Si21  1  0.464673  0.618697  0.250830  1
  Si  Si22  1  0.529418  0.368272  0.742685  1
  Si  Si23  1  0.283570  0.884200  0.744882  1
  Si  Si24  1  0.716305  0.123797  0.250821  1
  Si  Si25  1  0.219996  0.377996  0.250648  1
  Si  Si26  1  0.783264  0.623630  0.746201  1
  Si  Si27  1  0.190056  0.440254  0.542304  1
  Si  Si28  1  0.834839  0.532535  0.459037  1
  Si  Si29  1  0.330411  0.972909  0.477109  1
  Si  Si30  1  0.849481  0.532392  0.038196  1
  Si  Si31  1  0.635614  0.036771  0.546696  1
  Si  Si32  1  0.150043  0.469379  0.958584  1
  Si  Si33  1  0.658366  0.032879  0.958279  1
  Si  Si34  1  0.346355  0.965865  0.038337  1
  W  W35  1  0.329900  0.174377  0.628832  1
