# generated using pymatgen
data_ErCo3P3Rh2
_symmetry_space_group_name_H-M   'P 1'
_cell_length_a   3.72776000
_cell_length_b   10.44763700
_cell_length_c   12.08169300
_cell_angle_alpha   90.00000000
_cell_angle_beta   90.00000000
_cell_angle_gamma   90.00000000
_symmetry_Int_Tables_number   1
_chemical_formula_structural   ErCo3P3Rh2
_chemical_formula_sum   'Er4 Co12 P12 Rh8'
_cell_volume   470.53703836
_cell_formula_units_Z   4
loop_
 _symmetry_equiv_pos_site_id
 _symmetry_equiv_pos_as_xyz
  1  'x, y, z'
loop_
 _atom_site_type_symbol
 _atom_site_label
 _atom_site_symmetry_multiplicity
 _atom_site_fract_x
 _atom_site_fract_y
 _atom_site_fract_z
 _atom_site_occupancy
  Er  Er0  1  0.250000  0.583998  0.711079  1
  Er  Er1  1  0.250000  0.916002  0.211079  1
  Er  Er2  1  0.750000  0.416002  0.288921  1
  Er  Er3  1  0.750000  0.083998  0.788921  1
  Co  Co4  1  0.250000  0.220925  0.178508  1
  Co  Co5  1  0.250000  0.279075  0.678508  1
  Co  Co6  1  0.750000  0.779075  0.821492  1
  Co  Co7  1  0.750000  0.720925  0.321492  1
  Co  Co8  1  0.250000  0.882614  0.697259  1
  Co  Co9  1  0.250000  0.617386  0.197259  1
  Co  Co10  1  0.750000  0.117386  0.302741  1
  Co  Co11  1  0.750000  0.382614  0.802741  1
  Co  Co12  1  0.250000  0.462997  0.931038  1
  Co  Co13  1  0.250000  0.037003  0.431038  1
  Co  Co14  1  0.750000  0.537003  0.068962  1
  Co  Co15  1  0.750000  0.962997  0.568962  1
  P  P16  1  0.250000  0.421682  0.110976  1
  P  P17  1  0.250000  0.078318  0.610976  1
  P  P18  1  0.750000  0.578318  0.889024  1
  P  P19  1  0.750000  0.921682  0.389024  1
  P  P20  1  0.250000  0.273840  0.861829  1
  P  P21  1  0.250000  0.226160  0.361829  1
  P  P22  1  0.750000  0.726160  0.138171  1
  P  P23  1  0.750000  0.773840  0.638171  1
  P  P24  1  0.250000  0.603784  0.379029  1
  P  P25  1  0.250000  0.896216  0.879029  1
  P  P26  1  0.750000  0.396216  0.620971  1
  P  P27  1  0.750000  0.103784  0.120971  1
  Rh  Rh28  1  0.250000  0.711959  0.986559  1
  Rh  Rh29  1  0.250000  0.788041  0.486559  1
  Rh  Rh30  1  0.750000  0.288041  0.013441  1
  Rh  Rh31  1  0.750000  0.211959  0.513441  1
  Rh  Rh32  1  0.250000  0.406623  0.478352  1
  Rh  Rh33  1  0.250000  0.093377  0.978352  1
  Rh  Rh34  1  0.750000  0.593377  0.521648  1
  Rh  Rh35  1  0.750000  0.906623  0.021648  1
