# generated using pymatgen
data_Yb2In4IrPd
_symmetry_space_group_name_H-M   'P 1'
_cell_length_a   5.57667123
_cell_length_b   5.57667075
_cell_length_c   8.24970700
_cell_angle_alpha   90.00000000
_cell_angle_beta   90.00000000
_cell_angle_gamma   134.92257627
_symmetry_Int_Tables_number   1
_chemical_formula_structural   Yb2In4IrPd
_chemical_formula_sum   'Yb2 In4 Ir1 Pd1'
_cell_volume   181.66013870
_cell_formula_units_Z   1
loop_
 _symmetry_equiv_pos_site_id
 _symmetry_equiv_pos_as_xyz
  1  'x, y, z'
loop_
 _atom_site_type_symbol
 _atom_site_label
 _atom_site_symmetry_multiplicity
 _atom_site_fract_x
 _atom_site_fract_y
 _atom_site_fract_z
 _atom_site_occupancy
  Yb  Yb0  1  0.066885  0.933115  0.250000  1
  Yb  Yb1  1  0.931496  0.068504  0.750000  1
  In  In2  1  0.644871  0.355129  0.553540  1
  In  In3  1  0.355619  0.644381  0.451903  1
  In  In4  1  0.644871  0.355129  0.946460  1
  In  In5  1  0.355619  0.644381  0.048097  1
  Ir  Ir6  1  0.219412  0.780588  0.750000  1
  Pd  Pd7  1  0.781225  0.218775  0.250000  1
