# generated using pymatgen
data_CeTmNi2Hg
_symmetry_space_group_name_H-M   'P 1'
_cell_length_a   7.44279500
_cell_length_b   7.37473500
_cell_length_c   3.57552000
_cell_angle_alpha   90.00000000
_cell_angle_beta   90.00000000
_cell_angle_gamma   90.00000000
_symmetry_Int_Tables_number   1
_chemical_formula_structural   CeTmNi2Hg
_chemical_formula_sum   'Ce2 Tm2 Ni4 Hg2'
_cell_volume   196.25543290
_cell_formula_units_Z   2
loop_
 _symmetry_equiv_pos_site_id
 _symmetry_equiv_pos_as_xyz
  1  'x, y, z'
loop_
 _atom_site_type_symbol
 _atom_site_label
 _atom_site_symmetry_multiplicity
 _atom_site_fract_x
 _atom_site_fract_y
 _atom_site_fract_z
 _atom_site_occupancy
  Ce  Ce0  1  0.323346  0.171787  0.499999  1
  Ce  Ce1  1  0.823346  0.328212  0.499999  1
  Tm  Tm2  1  0.174252  0.675086  0.499999  1
  Tm  Tm3  1  0.674253  0.824914  0.499999  1
  Ni  Ni4  1  0.624417  0.129992  0.000000  1
  Ni  Ni5  1  0.124418  0.370009  0.000000  1
  Ni  Ni6  1  0.881357  0.611280  0.000000  1
  Ni  Ni7  1  0.381357  0.888720  0.000000  1
  Hg  Hg8  1  0.996627  0.990170  0.000000  1
  Hg  Hg9  1  0.496627  0.509830  0.000000  1
