# generated using pymatgen
data_Y2Ni(B2O5)2
_symmetry_space_group_name_H-M   'P 1'
_cell_length_a   4.56037046
_cell_length_b   7.31232400
_cell_length_c   9.44955361
_cell_angle_alpha   90.00000000
_cell_angle_beta   91.33551553
_cell_angle_gamma   90.00000000
_symmetry_Int_Tables_number   1
_chemical_formula_structural   Y2Ni(B2O5)2
_chemical_formula_sum   'Y4 Ni2 B8 O20'
_cell_volume   315.02778042
_cell_formula_units_Z   2
loop_
 _symmetry_equiv_pos_site_id
 _symmetry_equiv_pos_as_xyz
  1  'x, y, z'
loop_
 _atom_site_type_symbol
 _atom_site_label
 _atom_site_symmetry_multiplicity
 _atom_site_fract_x
 _atom_site_fract_y
 _atom_site_fract_z
 _atom_site_occupancy
  Y  Y0  1  0.003972  0.398922  0.164838  1
  Y  Y1  1  0.996027  0.898922  0.335162  1
  Y  Y2  1  0.003973  0.101078  0.664837  1
  Y  Y3  1  0.996028  0.601078  0.835162  1
  Ni  Ni4  1  0.000000  0.000000  0.000000  1
  Ni  Ni5  1  0.000000  0.500000  0.500000  1
  B  B6  1  0.471168  0.736593  0.085662  1
  B  B7  1  0.465384  0.096093  0.160248  1
  B  B8  1  0.534617  0.596094  0.339752  1
  B  B9  1  0.528833  0.236593  0.414338  1
  B  B10  1  0.471167  0.763407  0.585661  1
  B  B11  1  0.465383  0.403907  0.660249  1
  B  B12  1  0.534616  0.903907  0.839751  1
  B  B13  1  0.528832  0.263407  0.914339  1
  O  O14  1  0.333899  0.205960  0.036409  1
  O  O15  1  0.250624  0.610253  0.040050  1
  O  O16  1  0.322452  0.908887  0.142527  1
  O  O17  1  0.777233  0.095335  0.165612  1
  O  O18  1  0.669772  0.670889  0.206025  1
  O  O19  1  0.330229  0.170888  0.293975  1
  O  O20  1  0.222769  0.595335  0.334388  1
  O  O21  1  0.677547  0.408887  0.357473  1
  O  O22  1  0.749377  0.110253  0.459950  1
  O  O23  1  0.666102  0.705960  0.463591  1
  O  O24  1  0.333900  0.294040  0.536409  1
  O  O25  1  0.250623  0.889748  0.540050  1
  O  O26  1  0.322453  0.591113  0.642527  1
  O  O27  1  0.777231  0.404665  0.665612  1
  O  O28  1  0.669771  0.829112  0.706025  1
  O  O29  1  0.330228  0.329112  0.793974  1
  O  O30  1  0.222767  0.904665  0.834388  1
  O  O31  1  0.677548  0.091113  0.857473  1
  O  O32  1  0.749376  0.389748  0.959951  1
  O  O33  1  0.666101  0.794040  0.963591  1
