# generated using pymatgen
data_ScB2H7
_symmetry_space_group_name_H-M   'P 1'
_cell_length_a   3.95608968
_cell_length_b   4.80192518
_cell_length_c   4.83335054
_cell_angle_alpha   108.63607240
_cell_angle_beta   88.26418145
_cell_angle_gamma   89.26436835
_symmetry_Int_Tables_number   1
_chemical_formula_structural   ScB2H7
_chemical_formula_sum   'Sc1 B2 H7'
_cell_volume   86.93963427
_cell_formula_units_Z   1
loop_
 _symmetry_equiv_pos_site_id
 _symmetry_equiv_pos_as_xyz
  1  'x, y, z'
loop_
 _atom_site_type_symbol
 _atom_site_label
 _atom_site_symmetry_multiplicity
 _atom_site_fract_x
 _atom_site_fract_y
 _atom_site_fract_z
 _atom_site_occupancy
  Sc  Sc0  1  0.396433  0.061838  0.522550  1
  B  B1  1  0.386682  0.915940  0.984043  1
  B  B2  1  0.404221  0.601494  0.674696  1
  H  H3  1  0.138459  0.463681  0.655784  1
  H  H4  1  0.637260  0.446574  0.716314  1
  H  H5  1  0.314377  0.165498  0.975570  1
  H  H6  1  0.895457  0.000997  0.579333  1
  H  H7  1  0.468583  0.605808  0.423006  1
  H  H8  1  0.156304  0.869969  0.142119  1
  H  H9  1  0.653710  0.946569  0.117594  1
