# generated using pymatgen
data_Tb9Ho6Er5Pb16
_symmetry_space_group_name_H-M   'P 1'
_cell_length_a   8.19706016
_cell_length_b   8.28035480
_cell_length_c   15.62945301
_cell_angle_alpha   90.00128389
_cell_angle_beta   90.01234000
_cell_angle_gamma   90.06302939
_symmetry_Int_Tables_number   1
_chemical_formula_structural   Tb9Ho6Er5Pb16
_chemical_formula_sum   'Tb9 Ho6 Er5 Pb16'
_cell_volume   1060.84168084
_cell_formula_units_Z   1
loop_
 _symmetry_equiv_pos_site_id
 _symmetry_equiv_pos_as_xyz
  1  'x, y, z'
loop_
 _atom_site_type_symbol
 _atom_site_label
 _atom_site_symmetry_multiplicity
 _atom_site_fract_x
 _atom_site_fract_y
 _atom_site_fract_z
 _atom_site_occupancy
  Tb  Tb0  1  0.876709  0.659430  0.879504  1
  Tb  Tb1  1  0.534255  0.322767  0.900156  1
  Tb  Tb2  1  0.034475  0.176915  0.599739  1
  Tb  Tb3  1  0.465620  0.677019  0.400140  1
  Tb  Tb4  1  0.965574  0.823325  0.100292  1
  Tb  Tb5  1  0.465854  0.676798  0.099933  1
  Tb  Tb6  1  0.965553  0.823040  0.400071  1
  Tb  Tb7  1  0.534235  0.322890  0.599813  1
  Tb  Tb8  1  0.034425  0.176733  0.900023  1
  Ho  Ho9  1  0.376341  0.840818  0.879010  1
  Ho  Ho10  1  0.876405  0.658984  0.620796  1
  Ho  Ho11  1  0.623665  0.158998  0.379100  1
  Ho  Ho12  1  0.123481  0.341096  0.120807  1
  Ho  Ho13  1  0.623330  0.158935  0.121235  1
  Ho  Ho14  1  0.123567  0.340872  0.379113  1
  Er  Er15  1  0.376580  0.841013  0.620742  1
  Er  Er16  1  0.208366  0.504382  0.749818  1
  Er  Er17  1  0.707926  0.995739  0.749774  1
  Er  Er18  1  0.791806  0.495449  0.250102  1
  Er  Er19  1  0.291787  0.004382  0.249954  1
  Pb  Pb20  1  0.282382  0.034097  0.042729  1
  Pb  Pb21  1  0.782512  0.465884  0.457246  1
  Pb  Pb22  1  0.717361  0.965864  0.542728  1
  Pb  Pb23  1  0.218996  0.533617  0.957361  1
  Pb  Pb24  1  0.716744  0.967260  0.957362  1
  Pb  Pb25  1  0.217506  0.534309  0.542745  1
  Pb  Pb26  1  0.282479  0.034051  0.457305  1
  Pb  Pb27  1  0.782170  0.465242  0.043479  1
  Pb  Pb28  1  0.570919  0.627340  0.749612  1
  Pb  Pb29  1  0.072029  0.873392  0.749514  1
  Pb  Pb30  1  0.428455  0.372764  0.250068  1
  Pb  Pb31  1  0.928660  0.127283  0.250015  1
  Pb  Pb32  1  0.345429  0.152124  0.749920  1
  Pb  Pb33  1  0.845406  0.347193  0.749738  1
  Pb  Pb34  1  0.654511  0.847662  0.250024  1
  Pb  Pb35  1  0.154485  0.652335  0.250034  1
