# generated using pymatgen
data_Er2TmRh9
_symmetry_space_group_name_H-M   'P 1'
_cell_length_a   5.24342100
_cell_length_b   5.24342093
_cell_length_c   17.55726100
_cell_angle_alpha   90.00000000
_cell_angle_beta   90.00000000
_cell_angle_gamma   119.99999411
_symmetry_Int_Tables_number   1
_chemical_formula_structural   Er2TmRh9
_chemical_formula_sum   'Er4 Tm2 Rh18'
_cell_volume   418.03907234
_cell_formula_units_Z   2
loop_
 _symmetry_equiv_pos_site_id
 _symmetry_equiv_pos_as_xyz
  1  'x, y, z'
loop_
 _atom_site_type_symbol
 _atom_site_label
 _atom_site_symmetry_multiplicity
 _atom_site_fract_x
 _atom_site_fract_y
 _atom_site_fract_z
 _atom_site_occupancy
  Er  Er0  1  0.333333  0.666666  0.250000  1
  Er  Er1  1  0.666667  0.333334  0.541742  1
  Er  Er2  1  0.666667  0.333334  0.750000  1
  Er  Er3  1  0.666667  0.333334  0.958258  1
  Tm  Tm4  1  0.333333  0.666666  0.041873  1
  Tm  Tm5  1  0.333333  0.666666  0.458127  1
  Rh  Rh6  1  0.000000  0.000000  0.000009  1
  Rh  Rh7  1  0.334965  0.167482  0.125197  1
  Rh  Rh8  1  0.832517  0.167482  0.125197  1
  Rh  Rh9  1  0.832518  0.665035  0.125197  1
  Rh  Rh10  1  0.000000  0.000000  0.250000  1
  Rh  Rh11  1  0.666667  0.333334  0.250000  1
  Rh  Rh12  1  0.334965  0.167482  0.374804  1
  Rh  Rh13  1  0.832517  0.167482  0.374804  1
  Rh  Rh14  1  0.832518  0.665035  0.374804  1
  Rh  Rh15  1  0.000000  0.000000  0.499991  1
  Rh  Rh16  1  0.167338  0.334676  0.625215  1
  Rh  Rh17  1  0.167339  0.832662  0.625215  1
  Rh  Rh18  1  0.665324  0.832662  0.625215  1
  Rh  Rh19  1  0.000000  0.000000  0.750000  1
  Rh  Rh20  1  0.333333  0.666666  0.750000  1
  Rh  Rh21  1  0.167338  0.334676  0.874785  1
  Rh  Rh22  1  0.167339  0.832662  0.874785  1
  Rh  Rh23  1  0.665324  0.832662  0.874785  1
