# generated using pymatgen
data_Sr3Ce(ScSe2)8
_symmetry_space_group_name_H-M   'P 1'
_cell_length_a   3.97043300
_cell_length_b   12.24218645
_cell_length_c   14.36409700
_cell_angle_alpha   89.85089828
_cell_angle_beta   90.00000000
_cell_angle_gamma   90.00000000
_symmetry_Int_Tables_number   1
_chemical_formula_structural   Sr3Ce(ScSe2)8
_chemical_formula_sum   'Sr3 Ce1 Sc8 Se16'
_cell_volume   698.19015423
_cell_formula_units_Z   1
loop_
 _symmetry_equiv_pos_site_id
 _symmetry_equiv_pos_as_xyz
  1  'x, y, z'
loop_
 _atom_site_type_symbol
 _atom_site_label
 _atom_site_symmetry_multiplicity
 _atom_site_fract_x
 _atom_site_fract_y
 _atom_site_fract_z
 _atom_site_occupancy
  Sr  Sr0  1  0.250000  0.237998  0.330787  1
  Sr  Sr1  1  0.750000  0.260698  0.831449  1
  Sr  Sr2  1  0.250000  0.738924  0.169354  1
  Ce  Ce3  1  0.750000  0.761973  0.670095  1
  Sc  Sc4  1  0.250000  0.081063  0.596757  1
  Sc  Sc5  1  0.250000  0.058324  0.109542  1
  Sc  Sc6  1  0.750000  0.419176  0.096501  1
  Sc  Sc7  1  0.750000  0.941260  0.890079  1
  Sc  Sc8  1  0.750000  0.442101  0.610505  1
  Sc  Sc9  1  0.250000  0.558667  0.389992  1
  Sc  Sc10  1  0.750000  0.917238  0.403707  1
  Sc  Sc11  1  0.250000  0.581705  0.903631  1
  Se  Se12  1  0.250000  0.871720  0.533234  1
  Se  Se13  1  0.250000  0.795418  0.833098  1
  Se  Se14  1  0.250000  0.970294  0.285480  1
  Se  Se15  1  0.750000  0.411677  0.426397  1
  Se  Se16  1  0.250000  0.471266  0.215402  1
  Se  Se17  1  0.250000  0.088546  0.924104  1
  Se  Se18  1  0.750000  0.203620  0.159467  1
  Se  Se19  1  0.750000  0.022745  0.714124  1
  Se  Se20  1  0.250000  0.594747  0.577408  1
  Se  Se21  1  0.750000  0.703432  0.340759  1
  Se  Se22  1  0.250000  0.296885  0.660580  1
  Se  Se23  1  0.250000  0.375740  0.970083  1
  Se  Se24  1  0.750000  0.625948  0.027906  1
  Se  Se25  1  0.750000  0.535445  0.782665  1
  Se  Se26  1  0.750000  0.123433  0.471756  1
  Se  Se27  1  0.750000  0.909956  0.075140  1
