# generated using pymatgen
data_NdDy3Er(MnB3)2
_symmetry_space_group_name_H-M   'P 1'
_cell_length_a   5.41953527
_cell_length_b   5.41953607
_cell_length_c   8.32136658
_cell_angle_alpha   70.99565834
_cell_angle_beta   70.99565486
_cell_angle_gamma   60.00000270
_symmetry_Int_Tables_number   1
_chemical_formula_structural   NdDy3Er(MnB3)2
_chemical_formula_sum   'Nd1 Dy3 Er1 Mn2 B6'
_cell_volume   196.13171727
_cell_formula_units_Z   1
loop_
 _symmetry_equiv_pos_site_id
 _symmetry_equiv_pos_as_xyz
  1  'x, y, z'
loop_
 _atom_site_type_symbol
 _atom_site_label
 _atom_site_symmetry_multiplicity
 _atom_site_fract_x
 _atom_site_fract_y
 _atom_site_fract_z
 _atom_site_occupancy
  Nd  Nd0  1  0.999915  0.999915  0.000256  1
  Dy  Dy1  1  0.249968  0.249968  0.250094  1
  Dy  Dy2  1  0.750078  0.750078  0.749767  1
  Dy  Dy3  1  0.417435  0.417435  0.747696  1
  Er  Er4  1  0.581749  0.581749  0.254752  1
  Mn  Mn5  1  0.114952  0.114952  0.655145  1
  Mn  Mn6  1  0.885215  0.885215  0.344354  1
  B  B7  1  0.166498  0.833846  0.499656  1
  B  B8  1  0.833846  0.500000  0.499656  1
  B  B9  1  0.500000  0.166498  0.499656  1
  B  B10  1  0.166498  0.500000  0.499656  1
  B  B11  1  0.500000  0.833846  0.499656  1
  B  B12  1  0.833846  0.166498  0.499656  1
