# generated using pymatgen
data_Ho2ZnP6(Ir3Rh)3
_symmetry_space_group_name_H-M   'P 1'
_cell_length_a   9.65887900
_cell_length_b   9.65887851
_cell_length_c   3.94624500
_cell_angle_alpha   90.00000000
_cell_angle_beta   90.00000000
_cell_angle_gamma   120.00000192
_symmetry_Int_Tables_number   1
_chemical_formula_structural   Ho2ZnP6(Ir3Rh)3
_chemical_formula_sum   'Ho2 Zn1 P6 Ir9 Rh3'
_cell_volume   318.83654695
_cell_formula_units_Z   1
loop_
 _symmetry_equiv_pos_site_id
 _symmetry_equiv_pos_as_xyz
  1  'x, y, z'
loop_
 _atom_site_type_symbol
 _atom_site_label
 _atom_site_symmetry_multiplicity
 _atom_site_fract_x
 _atom_site_fract_y
 _atom_site_fract_z
 _atom_site_occupancy
  Ho  Ho0  1  0.333333  0.666667  0.750148  1
  Ho  Ho1  1  0.666667  0.333333  0.244803  1
  Zn  Zn2  1  0.000000  0.000000  0.555519  1
  P  P3  1  0.406782  0.284289  0.745663  1
  P  P4  1  0.715711  0.122492  0.745663  1
  P  P5  1  0.877508  0.593218  0.745663  1
  P  P6  1  0.599787  0.721176  0.249027  1
  P  P7  1  0.278824  0.878611  0.249027  1
  P  P8  1  0.121389  0.400213  0.249027  1
  Ir  Ir9  1  0.453344  0.069247  0.746731  1
  Ir  Ir10  1  0.930753  0.384097  0.746731  1
  Ir  Ir11  1  0.615903  0.546656  0.746731  1
  Ir  Ir12  1  0.540531  0.932849  0.248375  1
  Ir  Ir13  1  0.067151  0.607682  0.248375  1
  Ir  Ir14  1  0.392318  0.459469  0.248375  1
  Ir  Ir15  1  0.167272  0.290875  0.751089  1
  Ir  Ir16  1  0.709125  0.876397  0.751089  1
  Ir  Ir17  1  0.123603  0.832728  0.751089  1
  Rh  Rh18  1  0.843423  0.720152  0.242292  1
  Rh  Rh19  1  0.279848  0.123271  0.242292  1
  Rh  Rh20  1  0.876729  0.156577  0.242292  1
