# generated using pymatgen
data_Rb6ScV(IrBr9)2
_symmetry_space_group_name_H-M   'P 1'
_cell_length_a   7.63441800
_cell_length_b   7.63441893
_cell_length_c   19.06928400
_cell_angle_alpha   90.00000000
_cell_angle_beta   90.00000000
_cell_angle_gamma   119.99999599
_symmetry_Int_Tables_number   1
_chemical_formula_structural   Rb6ScV(IrBr9)2
_chemical_formula_sum   'Rb6 Sc1 V1 Ir2 Br18'
_cell_volume   962.53594816
_cell_formula_units_Z   1
loop_
 _symmetry_equiv_pos_site_id
 _symmetry_equiv_pos_as_xyz
  1  'x, y, z'
loop_
 _atom_site_type_symbol
 _atom_site_label
 _atom_site_symmetry_multiplicity
 _atom_site_fract_x
 _atom_site_fract_y
 _atom_site_fract_z
 _atom_site_occupancy
  Rb  Rb0  1  0.666667  0.333333  0.566479  1
  Rb  Rb1  1  0.333333  0.666667  0.064095  1
  Rb  Rb2  1  0.333333  0.666667  0.434253  1
  Rb  Rb3  1  0.666667  0.333333  0.941268  1
  Rb  Rb4  1  0.000000  0.000000  0.249316  1
  Rb  Rb5  1  0.000000  0.000000  0.747658  1
  Sc  Sc6  1  0.333333  0.666667  0.837194  1
  V  V7  1  0.666667  0.333333  0.168928  1
  Ir  Ir8  1  0.333333  0.666667  0.666957  1
  Ir  Ir9  1  0.666667  0.333333  0.329120  1
  Br  Br10  1  0.821012  0.642024  0.404885  1
  Br  Br11  1  0.178322  0.821678  0.592267  1
  Br  Br12  1  0.643356  0.821678  0.592267  1
  Br  Br13  1  0.821012  0.178988  0.404885  1
  Br  Br14  1  0.357976  0.178988  0.404885  1
  Br  Br15  1  0.168588  0.337176  0.909297  1
  Br  Br16  1  0.016161  0.508080  0.743080  1
  Br  Br17  1  0.662824  0.831412  0.909297  1
  Br  Br18  1  0.824720  0.649440  0.095640  1
  Br  Br19  1  0.178322  0.356644  0.592267  1
  Br  Br20  1  0.491920  0.983839  0.743080  1
  Br  Br21  1  0.509399  0.490601  0.253075  1
  Br  Br22  1  0.491920  0.508080  0.743080  1
  Br  Br23  1  0.168588  0.831412  0.909297  1
  Br  Br24  1  0.350560  0.175280  0.095640  1
  Br  Br25  1  0.981201  0.490601  0.253075  1
  Br  Br26  1  0.509399  0.018799  0.253075  1
  Br  Br27  1  0.824720  0.175280  0.095640  1
