# generated using pymatgen
data_Tm10Cd3Ru
_symmetry_space_group_name_H-M   'P 1'
_cell_length_a   9.44795800
_cell_length_b   9.44795831
_cell_length_c   9.72037500
_cell_angle_alpha   90.00000000
_cell_angle_beta   90.00000000
_cell_angle_gamma   119.99999891
_symmetry_Int_Tables_number   1
_chemical_formula_structural   Tm10Cd3Ru
_chemical_formula_sum   'Tm20 Cd6 Ru2'
_cell_volume   751.43181448
_cell_formula_units_Z   2
loop_
 _symmetry_equiv_pos_site_id
 _symmetry_equiv_pos_as_xyz
  1  'x, y, z'
loop_
 _atom_site_type_symbol
 _atom_site_label
 _atom_site_symmetry_multiplicity
 _atom_site_fract_x
 _atom_site_fract_y
 _atom_site_fract_z
 _atom_site_occupancy
  Tm  Tm0  1  0.000000  0.000000  0.500000  1
  Tm  Tm1  1  0.000000  0.000000  0.000000  1
  Tm  Tm2  1  0.209831  0.790169  0.440515  1
  Tm  Tm3  1  0.209831  0.419663  0.440515  1
  Tm  Tm4  1  0.580337  0.790169  0.440515  1
  Tm  Tm5  1  0.790169  0.209831  0.559485  1
  Tm  Tm6  1  0.790169  0.580337  0.559485  1
  Tm  Tm7  1  0.419663  0.209831  0.559485  1
  Tm  Tm8  1  0.790169  0.209831  0.940515  1
  Tm  Tm9  1  0.790169  0.580337  0.940515  1
  Tm  Tm10  1  0.419663  0.209831  0.940515  1
  Tm  Tm11  1  0.209831  0.790169  0.059485  1
  Tm  Tm12  1  0.209831  0.419663  0.059485  1
  Tm  Tm13  1  0.580337  0.790169  0.059485  1
  Tm  Tm14  1  0.541168  0.458832  0.250000  1
  Tm  Tm15  1  0.541168  0.082335  0.250000  1
  Tm  Tm16  1  0.917665  0.458832  0.250000  1
  Tm  Tm17  1  0.458832  0.541168  0.750000  1
  Tm  Tm18  1  0.458832  0.917665  0.750000  1
  Tm  Tm19  1  0.082335  0.541168  0.750000  1
  Cd  Cd20  1  0.885474  0.114526  0.250000  1
  Cd  Cd21  1  0.885474  0.770949  0.250000  1
  Cd  Cd22  1  0.229051  0.114526  0.250000  1
  Cd  Cd23  1  0.114526  0.885474  0.750000  1
  Cd  Cd24  1  0.114526  0.229051  0.750000  1
  Cd  Cd25  1  0.770949  0.885474  0.750000  1
  Ru  Ru26  1  0.333333  0.666667  0.250000  1
  Ru  Ru27  1  0.666667  0.333333  0.750000  1
