# generated using pymatgen
data_NdGd5FeCl10
_symmetry_space_group_name_H-M   'P 1'
_cell_length_a   7.23887096
_cell_length_b   8.89445390
_cell_length_c   9.08879500
_cell_angle_alpha   109.33216387
_cell_angle_beta   96.71566490
_cell_angle_gamma   106.39293087
_symmetry_Int_Tables_number   1
_chemical_formula_structural   NdGd5FeCl10
_chemical_formula_sum   'Nd1 Gd5 Fe1 Cl10'
_cell_volume   515.24352853
_cell_formula_units_Z   1
loop_
 _symmetry_equiv_pos_site_id
 _symmetry_equiv_pos_as_xyz
  1  'x, y, z'
loop_
 _atom_site_type_symbol
 _atom_site_label
 _atom_site_symmetry_multiplicity
 _atom_site_fract_x
 _atom_site_fract_y
 _atom_site_fract_z
 _atom_site_occupancy
  Nd  Nd0  1  0.635651  0.855734  0.309679  1
  Gd  Gd1  1  0.032051  0.699828  0.403049  1
  Gd  Gd2  1  0.970437  0.301321  0.599198  1
  Gd  Gd3  1  0.864841  0.946476  0.745437  1
  Gd  Gd4  1  0.137990  0.055885  0.256206  1
  Gd  Gd5  1  0.360440  0.141484  0.687366  1
  Fe  Fe6  1  0.001399  0.000749  0.500727  1
  Cl  Cl7  1  0.449856  0.827147  0.578451  1
  Cl  Cl8  1  0.548580  0.177251  0.427519  1
  Cl  Cl9  1  0.911509  0.629771  0.661909  1
  Cl  Cl10  1  0.087298  0.370352  0.338382  1
  Cl  Cl11  1  0.237963  0.080624  0.949482  1
  Cl  Cl12  1  0.767672  0.921483  0.047517  1
  Cl  Cl13  1  0.348762  0.457444  0.773547  1
  Cl  Cl14  1  0.655982  0.536490  0.225651  1
  Cl  Cl15  1  0.785807  0.250863  0.842078  1
  Cl  Cl16  1  0.203760  0.747099  0.153803  1
