# generated using pymatgen
data_Sm8PPdPt23
_symmetry_space_group_name_H-M   'P 1'
_cell_length_a   8.44492900
_cell_length_b   8.44492900
_cell_length_c   8.46347500
_cell_angle_alpha   90.00000000
_cell_angle_beta   90.00000000
_cell_angle_gamma   90.00000000
_symmetry_Int_Tables_number   1
_chemical_formula_structural   Sm8PPdPt23
_chemical_formula_sum   'Sm8 P1 Pd1 Pt23'
_cell_volume   603.58817236
_cell_formula_units_Z   1
loop_
 _symmetry_equiv_pos_site_id
 _symmetry_equiv_pos_as_xyz
  1  'x, y, z'
loop_
 _atom_site_type_symbol
 _atom_site_label
 _atom_site_symmetry_multiplicity
 _atom_site_fract_x
 _atom_site_fract_y
 _atom_site_fract_z
 _atom_site_occupancy
  Sm  Sm0  1  0.254457  0.254457  0.254491  1
  Sm  Sm1  1  0.745279  0.745279  0.744451  1
  Sm  Sm2  1  0.745543  0.745543  0.254491  1
  Sm  Sm3  1  0.745279  0.254721  0.744451  1
  Sm  Sm4  1  0.254721  0.254721  0.744451  1
  Sm  Sm5  1  0.254457  0.745543  0.254491  1
  Sm  Sm6  1  0.254721  0.745279  0.744451  1
  Sm  Sm7  1  0.745543  0.254457  0.254491  1
  P  P8  1  0.000000  0.000000  0.008249  1
  Pd  Pd9  1  0.000000  0.000000  0.728917  1
  Pt  Pt10  1  0.255663  0.500000  0.999753  1
  Pt  Pt11  1  0.744337  0.500000  0.999753  1
  Pt  Pt12  1  0.000000  0.255819  0.500069  1
  Pt  Pt13  1  0.500000  0.255663  0.999753  1
  Pt  Pt14  1  0.000000  0.744181  0.500069  1
  Pt  Pt15  1  0.500000  0.744337  0.999753  1
  Pt  Pt16  1  0.500000  0.000000  0.254615  1
  Pt  Pt17  1  0.255819  0.000000  0.500069  1
  Pt  Pt18  1  0.500000  0.000000  0.742980  1
  Pt  Pt19  1  0.744181  0.000000  0.500069  1
  Pt  Pt20  1  0.000000  0.500000  0.254615  1
  Pt  Pt21  1  0.000000  0.500000  0.742980  1
  Pt  Pt22  1  0.251052  0.500000  0.499443  1
  Pt  Pt23  1  0.748948  0.500000  0.499443  1
  Pt  Pt24  1  0.500000  0.251052  0.499443  1
  Pt  Pt25  1  0.500000  0.748948  0.499443  1
  Pt  Pt26  1  0.500000  0.500000  0.251164  1
  Pt  Pt27  1  0.500000  0.500000  0.748638  1
  Pt  Pt28  1  0.275299  0.000000  0.998441  1
  Pt  Pt29  1  0.724701  0.000000  0.998441  1
  Pt  Pt30  1  0.000000  0.275299  0.998441  1
  Pt  Pt31  1  0.000000  0.724701  0.998441  1
  Pt  Pt32  1  0.000000  0.000000  0.281252  1
