# generated using pymatgen
data_Dy2Mn4Cr(PRh)7
_symmetry_space_group_name_H-M   'P 1'
_cell_length_a   9.44242231
_cell_length_b   9.42246011
_cell_length_c   3.81496200
_cell_angle_alpha   90.00000000
_cell_angle_beta   90.00000000
_cell_angle_gamma   120.06517477
_symmetry_Int_Tables_number   1
_chemical_formula_structural   Dy2Mn4Cr(PRh)7
_chemical_formula_sum   'Dy2 Mn4 Cr1 P7 Rh7'
_cell_volume   293.75345337
_cell_formula_units_Z   1
loop_
 _symmetry_equiv_pos_site_id
 _symmetry_equiv_pos_as_xyz
  1  'x, y, z'
loop_
 _atom_site_type_symbol
 _atom_site_label
 _atom_site_symmetry_multiplicity
 _atom_site_fract_x
 _atom_site_fract_y
 _atom_site_fract_z
 _atom_site_occupancy
  Dy  Dy0  1  0.667777  0.333448  0.000000  1
  Dy  Dy1  1  0.332715  0.664779  0.500000  1
  Mn  Mn2  1  0.887489  0.731723  0.000000  1
  Mn  Mn3  1  0.270891  0.157303  0.000000  1
  Mn  Mn4  1  0.839230  0.109246  0.000000  1
  Mn  Mn5  1  0.778705  0.880343  0.500000  1
  Cr  Cr6  1  0.100614  0.218184  0.500000  1
  P  P7  1  0.108636  0.700643  0.000000  1
  P  P8  1  0.294787  0.404424  0.000000  1
  P  P9  1  0.590275  0.887999  0.000000  1
  P  P10  1  0.722604  0.602185  0.500000  1
  P  P11  1  0.399004  0.122541  0.500000  1
  P  P12  1  0.883029  0.275444  0.500000  1
  P  P13  1  0.001588  0.005074  0.000000  1
  Rh  Rh14  1  0.364012  0.936664  0.000000  1
  Rh  Rh15  1  0.062652  0.427130  0.000000  1
  Rh  Rh16  1  0.571351  0.635080  0.000000  1
  Rh  Rh17  1  0.945845  0.557474  0.500000  1
  Rh  Rh18  1  0.442358  0.387505  0.500000  1
  Rh  Rh19  1  0.610428  0.053862  0.500000  1
  Rh  Rh20  1  0.126012  0.908953  0.500000  1
