# generated using pymatgen
data_CeHo2TaO7
_symmetry_space_group_name_H-M   'P 1'
_cell_length_a   6.50389703
_cell_length_b   6.50389709
_cell_length_c   7.57457300
_cell_angle_alpha   90.00000000
_cell_angle_beta   90.00000000
_cell_angle_gamma   108.89284760
_symmetry_Int_Tables_number   1
_chemical_formula_structural   CeHo2TaO7
_chemical_formula_sum   'Ce2 Ho4 Ta2 O14'
_cell_volume   303.14775278
_cell_formula_units_Z   2
loop_
 _symmetry_equiv_pos_site_id
 _symmetry_equiv_pos_as_xyz
  1  'x, y, z'
loop_
 _atom_site_type_symbol
 _atom_site_label
 _atom_site_symmetry_multiplicity
 _atom_site_fract_x
 _atom_site_fract_y
 _atom_site_fract_z
 _atom_site_occupancy
  Ce  Ce0  1  0.509465  0.509465  0.500000  1
  Ce  Ce1  1  0.490535  0.490535  0.000000  1
  Ho  Ho2  1  0.001109  0.533755  0.245348  1
  Ho  Ho3  1  0.998891  0.466245  0.745348  1
  Ho  Ho4  1  0.533755  0.001109  0.754652  1
  Ho  Ho5  1  0.466245  0.998891  0.254652  1
  Ta  Ta6  1  0.999838  0.999838  0.500000  1
  Ta  Ta7  1  0.000162  0.000162  0.000000  1
  O  O8  1  0.933354  0.066646  0.750000  1
  O  O9  1  0.066646  0.933354  0.250000  1
  O  O10  1  0.356564  0.643436  0.250000  1
  O  O11  1  0.643436  0.356564  0.750000  1
  O  O12  1  0.364235  0.635765  0.750000  1
  O  O13  1  0.635765  0.364235  0.250000  1
  O  O14  1  0.324241  0.072415  0.971722  1
  O  O15  1  0.675759  0.927585  0.471722  1
  O  O16  1  0.314862  0.061093  0.539681  1
  O  O17  1  0.685138  0.938907  0.039681  1
  O  O18  1  0.061093  0.314862  0.460319  1
  O  O19  1  0.938907  0.685138  0.960319  1
  O  O20  1  0.927585  0.675759  0.528278  1
  O  O21  1  0.072415  0.324241  0.028278  1
