# generated using pymatgen
data_TbY3Ga17GeRh6
_symmetry_space_group_name_H-M   'P 1'
_cell_length_a   7.59387013
_cell_length_b   7.57359786
_cell_length_c   9.51783600
_cell_angle_alpha   90.07080787
_cell_angle_beta   89.84060743
_cell_angle_gamma   119.78117582
_symmetry_Int_Tables_number   1
_chemical_formula_structural   TbY3Ga17GeRh6
_chemical_formula_sum   'Tb1 Y3 Ga17 Ge1 Rh6'
_cell_volume   475.10103822
_cell_formula_units_Z   1
loop_
 _symmetry_equiv_pos_site_id
 _symmetry_equiv_pos_as_xyz
  1  'x, y, z'
loop_
 _atom_site_type_symbol
 _atom_site_label
 _atom_site_symmetry_multiplicity
 _atom_site_fract_x
 _atom_site_fract_y
 _atom_site_fract_z
 _atom_site_occupancy
  Tb  Tb0  1  0.331051  0.003043  0.750036  1
  Y  Y1  1  0.996775  0.666636  0.248732  1
  Y  Y2  1  0.003382  0.331503  0.752204  1
  Y  Y3  1  0.670941  0.999602  0.248685  1
  Ga  Ga4  1  0.128146  0.124204  0.251082  1
  Ga  Ga5  1  0.874239  0.875853  0.749786  1
  Ga  Ga6  1  0.999136  0.669913  0.918277  1
  Ga  Ga7  1  0.999692  0.665935  0.579509  1
  Ga  Ga8  1  0.334361  0.999647  0.421083  1
  Ga  Ga9  1  0.001144  0.334801  0.422777  1
  Ga  Ga10  1  0.665087  0.999079  0.579438  1
  Ga  Ga11  1  0.660503  0.995021  0.918432  1
  Ga  Ga12  1  0.333967  0.999482  0.079968  1
  Ga  Ga13  1  0.332912  0.331940  0.563881  1
  Ga  Ga14  1  0.668159  0.668453  0.436706  1
  Ga  Ga15  1  0.667256  0.667771  0.064720  1
  Ga  Ga16  1  0.336947  0.333106  0.934522  1
  Ga  Ga17  1  0.342989  0.548973  0.251619  1
  Ga  Ga18  1  0.662360  0.452494  0.749227  1
  Ga  Ga19  1  0.546911  0.338646  0.249995  1
  Ga  Ga20  1  0.451229  0.659648  0.749406  1
  Ge  Ge21  1  0.998437  0.334548  0.080646  1
  Rh  Rh22  1  0.674862  0.328789  0.000112  1
  Rh  Rh23  1  0.321720  0.664726  0.000635  1
  Rh  Rh24  1  0.327426  0.671067  0.499774  1
  Rh  Rh25  1  0.672286  0.328312  0.498933  1
  Rh  Rh26  1  0.998934  0.006211  0.000439  1
  Rh  Rh27  1  0.999151  0.000596  0.499376  1
