# generated using pymatgen
data_Tb6PrSn23Ru6
_symmetry_space_group_name_H-M   'P 1'
_cell_length_a   9.89232500
_cell_length_b   9.89232373
_cell_length_c   10.11852400
_cell_angle_alpha   90.00000000
_cell_angle_beta   90.00000000
_cell_angle_gamma   120.00000758
_symmetry_Int_Tables_number   1
_chemical_formula_structural   Tb6PrSn23Ru6
_chemical_formula_sum   'Tb6 Pr1 Sn23 Ru6'
_cell_volume   857.52040145
_cell_formula_units_Z   1
loop_
 _symmetry_equiv_pos_site_id
 _symmetry_equiv_pos_as_xyz
  1  'x, y, z'
loop_
 _atom_site_type_symbol
 _atom_site_label
 _atom_site_symmetry_multiplicity
 _atom_site_fract_x
 _atom_site_fract_y
 _atom_site_fract_z
 _atom_site_occupancy
  Tb  Tb0  1  0.484129  0.515871  0.302691  1
  Tb  Tb1  1  0.515871  0.484129  0.697309  1
  Tb  Tb2  1  0.484129  0.968257  0.302691  1
  Tb  Tb3  1  0.515871  0.031743  0.697309  1
  Tb  Tb4  1  0.031743  0.515871  0.302691  1
  Tb  Tb5  1  0.968257  0.484129  0.697309  1
  Pr  Pr6  1  0.000000  0.000000  0.000000  1
  Sn  Sn7  1  0.349707  0.000000  0.000000  1
  Sn  Sn8  1  0.650293  0.000000  0.000000  1
  Sn  Sn9  1  0.000000  0.349707  0.000000  1
  Sn  Sn10  1  0.000000  0.650293  0.000000  1
  Sn  Sn11  1  0.650293  0.650293  0.000000  1
  Sn  Sn12  1  0.349707  0.349707  0.000000  1
  Sn  Sn13  1  0.333333  0.666667  0.821747  1
  Sn  Sn14  1  0.666667  0.333333  0.178253  1
  Sn  Sn15  1  0.000000  0.000000  0.500000  1
  Sn  Sn16  1  0.780461  0.219539  0.461942  1
  Sn  Sn17  1  0.219539  0.780461  0.538058  1
  Sn  Sn18  1  0.780461  0.560923  0.461942  1
  Sn  Sn19  1  0.219539  0.439077  0.538058  1
  Sn  Sn20  1  0.439077  0.219539  0.461942  1
  Sn  Sn21  1  0.560923  0.780461  0.538058  1
  Sn  Sn22  1  0.333333  0.666667  0.125654  1
  Sn  Sn23  1  0.666667  0.333333  0.874346  1
  Sn  Sn24  1  0.118328  0.881672  0.274569  1
  Sn  Sn25  1  0.881672  0.118328  0.725431  1
  Sn  Sn26  1  0.118328  0.236658  0.274569  1
  Sn  Sn27  1  0.881672  0.763342  0.725431  1
  Sn  Sn28  1  0.763342  0.881672  0.274569  1
  Sn  Sn29  1  0.236658  0.118328  0.725431  1
  Ru  Ru30  1  0.829690  0.170310  0.202568  1
  Ru  Ru31  1  0.170310  0.829690  0.797432  1
  Ru  Ru32  1  0.829690  0.659379  0.202568  1
  Ru  Ru33  1  0.170310  0.340621  0.797432  1
  Ru  Ru34  1  0.340621  0.170310  0.202568  1
  Ru  Ru35  1  0.659379  0.829690  0.797432  1
