# generated using pymatgen
data_La4AlCo(SiI)2
_symmetry_space_group_name_H-M   'P 1'
_cell_length_a   4.22811400
_cell_length_b   4.22811525
_cell_length_c   17.69312200
_cell_angle_alpha   90.00000000
_cell_angle_beta   90.00000000
_cell_angle_gamma   120.00000587
_symmetry_Int_Tables_number   1
_chemical_formula_structural   La4AlCo(SiI)2
_chemical_formula_sum   'La4 Al1 Co1 Si2 I2'
_cell_volume   273.92305293
_cell_formula_units_Z   1
loop_
 _symmetry_equiv_pos_site_id
 _symmetry_equiv_pos_as_xyz
  1  'x, y, z'
loop_
 _atom_site_type_symbol
 _atom_site_label
 _atom_site_symmetry_multiplicity
 _atom_site_fract_x
 _atom_site_fract_y
 _atom_site_fract_z
 _atom_site_occupancy
  La  La0  1  0.000000  0.000000  0.398868  1
  La  La1  1  0.000000  0.000000  0.883407  1
  La  La2  1  0.000000  0.000000  0.599061  1
  La  La3  1  0.000000  0.000000  0.116886  1
  Al  Al4  1  0.666667  0.333333  0.001474  1
  Co  Co5  1  0.333333  0.666667  0.502498  1
  Si  Si6  1  0.666667  0.333333  0.497723  1
  Si  Si7  1  0.333333  0.666667  0.998701  1
  I  I8  1  0.333333  0.666667  0.252777  1
  I  I9  1  0.666667  0.333333  0.748605  1
