# generated using pymatgen
data_DyEr3Al18(OsRh2)2
_symmetry_space_group_name_H-M   'P 1'
_cell_length_a   7.51118843
_cell_length_b   7.52250488
_cell_length_c   9.46186200
_cell_angle_alpha   90.00000000
_cell_angle_beta   90.00000000
_cell_angle_gamma   118.57475966
_symmetry_Int_Tables_number   1
_chemical_formula_structural   DyEr3Al18(OsRh2)2
_chemical_formula_sum   'Dy1 Er3 Al18 Os2 Rh4'
_cell_volume   469.50270151
_cell_formula_units_Z   1
loop_
 _symmetry_equiv_pos_site_id
 _symmetry_equiv_pos_as_xyz
  1  'x, y, z'
loop_
 _atom_site_type_symbol
 _atom_site_label
 _atom_site_symmetry_multiplicity
 _atom_site_fract_x
 _atom_site_fract_y
 _atom_site_fract_z
 _atom_site_occupancy
  Dy  Dy0  1  0.993559  0.680585  0.750000  1
  Er  Er1  1  0.006672  0.318556  0.250000  1
  Er  Er2  1  0.680971  0.993072  0.750000  1
  Er  Er3  1  0.318482  0.007129  0.250000  1
  Al  Al4  1  0.133990  0.133984  0.750000  1
  Al  Al5  1  0.865908  0.866240  0.250000  1
  Al  Al6  1  0.001933  0.337663  0.575906  1
  Al  Al7  1  0.998327  0.661922  0.423033  1
  Al  Al8  1  0.998327  0.661922  0.076967  1
  Al  Al9  1  0.338514  0.001946  0.924255  1
  Al  Al10  1  0.001933  0.337663  0.924094  1
  Al  Al11  1  0.661623  0.998676  0.076387  1
  Al  Al12  1  0.661623  0.998676  0.423613  1
  Al  Al13  1  0.338514  0.001946  0.575745  1
  Al  Al14  1  0.331218  0.331175  0.044964  1
  Al  Al15  1  0.668759  0.669082  0.956373  1
  Al  Al16  1  0.668759  0.669082  0.543627  1
  Al  Al17  1  0.331218  0.331175  0.455036  1
  Al  Al18  1  0.342165  0.554627  0.750000  1
  Al  Al19  1  0.658198  0.444609  0.250000  1
  Al  Al20  1  0.554845  0.340743  0.750000  1
  Al  Al21  1  0.444369  0.658757  0.250000  1
  Os  Os22  1  0.999813  0.000144  0.499796  1
  Os  Os23  1  0.999813  0.000144  0.000204  1
  Rh  Rh24  1  0.672077  0.328508  0.499866  1
  Rh  Rh25  1  0.328156  0.671732  0.499854  1
  Rh  Rh26  1  0.328156  0.671732  0.000146  1
  Rh  Rh27  1  0.672077  0.328508  0.000134  1
