# generated using pymatgen
data_Nd2PdRhPb
_symmetry_space_group_name_H-M   'P 1'
_cell_length_a   3.78849100
_cell_length_b   7.97655048
_cell_length_c   7.97655048
_cell_angle_alpha   90.33694193
_cell_angle_beta   90.00000000
_cell_angle_gamma   90.00000000
_symmetry_Int_Tables_number   1
_chemical_formula_structural   Nd2PdRhPb
_chemical_formula_sum   'Nd4 Pd2 Rh2 Pb2'
_cell_volume   241.03992657
_cell_formula_units_Z   2
loop_
 _symmetry_equiv_pos_site_id
 _symmetry_equiv_pos_as_xyz
  1  'x, y, z'
loop_
 _atom_site_type_symbol
 _atom_site_label
 _atom_site_symmetry_multiplicity
 _atom_site_fract_x
 _atom_site_fract_y
 _atom_site_fract_z
 _atom_site_occupancy
  Nd  Nd0  1  0.500000  0.181579  0.681579  1
  Nd  Nd1  1  0.500000  0.818421  0.318421  1
  Nd  Nd2  1  0.500000  0.332186  0.167814  1
  Nd  Nd3  1  0.500000  0.667814  0.832186  1
  Pd  Pd4  1  0.000000  0.875791  0.624209  1
  Pd  Pd5  1  0.000000  0.124209  0.375791  1
  Rh  Rh6  1  0.000000  0.626491  0.126491  1
  Rh  Rh7  1  0.000000  0.373509  0.873509  1
  Pb  Pb8  1  0.000000  0.000000  0.000000  1
  Pb  Pb9  1  0.000000  0.500000  0.500000  1
