# generated using pymatgen
data_Tm12TlFe2TcAg
_symmetry_space_group_name_H-M   'P 1'
_cell_length_a   8.21478644
_cell_length_b   8.21449595
_cell_length_c   8.21478889
_cell_angle_alpha   110.27379737
_cell_angle_beta   107.16618238
_cell_angle_gamma   111.00038826
_symmetry_Int_Tables_number   1
_chemical_formula_structural   Tm12TlFe2TcAg
_chemical_formula_sum   'Tm12 Tl1 Fe2 Tc1 Ag1'
_cell_volume   426.18700668
_cell_formula_units_Z   1
loop_
 _symmetry_equiv_pos_site_id
 _symmetry_equiv_pos_as_xyz
  1  'x, y, z'
loop_
 _atom_site_type_symbol
 _atom_site_label
 _atom_site_symmetry_multiplicity
 _atom_site_fract_x
 _atom_site_fract_y
 _atom_site_fract_z
 _atom_site_occupancy
  Tm  Tm0  1  0.193460  0.442559  0.249099  1
  Tm  Tm1  1  0.806540  0.557441  0.750901  1
  Tm  Tm2  1  0.193384  0.944272  0.750887  1
  Tm  Tm3  1  0.960391  0.192291  0.768021  1
  Tm  Tm4  1  0.806616  0.055728  0.249113  1
  Tm  Tm5  1  0.039609  0.807709  0.231979  1
  Tm  Tm6  1  0.424269  0.192291  0.231902  1
  Tm  Tm7  1  0.575731  0.807709  0.768098  1
  Tm  Tm8  1  0.310256  0.307714  0.617919  1
  Tm  Tm9  1  0.689744  0.692286  0.382081  1
  Tm  Tm10  1  0.689795  0.307714  0.997458  1
  Tm  Tm11  1  0.310205  0.692286  0.002542  1
  Tl  Tl12  1  0.500000  0.000000  0.500000  1
  Fe  Fe13  1  0.382302  0.382352  0.000051  1
  Fe  Fe14  1  0.617698  0.617648  0.999949  1
  Tc  Tc15  1  0.000000  0.000000  0.000000  1
  Ag  Ag16  1  0.000000  0.500000  0.500000  1
