# generated using pymatgen
data_LuCoSnH
_symmetry_space_group_name_H-M   'P 1'
_cell_length_a   4.20731400
_cell_length_b   7.01188500
_cell_length_c   8.06927000
_cell_angle_alpha   90.00000000
_cell_angle_beta   90.00000000
_cell_angle_gamma   90.00000000
_symmetry_Int_Tables_number   1
_chemical_formula_structural   LuCoSnH
_chemical_formula_sum   'Lu4 Co4 Sn4 H4'
_cell_volume   238.05316367
_cell_formula_units_Z   4
loop_
 _symmetry_equiv_pos_site_id
 _symmetry_equiv_pos_as_xyz
  1  'x, y, z'
loop_
 _atom_site_type_symbol
 _atom_site_label
 _atom_site_symmetry_multiplicity
 _atom_site_fract_x
 _atom_site_fract_y
 _atom_site_fract_z
 _atom_site_occupancy
  Lu  Lu0  1  0.750000  0.013061  0.684688  1
  Lu  Lu1  1  0.250000  0.986939  0.315312  1
  Lu  Lu2  1  0.250000  0.486939  0.184688  1
  Lu  Lu3  1  0.750000  0.513061  0.815312  1
  Co  Co4  1  0.750000  0.772930  0.104384  1
  Co  Co5  1  0.250000  0.227070  0.895616  1
  Co  Co6  1  0.250000  0.727070  0.604384  1
  Co  Co7  1  0.750000  0.272930  0.395616  1
  Sn  Sn8  1  0.750000  0.656176  0.424472  1
  Sn  Sn9  1  0.250000  0.343824  0.575528  1
  Sn  Sn10  1  0.250000  0.843824  0.924472  1
  Sn  Sn11  1  0.750000  0.156176  0.075528  1
  H  H12  1  0.250000  0.449890  0.920715  1
  H  H13  1  0.750000  0.550110  0.079285  1
  H  H14  1  0.750000  0.050110  0.420715  1
  H  H15  1  0.250000  0.949890  0.579285  1
