# generated using pymatgen
data_DyHf(Si3Ni)2
_symmetry_space_group_name_H-M   'P 1'
_cell_length_a   10.49522301
_cell_length_b   10.49522230
_cell_length_c   3.85486200
_cell_angle_alpha   90.00000000
_cell_angle_beta   90.00000000
_cell_angle_gamma   158.34866433
_symmetry_Int_Tables_number   1
_chemical_formula_structural   DyHf(Si3Ni)2
_chemical_formula_sum   'Dy1 Hf1 Si6 Ni2'
_cell_volume   156.66372454
_cell_formula_units_Z   1
loop_
 _symmetry_equiv_pos_site_id
 _symmetry_equiv_pos_as_xyz
  1  'x, y, z'
loop_
 _atom_site_type_symbol
 _atom_site_label
 _atom_site_symmetry_multiplicity
 _atom_site_fract_x
 _atom_site_fract_y
 _atom_site_fract_z
 _atom_site_occupancy
  Dy  Dy0  1  0.671575  0.328425  0.500000  1
  Hf  Hf1  1  0.331119  0.668881  0.500000  1
  Si  Si2  1  0.441296  0.558704  0.000000  1
  Si  Si3  1  0.555649  0.444351  0.000000  1
  Si  Si4  1  0.222294  0.777706  0.000000  1
  Si  Si5  1  0.781830  0.218170  0.000000  1
  Si  Si6  1  0.941770  0.058230  0.500000  1
  Si  Si7  1  0.055382  0.944618  0.500000  1
  Ni  Ni8  1  0.111898  0.888102  0.000000  1
  Ni  Ni9  1  0.887186  0.112814  0.000000  1
