# generated using pymatgen
data_La2MnN3
_symmetry_space_group_name_H-M   'P 1'
_cell_length_a   6.15594830
_cell_length_b   6.15594800
_cell_length_c   12.01406254
_cell_angle_alpha   88.37973898
_cell_angle_beta   88.37974145
_cell_angle_gamma   128.42593732
_symmetry_Int_Tables_number   1
_chemical_formula_structural   La2MnN3
_chemical_formula_sum   'La8 Mn4 N12'
_cell_volume   355.91872568
_cell_formula_units_Z   4
loop_
 _symmetry_equiv_pos_site_id
 _symmetry_equiv_pos_as_xyz
  1  'x, y, z'
loop_
 _atom_site_type_symbol
 _atom_site_label
 _atom_site_symmetry_multiplicity
 _atom_site_fract_x
 _atom_site_fract_y
 _atom_site_fract_z
 _atom_site_occupancy
  La  La0  1  0.974334  0.571130  0.850538  1
  La  La1  1  0.428870  0.025666  0.649462  1
  La  La2  1  0.655265  0.865922  0.930595  1
  La  La3  1  0.134078  0.344735  0.569405  1
  La  La4  1  0.025666  0.428870  0.149462  1
  La  La5  1  0.865922  0.655265  0.430595  1
  La  La6  1  0.571130  0.974334  0.350538  1
  La  La7  1  0.344735  0.134078  0.069405  1
  Mn  Mn8  1  0.716881  0.716723  0.675626  1
  Mn  Mn9  1  0.283277  0.283119  0.824374  1
  Mn  Mn10  1  0.716723  0.716881  0.175626  1
  Mn  Mn11  1  0.283119  0.283277  0.324374  1
  N  N12  1  0.150427  0.338114  0.958515  1
  N  N13  1  0.001349  0.998651  0.250000  1
  N  N14  1  0.998651  0.001349  0.750000  1
  N  N15  1  0.384248  0.615752  0.750000  1
  N  N16  1  0.615752  0.384248  0.250000  1
  N  N17  1  0.661886  0.849573  0.541485  1
  N  N18  1  0.849573  0.661886  0.041485  1
  N  N19  1  0.127673  0.465359  0.368187  1
  N  N20  1  0.465359  0.127673  0.868187  1
  N  N21  1  0.872327  0.534641  0.631813  1
  N  N22  1  0.338114  0.150427  0.458515  1
  N  N23  1  0.534641  0.872327  0.131813  1
