# generated using pymatgen
data_Nd8Er(CdAu4)5
_symmetry_space_group_name_H-M   'P 1'
_cell_length_a   8.74447376
_cell_length_b   8.74447532
_cell_length_c   10.40889400
_cell_angle_alpha   89.93422874
_cell_angle_beta   89.93422218
_cell_angle_gamma   108.18939707
_symmetry_Int_Tables_number   1
_chemical_formula_structural   Nd8Er(CdAu4)5
_chemical_formula_sum   'Nd8 Er1 Cd5 Au20'
_cell_volume   756.15082998
_cell_formula_units_Z   1
loop_
 _symmetry_equiv_pos_site_id
 _symmetry_equiv_pos_as_xyz
  1  'x, y, z'
loop_
 _atom_site_type_symbol
 _atom_site_label
 _atom_site_symmetry_multiplicity
 _atom_site_fract_x
 _atom_site_fract_y
 _atom_site_fract_z
 _atom_site_occupancy
  Nd  Nd0  1  0.701002  0.298998  0.000000  1
  Nd  Nd1  1  0.200519  0.799481  0.500000  1
  Nd  Nd2  1  0.807302  0.807302  0.290533  1
  Nd  Nd3  1  0.297988  0.297988  0.199137  1
  Nd  Nd4  1  0.799481  0.200519  0.500000  1
  Nd  Nd5  1  0.298998  0.701002  0.000000  1
  Nd  Nd6  1  0.702012  0.702012  0.800863  1
  Nd  Nd7  1  0.192698  0.192698  0.709467  1
  Er  Er8  1  0.500000  0.500000  0.500000  1
  Cd  Cd9  1  0.520887  0.019834  0.249162  1
  Cd  Cd10  1  0.980166  0.479113  0.750838  1
  Cd  Cd11  1  0.000000  0.000000  0.000000  1
  Cd  Cd12  1  0.019834  0.520887  0.249162  1
  Cd  Cd13  1  0.479113  0.980166  0.750838  1
  Au  Au14  1  0.152960  0.431094  0.480727  1
  Au  Au15  1  0.902320  0.902320  0.593851  1
  Au  Au16  1  0.568906  0.847040  0.519273  1
  Au  Au17  1  0.888202  0.168948  0.209554  1
  Au  Au18  1  0.385606  0.664858  0.290796  1
  Au  Au19  1  0.664858  0.385606  0.290796  1
  Au  Au20  1  0.403016  0.403016  0.905307  1
  Au  Au21  1  0.931373  0.654009  0.018947  1
  Au  Au22  1  0.335142  0.614394  0.709204  1
  Au  Au23  1  0.345991  0.068627  0.981053  1
  Au  Au24  1  0.596984  0.596984  0.094693  1
  Au  Au25  1  0.654009  0.931373  0.018947  1
  Au  Au26  1  0.097680  0.097680  0.406149  1
  Au  Au27  1  0.614394  0.335142  0.709204  1
  Au  Au28  1  0.111798  0.831052  0.790446  1
  Au  Au29  1  0.068627  0.345991  0.981053  1
  Au  Au30  1  0.847040  0.568906  0.519273  1
  Au  Au31  1  0.168948  0.888202  0.209554  1
  Au  Au32  1  0.431094  0.152960  0.480727  1
  Au  Au33  1  0.831052  0.111798  0.790446  1
