# generated using pymatgen
data_TbY3Bi5SbRh7
_symmetry_space_group_name_H-M   'P 1'
_cell_length_a   7.78349656
_cell_length_b   7.78349782
_cell_length_c   7.77864079
_cell_angle_alpha   110.32143371
_cell_angle_beta   110.32143567
_cell_angle_gamma   107.74206124
_symmetry_Int_Tables_number   1
_chemical_formula_structural   TbY3Bi5SbRh7
_chemical_formula_sum   'Tb1 Y3 Bi5 Sb1 Rh7'
_cell_volume   362.71598638
_cell_formula_units_Z   1
loop_
 _symmetry_equiv_pos_site_id
 _symmetry_equiv_pos_as_xyz
  1  'x, y, z'
loop_
 _atom_site_type_symbol
 _atom_site_label
 _atom_site_symmetry_multiplicity
 _atom_site_fract_x
 _atom_site_fract_y
 _atom_site_fract_z
 _atom_site_occupancy
  Tb  Tb0  1  0.477582  0.477582  0.475209  1
  Y  Y1  1  0.477018  0.002692  0.999836  1
  Y  Y2  1  0.002692  0.477018  0.999836  1
  Y  Y3  1  0.002849  0.002849  0.525413  1
  Bi  Bi4  1  0.986394  0.299144  0.312169  1
  Bi  Bi5  1  0.674963  0.987454  0.687836  1
  Bi  Bi6  1  0.699742  0.699742  0.000598  1
  Bi  Bi7  1  0.987454  0.674963  0.687836  1
  Bi  Bi8  1  0.299144  0.986394  0.312169  1
  Sb  Sb9  1  0.344831  0.344831  0.999701  1
  Rh  Rh10  1  0.062089  0.062089  0.000596  1
  Rh  Rh11  1  0.501644  0.750566  0.249801  1
  Rh  Rh12  1  0.750566  0.501644  0.249801  1
  Rh  Rh13  1  0.240355  0.739503  0.499357  1
  Rh  Rh14  1  0.251988  0.501182  0.750242  1
  Rh  Rh15  1  0.501182  0.251988  0.750242  1
  Rh  Rh16  1  0.739503  0.240355  0.499357  1
