# generated using pymatgen
data_Ti4In2CoPt3
_symmetry_space_group_name_H-M   'P 1'
_cell_length_a   7.37473160
_cell_length_b   7.37473097
_cell_length_c   3.08789700
_cell_angle_alpha   90.00000000
_cell_angle_beta   90.00000000
_cell_angle_gamma   89.99501217
_symmetry_Int_Tables_number   1
_chemical_formula_structural   Ti4In2CoPt3
_chemical_formula_sum   'Ti4 In2 Co1 Pt3'
_cell_volume   167.94040829
_cell_formula_units_Z   1
loop_
 _symmetry_equiv_pos_site_id
 _symmetry_equiv_pos_as_xyz
  1  'x, y, z'
loop_
 _atom_site_type_symbol
 _atom_site_label
 _atom_site_symmetry_multiplicity
 _atom_site_fract_x
 _atom_site_fract_y
 _atom_site_fract_z
 _atom_site_occupancy
  Ti  Ti0  1  0.684122  0.184122  0.500000  1
  Ti  Ti1  1  0.139619  0.328103  0.500000  1
  Ti  Ti2  1  0.828103  0.639619  0.500000  1
  Ti  Ti3  1  0.340761  0.840761  0.500000  1
  In  In4  1  0.999457  0.001741  0.000000  1
  In  In5  1  0.501741  0.499457  0.000000  1
  Co  Co6  1  0.870646  0.370646  0.000000  1
  Pt  Pt7  1  0.371038  0.136515  0.000000  1
  Pt  Pt8  1  0.128000  0.628000  0.000000  1
  Pt  Pt9  1  0.636515  0.871038  0.000000  1
