# generated using pymatgen
data_La2Pr4UO12
_symmetry_space_group_name_H-M   'P 1'
_cell_length_a   6.88130004
_cell_length_b   6.90040390
_cell_length_c   6.89765154
_cell_angle_alpha   99.00559274
_cell_angle_beta   98.58471982
_cell_angle_gamma   98.63371188
_symmetry_Int_Tables_number   1
_chemical_formula_structural   La2Pr4UO12
_chemical_formula_sum   'La2 Pr4 U1 O12'
_cell_volume   314.77749886
_cell_formula_units_Z   1
loop_
 _symmetry_equiv_pos_site_id
 _symmetry_equiv_pos_as_xyz
  1  'x, y, z'
loop_
 _atom_site_type_symbol
 _atom_site_label
 _atom_site_symmetry_multiplicity
 _atom_site_fract_x
 _atom_site_fract_y
 _atom_site_fract_z
 _atom_site_occupancy
  La  La0  1  0.854145  0.686798  0.392562  1
  La  La1  1  0.145855  0.313202  0.607438  1
  Pr  Pr2  1  0.313118  0.610827  0.144101  1
  Pr  Pr3  1  0.608839  0.144606  0.312468  1
  Pr  Pr4  1  0.391161  0.855394  0.687532  1
  Pr  Pr5  1  0.686882  0.389173  0.855899  1
  U  U6  1  0.000000  0.000000  0.000000  1
  O  O7  1  0.437765  0.177954  0.592291  1
  O  O8  1  0.930472  0.702573  0.039160  1
  O  O9  1  0.176762  0.592690  0.436419  1
  O  O10  1  0.823238  0.407310  0.563581  1
  O  O11  1  0.562235  0.822046  0.407709  1
  O  O12  1  0.588905  0.435157  0.177234  1
  O  O13  1  0.411095  0.564843  0.822766  1
  O  O14  1  0.952408  0.068589  0.296751  1
  O  O15  1  0.047592  0.931411  0.703249  1
  O  O16  1  0.701266  0.043766  0.928877  1
  O  O17  1  0.069528  0.297427  0.960840  1
  O  O18  1  0.298734  0.956234  0.071123  1
