# generated using pymatgen
data_KRb2WF6
_symmetry_space_group_name_H-M   'P 1'
_cell_length_a   6.53665700
_cell_length_b   6.54302205
_cell_length_c   11.33577269
_cell_angle_alpha   54.76055806
_cell_angle_beta   90.00000000
_cell_angle_gamma   90.00000000
_symmetry_Int_Tables_number   1
_chemical_formula_structural   KRb2WF6
_chemical_formula_sum   'K2 Rb4 W2 F12'
_cell_volume   395.97998225
_cell_formula_units_Z   2
loop_
 _symmetry_equiv_pos_site_id
 _symmetry_equiv_pos_as_xyz
  1  'x, y, z'
loop_
 _atom_site_type_symbol
 _atom_site_label
 _atom_site_symmetry_multiplicity
 _atom_site_fract_x
 _atom_site_fract_y
 _atom_site_fract_z
 _atom_site_occupancy
  K  K0  1  0.000000  0.500000  0.500000  1
  K  K1  1  0.500000  0.500000  0.000000  1
  Rb  Rb2  1  0.471466  0.751165  0.250875  1
  Rb  Rb3  1  0.528534  0.248835  0.749125  1
  Rb  Rb4  1  0.971466  0.248835  0.249125  1
  Rb  Rb5  1  0.028534  0.751165  0.750875  1
  W  W6  1  0.000000  0.000000  0.000000  1
  W  W7  1  0.500000  0.000000  0.500000  1
  F  F8  1  0.183586  0.229831  0.033691  1
  F  F9  1  0.816414  0.770169  0.966309  1
  F  F10  1  0.683586  0.770169  0.466309  1
  F  F11  1  0.316414  0.229831  0.533691  1
  F  F12  1  0.017070  0.709462  0.224077  1
  F  F13  1  0.982930  0.290538  0.775923  1
  F  F14  1  0.517070  0.290538  0.275923  1
  F  F15  1  0.482930  0.709462  0.724077  1
  F  F16  1  0.734045  0.143934  0.035697  1
  F  F17  1  0.265955  0.856066  0.964303  1
  F  F18  1  0.234045  0.856066  0.464303  1
  F  F19  1  0.765955  0.143934  0.535697  1
