# generated using pymatgen
data_HoLu2Cd3Ge2Au
_symmetry_space_group_name_H-M   'P 1'
_cell_length_a   7.26295713
_cell_length_b   7.26295694
_cell_length_c   4.30122200
_cell_angle_alpha   90.00000000
_cell_angle_beta   90.00000000
_cell_angle_gamma   120.06387130
_symmetry_Int_Tables_number   1
_chemical_formula_structural   HoLu2Cd3Ge2Au
_chemical_formula_sum   'Ho1 Lu2 Cd3 Ge2 Au1'
_cell_volume   196.36747888
_cell_formula_units_Z   1
loop_
 _symmetry_equiv_pos_site_id
 _symmetry_equiv_pos_as_xyz
  1  'x, y, z'
loop_
 _atom_site_type_symbol
 _atom_site_label
 _atom_site_symmetry_multiplicity
 _atom_site_fract_x
 _atom_site_fract_y
 _atom_site_fract_z
 _atom_site_occupancy
  Ho  Ho0  1  0.415436  0.415436  0.000000  1
  Lu  Lu1  1  0.585642  0.000465  0.000000  1
  Lu  Lu2  1  0.000465  0.585642  0.000000  1
  Cd  Cd3  1  0.252428  0.999654  0.500000  1
  Cd  Cd4  1  0.999654  0.252428  0.500000  1
  Cd  Cd5  1  0.747918  0.747918  0.500000  1
  Ge  Ge6  1  0.332563  0.667727  0.500000  1
  Ge  Ge7  1  0.667727  0.332563  0.500000  1
  Au  Au8  1  0.998167  0.998167  0.000000  1
