# generated using pymatgen
data_ThPaInRh2
_symmetry_space_group_name_H-M   'P 1'
_cell_length_a   7.79252654
_cell_length_b   7.79252654
_cell_length_c   3.69104900
_cell_angle_alpha   90.00000000
_cell_angle_beta   90.00000000
_cell_angle_gamma   87.86968004
_symmetry_Int_Tables_number   1
_chemical_formula_structural   ThPaInRh2
_chemical_formula_sum   'Th2 Pa2 In2 Rh4'
_cell_volume   223.97839603
_cell_formula_units_Z   2
loop_
 _symmetry_equiv_pos_site_id
 _symmetry_equiv_pos_as_xyz
  1  'x, y, z'
loop_
 _atom_site_type_symbol
 _atom_site_label
 _atom_site_symmetry_multiplicity
 _atom_site_fract_x
 _atom_site_fract_y
 _atom_site_fract_z
 _atom_site_occupancy
  Th  Th0  1  0.671217  0.171217  0.500000  1
  Th  Th1  1  0.328783  0.828783  0.500000  1
  Pa  Pa2  1  0.168160  0.331840  0.500000  1
  Pa  Pa3  1  0.831840  0.668160  0.500000  1
  In  In4  1  0.000000  0.000000  0.000000  1
  In  In5  1  0.500000  0.500000  0.000000  1
  Rh  Rh6  1  0.126491  0.626491  0.000000  1
  Rh  Rh7  1  0.873509  0.373509  0.000000  1
  Rh  Rh8  1  0.645237  0.854763  0.000000  1
  Rh  Rh9  1  0.354763  0.145237  0.000000  1
