# generated using pymatgen
data_Hf3ReSi3MoRh
_symmetry_space_group_name_H-M   'P 1'
_cell_length_a   6.94877635
_cell_length_b   6.92408299
_cell_length_c   3.50330700
_cell_angle_alpha   90.00000000
_cell_angle_beta   90.00000000
_cell_angle_gamma   120.70491309
_symmetry_Int_Tables_number   1
_chemical_formula_structural   Hf3ReSi3MoRh
_chemical_formula_sum   'Hf3 Re1 Si3 Mo1 Rh1'
_cell_volume   144.92740780
_cell_formula_units_Z   1
loop_
 _symmetry_equiv_pos_site_id
 _symmetry_equiv_pos_as_xyz
  1  'x, y, z'
loop_
 _atom_site_type_symbol
 _atom_site_label
 _atom_site_symmetry_multiplicity
 _atom_site_fract_x
 _atom_site_fract_y
 _atom_site_fract_z
 _atom_site_occupancy
  Hf  Hf0  1  0.400402  0.399727  0.500000  1
  Hf  Hf1  1  0.594138  0.008801  0.500000  1
  Hf  Hf2  1  0.010295  0.594172  0.500000  1
  Re  Re3  1  0.999605  0.252400  0.000000  1
  Si  Si4  1  0.669449  0.339471  0.000000  1
  Si  Si5  1  0.338940  0.668282  0.000000  1
  Si  Si6  1  0.989950  0.990501  0.500000  1
  Mo  Mo7  1  0.250902  0.999845  0.000000  1
  Rh  Rh8  1  0.746318  0.746800  0.000000  1
