# generated using pymatgen
data_PmMgGe2Pt
_symmetry_space_group_name_H-M   'P 1'
_cell_length_a   6.32473629
_cell_length_b   6.32473697
_cell_length_c   6.32473629
_cell_angle_alpha   141.36715173
_cell_angle_beta   141.36715311
_cell_angle_gamma   55.78322609
_symmetry_Int_Tables_number   1
_chemical_formula_structural   PmMgGe2Pt
_chemical_formula_sum   'Pm1 Mg1 Ge2 Pt1'
_cell_volume   97.86997299
_cell_formula_units_Z   1
loop_
 _symmetry_equiv_pos_site_id
 _symmetry_equiv_pos_as_xyz
  1  'x, y, z'
loop_
 _atom_site_type_symbol
 _atom_site_label
 _atom_site_symmetry_multiplicity
 _atom_site_fract_x
 _atom_site_fract_y
 _atom_site_fract_z
 _atom_site_occupancy
  Pm  Pm0  1  0.000000  0.000000  0.000000  1
  Mg  Mg1  1  0.750000  0.250000  0.500000  1
  Ge  Ge2  1  0.389314  0.389314  0.000000  1
  Ge  Ge3  1  0.610685  0.610685  0.000000  1
  Pt  Pt4  1  0.250000  0.750000  0.500000  1
