# generated using pymatgen
data_HoHf5(Zr2Sn3)2
_symmetry_space_group_name_H-M   'P 1'
_cell_length_a   8.57964233
_cell_length_b   8.59431820
_cell_length_c   5.80946300
_cell_angle_alpha   90.00000000
_cell_angle_beta   90.00000000
_cell_angle_gamma   120.97551160
_symmetry_Int_Tables_number   1
_chemical_formula_structural   HoHf5(Zr2Sn3)2
_chemical_formula_sum   'Ho1 Hf5 Zr4 Sn6'
_cell_volume   367.27695119
_cell_formula_units_Z   1
loop_
 _symmetry_equiv_pos_site_id
 _symmetry_equiv_pos_as_xyz
  1  'x, y, z'
loop_
 _atom_site_type_symbol
 _atom_site_label
 _atom_site_symmetry_multiplicity
 _atom_site_fract_x
 _atom_site_fract_y
 _atom_site_fract_z
 _atom_site_occupancy
  Ho  Ho0  1  0.767245  0.767136  0.750000  1
  Hf  Hf1  1  0.002053  0.252772  0.750000  1
  Hf  Hf2  1  0.664884  0.333370  0.000371  1
  Hf  Hf3  1  0.333597  0.665384  0.000384  1
  Hf  Hf4  1  0.333597  0.665384  0.499616  1
  Hf  Hf5  1  0.664884  0.333370  0.499629  1
  Zr  Zr6  1  0.251465  0.001878  0.750000  1
  Zr  Zr7  1  0.236997  0.237812  0.250000  1
  Zr  Zr8  1  0.750029  0.999913  0.250000  1
  Zr  Zr9  1  0.999075  0.747173  0.250000  1
  Sn  Sn10  1  0.391513  0.391942  0.750000  1
  Sn  Sn11  1  0.606826  0.003524  0.750000  1
  Sn  Sn12  1  0.002958  0.605237  0.750000  1
  Sn  Sn13  1  0.604895  0.604893  0.250000  1
  Sn  Sn14  1  0.390978  0.999183  0.250000  1
  Sn  Sn15  1  0.999003  0.391028  0.250000  1
