# generated using pymatgen
data_Rb2Sm10Os2Br17
_symmetry_space_group_name_H-M   'P 1'
_cell_length_a   9.47364419
_cell_length_b   11.08795124
_cell_length_c   11.08816928
_cell_angle_alpha   107.71190958
_cell_angle_beta   93.72011679
_cell_angle_gamma   93.72594555
_symmetry_Int_Tables_number   1
_chemical_formula_structural   Rb2Sm10Os2Br17
_chemical_formula_sum   'Rb2 Sm10 Os2 Br17'
_cell_volume   1102.78312359
_cell_formula_units_Z   1
loop_
 _symmetry_equiv_pos_site_id
 _symmetry_equiv_pos_as_xyz
  1  'x, y, z'
loop_
 _atom_site_type_symbol
 _atom_site_label
 _atom_site_symmetry_multiplicity
 _atom_site_fract_x
 _atom_site_fract_y
 _atom_site_fract_z
 _atom_site_occupancy
  Rb  Rb0  1  0.998988  0.819814  0.179005  1
  Rb  Rb1  1  0.998986  0.179005  0.819815  1
  Sm  Sm2  1  0.437611  0.164254  0.164251  1
  Sm  Sm3  1  0.574479  0.508902  0.204749  1
  Sm  Sm4  1  0.829604  0.289455  0.289468  1
  Sm  Sm5  1  0.306485  0.437459  0.437467  1
  Sm  Sm6  1  0.425371  0.801702  0.487281  1
  Sm  Sm7  1  0.574415  0.204722  0.508879  1
  Sm  Sm8  1  0.692407  0.568771  0.568757  1
  Sm  Sm9  1  0.175349  0.708652  0.708676  1
  Sm  Sm10  1  0.425406  0.487289  0.801716  1
  Sm  Sm11  1  0.560812  0.833366  0.833352  1
  Os  Os12  1  0.570437  0.359592  0.359595  1
  Os  Os13  1  0.430839  0.640854  0.640857  1
  Br  Br14  1  0.580143  0.684505  0.021812  1
  Br  Br15  1  0.711320  0.066551  0.066536  1
  Br  Br16  1  0.856163  0.449516  0.120877  1
  Br  Br17  1  0.132413  0.206375  0.206334  1
  Br  Br18  1  0.284656  0.605444  0.254894  1
  Br  Br19  1  0.420086  0.980598  0.312082  1
  Br  Br20  1  0.715319  0.745563  0.395237  1
  Br  Br21  1  0.856109  0.120864  0.449515  1
  Br  Br22  1  0.999920  0.500438  0.500514  1
  Br  Br23  1  0.143315  0.879399  0.548503  1
  Br  Br24  1  0.284618  0.254897  0.605455  1
  Br  Br25  1  0.580085  0.021817  0.684469  1
  Br  Br26  1  0.715300  0.395216  0.745524  1
  Br  Br27  1  0.867501  0.792743  0.792662  1
  Br  Br28  1  0.143339  0.548473  0.879427  1
  Br  Br29  1  0.288425  0.931626  0.931643  1
  Br  Br30  1  0.420106  0.312135  0.980648  1
