# generated using pymatgen
data_CsErBeSe3
_symmetry_space_group_name_H-M   'P 1'
_cell_length_a   8.34573160
_cell_length_b   8.34573221
_cell_length_c   10.78756000
_cell_angle_alpha   90.00000000
_cell_angle_beta   90.00000000
_cell_angle_gamma   151.73014525
_symmetry_Int_Tables_number   1
_chemical_formula_structural   CsErBeSe3
_chemical_formula_sum   'Cs2 Er2 Be2 Se6'
_cell_volume   355.86608837
_cell_formula_units_Z   2
loop_
 _symmetry_equiv_pos_site_id
 _symmetry_equiv_pos_as_xyz
  1  'x, y, z'
loop_
 _atom_site_type_symbol
 _atom_site_label
 _atom_site_symmetry_multiplicity
 _atom_site_fract_x
 _atom_site_fract_y
 _atom_site_fract_z
 _atom_site_occupancy
  Cs  Cs0  1  0.240778  0.759222  0.250000  1
  Cs  Cs1  1  0.759222  0.240778  0.750000  1
  Er  Er2  1  0.500000  0.500000  0.000000  1
  Er  Er3  1  0.500000  0.500000  0.500000  1
  Be  Be4  1  0.963098  0.036901  0.250000  1
  Be  Be5  1  0.036901  0.963098  0.750000  1
  Se  Se6  1  0.888733  0.111266  0.075563  1
  Se  Se7  1  0.549442  0.450558  0.250000  1
  Se  Se8  1  0.888733  0.111266  0.424437  1
  Se  Se9  1  0.111266  0.888733  0.575563  1
  Se  Se10  1  0.450558  0.549442  0.750000  1
  Se  Se11  1  0.111266  0.888733  0.924437  1
