# generated using pymatgen
data_Ce2UMn2Ru
_symmetry_space_group_name_H-M   'P 1'
_cell_length_a   5.00455186
_cell_length_b   5.00455263
_cell_length_c   5.39930601
_cell_angle_alpha   66.49481517
_cell_angle_beta   66.49480797
_cell_angle_gamma   67.26628109
_symmetry_Int_Tables_number   1
_chemical_formula_structural   Ce2UMn2Ru
_chemical_formula_sum   'Ce2 U1 Mn2 Ru1'
_cell_volume   109.48216790
_cell_formula_units_Z   1
loop_
 _symmetry_equiv_pos_site_id
 _symmetry_equiv_pos_as_xyz
  1  'x, y, z'
loop_
 _atom_site_type_symbol
 _atom_site_label
 _atom_site_symmetry_multiplicity
 _atom_site_fract_x
 _atom_site_fract_y
 _atom_site_fract_z
 _atom_site_occupancy
  Ce  Ce0  1  0.742506  0.742506  0.751371  1
  Ce  Ce1  1  0.507494  0.507494  0.498629  1
  U  U2  1  0.125000  0.125000  0.125000  1
  Mn  Mn3  1  0.125000  0.625000  0.125000  1
  Mn  Mn4  1  0.625000  0.125000  0.125000  1
  Ru  Ru5  1  0.125000  0.125000  0.625000  1
