# generated using pymatgen
data_TbHo5Al24(Os3Pt)2
_symmetry_space_group_name_H-M   'P 1'
_cell_length_a   8.79956700
_cell_length_b   8.84257736
_cell_length_c   9.56672290
_cell_angle_alpha   89.84115900
_cell_angle_beta   90.00000000
_cell_angle_gamma   119.83923370
_symmetry_Int_Tables_number   1
_chemical_formula_structural   TbHo5Al24(Os3Pt)2
_chemical_formula_sum   'Tb1 Ho5 Al24 Os6 Pt2'
_cell_volume   645.70337050
_cell_formula_units_Z   1
loop_
 _symmetry_equiv_pos_site_id
 _symmetry_equiv_pos_as_xyz
  1  'x, y, z'
loop_
 _atom_site_type_symbol
 _atom_site_label
 _atom_site_symmetry_multiplicity
 _atom_site_fract_x
 _atom_site_fract_y
 _atom_site_fract_z
 _atom_site_occupancy
  Tb  Tb0  1  0.192064  0.384128  0.252427  1
  Ho  Ho1  1  0.807270  0.614541  0.746947  1
  Ho  Ho2  1  0.612642  0.809475  0.253031  1
  Ho  Ho3  1  0.387461  0.190712  0.746986  1
  Ho  Ho4  1  0.196833  0.809475  0.253031  1
  Ho  Ho5  1  0.803252  0.190712  0.746986  1
  Al  Al6  1  0.335865  0.671731  0.026430  1
  Al  Al7  1  0.664368  0.328736  0.973028  1
  Al  Al8  1  0.666688  0.333374  0.523539  1
  Al  Al9  1  0.333431  0.666863  0.476815  1
  Al  Al10  1  0.163635  0.327270  0.575383  1
  Al  Al11  1  0.836444  0.672888  0.425098  1
  Al  Al12  1  0.672080  0.835403  0.576021  1
  Al  Al13  1  0.838236  0.676474  0.078849  1
  Al  Al14  1  0.328202  0.164528  0.424371  1
  Al  Al15  1  0.161726  0.323451  0.920563  1
  Al  Al16  1  0.163324  0.835403  0.576021  1
  Al  Al17  1  0.326032  0.158364  0.077753  1
  Al  Al18  1  0.836326  0.164528  0.424371  1
  Al  Al19  1  0.674192  0.841508  0.921901  1
  Al  Al20  1  0.832332  0.158364  0.077753  1
  Al  Al21  1  0.167315  0.841508  0.921901  1
  Al  Al22  1  0.561806  0.123611  0.249006  1
  Al  Al23  1  0.438234  0.876468  0.751050  1
  Al  Al24  1  0.874924  0.438186  0.251943  1
  Al  Al25  1  0.124776  0.562110  0.748209  1
  Al  Al26  1  0.563260  0.438186  0.251943  1
  Al  Al27  1  0.437335  0.562110  0.748209  1
  Al  Al28  1  0.000735  0.001472  0.250342  1
  Al  Al29  1  0.998752  0.997504  0.749706  1
  Os  Os30  1  0.500109  0.000218  0.999925  1
  Os  Os31  1  0.500074  0.000149  0.500074  1
  Os  Os32  1  0.999810  0.500183  0.500280  1
  Os  Os33  1  0.500373  0.500183  0.500280  1
  Os  Os34  1  0.999990  0.999980  0.999939  1
  Os  Os35  1  0.000022  0.000043  0.500040  1
  Pt  Pt36  1  0.999925  0.500081  0.999926  1
  Pt  Pt37  1  0.500156  0.500081  0.999926  1
