# generated using pymatgen
data_Rb4Na2ScInBi4
_symmetry_space_group_name_H-M   'P 1'
_cell_length_a   10.13081379
_cell_length_b   10.13081169
_cell_length_c   10.13081132
_cell_angle_alpha   136.26900805
_cell_angle_beta   62.45662838
_cell_angle_gamma   137.71664365
_symmetry_Int_Tables_number   1
_chemical_formula_structural   Rb4Na2ScInBi4
_chemical_formula_sum   'Rb4 Na2 Sc1 In1 Bi4'
_cell_volume   477.72038220
_cell_formula_units_Z   1
loop_
 _symmetry_equiv_pos_site_id
 _symmetry_equiv_pos_as_xyz
  1  'x, y, z'
loop_
 _atom_site_type_symbol
 _atom_site_label
 _atom_site_symmetry_multiplicity
 _atom_site_fract_x
 _atom_site_fract_y
 _atom_site_fract_z
 _atom_site_occupancy
  Rb  Rb0  1  0.825547  0.259525  0.091743  1
  Rb  Rb1  1  0.674452  0.766195  0.433978  1
  Rb  Rb2  1  0.332218  0.240475  0.566022  1
  Rb  Rb3  1  0.167782  0.733804  0.908256  1
  Na  Na4  1  0.750000  0.250000  0.500000  1
  Na  Na5  1  0.250000  0.750000  0.500000  1
  Sc  Sc6  1  0.250000  0.250000  0.000000  1
  In  In7  1  0.750001  0.750001  0.000000  1
  Bi  Bi8  1  0.394782  0.715446  0.119216  1
  Bi  Bi9  1  0.105217  0.224431  0.320663  1
  Bi  Bi10  1  0.903767  0.784553  0.679337  1
  Bi  Bi11  1  0.596232  0.275569  0.880784  1
