# generated using pymatgen
data_Tm2ScB2Ir4Rh
_symmetry_space_group_name_H-M   'P 1'
_cell_length_a   3.15260600
_cell_length_b   9.73006800
_cell_length_c   9.73006800
_cell_angle_alpha   90.00000000
_cell_angle_beta   90.00000000
_cell_angle_gamma   90.00000000
_symmetry_Int_Tables_number   1
_chemical_formula_structural   Tm2ScB2Ir4Rh
_chemical_formula_sum   'Tm4 Sc2 B4 Ir8 Rh2'
_cell_volume   298.47052437
_cell_formula_units_Z   2
loop_
 _symmetry_equiv_pos_site_id
 _symmetry_equiv_pos_as_xyz
  1  'x, y, z'
loop_
 _atom_site_type_symbol
 _atom_site_label
 _atom_site_symmetry_multiplicity
 _atom_site_fract_x
 _atom_site_fract_y
 _atom_site_fract_z
 _atom_site_occupancy
  Tm  Tm0  1  0.000000  0.176360  0.676360  1
  Tm  Tm1  1  0.000000  0.823640  0.323640  1
  Tm  Tm2  1  0.000000  0.323640  0.176360  1
  Tm  Tm3  1  0.000000  0.676360  0.823640  1
  Sc  Sc4  1  0.000000  0.000000  0.000000  1
  Sc  Sc5  1  0.000000  0.500000  0.500000  1
  B  B6  1  0.000000  0.620586  0.120586  1
  B  B7  1  0.000000  0.379414  0.879414  1
  B  B8  1  0.000000  0.879414  0.620586  1
  B  B9  1  0.000000  0.120586  0.379414  1
  Ir  Ir10  1  0.500000  0.068771  0.225262  1
  Ir  Ir11  1  0.500000  0.931229  0.774738  1
  Ir  Ir12  1  0.500000  0.774738  0.068771  1
  Ir  Ir13  1  0.500000  0.431229  0.725262  1
  Ir  Ir14  1  0.500000  0.225262  0.931229  1
  Ir  Ir15  1  0.500000  0.568771  0.274738  1
  Ir  Ir16  1  0.500000  0.725262  0.568771  1
  Ir  Ir17  1  0.500000  0.274738  0.431229  1
  Rh  Rh18  1  0.500000  0.000000  0.500000  1
  Rh  Rh19  1  0.500000  0.500000  0.000000  1
