# generated using pymatgen
data_NdEu(TaN2)2
_symmetry_space_group_name_H-M   'P 1'
_cell_length_a   3.39860900
_cell_length_b   5.83052342
_cell_length_c   11.05244179
_cell_angle_alpha   90.04353604
_cell_angle_beta   90.00000000
_cell_angle_gamma   90.00000000
_symmetry_Int_Tables_number   1
_chemical_formula_structural   NdEu(TaN2)2
_chemical_formula_sum   'Nd2 Eu2 Ta4 N8'
_cell_volume   219.01146920
_cell_formula_units_Z   2
loop_
 _symmetry_equiv_pos_site_id
 _symmetry_equiv_pos_as_xyz
  1  'x, y, z'
loop_
 _atom_site_type_symbol
 _atom_site_label
 _atom_site_symmetry_multiplicity
 _atom_site_fract_x
 _atom_site_fract_y
 _atom_site_fract_z
 _atom_site_occupancy
  Nd  Nd0  1  0.750000  0.915182  0.363865  1
  Nd  Nd1  1  0.250000  0.084818  0.636135  1
  Eu  Eu2  1  0.250000  0.582214  0.863578  1
  Eu  Eu3  1  0.750000  0.417786  0.136422  1
  Ta  Ta4  1  0.250000  0.917349  0.112131  1
  Ta  Ta5  1  0.750000  0.082651  0.887869  1
  Ta  Ta6  1  0.750000  0.582264  0.612565  1
  Ta  Ta7  1  0.250000  0.417736  0.387435  1
  N  N8  1  0.250000  0.664184  0.246010  1
  N  N9  1  0.750000  0.335816  0.753990  1
  N  N10  1  0.750000  0.836966  0.746687  1
  N  N11  1  0.250000  0.163034  0.253313  1
  N  N12  1  0.250000  0.718484  0.514950  1
  N  N13  1  0.750000  0.281516  0.485050  1
  N  N14  1  0.750000  0.787397  0.017002  1
  N  N15  1  0.250000  0.212603  0.982998  1
