# generated using pymatgen
data_TmCo4P3W
_symmetry_space_group_name_H-M   'P 1'
_cell_length_a   3.69599100
_cell_length_b   10.39770200
_cell_length_c   11.84326400
_cell_angle_alpha   90.00000000
_cell_angle_beta   90.00000000
_cell_angle_gamma   90.00000000
_symmetry_Int_Tables_number   1
_chemical_formula_structural   TmCo4P3W
_chemical_formula_sum   'Tm4 Co16 P12 W4'
_cell_volume   455.13442098
_cell_formula_units_Z   4
loop_
 _symmetry_equiv_pos_site_id
 _symmetry_equiv_pos_as_xyz
  1  'x, y, z'
loop_
 _atom_site_type_symbol
 _atom_site_label
 _atom_site_symmetry_multiplicity
 _atom_site_fract_x
 _atom_site_fract_y
 _atom_site_fract_z
 _atom_site_occupancy
  Tm  Tm0  1  0.250000  0.582697  0.704523  1
  Tm  Tm1  1  0.250000  0.917303  0.204523  1
  Tm  Tm2  1  0.750000  0.417303  0.295477  1
  Tm  Tm3  1  0.750000  0.082697  0.795477  1
  Co  Co4  1  0.250000  0.405740  0.488302  1
  Co  Co5  1  0.250000  0.094260  0.988302  1
  Co  Co6  1  0.750000  0.594260  0.511698  1
  Co  Co7  1  0.750000  0.905740  0.011698  1
  Co  Co8  1  0.250000  0.222403  0.177946  1
  Co  Co9  1  0.250000  0.277597  0.677946  1
  Co  Co10  1  0.750000  0.777597  0.822054  1
  Co  Co11  1  0.750000  0.722403  0.322054  1
  Co  Co12  1  0.250000  0.887883  0.700558  1
  Co  Co13  1  0.250000  0.612117  0.200558  1
  Co  Co14  1  0.750000  0.112117  0.299442  1
  Co  Co15  1  0.750000  0.387883  0.799442  1
  Co  Co16  1  0.250000  0.465473  0.933114  1
  Co  Co17  1  0.250000  0.034527  0.433114  1
  Co  Co18  1  0.750000  0.534527  0.066886  1
  Co  Co19  1  0.750000  0.965473  0.566886  1
  P  P20  1  0.250000  0.420103  0.116361  1
  P  P21  1  0.250000  0.079897  0.616361  1
  P  P22  1  0.750000  0.579897  0.883639  1
  P  P23  1  0.750000  0.920103  0.383639  1
  P  P24  1  0.250000  0.267558  0.864702  1
  P  P25  1  0.250000  0.232442  0.364702  1
  P  P26  1  0.750000  0.732442  0.135298  1
  P  P27  1  0.750000  0.767558  0.635298  1
  P  P28  1  0.250000  0.594112  0.390402  1
  P  P29  1  0.250000  0.905888  0.890402  1
  P  P30  1  0.750000  0.405888  0.609598  1
  P  P31  1  0.750000  0.094112  0.109598  1
  W  W32  1  0.250000  0.709331  0.987613  1
  W  W33  1  0.250000  0.790669  0.487613  1
  W  W34  1  0.750000  0.290669  0.012387  1
  W  W35  1  0.750000  0.209331  0.512387  1
