# generated using pymatgen
data_CaYb6Pr13Sn16
_symmetry_space_group_name_H-M   'P 1'
_cell_length_a   8.07263838
_cell_length_b   8.54697067
_cell_length_c   16.16194206
_cell_angle_alpha   90.02367930
_cell_angle_beta   89.97795991
_cell_angle_gamma   89.99741845
_symmetry_Int_Tables_number   1
_chemical_formula_structural   CaYb6Pr13Sn16
_chemical_formula_sum   'Ca1 Yb6 Pr13 Sn16'
_cell_volume   1115.11892927
_cell_formula_units_Z   1
loop_
 _symmetry_equiv_pos_site_id
 _symmetry_equiv_pos_as_xyz
  1  'x, y, z'
loop_
 _atom_site_type_symbol
 _atom_site_label
 _atom_site_symmetry_multiplicity
 _atom_site_fract_x
 _atom_site_fract_y
 _atom_site_fract_z
 _atom_site_occupancy
  Ca  Ca0  1  0.337690  0.994777  0.250939  1
  Yb  Yb1  1  0.330470  0.829190  0.876777  1
  Yb  Yb2  1  0.832284  0.670820  0.622826  1
  Yb  Yb3  1  0.669446  0.169558  0.377228  1
  Yb  Yb4  1  0.162962  0.498968  0.749908  1
  Yb  Yb5  1  0.662111  0.002050  0.749867  1
  Yb  Yb6  1  0.836706  0.502229  0.251611  1
  Pr  Pr7  1  0.165886  0.325892  0.123515  1
  Pr  Pr8  1  0.666647  0.172426  0.124397  1
  Pr  Pr9  1  0.165691  0.326920  0.375769  1
  Pr  Pr10  1  0.335657  0.827200  0.624902  1
  Pr  Pr11  1  0.835045  0.674822  0.874498  1
  Pr  Pr12  1  0.490606  0.315729  0.904257  1
  Pr  Pr13  1  0.991059  0.187437  0.596517  1
  Pr  Pr14  1  0.510602  0.685125  0.404448  1
  Pr  Pr15  1  0.008297  0.814501  0.095573  1
  Pr  Pr16  1  0.508962  0.683445  0.095783  1
  Pr  Pr17  1  0.005649  0.815944  0.404906  1
  Pr  Pr18  1  0.493409  0.315791  0.595098  1
  Pr  Pr19  1  0.990082  0.185644  0.902755  1
  Sn  Sn20  1  0.327702  0.033371  0.038506  1
  Sn  Sn21  1  0.827487  0.465525  0.461056  1
  Sn  Sn22  1  0.673941  0.965690  0.539783  1
  Sn  Sn23  1  0.173809  0.535765  0.960812  1
  Sn  Sn24  1  0.671185  0.963088  0.961611  1
  Sn  Sn25  1  0.173300  0.537784  0.538000  1
  Sn  Sn26  1  0.328747  0.036331  0.462101  1
  Sn  Sn27  1  0.825550  0.463477  0.036886  1
  Sn  Sn28  1  0.532962  0.604107  0.750078  1
  Sn  Sn29  1  0.032409  0.898525  0.749553  1
  Sn  Sn30  1  0.468847  0.397406  0.249839  1
  Sn  Sn31  1  0.967561  0.103316  0.250844  1
  Sn  Sn32  1  0.288948  0.141831  0.749606  1
  Sn  Sn33  1  0.788140  0.359502  0.750491  1
  Sn  Sn34  1  0.710288  0.857078  0.249313  1
  Sn  Sn35  1  0.209863  0.638736  0.249945  1
