# generated using pymatgen
data_Gd2Ru3W
_symmetry_space_group_name_H-M   'P 1'
_cell_length_a   5.24571746
_cell_length_b   5.60716470
_cell_length_c   5.60716500
_cell_angle_alpha   59.99999230
_cell_angle_beta   57.69326030
_cell_angle_gamma   57.69325408
_symmetry_Int_Tables_number   1
_chemical_formula_structural   Gd2Ru3W
_chemical_formula_sum   'Gd2 Ru3 W1'
_cell_volume   112.38788732
_cell_formula_units_Z   1
loop_
 _symmetry_equiv_pos_site_id
 _symmetry_equiv_pos_as_xyz
  1  'x, y, z'
loop_
 _atom_site_type_symbol
 _atom_site_label
 _atom_site_symmetry_multiplicity
 _atom_site_fract_x
 _atom_site_fract_y
 _atom_site_fract_z
 _atom_site_occupancy
  Gd  Gd0  1  0.744658  0.751780  0.751780  1
  Gd  Gd1  1  0.505342  0.498220  0.498220  1
  Ru  Ru2  1  0.125000  0.625000  0.125000  1
  Ru  Ru3  1  0.125000  0.125000  0.625000  1
  Ru  Ru4  1  0.125000  0.125000  0.125000  1
  W  W5  1  0.625000  0.125000  0.125000  1
