# generated using pymatgen
data_YbPa3(Pt2Pb)2
_symmetry_space_group_name_H-M   'P 1'
_cell_length_a   7.91336493
_cell_length_b   7.91336493
_cell_length_c   7.30208500
_cell_angle_alpha   90.00000000
_cell_angle_beta   90.00000000
_cell_angle_gamma   91.07919479
_symmetry_Int_Tables_number   1
_chemical_formula_structural   YbPa3(Pt2Pb)2
_chemical_formula_sum   'Yb2 Pa6 Pt8 Pb4'
_cell_volume   457.18526944
_cell_formula_units_Z   2
loop_
 _symmetry_equiv_pos_site_id
 _symmetry_equiv_pos_as_xyz
  1  'x, y, z'
loop_
 _atom_site_type_symbol
 _atom_site_label
 _atom_site_symmetry_multiplicity
 _atom_site_fract_x
 _atom_site_fract_y
 _atom_site_fract_z
 _atom_site_occupancy
  Yb  Yb0  1  0.841482  0.158518  0.000000  1
  Yb  Yb1  1  0.158518  0.841482  0.000000  1
  Pa  Pa2  1  0.679724  0.679724  0.000000  1
  Pa  Pa3  1  0.340173  0.340173  0.500000  1
  Pa  Pa4  1  0.822237  0.177763  0.500000  1
  Pa  Pa5  1  0.659827  0.659827  0.500000  1
  Pa  Pa6  1  0.320276  0.320276  0.000000  1
  Pa  Pa7  1  0.177763  0.822237  0.500000  1
  Pt  Pt8  1  0.867972  0.867972  0.723202  1
  Pt  Pt9  1  0.132028  0.132028  0.723202  1
  Pt  Pt10  1  0.626912  0.373088  0.763770  1
  Pt  Pt11  1  0.626912  0.373088  0.236230  1
  Pt  Pt12  1  0.373088  0.626912  0.236230  1
  Pt  Pt13  1  0.132028  0.132028  0.276798  1
  Pt  Pt14  1  0.867972  0.867972  0.276798  1
  Pt  Pt15  1  0.373088  0.626912  0.763770  1
  Pb  Pb16  1  0.500000  0.000000  0.756856  1
  Pb  Pb17  1  0.500000  0.000000  0.243144  1
  Pb  Pb18  1  0.000000  0.500000  0.756856  1
  Pb  Pb19  1  0.000000  0.500000  0.243144  1
