# generated using pymatgen
data_Ba7Sr13(GeBi2)4
_symmetry_space_group_name_H-M   'P 1'
_cell_length_a   14.03958614
_cell_length_b   10.28669900
_cell_length_c   8.85657241
_cell_angle_alpha   90.00000000
_cell_angle_beta   89.90072225
_cell_angle_gamma   90.00000000
_symmetry_Int_Tables_number   1
_chemical_formula_structural   Ba7Sr13(GeBi2)4
_chemical_formula_sum   'Ba7 Sr13 Ge4 Bi8'
_cell_volume   1279.07309421
_cell_formula_units_Z   1
loop_
 _symmetry_equiv_pos_site_id
 _symmetry_equiv_pos_as_xyz
  1  'x, y, z'
loop_
 _atom_site_type_symbol
 _atom_site_label
 _atom_site_symmetry_multiplicity
 _atom_site_fract_x
 _atom_site_fract_y
 _atom_site_fract_z
 _atom_site_occupancy
  Ba  Ba0  1  0.716575  0.750000  0.329053  1
  Ba  Ba1  1  0.783627  0.250000  0.828889  1
  Ba  Ba2  1  0.282752  0.250000  0.671337  1
  Ba  Ba3  1  0.298721  0.750000  0.649396  1
  Ba  Ba4  1  0.801347  0.750000  0.851186  1
  Ba  Ba5  1  0.700484  0.250000  0.349295  1
  Ba  Ba6  1  0.200334  0.250000  0.150777  1
  Sr  Sr7  1  0.074882  0.527405  0.825592  1
  Sr  Sr8  1  0.573363  0.973707  0.675639  1
  Sr  Sr9  1  0.927490  0.025628  0.176107  1
  Sr  Sr10  1  0.425515  0.475111  0.323869  1
  Sr  Sr11  1  0.927490  0.474372  0.176107  1
  Sr  Sr12  1  0.425515  0.024889  0.323869  1
  Sr  Sr13  1  0.074882  0.972595  0.825592  1
  Sr  Sr14  1  0.573363  0.526293  0.675639  1
  Sr  Sr15  1  0.001377  0.750000  0.442269  1
  Sr  Sr16  1  0.498589  0.750000  0.056941  1
  Sr  Sr17  1  0.000450  0.250000  0.556106  1
  Sr  Sr18  1  0.499016  0.250000  0.944679  1
  Sr  Sr19  1  0.213742  0.750000  0.167872  1
  Ge  Ge20  1  0.490713  0.750000  0.442274  1
  Ge  Ge21  1  0.993783  0.750000  0.057481  1
  Ge  Ge22  1  0.509089  0.250000  0.558667  1
  Ge  Ge23  1  0.010097  0.250000  0.941791  1
  Bi  Bi24  1  0.335159  0.508688  0.949262  1
  Bi  Bi25  1  0.837684  0.994606  0.554399  1
  Bi  Bi26  1  0.661849  0.005423  0.054367  1
  Bi  Bi27  1  0.163710  0.497575  0.441758  1
  Bi  Bi28  1  0.661849  0.494577  0.054367  1
  Bi  Bi29  1  0.163710  0.002425  0.441758  1
  Bi  Bi30  1  0.335159  0.991312  0.949262  1
  Bi  Bi31  1  0.837684  0.505394  0.554399  1
