# generated using pymatgen
data_Hf2ZrBeN
_symmetry_space_group_name_H-M   'P 1'
_cell_length_a   5.78386886
_cell_length_b   5.78386916
_cell_length_c   8.57230000
_cell_angle_alpha   90.00000000
_cell_angle_beta   90.00000000
_cell_angle_gamma   146.67612618
_symmetry_Int_Tables_number   1
_chemical_formula_structural   Hf2ZrBeN
_chemical_formula_sum   'Hf4 Zr2 Be2 N2'
_cell_volume   157.54332764
_cell_formula_units_Z   2
loop_
 _symmetry_equiv_pos_site_id
 _symmetry_equiv_pos_as_xyz
  1  'x, y, z'
loop_
 _atom_site_type_symbol
 _atom_site_label
 _atom_site_symmetry_multiplicity
 _atom_site_fract_x
 _atom_site_fract_y
 _atom_site_fract_z
 _atom_site_occupancy
  Hf  Hf0  1  0.368419  0.631581  0.056284  1
  Hf  Hf1  1  0.631581  0.368419  0.556284  1
  Hf  Hf2  1  0.939986  0.060014  0.749831  1
  Hf  Hf3  1  0.060014  0.939986  0.249831  1
  Zr  Zr4  1  0.631614  0.368386  0.942982  1
  Zr  Zr5  1  0.368386  0.631614  0.442982  1
  Be  Be6  1  0.258359  0.741641  0.749055  1
  Be  Be7  1  0.741641  0.258359  0.249055  1
  N  N8  1  0.995969  0.004031  0.001847  1
  N  N9  1  0.004031  0.995969  0.501847  1
