# generated using pymatgen
data_TbEu2HoH9
_symmetry_space_group_name_H-M   'P 1'
_cell_length_a   6.59408347
_cell_length_b   6.59408468
_cell_length_c   6.59408413
_cell_angle_alpha   132.10806041
_cell_angle_beta   132.10807138
_cell_angle_gamma   70.05840334
_symmetry_Int_Tables_number   1
_chemical_formula_structural   TbEu2HoH9
_chemical_formula_sum   'Tb1 Eu2 Ho1 H9'
_cell_volume   154.70963455
_cell_formula_units_Z   1
loop_
 _symmetry_equiv_pos_site_id
 _symmetry_equiv_pos_as_xyz
  1  'x, y, z'
loop_
 _atom_site_type_symbol
 _atom_site_label
 _atom_site_symmetry_multiplicity
 _atom_site_fract_x
 _atom_site_fract_y
 _atom_site_fract_z
 _atom_site_occupancy
  Tb  Tb0  1  0.263773  0.263773  0.000000  1
  Eu  Eu1  1  0.500060  0.000060  0.500000  1
  Eu  Eu2  1  0.000060  0.500060  0.500000  1
  Ho  Ho3  1  0.736501  0.736501  0.000000  1
  H  H4  1  0.898165  0.376540  0.000000  1
  H  H5  1  0.376540  0.898165  0.000000  1
  H  H6  1  0.626751  0.098397  0.000000  1
  H  H7  1  0.098397  0.098397  0.471646  1
  H  H8  1  0.376540  0.376540  0.478374  1
  H  H9  1  0.499899  0.499899  0.000000  1
  H  H10  1  0.098397  0.626751  0.000000  1
  H  H11  1  0.626751  0.626751  0.528354  1
  H  H12  1  0.898165  0.898165  0.521626  1
