# generated using pymatgen
data_Li2Ca2EuAgPb3
_symmetry_space_group_name_H-M   'P 1'
_cell_length_a   5.00085200
_cell_length_b   5.00085124
_cell_length_c   11.14018600
_cell_angle_alpha   90.00000000
_cell_angle_beta   90.00000000
_cell_angle_gamma   120.00000500
_symmetry_Int_Tables_number   1
_chemical_formula_structural   Li2Ca2EuAgPb3
_chemical_formula_sum   'Li2 Ca2 Eu1 Ag1 Pb3'
_cell_volume   241.27425863
_cell_formula_units_Z   1
loop_
 _symmetry_equiv_pos_site_id
 _symmetry_equiv_pos_as_xyz
  1  'x, y, z'
loop_
 _atom_site_type_symbol
 _atom_site_label
 _atom_site_symmetry_multiplicity
 _atom_site_fract_x
 _atom_site_fract_y
 _atom_site_fract_z
 _atom_site_occupancy
  Li  Li0  1  0.333333  0.666667  0.994084  1
  Li  Li1  1  0.000000  0.000000  0.693587  1
  Ca  Ca2  1  0.666667  0.333333  0.832075  1
  Ca  Ca3  1  0.666667  0.333333  0.163150  1
  Eu  Eu4  1  0.666667  0.333333  0.497873  1
  Ag  Ag5  1  0.000000  0.000000  0.293558  1
  Pb  Pb6  1  0.333333  0.666667  0.660771  1
  Pb  Pb7  1  0.333333  0.666667  0.343456  1
  Pb  Pb8  1  0.000000  0.000000  0.999348  1
