# generated using pymatgen
data_Nd12Si3PI12
_symmetry_space_group_name_H-M   'P 1'
_cell_length_a   10.77226173
_cell_length_b   10.77226060
_cell_length_c   10.77226121
_cell_angle_alpha   109.45978286
_cell_angle_beta   109.45978094
_cell_angle_gamma   109.45978379
_symmetry_Int_Tables_number   1
_chemical_formula_structural   Nd12Si3PI12
_chemical_formula_sum   'Nd12 Si3 P1 I12'
_cell_volume   962.68125164
_cell_formula_units_Z   1
loop_
 _symmetry_equiv_pos_site_id
 _symmetry_equiv_pos_as_xyz
  1  'x, y, z'
loop_
 _atom_site_type_symbol
 _atom_site_label
 _atom_site_symmetry_multiplicity
 _atom_site_fract_x
 _atom_site_fract_y
 _atom_site_fract_z
 _atom_site_occupancy
  Nd  Nd0  1  0.267750  0.020923  0.038474  1
  Nd  Nd1  1  0.038474  0.267750  0.020923  1
  Nd  Nd2  1  0.482401  0.750000  0.017599  1
  Nd  Nd3  1  0.750000  0.232756  0.267244  1
  Nd  Nd4  1  0.020923  0.038474  0.267750  1
  Nd  Nd5  1  0.017599  0.482401  0.750000  1
  Nd  Nd6  1  0.232756  0.267244  0.750000  1
  Nd  Nd7  1  0.267244  0.750000  0.232756  1
  Nd  Nd8  1  0.232250  0.461526  0.479077  1
  Nd  Nd9  1  0.461526  0.479077  0.232250  1
  Nd  Nd10  1  0.750000  0.017599  0.482401  1
  Nd  Nd11  1  0.479077  0.232250  0.461526  1
  Si  Si12  1  0.000510  0.250000  0.499490  1
  Si  Si13  1  0.250000  0.499490  0.000510  1
  Si  Si14  1  0.499490  0.000510  0.250000  1
  P  P15  1  0.250000  0.250000  0.250000  1
  I  I16  1  0.758236  0.741764  0.250000  1
  I  I17  1  0.507749  0.250000  0.992251  1
  I  I18  1  0.250000  0.992251  0.507749  1
  I  I19  1  0.516204  0.507855  0.757428  1
  I  I20  1  0.992145  0.983796  0.742572  1
  I  I21  1  0.742572  0.992145  0.983796  1
  I  I22  1  0.507855  0.757428  0.516204  1
  I  I23  1  0.757428  0.516204  0.507855  1
  I  I24  1  0.992251  0.507749  0.250000  1
  I  I25  1  0.983796  0.742572  0.992145  1
  I  I26  1  0.250000  0.758236  0.741764  1
  I  I27  1  0.741764  0.250000  0.758236  1
