# generated using pymatgen
data_Li4La2ErLuSn4
_symmetry_space_group_name_H-M   'P 1'
_cell_length_a   9.45991300
_cell_length_b   9.45994222
_cell_length_c   7.63009000
_cell_angle_alpha   90.00346185
_cell_angle_beta   90.00000000
_cell_angle_gamma   119.99989432
_symmetry_Int_Tables_number   1
_chemical_formula_structural   Li4La2ErLuSn4
_chemical_formula_sum   'Li8 La4 Er2 Lu2 Sn8'
_cell_volume   591.33880617
_cell_formula_units_Z   2
loop_
 _symmetry_equiv_pos_site_id
 _symmetry_equiv_pos_as_xyz
  1  'x, y, z'
loop_
 _atom_site_type_symbol
 _atom_site_label
 _atom_site_symmetry_multiplicity
 _atom_site_fract_x
 _atom_site_fract_y
 _atom_site_fract_z
 _atom_site_occupancy
  Li  Li0  1  0.165117  0.330234  0.259218  1
  Li  Li1  1  0.166649  0.835086  0.260202  1
  Li  Li2  1  0.668436  0.835086  0.260202  1
  Li  Li3  1  0.666111  0.332221  0.342552  1
  Li  Li4  1  0.832819  0.665638  0.679103  1
  Li  Li5  1  0.334689  0.166205  0.677421  1
  Li  Li6  1  0.831516  0.166205  0.677421  1
  Li  Li7  1  0.333993  0.667987  0.790434  1
  La  La8  1  0.999710  0.999420  0.999147  1
  La  La9  1  0.509862  0.019725  0.003676  1
  La  La10  1  0.509660  0.490374  0.003381  1
  La  La11  1  0.980713  0.490374  0.003381  1
  Er  Er12  1  0.023968  0.512219  0.504269  1
  Er  Er13  1  0.488252  0.512219  0.504269  1
  Lu  Lu14  1  0.000081  0.000161  0.500853  1
  Lu  Lu15  1  0.488350  0.976699  0.504600  1
  Sn  Sn16  1  0.333908  0.667818  0.245217  1
  Sn  Sn17  1  0.833649  0.667299  0.286975  1
  Sn  Sn18  1  0.333775  0.165592  0.287755  1
  Sn  Sn19  1  0.831818  0.165592  0.287755  1
  Sn  Sn20  1  0.666011  0.332021  0.725095  1
  Sn  Sn21  1  0.165842  0.331683  0.752727  1
  Sn  Sn22  1  0.166534  0.835071  0.751164  1
  Sn  Sn23  1  0.668538  0.835071  0.751164  1
