# generated using pymatgen
data_HfBe8ReTc2
_symmetry_space_group_name_H-M   'P 1'
_cell_length_a   4.44404000
_cell_length_b   4.44403954
_cell_length_c   7.37883900
_cell_angle_alpha   90.00000000
_cell_angle_beta   90.00000000
_cell_angle_gamma   120.00000345
_symmetry_Int_Tables_number   1
_chemical_formula_structural   HfBe8ReTc2
_chemical_formula_sum   'Hf1 Be8 Re1 Tc2'
_cell_volume   126.20440811
_cell_formula_units_Z   1
loop_
 _symmetry_equiv_pos_site_id
 _symmetry_equiv_pos_as_xyz
  1  'x, y, z'
loop_
 _atom_site_type_symbol
 _atom_site_label
 _atom_site_symmetry_multiplicity
 _atom_site_fract_x
 _atom_site_fract_y
 _atom_site_fract_z
 _atom_site_occupancy
  Hf  Hf0  1  0.333333  0.666667  0.062823  1
  Be  Be1  1  0.000000  0.000000  0.994879  1
  Be  Be2  1  0.000000  0.000000  0.502809  1
  Be  Be3  1  0.830995  0.661990  0.261166  1
  Be  Be4  1  0.168330  0.831670  0.742550  1
  Be  Be5  1  0.663339  0.831670  0.742550  1
  Be  Be6  1  0.338010  0.169005  0.261166  1
  Be  Be7  1  0.830995  0.169005  0.261166  1
  Be  Be8  1  0.168330  0.336661  0.742550  1
  Re  Re9  1  0.333333  0.666667  0.442298  1
  Tc  Tc10  1  0.666667  0.333333  0.563355  1
  Tc  Tc11  1  0.666667  0.333333  0.922688  1
