# generated using pymatgen
data_Ca3(YbAu2)2
_symmetry_space_group_name_H-M   'P 1'
_cell_length_a   7.85318505
_cell_length_b   7.96238414
_cell_length_c   15.22267128
_cell_angle_alpha   90.06104801
_cell_angle_beta   89.98668788
_cell_angle_gamma   90.00498634
_symmetry_Int_Tables_number   1
_chemical_formula_structural   Ca3(YbAu2)2
_chemical_formula_sum   'Ca12 Yb8 Au16'
_cell_volume   951.87422391
_cell_formula_units_Z   4
loop_
 _symmetry_equiv_pos_site_id
 _symmetry_equiv_pos_as_xyz
  1  'x, y, z'
loop_
 _atom_site_type_symbol
 _atom_site_label
 _atom_site_symmetry_multiplicity
 _atom_site_fract_x
 _atom_site_fract_y
 _atom_site_fract_z
 _atom_site_occupancy
  Ca  Ca0  1  0.997946  0.180043  0.402298  1
  Ca  Ca1  1  0.836620  0.667644  0.379052  1
  Ca  Ca2  1  0.499470  0.321984  0.094326  1
  Ca  Ca3  1  0.162179  0.333227  0.622127  1
  Ca  Ca4  1  0.337849  0.835367  0.378750  1
  Ca  Ca5  1  0.158227  0.331900  0.879280  1
  Ca  Ca6  1  0.341500  0.834063  0.119645  1
  Ca  Ca7  1  0.175336  0.492262  0.249987  1
  Ca  Ca8  1  0.496001  0.321689  0.404506  1
  Ca  Ca9  1  0.001164  0.820658  0.905000  1
  Ca  Ca10  1  0.004510  0.820459  0.596228  1
  Ca  Ca11  1  0.501031  0.677687  0.597828  1
  Yb  Yb12  1  0.826049  0.508187  0.750618  1
  Yb  Yb13  1  0.663429  0.164433  0.623052  1
  Yb  Yb14  1  0.323904  0.990442  0.749992  1
  Yb  Yb15  1  0.661458  0.162960  0.877562  1
  Yb  Yb16  1  0.673809  0.009202  0.249438  1
  Yb  Yb17  1  0.838925  0.665572  0.121463  1
  Yb  Yb18  1  0.498463  0.677858  0.900150  1
  Yb  Yb19  1  0.999803  0.179487  0.099512  1
  Au  Au20  1  0.800065  0.362240  0.247120  1
  Au  Au21  1  0.465447  0.379242  0.751253  1
  Au  Au22  1  0.694652  0.862590  0.751436  1
  Au  Au23  1  0.822250  0.469671  0.546354  1
  Au  Au24  1  0.685403  0.972902  0.043949  1
  Au  Au25  1  0.814653  0.471008  0.956087  1
  Au  Au26  1  0.171286  0.531412  0.456694  1
  Au  Au27  1  0.169309  0.529399  0.044580  1
  Au  Au28  1  0.199586  0.636720  0.751457  1
  Au  Au29  1  0.303597  0.135968  0.248720  1
  Au  Au30  1  0.542838  0.618537  0.248386  1
  Au  Au31  1  0.035203  0.886574  0.247478  1
  Au  Au32  1  0.331453  0.026995  0.952597  1
  Au  Au33  1  0.957404  0.114889  0.750119  1
  Au  Au34  1  0.676144  0.977019  0.456045  1
  Au  Au35  1  0.333037  0.029713  0.546912  1
