# generated using pymatgen
data_Lu2Pu3(GeB4)2
_symmetry_space_group_name_H-M   'P 1'
_cell_length_a   7.20281966
_cell_length_b   7.20281966
_cell_length_c   8.07815000
_cell_angle_alpha   90.00000000
_cell_angle_beta   90.00000000
_cell_angle_gamma   89.92212415
_symmetry_Int_Tables_number   1
_chemical_formula_structural   Lu2Pu3(GeB4)2
_chemical_formula_sum   'Lu4 Pu6 Ge4 B16'
_cell_volume   419.09897145
_cell_formula_units_Z   2
loop_
 _symmetry_equiv_pos_site_id
 _symmetry_equiv_pos_as_xyz
  1  'x, y, z'
loop_
 _atom_site_type_symbol
 _atom_site_label
 _atom_site_symmetry_multiplicity
 _atom_site_fract_x
 _atom_site_fract_y
 _atom_site_fract_z
 _atom_site_occupancy
  Lu  Lu0  1  0.182128  0.317872  0.784156  1
  Lu  Lu1  1  0.182128  0.317872  0.215844  1
  Lu  Lu2  1  0.999501  0.998013  0.500000  1
  Lu  Lu3  1  0.501987  0.500499  0.500000  1
  Pu  Pu4  1  0.682572  0.182466  0.226620  1
  Pu  Pu5  1  0.317534  0.817428  0.773380  1
  Pu  Pu6  1  0.317534  0.817428  0.226620  1
  Pu  Pu7  1  0.817098  0.682902  0.226579  1
  Pu  Pu8  1  0.817098  0.682902  0.773421  1
  Pu  Pu9  1  0.682572  0.182466  0.773380  1
  Ge  Ge10  1  0.124246  0.616960  0.500000  1
  Ge  Ge11  1  0.883040  0.375754  0.500000  1
  Ge  Ge12  1  0.371659  0.128341  0.500000  1
  Ge  Ge13  1  0.616422  0.883578  0.500000  1
  B  B14  1  0.173592  0.039493  0.000000  1
  B  B15  1  0.827030  0.959767  0.000000  1
  B  B16  1  0.959451  0.172471  0.000000  1
  B  B17  1  0.327529  0.540549  0.000000  1
  B  B18  1  0.040584  0.826315  0.000000  1
  B  B19  1  0.673685  0.459416  0.000000  1
  B  B20  1  0.540233  0.672970  0.000000  1
  B  B21  1  0.460507  0.326408  0.000000  1
  B  B22  1  0.090819  0.588876  0.000000  1
  B  B23  1  0.911124  0.409181  0.000000  1
  B  B24  1  0.409446  0.090554  0.000000  1
  B  B25  1  0.589459  0.910541  0.000000  1
  B  B26  1  0.000178  0.999668  0.163029  1
  B  B27  1  0.000178  0.999668  0.836971  1
  B  B28  1  0.500332  0.499822  0.836971  1
  B  B29  1  0.500332  0.499822  0.163029  1
