# generated using pymatgen
data_Ho2TmPu(AlB4)4
_symmetry_space_group_name_H-M   'P 1'
_cell_length_a   3.55389800
_cell_length_b   5.93229978
_cell_length_c   11.50407000
_cell_angle_alpha   90.03032360
_cell_angle_beta   90.00000000
_cell_angle_gamma   90.00000000
_symmetry_Int_Tables_number   1
_chemical_formula_structural   Ho2TmPu(AlB4)4
_chemical_formula_sum   'Ho2 Tm1 Pu1 Al4 B16'
_cell_volume   242.53783861
_cell_formula_units_Z   1
loop_
 _symmetry_equiv_pos_site_id
 _symmetry_equiv_pos_as_xyz
  1  'x, y, z'
loop_
 _atom_site_type_symbol
 _atom_site_label
 _atom_site_symmetry_multiplicity
 _atom_site_fract_x
 _atom_site_fract_y
 _atom_site_fract_z
 _atom_site_occupancy
  Ho  Ho0  1  0.500000  0.128383  0.650315  1
  Ho  Ho1  1  0.500000  0.871545  0.349777  1
  Tm  Tm2  1  0.500000  0.627968  0.850047  1
  Pu  Pu3  1  0.500000  0.370401  0.149901  1
  Al  Al4  1  0.500000  0.362901  0.408200  1
  Al  Al5  1  0.500000  0.637949  0.589869  1
  Al  Al6  1  0.500000  0.138701  0.911173  1
  Al  Al7  1  0.500000  0.861523  0.090977  1
  B  B8  1  0.000000  0.112942  0.046682  1
  B  B9  1  0.000000  0.884929  0.952286  1
  B  B10  1  0.000000  0.386685  0.546551  1
  B  B11  1  0.000000  0.614676  0.453262  1
  B  B12  1  0.000000  0.133556  0.469464  1
  B  B13  1  0.000000  0.866665  0.531515  1
  B  B14  1  0.000000  0.367128  0.968772  1
  B  B15  1  0.000000  0.633155  0.031036  1
  B  B16  1  0.000000  0.028214  0.192928  1
  B  B17  1  0.000000  0.973646  0.807527  1
  B  B18  1  0.000000  0.474188  0.692886  1
  B  B19  1  0.000000  0.526644  0.307188  1
  B  B20  1  0.000000  0.211002  0.312343  1
  B  B21  1  0.000000  0.788723  0.687754  1
  B  B22  1  0.000000  0.289406  0.812432  1
  B  B23  1  0.000000  0.709069  0.187112  1
