# generated using pymatgen
data_CaF37
_symmetry_space_group_name_H-M   'P 1'
_cell_length_a   6.43184847
_cell_length_b   10.10385191
_cell_length_c   10.49094600
_cell_angle_alpha   87.90986001
_cell_angle_beta   95.85841168
_cell_angle_gamma   72.54405193
_symmetry_Int_Tables_number   1
_chemical_formula_structural   CaF37
_chemical_formula_sum   'Ca1 F37'
_cell_volume   645.35667446
_cell_formula_units_Z   1
loop_
 _symmetry_equiv_pos_site_id
 _symmetry_equiv_pos_as_xyz
  1  'x, y, z'
loop_
 _atom_site_type_symbol
 _atom_site_label
 _atom_site_symmetry_multiplicity
 _atom_site_fract_x
 _atom_site_fract_y
 _atom_site_fract_z
 _atom_site_occupancy
  Ca  Ca0  1  0.189378  0.189544  0.189012  1
  F  F1  1  0.718834  0.873763  0.739717  1
  F  F2  1  0.320506  0.387498  0.909126  1
  F  F3  1  0.699569  0.621712  0.088296  1
  F  F4  1  0.315329  0.235492  0.566787  1
  F  F5  1  0.693589  0.757593  0.445982  1
  F  F6  1  0.890524  0.179351  0.825040  1
  F  F7  1  0.104355  0.795274  0.194089  1
  F  F8  1  0.693044  0.884043  0.017690  1
  F  F9  1  0.289270  0.142401  0.988637  1
  F  F10  1  0.782198  0.590801  0.828975  1
  F  F11  1  0.187506  0.411433  0.143937  1
  F  F12  1  0.437322  0.434444  0.818047  1
  F  F13  1  0.553288  0.570798  0.154414  1
  F  F14  1  0.764374  0.588850  0.692500  1
  F  F15  1  0.258686  0.351056  0.323358  1
  F  F16  1  0.770398  0.031910  0.506833  1
  F  F17  1  0.252737  0.024050  0.437890  1
  F  F18  1  0.293911  0.196759  0.695756  1
  F  F19  1  0.698479  0.794373  0.314238  1
  F  F20  1  0.832933  0.091742  0.620635  1
  F  F21  1  0.194678  0.921283  0.361260  1
  F  F22  1  0.794962  0.985109  0.983754  1
  F  F23  1  0.241608  0.989803  0.084127  1
  F  F24  1  0.896650  0.319008  0.816034  1
  F  F25  1  0.122261  0.650500  0.200843  1
  F  F26  1  0.166505  0.713594  0.925226  1
  F  F27  1  0.823099  0.257596  0.097039  1
  F  F28  1  0.487280  0.902604  0.714909  1
  F  F29  1  0.551743  0.088999  0.272471  1
  F  F30  1  0.111465  0.770627  0.584238  1
  F  F31  1  0.914216  0.252834  0.401933  1
  F  F32  1  0.191036  0.639822  0.657256  1
  F  F33  1  0.793744  0.387979  0.343686  1
  F  F34  1  0.289982  0.794144  0.873277  1
  F  F35  1  0.691036  0.173346  0.180723  1
  F  F36  1  0.502019  0.435789  0.535611  1
  F  F37  1  0.481483  0.564077  0.466653  1
