# generated using pymatgen
data_NdHoNi2(SnH)2
_symmetry_space_group_name_H-M   'P 1'
_cell_length_a   7.15464508
_cell_length_b   8.42832800
_cell_length_c   4.29925403
_cell_angle_alpha   90.00000000
_cell_angle_beta   90.01578956
_cell_angle_gamma   90.00000000
_symmetry_Int_Tables_number   1
_chemical_formula_structural   NdHoNi2(SnH)2
_chemical_formula_sum   'Nd2 Ho2 Ni4 Sn4 H4'
_cell_volume   259.25229764
_cell_formula_units_Z   2
loop_
 _symmetry_equiv_pos_site_id
 _symmetry_equiv_pos_as_xyz
  1  'x, y, z'
loop_
 _atom_site_type_symbol
 _atom_site_label
 _atom_site_symmetry_multiplicity
 _atom_site_fract_x
 _atom_site_fract_y
 _atom_site_fract_z
 _atom_site_occupancy
  Nd  Nd0  1  0.985602  0.689055  0.742948  1
  Nd  Nd1  1  0.485602  0.810945  0.742948  1
  Ho  Ho2  1  0.514040  0.184184  0.243056  1
  Ho  Ho3  1  0.014039  0.315816  0.243056  1
  Ni  Ni4  1  0.277776  0.596841  0.242249  1
  Ni  Ni5  1  0.777777  0.903159  0.242249  1
  Ni  Ni6  1  0.224290  0.110703  0.742682  1
  Ni  Ni7  1  0.724290  0.389297  0.742682  1
  Sn  Sn8  1  0.654883  0.562348  0.242657  1
  Sn  Sn9  1  0.154882  0.937652  0.242657  1
  Sn  Sn10  1  0.842593  0.078037  0.742467  1
  Sn  Sn11  1  0.342593  0.421962  0.742467  1
  H  H12  1  0.055306  0.574132  0.242938  1
  H  H13  1  0.555307  0.925868  0.242938  1
  H  H14  1  0.445511  0.083236  0.743198  1
  H  H15  1  0.945511  0.416763  0.743198  1
