# generated using pymatgen
data_Tm2Hf3P7Rh9
_symmetry_space_group_name_H-M   'P 1'
_cell_length_a   3.86601900
_cell_length_b   9.83551452
_cell_length_c   9.83545000
_cell_angle_alpha   120.00065747
_cell_angle_beta   89.99992590
_cell_angle_gamma   89.99996715
_symmetry_Int_Tables_number   1
_chemical_formula_structural   Tm2Hf3P7Rh9
_chemical_formula_sum   'Tm2 Hf3 P7 Rh9'
_cell_volume   323.87919950
_cell_formula_units_Z   1
loop_
 _symmetry_equiv_pos_site_id
 _symmetry_equiv_pos_as_xyz
  1  'x, y, z'
loop_
 _atom_site_type_symbol
 _atom_site_label
 _atom_site_symmetry_multiplicity
 _atom_site_fract_x
 _atom_site_fract_y
 _atom_site_fract_z
 _atom_site_occupancy
  Tm  Tm0  1  0.261479  0.666659  0.333337  1
  Tm  Tm1  1  0.761996  0.333338  0.666666  1
  Hf  Hf2  1  0.762215  0.103825  0.874145  1
  Hf  Hf3  1  0.762213  0.125841  0.229671  1
  Hf  Hf4  1  0.762213  0.770311  0.896174  1
  P  P5  1  0.265075  0.999984  0.000000  1
  P  P6  1  0.761547  0.862443  0.577153  1
  P  P7  1  0.761554  0.422836  0.285271  1
  P  P8  1  0.761554  0.714744  0.137582  1
  P  P9  1  0.261718  0.113988  0.423390  1
  P  P10  1  0.261723  0.576607  0.690624  1
  P  P11  1  0.261725  0.309392  0.885974  1
  Rh  Rh12  1  0.260876  0.879266  0.161577  1
  Rh  Rh13  1  0.260865  0.838423  0.717701  1
  Rh  Rh14  1  0.260866  0.282298  0.120722  1
  Rh  Rh15  1  0.761695  0.606653  0.552237  1
  Rh  Rh16  1  0.761696  0.447812  0.054429  1
  Rh  Rh17  1  0.761688  0.945568  0.393348  1
  Rh  Rh18  1  0.262425  0.358865  0.438155  1
  Rh  Rh19  1  0.262431  0.561884  0.920723  1
  Rh  Rh20  1  0.262445  0.079266  0.641116  1
