# generated using pymatgen
data_La15Nd5Ir11Rh
_symmetry_space_group_name_H-M   'P 1'
_cell_length_a   11.39863380
_cell_length_b   11.39293027
_cell_length_c   6.71016884
_cell_angle_alpha   90.01519113
_cell_angle_beta   90.10377373
_cell_angle_gamma   90.05200083
_symmetry_Int_Tables_number   1
_chemical_formula_structural   La15Nd5Ir11Rh
_chemical_formula_sum   'La15 Nd5 Ir11 Rh1'
_cell_volume   871.40647402
_cell_formula_units_Z   1
loop_
 _symmetry_equiv_pos_site_id
 _symmetry_equiv_pos_as_xyz
  1  'x, y, z'
loop_
 _atom_site_type_symbol
 _atom_site_label
 _atom_site_symmetry_multiplicity
 _atom_site_fract_x
 _atom_site_fract_y
 _atom_site_fract_z
 _atom_site_occupancy
  La  La0  1  0.290752  0.909320  0.889967  1
  La  La1  1  0.709348  0.091920  0.889901  1
  La  La2  1  0.708589  0.908590  0.392664  1
  La  La3  1  0.591741  0.790667  0.889945  1
  La  La4  1  0.590004  0.208123  0.392728  1
  La  La5  1  0.408289  0.792350  0.392831  1
  La  La6  1  0.407314  0.208580  0.890067  1
  La  La7  1  0.208657  0.408016  0.608383  1
  La  La8  1  0.208505  0.591794  0.109127  1
  La  La9  1  0.791591  0.408027  0.109385  1
  La  La10  1  0.791610  0.591298  0.609411  1
  La  La11  1  0.908310  0.708454  0.109277  1
  La  La12  1  0.909055  0.291648  0.609512  1
  La  La13  1  0.091247  0.708429  0.608703  1
  La  La14  1  0.092534  0.290908  0.110074  1
  Nd  Nd15  1  0.291583  0.090666  0.391932  1
  Nd  Nd16  1  0.001057  0.000666  0.499566  1
  Nd  Nd17  1  0.000003  0.999849  0.000677  1
  Nd  Nd18  1  0.499965  0.499972  0.999856  1
  Nd  Nd19  1  0.499700  0.500111  0.499630  1
  Ir  Ir20  1  0.845677  0.152415  0.250271  1
  Ir  Ir21  1  0.846882  0.846761  0.749096  1
  Ir  Ir22  1  0.152604  0.153313  0.749852  1
  Ir  Ir23  1  0.154875  0.848698  0.250917  1
  Ir  Ir24  1  0.653045  0.346474  0.749305  1
  Ir  Ir25  1  0.652407  0.654245  0.250324  1
  Ir  Ir26  1  0.347673  0.345266  0.249902  1
  Ir  Ir27  1  0.346794  0.653304  0.749326  1
  Ir  Ir28  1  0.499326  0.000403  0.625384  1
  Ir  Ir29  1  0.999879  0.500263  0.877948  1
  Ir  Ir30  1  0.000180  0.499763  0.377822  1
  Rh  Rh31  1  0.500804  0.999706  0.116221  1
