# generated using pymatgen
data_Tb3HoGa18(IrPd)3
_symmetry_space_group_name_H-M   'P 1'
_cell_length_a   7.63307139
_cell_length_b   7.63120825
_cell_length_c   9.52033121
_cell_angle_alpha   89.87634411
_cell_angle_beta   89.85563226
_cell_angle_gamma   119.73250848
_symmetry_Int_Tables_number   1
_chemical_formula_structural   Tb3HoGa18(IrPd)3
_chemical_formula_sum   'Tb3 Ho1 Ga18 Ir3 Pd3'
_cell_volume   481.54281121
_cell_formula_units_Z   1
loop_
 _symmetry_equiv_pos_site_id
 _symmetry_equiv_pos_as_xyz
  1  'x, y, z'
loop_
 _atom_site_type_symbol
 _atom_site_label
 _atom_site_symmetry_multiplicity
 _atom_site_fract_x
 _atom_site_fract_y
 _atom_site_fract_z
 _atom_site_occupancy
  Tb  Tb0  1  0.996254  0.668954  0.249668  1
  Tb  Tb1  1  0.002413  0.330003  0.749956  1
  Tb  Tb2  1  0.669924  0.997544  0.250071  1
  Ho  Ho3  1  0.331089  0.003772  0.750252  1
  Ga  Ga4  1  0.130754  0.128845  0.250577  1
  Ga  Ga5  1  0.871753  0.869778  0.749420  1
  Ga  Ga6  1  0.001904  0.336339  0.080842  1
  Ga  Ga7  1  0.003355  0.665906  0.919336  1
  Ga  Ga8  1  0.001175  0.663338  0.578879  1
  Ga  Ga9  1  0.337133  0.999375  0.422063  1
  Ga  Ga10  1  0.999024  0.337881  0.420832  1
  Ga  Ga11  1  0.661791  0.001158  0.579807  1
  Ga  Ga12  1  0.663302  0.998281  0.918477  1
  Ga  Ga13  1  0.334496  0.997061  0.079629  1
  Ga  Ga14  1  0.333840  0.333799  0.567515  1
  Ga  Ga15  1  0.665509  0.665881  0.433203  1
  Ga  Ga16  1  0.664964  0.666851  0.070098  1
  Ga  Ga17  1  0.333067  0.334448  0.929080  1
  Ga  Ga18  1  0.337344  0.545987  0.250513  1
  Ga  Ga19  1  0.664094  0.456136  0.748290  1
  Ga  Ga20  1  0.543400  0.335703  0.251977  1
  Ga  Ga21  1  0.454037  0.662887  0.749491  1
  Ir  Ir22  1  0.329693  0.670297  0.999718  1
  Ir  Ir23  1  0.328662  0.671479  0.500238  1
  Ir  Ir24  1  0.671034  0.328934  0.500226  1
  Pd  Pd25  1  0.670774  0.329008  0.999903  1
  Pd  Pd26  1  0.000128  0.999741  0.999973  1
  Pd  Pd27  1  0.999091  0.000614  0.499966  1
