# generated using pymatgen
data_Tb3Tm4Th(InAu2)4
_symmetry_space_group_name_H-M   'P 1'
_cell_length_a   8.01078545
_cell_length_b   8.01078555
_cell_length_c   7.38994900
_cell_angle_alpha   90.00000000
_cell_angle_beta   90.00000000
_cell_angle_gamma   90.07198833
_symmetry_Int_Tables_number   1
_chemical_formula_structural   Tb3Tm4Th(InAu2)4
_chemical_formula_sum   'Tb3 Tm4 Th1 In4 Au8'
_cell_volume   474.23248987
_cell_formula_units_Z   1
loop_
 _symmetry_equiv_pos_site_id
 _symmetry_equiv_pos_as_xyz
  1  'x, y, z'
loop_
 _atom_site_type_symbol
 _atom_site_label
 _atom_site_symmetry_multiplicity
 _atom_site_fract_x
 _atom_site_fract_y
 _atom_site_fract_z
 _atom_site_occupancy
  Tb  Tb0  1  0.160598  0.839402  0.500000  1
  Tb  Tb1  1  0.680447  0.681341  0.500000  1
  Tb  Tb2  1  0.318659  0.319553  0.500000  1
  Tm  Tm3  1  0.339659  0.342881  0.000000  1
  Tm  Tm4  1  0.657119  0.660341  0.000000  1
  Tm  Tm5  1  0.182075  0.817925  0.000000  1
  Tm  Tm6  1  0.820299  0.179701  0.000000  1
  Th  Th7  1  0.840401  0.159599  0.500000  1
  In  In8  1  0.497526  0.998088  0.249574  1
  In  In9  1  0.001912  0.502474  0.750426  1
  In  In10  1  0.497526  0.998088  0.750426  1
  In  In11  1  0.001912  0.502474  0.249574  1
  Au  Au12  1  0.627077  0.372923  0.261620  1
  Au  Au13  1  0.370740  0.629260  0.266791  1
  Au  Au14  1  0.131019  0.127903  0.780385  1
  Au  Au15  1  0.872097  0.868981  0.780385  1
  Au  Au16  1  0.370740  0.629260  0.733209  1
  Au  Au17  1  0.627077  0.372923  0.738380  1
  Au  Au18  1  0.872097  0.868981  0.219615  1
  Au  Au19  1  0.131019  0.127903  0.219615  1
