# generated using pymatgen
data_PrHo(Si7Rh3)2
_symmetry_space_group_name_H-M   'P 1'
_cell_length_a   8.03929054
_cell_length_b   8.03929114
_cell_length_c   8.03929205
_cell_angle_alpha   56.96105251
_cell_angle_beta   56.96105329
_cell_angle_gamma   56.96104262
_symmetry_Int_Tables_number   1
_chemical_formula_structural   PrHo(Si7Rh3)2
_chemical_formula_sum   'Pr1 Ho1 Si14 Rh6'
_cell_volume   341.65020040
_cell_formula_units_Z   1
loop_
 _symmetry_equiv_pos_site_id
 _symmetry_equiv_pos_as_xyz
  1  'x, y, z'
loop_
 _atom_site_type_symbol
 _atom_site_label
 _atom_site_symmetry_multiplicity
 _atom_site_fract_x
 _atom_site_fract_y
 _atom_site_fract_z
 _atom_site_occupancy
  Pr  Pr0  1  0.500000  0.500000  0.500000  1
  Ho  Ho1  1  0.000000  0.000000  0.000000  1
  Si  Si2  1  0.750026  0.750026  0.750026  1
  Si  Si3  1  0.249974  0.249974  0.249974  1
  Si  Si4  1  0.852711  0.063170  0.673121  1
  Si  Si5  1  0.673121  0.852711  0.063170  1
  Si  Si6  1  0.063170  0.673121  0.852711  1
  Si  Si7  1  0.649502  0.828574  0.434948  1
  Si  Si8  1  0.434948  0.649502  0.828574  1
  Si  Si9  1  0.828574  0.434948  0.649502  1
  Si  Si10  1  0.171426  0.565052  0.350498  1
  Si  Si11  1  0.565052  0.350498  0.171426  1
  Si  Si12  1  0.350498  0.171426  0.565052  1
  Si  Si13  1  0.936830  0.326879  0.147289  1
  Si  Si14  1  0.326879  0.147289  0.936830  1
  Si  Si15  1  0.147289  0.936830  0.326879  1
  Rh  Rh16  1  0.066885  0.429562  0.752169  1
  Rh  Rh17  1  0.247831  0.933115  0.570438  1
  Rh  Rh18  1  0.570438  0.247831  0.933115  1
  Rh  Rh19  1  0.933115  0.570438  0.247831  1
  Rh  Rh20  1  0.429562  0.752169  0.066885  1
  Rh  Rh21  1  0.752169  0.066885  0.429562  1
