# generated using pymatgen
data_Er4Si2H5
_symmetry_space_group_name_H-M   'P 1'
_cell_length_a   5.76385156
_cell_length_b   7.09302518
_cell_length_c   5.76224700
_cell_angle_alpha   52.05357532
_cell_angle_beta   104.07951492
_cell_angle_gamma   128.01624723
_symmetry_Int_Tables_number   1
_chemical_formula_structural   Er4Si2H5
_chemical_formula_sum   'Er4 Si2 H5'
_cell_volume   142.83861089
_cell_formula_units_Z   1
loop_
 _symmetry_equiv_pos_site_id
 _symmetry_equiv_pos_as_xyz
  1  'x, y, z'
loop_
 _atom_site_type_symbol
 _atom_site_label
 _atom_site_symmetry_multiplicity
 _atom_site_fract_x
 _atom_site_fract_y
 _atom_site_fract_z
 _atom_site_occupancy
  Er  Er0  1  0.973456  0.798509  0.955262  1
  Er  Er1  1  0.133678  0.288620  0.136553  1
  Er  Er2  1  0.644454  0.470516  0.625128  1
  Er  Er3  1  0.462949  0.959883  0.465171  1
  Si  Si4  1  0.053537  0.378705  0.546658  1
  Si  Si5  1  0.554120  0.880018  0.044778  1
  H  H6  1  0.553035  0.379074  0.045001  1
  H  H7  1  0.784085  0.864010  0.561238  1
  H  H8  1  0.068719  0.894701  0.276204  1
  H  H9  1  0.323000  0.148677  0.530093  1
  H  H10  1  0.038237  0.609973  0.814793  1
