# generated using pymatgen
data_Tm3Sc2UCo16(MoP6)2
_symmetry_space_group_name_H-M   'P 1'
_cell_length_a   3.66047800
_cell_length_b   10.47284100
_cell_length_c   12.02306300
_cell_angle_alpha   90.00000000
_cell_angle_beta   90.00000000
_cell_angle_gamma   90.00000000
_symmetry_Int_Tables_number   1
_chemical_formula_structural   Tm3Sc2UCo16(MoP6)2
_chemical_formula_sum   'Tm3 Sc2 U1 Co16 Mo2 P12'
_cell_volume   460.91138297
_cell_formula_units_Z   1
loop_
 _symmetry_equiv_pos_site_id
 _symmetry_equiv_pos_as_xyz
  1  'x, y, z'
loop_
 _atom_site_type_symbol
 _atom_site_label
 _atom_site_symmetry_multiplicity
 _atom_site_fract_x
 _atom_site_fract_y
 _atom_site_fract_z
 _atom_site_occupancy
  Tm  Tm0  1  0.500000  0.000000  0.471918  1
  Tm  Tm1  1  0.000000  0.681849  0.795692  1
  Tm  Tm2  1  0.000000  0.318151  0.795692  1
  Sc  Sc3  1  0.500000  0.818307  0.205064  1
  Sc  Sc4  1  0.500000  0.181693  0.205064  1
  U  U5  1  0.000000  0.500000  0.532145  1
  Co  Co6  1  0.500000  0.500000  0.693196  1
  Co  Co7  1  0.000000  0.000000  0.296887  1
  Co  Co8  1  0.000000  0.500000  0.987792  1
  Co  Co9  1  0.500000  0.000000  0.017266  1
  Co  Co10  1  0.500000  0.332244  0.991273  1
  Co  Co11  1  0.500000  0.667756  0.991273  1
  Co  Co12  1  0.000000  0.166894  0.012265  1
  Co  Co13  1  0.000000  0.833106  0.012265  1
  Co  Co14  1  0.500000  0.296321  0.430199  1
  Co  Co15  1  0.500000  0.703679  0.430199  1
  Co  Co16  1  0.000000  0.201880  0.565561  1
  Co  Co17  1  0.000000  0.798120  0.565561  1
  Co  Co18  1  0.500000  0.877963  0.706846  1
  Co  Co19  1  0.500000  0.122037  0.706846  1
  Co  Co20  1  0.000000  0.622928  0.294039  1
  Co  Co21  1  0.000000  0.377072  0.294039  1
  Mo  Mo22  1  0.500000  0.500000  0.157858  1
  Mo  Mo23  1  0.000000  0.000000  0.843630  1
  P  P24  1  0.500000  0.500000  0.878196  1
  P  P25  1  0.000000  0.000000  0.122783  1
  P  P26  1  0.500000  0.500000  0.353362  1
  P  P27  1  0.000000  0.000000  0.646954  1
  P  P28  1  0.500000  0.306768  0.615370  1
  P  P29  1  0.500000  0.693232  0.615370  1
  P  P30  1  0.000000  0.185457  0.378898  1
  P  P31  1  0.000000  0.814543  0.378898  1
  P  P32  1  0.500000  0.844265  0.893441  1
  P  P33  1  0.500000  0.155735  0.893441  1
  P  P34  1  0.000000  0.658886  0.110358  1
  P  P35  1  0.000000  0.341114  0.110358  1
