# generated using pymatgen
data_DyLu5Co16(ReP6)2
_symmetry_space_group_name_H-M   'P 1'
_cell_length_a   3.70174900
_cell_length_b   10.48342100
_cell_length_c   12.16083800
_cell_angle_alpha   90.00000000
_cell_angle_beta   90.00000000
_cell_angle_gamma   90.00000000
_symmetry_Int_Tables_number   1
_chemical_formula_structural   DyLu5Co16(ReP6)2
_chemical_formula_sum   'Dy1 Lu5 Co16 Re2 P12'
_cell_volume   471.92555761
_cell_formula_units_Z   1
loop_
 _symmetry_equiv_pos_site_id
 _symmetry_equiv_pos_as_xyz
  1  'x, y, z'
loop_
 _atom_site_type_symbol
 _atom_site_label
 _atom_site_symmetry_multiplicity
 _atom_site_fract_x
 _atom_site_fract_y
 _atom_site_fract_z
 _atom_site_occupancy
  Dy  Dy0  1  0.500000  0.000000  0.473778  1
  Lu  Lu1  1  0.000000  0.500000  0.526471  1
  Lu  Lu2  1  0.500000  0.818728  0.205495  1
  Lu  Lu3  1  0.500000  0.181272  0.205495  1
  Lu  Lu4  1  0.000000  0.680687  0.793949  1
  Lu  Lu5  1  0.000000  0.319313  0.793949  1
  Co  Co6  1  0.500000  0.500000  0.701366  1
  Co  Co7  1  0.000000  0.000000  0.297251  1
  Co  Co8  1  0.000000  0.500000  0.987687  1
  Co  Co9  1  0.500000  0.000000  0.012206  1
  Co  Co10  1  0.500000  0.332661  0.988858  1
  Co  Co11  1  0.500000  0.667339  0.988858  1
  Co  Co12  1  0.000000  0.167778  0.011158  1
  Co  Co13  1  0.000000  0.832222  0.011158  1
  Co  Co14  1  0.500000  0.298147  0.431289  1
  Co  Co15  1  0.500000  0.701853  0.431289  1
  Co  Co16  1  0.000000  0.204455  0.568819  1
  Co  Co17  1  0.000000  0.795545  0.568819  1
  Co  Co18  1  0.500000  0.877647  0.708406  1
  Co  Co19  1  0.500000  0.122353  0.708406  1
  Co  Co20  1  0.000000  0.621692  0.292149  1
  Co  Co21  1  0.000000  0.378308  0.292149  1
  Re  Re22  1  0.500000  0.500000  0.157223  1
  Re  Re23  1  0.000000  0.000000  0.843719  1
  P  P24  1  0.500000  0.500000  0.878378  1
  P  P25  1  0.000000  0.000000  0.121080  1
  P  P26  1  0.500000  0.500000  0.351785  1
  P  P27  1  0.000000  0.000000  0.649963  1
  P  P28  1  0.500000  0.313404  0.616801  1
  P  P29  1  0.500000  0.686596  0.616801  1
  P  P30  1  0.000000  0.187941  0.382449  1
  P  P31  1  0.000000  0.812059  0.382449  1
  P  P32  1  0.500000  0.844542  0.891328  1
  P  P33  1  0.500000  0.155458  0.891328  1
  P  P34  1  0.000000  0.654945  0.108845  1
  P  P35  1  0.000000  0.345055  0.108845  1
