# generated using pymatgen
data_Ba7SrNb4O18
_symmetry_space_group_name_H-M   'P 1'
_cell_length_a   6.17232201
_cell_length_b   6.17234436
_cell_length_c   16.22428700
_cell_angle_alpha   89.99978991
_cell_angle_beta   89.99948802
_cell_angle_gamma   119.99919257
_symmetry_Int_Tables_number   1
_chemical_formula_structural   Ba7SrNb4O18
_chemical_formula_sum   'Ba7 Sr1 Nb4 O18'
_cell_volume   535.30155899
_cell_formula_units_Z   1
loop_
 _symmetry_equiv_pos_site_id
 _symmetry_equiv_pos_as_xyz
  1  'x, y, z'
loop_
 _atom_site_type_symbol
 _atom_site_label
 _atom_site_symmetry_multiplicity
 _atom_site_fract_x
 _atom_site_fract_y
 _atom_site_fract_z
 _atom_site_occupancy
  Ba  Ba0  1  0.999986  0.000017  0.742626  1
  Ba  Ba1  1  0.000014  0.999983  0.257374  1
  Ba  Ba2  1  0.666670  0.333341  0.615983  1
  Ba  Ba3  1  0.333341  0.666658  0.143260  1
  Ba  Ba4  1  0.333330  0.666659  0.384017  1
  Ba  Ba5  1  0.666659  0.333342  0.856740  1
  Ba  Ba6  1  0.000000  0.000000  0.000000  1
  Sr  Sr7  1  0.000000  0.000000  0.500000  1
  Nb  Nb8  1  0.666675  0.333324  0.350825  1
  Nb  Nb9  1  0.333335  0.666678  0.836389  1
  Nb  Nb10  1  0.333325  0.666676  0.649175  1
  Nb  Nb11  1  0.666665  0.333322  0.163611  1
  O  O12  1  0.529870  0.957346  0.741546  1
  O  O13  1  0.042653  0.572554  0.741546  1
  O  O14  1  0.427458  0.470132  0.741553  1
  O  O15  1  0.470130  0.042654  0.258454  1
  O  O16  1  0.957347  0.427446  0.258454  1
  O  O17  1  0.572542  0.529868  0.258447  1
  O  O18  1  0.112167  0.355104  0.595217  1
  O  O19  1  0.644887  0.757063  0.595216  1
  O  O20  1  0.242930  0.887835  0.595210  1
  O  O21  1  0.893640  0.644127  0.111686  1
  O  O22  1  0.355847  0.249472  0.111690  1
  O  O23  1  0.750510  0.106339  0.111694  1
  O  O24  1  0.887833  0.644896  0.404783  1
  O  O25  1  0.355113  0.242937  0.404784  1
  O  O26  1  0.757070  0.112165  0.404790  1
  O  O27  1  0.106360  0.355873  0.888314  1
  O  O28  1  0.644153  0.750528  0.888310  1
  O  O29  1  0.249490  0.893661  0.888306  1
