# generated using pymatgen
data_Dy4ErGaBiPt
_symmetry_space_group_name_H-M   'P 1'
_cell_length_a   8.69401394
_cell_length_b   8.69401449
_cell_length_c   8.76110221
_cell_angle_alpha   125.24609310
_cell_angle_beta   125.24610645
_cell_angle_gamma   80.61395724
_symmetry_Int_Tables_number   1
_chemical_formula_structural   Dy4ErGaBiPt
_chemical_formula_sum   'Dy8 Er2 Ga2 Bi2 Pt2'
_cell_volume   427.09770903
_cell_formula_units_Z   2
loop_
 _symmetry_equiv_pos_site_id
 _symmetry_equiv_pos_as_xyz
  1  'x, y, z'
loop_
 _atom_site_type_symbol
 _atom_site_label
 _atom_site_symmetry_multiplicity
 _atom_site_fract_x
 _atom_site_fract_y
 _atom_site_fract_z
 _atom_site_occupancy
  Dy  Dy0  1  0.786887  0.286887  0.798798  1
  Dy  Dy1  1  0.213113  0.713113  0.201202  1
  Dy  Dy2  1  0.488088  0.988088  0.201202  1
  Dy  Dy3  1  0.300687  0.472996  0.500000  1
  Dy  Dy4  1  0.027004  0.199313  0.500000  1
  Dy  Dy5  1  0.511912  0.011912  0.798798  1
  Dy  Dy6  1  0.699313  0.527004  0.500000  1
  Dy  Dy7  1  0.972996  0.800687  0.500000  1
  Er  Er8  1  0.000000  0.000000  0.000000  1
  Er  Er9  1  0.500000  0.500000  0.000000  1
  Ga  Ga10  1  0.139654  0.639654  0.779308  1
  Ga  Ga11  1  0.860346  0.360346  0.220692  1
  Bi  Bi12  1  0.250000  0.250000  0.000000  1
  Bi  Bi13  1  0.750000  0.750000  0.000000  1
  Pt  Pt14  1  0.636657  0.863343  0.500000  1
  Pt  Pt15  1  0.363343  0.136657  0.500000  1
