# generated using pymatgen
data_Ho19Er(Bi2Ir)4
_symmetry_space_group_name_H-M   'P 1'
_cell_length_a   7.98066215
_cell_length_b   8.98698104
_cell_length_c   12.46728825
_cell_angle_alpha   90.00710837
_cell_angle_beta   89.97895493
_cell_angle_gamma   89.99123024
_symmetry_Int_Tables_number   1
_chemical_formula_structural   Ho19Er(Bi2Ir)4
_chemical_formula_sum   'Ho19 Er1 Bi8 Ir4'
_cell_volume   894.17951124
_cell_formula_units_Z   1
loop_
 _symmetry_equiv_pos_site_id
 _symmetry_equiv_pos_as_xyz
  1  'x, y, z'
loop_
 _atom_site_type_symbol
 _atom_site_label
 _atom_site_symmetry_multiplicity
 _atom_site_fract_x
 _atom_site_fract_y
 _atom_site_fract_z
 _atom_site_occupancy
  Ho  Ho0  1  0.662096  0.750113  0.706075  1
  Ho  Ho1  1  0.337985  0.249876  0.293985  1
  Ho  Ho2  1  0.162163  0.249990  0.793849  1
  Ho  Ho3  1  0.837835  0.749927  0.205904  1
  Ho  Ho4  1  0.123140  0.749867  0.808209  1
  Ho  Ho5  1  0.876775  0.250082  0.191736  1
  Ho  Ho6  1  0.623099  0.249752  0.691706  1
  Ho  Ho7  1  0.376255  0.750300  0.308367  1
  Ho  Ho8  1  0.553774  0.750045  0.998744  1
  Ho  Ho9  1  0.446213  0.249925  0.001246  1
  Ho  Ho10  1  0.054364  0.249632  0.501354  1
  Ho  Ho11  1  0.946406  0.750235  0.498705  1
  Ho  Ho12  1  0.825107  0.457435  0.933922  1
  Ho  Ho13  1  0.174776  0.542613  0.065994  1
  Ho  Ho14  1  0.324777  0.542514  0.566266  1
  Ho  Ho15  1  0.174672  0.957391  0.066038  1
  Ho  Ho16  1  0.674850  0.457699  0.434112  1
  Ho  Ho17  1  0.825186  0.042601  0.933834  1
  Ho  Ho18  1  0.675082  0.042603  0.433831  1
  Er  Er19  1  0.325810  0.957452  0.566470  1
  Bi  Bi20  1  0.934264  0.009291  0.672952  1
  Bi  Bi21  1  0.066024  0.990554  0.326754  1
  Bi  Bi22  1  0.433450  0.990413  0.826911  1
  Bi  Bi23  1  0.066272  0.509450  0.327037  1
  Bi  Bi24  1  0.566394  0.009476  0.173072  1
  Bi  Bi25  1  0.933413  0.490434  0.672946  1
  Bi  Bi26  1  0.566260  0.490577  0.173171  1
  Bi  Bi27  1  0.433526  0.509503  0.827012  1
  Ir  Ir28  1  0.927942  0.750028  0.991146  1
  Ir  Ir29  1  0.071952  0.249956  0.008672  1
  Ir  Ir30  1  0.428277  0.250258  0.508728  1
  Ir  Ir31  1  0.571861  0.750005  0.491251  1
