# generated using pymatgen
data_LiBPdPt2
_symmetry_space_group_name_H-M   'P 1'
_cell_length_a   9.32809746
_cell_length_b   9.29330260
_cell_length_c   2.80915800
_cell_angle_alpha   90.00000000
_cell_angle_beta   90.00000000
_cell_angle_gamma   120.02501675
_symmetry_Int_Tables_number   1
_chemical_formula_structural   LiBPdPt2
_chemical_formula_sum   'Li3 B3 Pd3 Pt6'
_cell_volume   210.84359725
_cell_formula_units_Z   3
loop_
 _symmetry_equiv_pos_site_id
 _symmetry_equiv_pos_as_xyz
  1  'x, y, z'
loop_
 _atom_site_type_symbol
 _atom_site_label
 _atom_site_symmetry_multiplicity
 _atom_site_fract_x
 _atom_site_fract_y
 _atom_site_fract_z
 _atom_site_occupancy
  Li  Li0  1  0.002392  0.365160  0.000000  1
  Li  Li1  1  0.635329  0.635503  0.000000  1
  Li  Li2  1  0.363219  0.999055  0.000000  1
  B  B3  1  0.996039  0.000532  0.500000  1
  B  B4  1  0.666026  0.337206  0.000000  1
  B  B5  1  0.332675  0.666117  0.000000  1
  Pd  Pd6  1  0.683695  0.167218  0.500000  1
  Pd  Pd7  1  0.001952  0.824959  0.000000  1
  Pd  Pd8  1  0.175996  0.174522  0.000000  1
  Pt  Pt9  1  0.483543  0.316579  0.500000  1
  Pt  Pt10  1  0.836287  0.516084  0.500000  1
  Pt  Pt11  1  0.165708  0.682296  0.500000  1
  Pt  Pt12  1  0.317446  0.481654  0.500000  1
  Pt  Pt13  1  0.517349  0.835086  0.500000  1
  Pt  Pt14  1  0.822343  0.998030  0.000000  1
