# generated using pymatgen
data_TbPr(Al5Cu6)2
_symmetry_space_group_name_H-M   'P 1'
_cell_length_a   10.35621680
_cell_length_b   8.19663641
_cell_length_c   7.86306835
_cell_angle_alpha   80.28063826
_cell_angle_beta   51.27062864
_cell_angle_gamma   48.44873767
_symmetry_Int_Tables_number   1
_chemical_formula_structural   TbPr(Al5Cu6)2
_chemical_formula_sum   'Tb1 Pr1 Al10 Cu12'
_cell_volume   353.33681871
_cell_formula_units_Z   1
loop_
 _symmetry_equiv_pos_site_id
 _symmetry_equiv_pos_as_xyz
  1  'x, y, z'
loop_
 _atom_site_type_symbol
 _atom_site_label
 _atom_site_symmetry_multiplicity
 _atom_site_fract_x
 _atom_site_fract_y
 _atom_site_fract_z
 _atom_site_occupancy
  Tb  Tb0  1  0.250000  0.250000  0.250000  1
  Pr  Pr1  1  0.000000  0.000000  0.000000  1
  Al  Al2  1  0.500000  0.500000  0.500000  1
  Al  Al3  1  0.750000  0.750000  0.750000  1
  Al  Al4  1  0.754378  0.071072  0.834481  1
  Al  Al5  1  0.834481  0.340069  0.754378  1
  Al  Al6  1  0.071072  0.754378  0.340069  1
  Al  Al7  1  0.340069  0.834481  0.071072  1
  Al  Al8  1  0.493083  0.180011  0.416518  1
  Al  Al9  1  0.416518  0.910388  0.493083  1
  Al  Al10  1  0.180011  0.493083  0.910388  1
  Al  Al11  1  0.910388  0.416518  0.180011  1
  Cu  Cu12  1  0.626054  0.123658  0.624113  1
  Cu  Cu13  1  0.624113  0.626175  0.626054  1
  Cu  Cu14  1  0.123658  0.626054  0.626175  1
  Cu  Cu15  1  0.626175  0.624113  0.123658  1
  Cu  Cu16  1  0.488394  0.436783  0.184163  1
  Cu  Cu17  1  0.184163  0.890659  0.488394  1
  Cu  Cu18  1  0.436783  0.488394  0.890659  1
  Cu  Cu19  1  0.890659  0.184163  0.436783  1
  Cu  Cu20  1  0.758273  0.815277  0.066935  1
  Cu  Cu21  1  0.066935  0.359516  0.758273  1
  Cu  Cu22  1  0.815277  0.758273  0.359516  1
  Cu  Cu23  1  0.359516  0.066935  0.815277  1
