# generated using pymatgen
data_TbY3Ti4Al4O20
_symmetry_space_group_name_H-M   'P 1'
_cell_length_a   5.71059900
_cell_length_b   7.44240100
_cell_length_c   8.48761200
_cell_angle_alpha   89.99943163
_cell_angle_beta   90.00000000
_cell_angle_gamma   90.00000000
_symmetry_Int_Tables_number   1
_chemical_formula_structural   TbY3Ti4Al4O20
_chemical_formula_sum   'Tb1 Y3 Ti4 Al4 O20'
_cell_volume   360.72832848
_cell_formula_units_Z   1
loop_
 _symmetry_equiv_pos_site_id
 _symmetry_equiv_pos_as_xyz
  1  'x, y, z'
loop_
 _atom_site_type_symbol
 _atom_site_label
 _atom_site_symmetry_multiplicity
 _atom_site_fract_x
 _atom_site_fract_y
 _atom_site_fract_z
 _atom_site_occupancy
  Tb  Tb0  1  0.000000  0.357806  0.329526  1
  Y  Y1  1  0.000000  0.642429  0.670537  1
  Y  Y2  1  0.000000  0.857548  0.170511  1
  Y  Y3  1  0.000000  0.142425  0.829477  1
  Ti  Ti4  1  0.500000  0.123572  0.145685  1
  Ti  Ti5  1  0.500000  0.876341  0.854283  1
  Ti  Ti6  1  0.500000  0.623665  0.354307  1
  Ti  Ti7  1  0.500000  0.376415  0.645706  1
  Al  Al8  1  0.243038  0.500011  0.999982  1
  Al  Al9  1  0.756941  0.999976  0.500022  1
  Al  Al10  1  0.756962  0.500011  0.999982  1
  Al  Al11  1  0.243059  0.999976  0.500022  1
  O  O12  1  0.000000  0.340130  0.057591  1
  O  O13  1  0.000000  0.659831  0.942267  1
  O  O14  1  0.000000  0.840169  0.442259  1
  O  O15  1  0.000000  0.159763  0.557773  1
  O  O16  1  0.500000  0.349561  0.070869  1
  O  O17  1  0.500000  0.650450  0.929143  1
  O  O18  1  0.500000  0.849549  0.429154  1
  O  O19  1  0.500000  0.150415  0.570829  1
  O  O20  1  0.251309  0.106972  0.293819  1
  O  O21  1  0.251288  0.892961  0.706170  1
  O  O22  1  0.748698  0.607051  0.206153  1
  O  O23  1  0.748721  0.392968  0.793840  1
  O  O24  1  0.748712  0.892961  0.706170  1
  O  O25  1  0.748691  0.106972  0.293819  1
  O  O26  1  0.251279  0.392968  0.793840  1
  O  O27  1  0.251302  0.607051  0.206153  1
  O  O28  1  0.277280  0.000008  0.000005  1
  O  O29  1  0.722625  0.500016  0.500050  1
  O  O30  1  0.722720  0.000008  0.000005  1
  O  O31  1  0.277375  0.500016  0.500050  1
