# generated using pymatgen
data_Pr4Mg3Au10
_symmetry_space_group_name_H-M   'P 1'
_cell_length_a   8.74376484
_cell_length_b   8.74376491
_cell_length_c   10.35936900
_cell_angle_alpha   90.00000000
_cell_angle_beta   90.00000000
_cell_angle_gamma   108.33558482
_symmetry_Int_Tables_number   1
_chemical_formula_structural   Pr4Mg3Au10
_chemical_formula_sum   'Pr8 Mg6 Au20'
_cell_volume   751.79914723
_cell_formula_units_Z   2
loop_
 _symmetry_equiv_pos_site_id
 _symmetry_equiv_pos_as_xyz
  1  'x, y, z'
loop_
 _atom_site_type_symbol
 _atom_site_label
 _atom_site_symmetry_multiplicity
 _atom_site_fract_x
 _atom_site_fract_y
 _atom_site_fract_z
 _atom_site_occupancy
  Pr  Pr0  1  0.700632  0.299368  0.000000  1
  Pr  Pr1  1  0.299368  0.700632  0.000000  1
  Pr  Pr2  1  0.799368  0.200632  0.500000  1
  Pr  Pr3  1  0.200632  0.799368  0.500000  1
  Pr  Pr4  1  0.302364  0.302364  0.203192  1
  Pr  Pr5  1  0.697636  0.697636  0.796808  1
  Pr  Pr6  1  0.197636  0.197636  0.703192  1
  Pr  Pr7  1  0.802364  0.802364  0.296808  1
  Mg  Mg8  1  0.013201  0.513201  0.250000  1
  Mg  Mg9  1  0.986799  0.486799  0.750000  1
  Mg  Mg10  1  0.486799  0.986799  0.750000  1
  Mg  Mg11  1  0.513201  0.013201  0.250000  1
  Mg  Mg12  1  0.000000  0.000000  0.000000  1
  Mg  Mg13  1  0.500000  0.500000  0.500000  1
  Au  Au14  1  0.097211  0.097211  0.404792  1
  Au  Au15  1  0.902789  0.902789  0.595208  1
  Au  Au16  1  0.402789  0.402789  0.904792  1
  Au  Au17  1  0.597211  0.597211  0.095208  1
  Au  Au18  1  0.887829  0.167947  0.205786  1
  Au  Au19  1  0.112171  0.832053  0.794214  1
  Au  Au20  1  0.612171  0.332053  0.705786  1
  Au  Au21  1  0.667947  0.387829  0.294214  1
  Au  Au22  1  0.387829  0.667947  0.294214  1
  Au  Au23  1  0.332053  0.612171  0.705786  1
  Au  Au24  1  0.832053  0.112171  0.794214  1
  Au  Au25  1  0.167947  0.887829  0.205786  1
  Au  Au26  1  0.934326  0.659067  0.024075  1
  Au  Au27  1  0.065674  0.340933  0.975925  1
  Au  Au28  1  0.565674  0.840933  0.524075  1
  Au  Au29  1  0.159067  0.434326  0.475925  1
  Au  Au30  1  0.434326  0.159067  0.475925  1
  Au  Au31  1  0.840933  0.565674  0.524075  1
  Au  Au32  1  0.340933  0.065674  0.975925  1
  Au  Au33  1  0.659067  0.934326  0.024075  1
