# generated using pymatgen
data_Er(Th2Ir)3
_symmetry_space_group_name_H-M   'P 1'
_cell_length_a   9.99885300
_cell_length_b   10.01715873
_cell_length_c   6.32707010
_cell_angle_alpha   90.25702516
_cell_angle_beta   90.00000000
_cell_angle_gamma   119.93956393
_symmetry_Int_Tables_number   1
_chemical_formula_structural   Er(Th2Ir)3
_chemical_formula_sum   'Er2 Th12 Ir6'
_cell_volume   549.14414676
_cell_formula_units_Z   2
loop_
 _symmetry_equiv_pos_site_id
 _symmetry_equiv_pos_as_xyz
  1  'x, y, z'
loop_
 _atom_site_type_symbol
 _atom_site_label
 _atom_site_symmetry_multiplicity
 _atom_site_fract_x
 _atom_site_fract_y
 _atom_site_fract_z
 _atom_site_occupancy
  Er  Er0  1  0.458750  0.539363  0.297903  1
  Er  Er1  1  0.080612  0.539363  0.297903  1
  Th  Th2  1  0.920176  0.459978  0.795948  1
  Th  Th3  1  0.256764  0.130515  0.498552  1
  Th  Th4  1  0.539815  0.079630  0.792047  1
  Th  Th5  1  0.744866  0.872489  0.000249  1
  Th  Th6  1  0.666315  0.332630  0.309449  1
  Th  Th7  1  0.127623  0.872489  0.000249  1
  Th  Th8  1  0.457079  0.914160  0.292873  1
  Th  Th9  1  0.539803  0.459978  0.795948  1
  Th  Th10  1  0.873751  0.130515  0.498552  1
  Th  Th11  1  0.128158  0.256316  0.002020  1
  Th  Th12  1  0.869278  0.738557  0.497076  1
  Th  Th13  1  0.333379  0.666759  0.783702  1
  Ir  Ir14  1  0.811701  0.623402  0.054266  1
  Ir  Ir15  1  0.813746  0.189501  0.054326  1
  Ir  Ir16  1  0.627023  0.815493  0.552257  1
  Ir  Ir17  1  0.375755  0.189501  0.054326  1
  Ir  Ir18  1  0.186935  0.373871  0.554098  1
  Ir  Ir19  1  0.188470  0.815493  0.552257  1
