# generated using pymatgen
data_NaLiCu3Sb2
_symmetry_space_group_name_H-M   'P 1'
_cell_length_a   8.90022896
_cell_length_b   8.90022908
_cell_length_c   8.90022804
_cell_angle_alpha   28.09714601
_cell_angle_beta   28.09714568
_cell_angle_gamma   28.09714005
_symmetry_Int_Tables_number   1
_chemical_formula_structural   NaLiCu3Sb2
_chemical_formula_sum   'Na1 Li1 Cu3 Sb2'
_cell_volume   138.14159263
_cell_formula_units_Z   1
loop_
 _symmetry_equiv_pos_site_id
 _symmetry_equiv_pos_as_xyz
  1  'x, y, z'
loop_
 _atom_site_type_symbol
 _atom_site_label
 _atom_site_symmetry_multiplicity
 _atom_site_fract_x
 _atom_site_fract_y
 _atom_site_fract_z
 _atom_site_occupancy
  Na  Na0  1  0.002132  0.002132  0.002132  1
  Li  Li1  1  0.143539  0.143539  0.143539  1
  Cu  Cu2  1  0.861748  0.861748  0.861748  1
  Cu  Cu3  1  0.442271  0.442271  0.442271  1
  Cu  Cu4  1  0.545629  0.545629  0.545629  1
  Sb  Sb5  1  0.249722  0.249722  0.249722  1
  Sb  Sb6  1  0.754959  0.754959  0.754959  1
