# generated using pymatgen
data_Nd3Tm4Th(ReB6)4
_symmetry_space_group_name_H-M   'P 1'
_cell_length_a   3.72234100
_cell_length_b   9.21323772
_cell_length_c   11.66898091
_cell_angle_alpha   89.95464110
_cell_angle_beta   90.00000000
_cell_angle_gamma   90.00000000
_symmetry_Int_Tables_number   1
_chemical_formula_structural   Nd3Tm4Th(ReB6)4
_chemical_formula_sum   'Nd3 Tm4 Th1 Re4 B24'
_cell_volume   400.18538728
_cell_formula_units_Z   1
loop_
 _symmetry_equiv_pos_site_id
 _symmetry_equiv_pos_as_xyz
  1  'x, y, z'
loop_
 _atom_site_type_symbol
 _atom_site_label
 _atom_site_symmetry_multiplicity
 _atom_site_fract_x
 _atom_site_fract_y
 _atom_site_fract_z
 _atom_site_occupancy
  Nd  Nd0  1  0.000000  0.323378  0.414223  1
  Nd  Nd1  1  0.000000  0.676980  0.585349  1
  Nd  Nd2  1  0.000000  0.822122  0.086280  1
  Tm  Tm3  1  0.000000  0.943253  0.369506  1
  Tm  Tm4  1  0.000000  0.056339  0.629315  1
  Tm  Tm5  1  0.000000  0.443953  0.130814  1
  Tm  Tm6  1  0.000000  0.557400  0.869527  1
  Th  Th7  1  0.000000  0.177190  0.914533  1
  Re  Re8  1  0.000000  0.639794  0.319021  1
  Re  Re9  1  0.000000  0.359158  0.681792  1
  Re  Re10  1  0.000000  0.139634  0.180245  1
  Re  Re11  1  0.000000  0.861333  0.819449  1
  B  B12  1  0.500000  0.555155  0.430365  1
  B  B13  1  0.500000  0.444475  0.569838  1
  B  B14  1  0.500000  0.055803  0.070019  1
  B  B15  1  0.500000  0.944416  0.929977  1
  B  B16  1  0.500000  0.750934  0.415974  1
  B  B17  1  0.500000  0.249257  0.583804  1
  B  B18  1  0.500000  0.250859  0.084380  1
  B  B19  1  0.500000  0.748896  0.915888  1
  B  B20  1  0.500000  0.792252  0.266061  1
  B  B21  1  0.500000  0.207953  0.733823  1
  B  B22  1  0.500000  0.292070  0.233987  1
  B  B23  1  0.500000  0.708047  0.766185  1
  B  B24  1  0.500000  0.629878  0.185843  1
  B  B25  1  0.500000  0.370004  0.814188  1
  B  B26  1  0.500000  0.129700  0.314220  1
  B  B27  1  0.500000  0.869909  0.685464  1
  B  B28  1  0.500000  0.984124  0.214206  1
  B  B29  1  0.500000  0.015247  0.785951  1
  B  B30  1  0.500000  0.484251  0.286363  1
  B  B31  1  0.500000  0.515575  0.713708  1
  B  B32  1  0.500000  0.597316  0.026814  1
  B  B33  1  0.500000  0.403421  0.973449  1
  B  B34  1  0.500000  0.096453  0.473181  1
  B  B35  1  0.500000  0.903471  0.526259  1
