# generated using pymatgen
data_Sc4Ta4Co16Si7P5
_symmetry_space_group_name_H-M   'P 1'
_cell_length_a   3.65870800
_cell_length_b   10.47767774
_cell_length_c   12.05153562
_cell_angle_alpha   90.12001277
_cell_angle_beta   90.00000000
_cell_angle_gamma   90.00000000
_symmetry_Int_Tables_number   1
_chemical_formula_structural   Sc4Ta4Co16Si7P5
_chemical_formula_sum   'Sc4 Ta4 Co16 Si7 P5'
_cell_volume   461.99175261
_cell_formula_units_Z   1
loop_
 _symmetry_equiv_pos_site_id
 _symmetry_equiv_pos_as_xyz
  1  'x, y, z'
loop_
 _atom_site_type_symbol
 _atom_site_label
 _atom_site_symmetry_multiplicity
 _atom_site_fract_x
 _atom_site_fract_y
 _atom_site_fract_z
 _atom_site_occupancy
  Sc  Sc0  1  0.250000  0.578877  0.706300  1
  Sc  Sc1  1  0.250000  0.926156  0.205202  1
  Sc  Sc2  1  0.750000  0.426560  0.294836  1
  Sc  Sc3  1  0.750000  0.073715  0.794945  1
  Ta  Ta4  1  0.250000  0.702182  0.992909  1
  Ta  Ta5  1  0.250000  0.797163  0.494774  1
  Ta  Ta6  1  0.750000  0.297425  0.006755  1
  Ta  Ta7  1  0.750000  0.203071  0.507211  1
  Co  Co8  1  0.250000  0.410853  0.485407  1
  Co  Co9  1  0.250000  0.090030  0.984431  1
  Co  Co10  1  0.750000  0.594233  0.518591  1
  Co  Co11  1  0.750000  0.908426  0.012066  1
  Co  Co12  1  0.250000  0.211539  0.167148  1
  Co  Co13  1  0.250000  0.287882  0.667009  1
  Co  Co14  1  0.750000  0.784493  0.827048  1
  Co  Co15  1  0.750000  0.711590  0.333570  1
  Co  Co16  1  0.250000  0.880299  0.704852  1
  Co  Co17  1  0.250000  0.618894  0.205684  1
  Co  Co18  1  0.750000  0.117328  0.294385  1
  Co  Co19  1  0.750000  0.381748  0.794306  1
  Co  Co20  1  0.250000  0.461781  0.931744  1
  Co  Co21  1  0.250000  0.036562  0.432150  1
  Co  Co22  1  0.750000  0.537365  0.069150  1
  Co  Co23  1  0.750000  0.961072  0.570449  1
  Si  Si24  1  0.250000  0.423292  0.121719  1
  Si  Si25  1  0.250000  0.077213  0.621588  1
  Si  Si26  1  0.750000  0.575053  0.879718  1
  Si  Si27  1  0.750000  0.922772  0.378941  1
  Si  Si28  1  0.250000  0.261501  0.852668  1
  Si  Si29  1  0.250000  0.238183  0.353168  1
  Si  Si30  1  0.750000  0.738465  0.146981  1
  P  P31  1  0.750000  0.763564  0.644835  1
  P  P32  1  0.250000  0.589563  0.388771  1
  P  P33  1  0.250000  0.910581  0.888078  1
  P  P34  1  0.750000  0.412518  0.612023  1
  P  P35  1  0.750000  0.088054  0.110586  1
