# generated using pymatgen
data_Pr2Nd6InPd24
_symmetry_space_group_name_H-M   'P 1'
_cell_length_a   8.55761200
_cell_length_b   8.55761200
_cell_length_c   8.55761200
_cell_angle_alpha   89.99878145
_cell_angle_beta   89.99878145
_cell_angle_gamma   89.99878145
_symmetry_Int_Tables_number   1
_chemical_formula_structural   Pr2Nd6InPd24
_chemical_formula_sum   'Pr2 Nd6 In1 Pd24'
_cell_volume   626.69723014
_cell_formula_units_Z   1
loop_
 _symmetry_equiv_pos_site_id
 _symmetry_equiv_pos_as_xyz
  1  'x, y, z'
loop_
 _atom_site_type_symbol
 _atom_site_label
 _atom_site_symmetry_multiplicity
 _atom_site_fract_x
 _atom_site_fract_y
 _atom_site_fract_z
 _atom_site_occupancy
  Pr  Pr0  1  0.251147  0.251147  0.251147  1
  Pr  Pr1  1  0.748853  0.748853  0.748853  1
  Nd  Nd2  1  0.748864  0.748864  0.251176  1
  Nd  Nd3  1  0.748864  0.251176  0.748864  1
  Nd  Nd4  1  0.251136  0.251136  0.748824  1
  Nd  Nd5  1  0.251136  0.748824  0.251136  1
  Nd  Nd6  1  0.251176  0.748864  0.748864  1
  Nd  Nd7  1  0.748824  0.251136  0.251136  1
  In  In8  1  0.000000  0.000000  0.000000  1
  Pd  Pd9  1  0.267364  0.500292  0.999677  1
  Pd  Pd10  1  0.732636  0.499708  0.000323  1
  Pd  Pd11  1  0.999677  0.267364  0.500292  1
  Pd  Pd12  1  0.500292  0.267364  0.999677  1
  Pd  Pd13  1  0.000323  0.732636  0.499708  1
  Pd  Pd14  1  0.499708  0.732636  0.000323  1
  Pd  Pd15  1  0.500292  0.999677  0.267364  1
  Pd  Pd16  1  0.267364  0.999677  0.500292  1
  Pd  Pd17  1  0.499708  0.000323  0.732636  1
  Pd  Pd18  1  0.732636  0.000323  0.499708  1
  Pd  Pd19  1  0.999677  0.500292  0.267364  1
  Pd  Pd20  1  0.000323  0.499708  0.732636  1
  Pd  Pd21  1  0.255364  0.500342  0.500342  1
  Pd  Pd22  1  0.744636  0.499658  0.499658  1
  Pd  Pd23  1  0.500342  0.255364  0.500342  1
  Pd  Pd24  1  0.499658  0.744636  0.499658  1
  Pd  Pd25  1  0.500342  0.500342  0.255364  1
  Pd  Pd26  1  0.499658  0.499658  0.744636  1
  Pd  Pd27  1  0.314897  0.999711  0.999711  1
  Pd  Pd28  1  0.685103  0.000289  0.000289  1
  Pd  Pd29  1  0.999711  0.314897  0.999711  1
  Pd  Pd30  1  0.000289  0.685103  0.000289  1
  Pd  Pd31  1  0.999711  0.999711  0.314897  1
  Pd  Pd32  1  0.000289  0.000289  0.685103  1
