# generated using pymatgen
data_Y5ErSi4(GeRh6)2
_symmetry_space_group_name_H-M   'P 1'
_cell_length_a   5.58407600
_cell_length_b   5.58407492
_cell_length_c   15.24570000
_cell_angle_alpha   90.00000000
_cell_angle_beta   90.00000000
_cell_angle_gamma   119.99999457
_symmetry_Int_Tables_number   1
_chemical_formula_structural   Y5ErSi4(GeRh6)2
_chemical_formula_sum   'Y5 Er1 Si4 Ge2 Rh12'
_cell_volume   411.69972966
_cell_formula_units_Z   1
loop_
 _symmetry_equiv_pos_site_id
 _symmetry_equiv_pos_as_xyz
  1  'x, y, z'
loop_
 _atom_site_type_symbol
 _atom_site_label
 _atom_site_symmetry_multiplicity
 _atom_site_fract_x
 _atom_site_fract_y
 _atom_site_fract_z
 _atom_site_occupancy
  Y  Y0  1  0.333333  0.666667  0.537735  1
  Y  Y1  1  0.666667  0.333333  0.462691  1
  Y  Y2  1  0.666667  0.333333  0.037098  1
  Y  Y3  1  0.333333  0.666667  0.750737  1
  Y  Y4  1  0.666667  0.333333  0.249918  1
  Er  Er5  1  0.333333  0.666667  0.963049  1
  Si  Si6  1  0.000000  0.000000  0.249470  1
  Si  Si7  1  0.000000  0.000000  0.750343  1
  Si  Si8  1  0.333333  0.666667  0.249559  1
  Si  Si9  1  0.666667  0.333333  0.750144  1
  Ge  Ge10  1  0.000000  0.000000  0.999792  1
  Ge  Ge11  1  0.000000  0.000000  0.500016  1
  Rh  Rh12  1  0.167641  0.335280  0.132250  1
  Rh  Rh13  1  0.832512  0.665024  0.867464  1
  Rh  Rh14  1  0.664720  0.832359  0.132250  1
  Rh  Rh15  1  0.832604  0.665209  0.633374  1
  Rh  Rh16  1  0.334976  0.167488  0.867464  1
  Rh  Rh17  1  0.167454  0.334906  0.366727  1
  Rh  Rh18  1  0.167641  0.832359  0.132250  1
  Rh  Rh19  1  0.334791  0.167396  0.633374  1
  Rh  Rh20  1  0.832512  0.167488  0.867464  1
  Rh  Rh21  1  0.665094  0.832546  0.366727  1
  Rh  Rh22  1  0.832604  0.167396  0.633374  1
  Rh  Rh23  1  0.167454  0.832546  0.366727  1
