# generated using pymatgen
data_Rb2NaTbAs2
_symmetry_space_group_name_H-M   'P 1'
_cell_length_a   9.48780768
_cell_length_b   9.48780673
_cell_length_c   9.48780720
_cell_angle_alpha   135.21936518
_cell_angle_beta   134.95182863
_cell_angle_gamma   65.39747589
_symmetry_Int_Tables_number   1
_chemical_formula_structural   Rb2NaTbAs2
_chemical_formula_sum   'Rb4 Na2 Tb2 As4'
_cell_volume   419.49868615
_cell_formula_units_Z   2
loop_
 _symmetry_equiv_pos_site_id
 _symmetry_equiv_pos_as_xyz
  1  'x, y, z'
loop_
 _atom_site_type_symbol
 _atom_site_label
 _atom_site_symmetry_multiplicity
 _atom_site_fract_x
 _atom_site_fract_y
 _atom_site_fract_z
 _atom_site_occupancy
  Rb  Rb0  1  0.680894  0.398184  0.717290  1
  Rb  Rb1  1  0.819106  0.036396  0.217290  1
  Rb  Rb2  1  0.180894  0.963604  0.782710  1
  Rb  Rb3  1  0.319106  0.601816  0.282710  1
  Na  Na4  1  0.750000  0.000000  0.750000  1
  Na  Na5  1  0.250000  0.000000  0.250000  1
  Tb  Tb6  1  0.250000  0.500000  0.750000  1
  Tb  Tb7  1  0.750000  0.500000  0.250000  1
  As  As8  1  0.406065  0.181775  0.775711  1
  As  As9  1  0.593935  0.818225  0.224289  1
  As  As10  1  0.093935  0.369645  0.275711  1
  As  As11  1  0.906065  0.630355  0.724289  1
