# generated using pymatgen
data_LaU(NiP)2
_symmetry_space_group_name_H-M   'P 1'
_cell_length_a   3.93217600
_cell_length_b   3.93217623
_cell_length_c   15.81765600
_cell_angle_alpha   90.00000000
_cell_angle_beta   90.00000000
_cell_angle_gamma   120.00001486
_symmetry_Int_Tables_number   1
_chemical_formula_structural   LaU(NiP)2
_chemical_formula_sum   'La2 U2 Ni4 P4'
_cell_volume   211.80617386
_cell_formula_units_Z   2
loop_
 _symmetry_equiv_pos_site_id
 _symmetry_equiv_pos_as_xyz
  1  'x, y, z'
loop_
 _atom_site_type_symbol
 _atom_site_label
 _atom_site_symmetry_multiplicity
 _atom_site_fract_x
 _atom_site_fract_y
 _atom_site_fract_z
 _atom_site_occupancy
  La  La0  1  0.000000  0.000000  0.250000  1
  La  La1  1  0.000000  0.000000  0.750000  1
  U  U2  1  0.000000  0.000000  0.500000  1
  U  U3  1  0.000000  0.000000  0.000000  1
  Ni  Ni4  1  0.333333  0.666667  0.396254  1
  Ni  Ni5  1  0.666667  0.333333  0.603746  1
  Ni  Ni6  1  0.666667  0.333333  0.896254  1
  Ni  Ni7  1  0.333333  0.666667  0.103746  1
  P  P8  1  0.333333  0.666667  0.879071  1
  P  P9  1  0.666667  0.333333  0.120929  1
  P  P10  1  0.666667  0.333333  0.379071  1
  P  P11  1  0.333333  0.666667  0.620929  1
