# generated using pymatgen
data_Dy2Ga2PdPt
_symmetry_space_group_name_H-M   'P 1'
_cell_length_a   4.45336600
_cell_length_b   6.92035300
_cell_length_c   7.70453300
_cell_angle_alpha   90.00000000
_cell_angle_beta   90.00000000
_cell_angle_gamma   90.00000000
_symmetry_Int_Tables_number   1
_chemical_formula_structural   Dy2Ga2PdPt
_chemical_formula_sum   'Dy4 Ga4 Pd2 Pt2'
_cell_volume   237.44496055
_cell_formula_units_Z   2
loop_
 _symmetry_equiv_pos_site_id
 _symmetry_equiv_pos_as_xyz
  1  'x, y, z'
loop_
 _atom_site_type_symbol
 _atom_site_label
 _atom_site_symmetry_multiplicity
 _atom_site_fract_x
 _atom_site_fract_y
 _atom_site_fract_z
 _atom_site_occupancy
  Dy  Dy0  1  0.750000  0.013219  0.699351  1
  Dy  Dy1  1  0.750000  0.519625  0.800349  1
  Dy  Dy2  1  0.250000  0.980375  0.300349  1
  Dy  Dy3  1  0.250000  0.486781  0.199351  1
  Ga  Ga4  1  0.250000  0.822561  0.925164  1
  Ga  Ga5  1  0.250000  0.323367  0.574333  1
  Ga  Ga6  1  0.750000  0.176633  0.074333  1
  Ga  Ga7  1  0.750000  0.677439  0.425164  1
  Pd  Pd8  1  0.250000  0.219839  0.902367  1
  Pd  Pd9  1  0.750000  0.280161  0.402367  1
  Pt  Pt10  1  0.750000  0.777267  0.098436  1
  Pt  Pt11  1  0.250000  0.722733  0.598436  1
