# generated using pymatgen
data_Se(S8Cl)3
_symmetry_space_group_name_H-M   'P 1'
_cell_length_a   15.09183434
_cell_length_b   15.09183348
_cell_length_c   15.09183308
_cell_angle_alpha   118.64777797
_cell_angle_beta   118.64778164
_cell_angle_gamma   118.64778275
_symmetry_Int_Tables_number   1
_chemical_formula_structural   Se(S8Cl)3
_chemical_formula_sum   'Se1 S24 Cl3'
_cell_volume   1031.60989516
_cell_formula_units_Z   1
loop_
 _symmetry_equiv_pos_site_id
 _symmetry_equiv_pos_as_xyz
  1  'x, y, z'
loop_
 _atom_site_type_symbol
 _atom_site_label
 _atom_site_symmetry_multiplicity
 _atom_site_fract_x
 _atom_site_fract_y
 _atom_site_fract_z
 _atom_site_occupancy
  Se  Se0  1  0.003699  0.003699  0.003699  1
  S  S1  1  0.024147  0.621602  0.621602  1
  S  S2  1  0.621602  0.621602  0.024147  1
  S  S3  1  0.621602  0.024147  0.621602  1
  S  S4  1  0.233075  0.844752  0.715574  1
  S  S5  1  0.844752  0.715574  0.233075  1
  S  S6  1  0.715574  0.233075  0.844752  1
  S  S7  1  0.844752  0.233075  0.715574  1
  S  S8  1  0.233075  0.715574  0.844752  1
  S  S9  1  0.715574  0.844752  0.233075  1
  S  S10  1  0.105288  0.635105  0.452718  1
  S  S11  1  0.635105  0.452718  0.105288  1
  S  S12  1  0.452718  0.105288  0.635105  1
  S  S13  1  0.635105  0.105288  0.452718  1
  S  S14  1  0.105288  0.452718  0.635105  1
  S  S15  1  0.452718  0.635105  0.105288  1
  S  S16  1  0.351302  0.739587  0.610144  1
  S  S17  1  0.739587  0.610144  0.351302  1
  S  S18  1  0.610144  0.351302  0.739587  1
  S  S19  1  0.739587  0.351302  0.610144  1
  S  S20  1  0.351302  0.610144  0.739587  1
  S  S21  1  0.610144  0.739587  0.351302  1
  S  S22  1  0.192121  0.471951  0.471951  1
  S  S23  1  0.471951  0.471951  0.192121  1
  S  S24  1  0.471951  0.192121  0.471951  1
  Cl  Cl25  1  0.187457  0.038740  0.038740  1
  Cl  Cl26  1  0.038740  0.038740  0.187457  1
  Cl  Cl27  1  0.038740  0.187457  0.038740  1
