# generated using pymatgen
data_Ba4Fe(ReO6)2
_symmetry_space_group_name_H-M   'P 1'
_cell_length_a   9.96028964
_cell_length_b   9.96028953
_cell_length_c   9.96028973
_cell_angle_alpha   33.69190077
_cell_angle_beta   33.69190021
_cell_angle_gamma   33.69190426
_symmetry_Int_Tables_number   1
_chemical_formula_structural   Ba4Fe(ReO6)2
_chemical_formula_sum   'Ba4 Fe1 Re2 O12'
_cell_volume   270.90279234
_cell_formula_units_Z   1
loop_
 _symmetry_equiv_pos_site_id
 _symmetry_equiv_pos_as_xyz
  1  'x, y, z'
loop_
 _atom_site_type_symbol
 _atom_site_label
 _atom_site_symmetry_multiplicity
 _atom_site_fract_x
 _atom_site_fract_y
 _atom_site_fract_z
 _atom_site_occupancy
  Ba  Ba0  1  0.708865  0.708865  0.708865  1
  Ba  Ba1  1  0.291135  0.291135  0.291135  1
  Ba  Ba2  1  0.868569  0.868569  0.868569  1
  Ba  Ba3  1  0.131431  0.131431  0.131431  1
  Fe  Fe4  1  0.000000  0.000000  0.000000  1
  Re  Re5  1  0.581648  0.581648  0.581648  1
  Re  Re6  1  0.418352  0.418352  0.418352  1
  O  O7  1  0.214964  0.697130  0.214964  1
  O  O8  1  0.214964  0.214964  0.697130  1
  O  O9  1  0.697130  0.214964  0.214964  1
  O  O10  1  0.785036  0.302870  0.785036  1
  O  O11  1  0.785036  0.785036  0.302870  1
  O  O12  1  0.302870  0.785036  0.785036  1
  O  O13  1  0.389404  0.860579  0.389404  1
  O  O14  1  0.389404  0.389404  0.860579  1
  O  O15  1  0.860579  0.389404  0.389404  1
  O  O16  1  0.610596  0.139421  0.610596  1
  O  O17  1  0.610596  0.610596  0.139421  1
  O  O18  1  0.139421  0.610596  0.610596  1
