# generated using pymatgen
data_Ce12Si8Tc5Os3
_symmetry_space_group_name_H-M   'P 1'
_cell_length_a   5.63946173
_cell_length_b   7.90388675
_cell_length_c   13.25838764
_cell_angle_alpha   89.90212861
_cell_angle_beta   90.12938515
_cell_angle_gamma   90.07819401
_symmetry_Int_Tables_number   1
_chemical_formula_structural   Ce12Si8Tc5Os3
_chemical_formula_sum   'Ce12 Si8 Tc5 Os3'
_cell_volume   590.97203749
_cell_formula_units_Z   1
loop_
 _symmetry_equiv_pos_site_id
 _symmetry_equiv_pos_as_xyz
  1  'x, y, z'
loop_
 _atom_site_type_symbol
 _atom_site_label
 _atom_site_symmetry_multiplicity
 _atom_site_fract_x
 _atom_site_fract_y
 _atom_site_fract_z
 _atom_site_occupancy
  Ce  Ce0  1  0.123442  0.267653  0.750469  1
  Ce  Ce1  1  0.874917  0.734120  0.249785  1
  Ce  Ce2  1  0.121474  0.234668  0.250561  1
  Ce  Ce3  1  0.877571  0.765511  0.750337  1
  Ce  Ce4  1  0.660410  0.409417  0.600287  1
  Ce  Ce5  1  0.340138  0.590086  0.096515  1
  Ce  Ce6  1  0.659908  0.090632  0.398999  1
  Ce  Ce7  1  0.340304  0.909225  0.899762  1
  Ce  Ce8  1  0.341827  0.592700  0.402975  1
  Ce  Ce9  1  0.664191  0.409790  0.902619  1
  Ce  Ce10  1  0.343340  0.907637  0.596469  1
  Ce  Ce11  1  0.656945  0.092467  0.097648  1
  Si  Si12  1  0.107295  0.250181  0.500033  1
  Si  Si13  1  0.890729  0.750226  0.000910  1
  Si  Si14  1  0.889040  0.750427  0.499708  1
  Si  Si15  1  0.110180  0.247184  0.001372  1
  Si  Si16  1  0.632850  0.114038  0.749312  1
  Si  Si17  1  0.365856  0.885313  0.249081  1
  Si  Si18  1  0.630102  0.385987  0.250712  1
  Si  Si19  1  0.368780  0.615004  0.749688  1
  Tc  Tc20  1  0.155934  0.529865  0.911283  1
  Tc  Tc21  1  0.152199  0.971810  0.410188  1
  Tc  Tc22  1  0.846719  0.028200  0.909970  1
  Tc  Tc23  1  0.153533  0.529173  0.588498  1
  Tc  Tc24  1  0.847519  0.469016  0.090882  1
  Os  Os25  1  0.847750  0.031591  0.591453  1
  Os  Os26  1  0.151091  0.969424  0.091947  1
  Os  Os27  1  0.845956  0.468654  0.408537  1
