# generated using pymatgen
data_Ba4ErScCo2O9
_symmetry_space_group_name_H-M   'P 1'
_cell_length_a   9.07504772
_cell_length_b   9.03486539
_cell_length_c   6.07280925
_cell_angle_alpha   70.74940864
_cell_angle_beta   70.05058138
_cell_angle_gamma   39.18451351
_symmetry_Int_Tables_number   1
_chemical_formula_structural   Ba4ErScCo2O9
_chemical_formula_sum   'Ba4 Er1 Sc1 Co2 O9'
_cell_volume   293.92909763
_cell_formula_units_Z   1
loop_
 _symmetry_equiv_pos_site_id
 _symmetry_equiv_pos_as_xyz
  1  'x, y, z'
loop_
 _atom_site_type_symbol
 _atom_site_label
 _atom_site_symmetry_multiplicity
 _atom_site_fract_x
 _atom_site_fract_y
 _atom_site_fract_z
 _atom_site_occupancy
  Ba  Ba0  1  0.881256  0.381551  0.118013  1
  Ba  Ba1  1  0.380820  0.881987  0.618449  1
  Ba  Ba2  1  0.619180  0.118013  0.381551  1
  Ba  Ba3  1  0.118744  0.618449  0.881987  1
  Er  Er4  1  0.000000  0.500000  0.500000  1
  Sc  Sc5  1  0.500000  0.000000  0.000000  1
  Co  Co6  1  0.721920  0.273843  0.726157  1
  Co  Co7  1  0.278080  0.726157  0.273843  1
  O  O8  1  0.894576  0.319381  0.680619  1
  O  O9  1  0.323321  0.897277  0.102723  1
  O  O10  1  0.676679  0.102723  0.897277  1
  O  O11  1  0.105424  0.680619  0.319381  1
  O  O12  1  0.730028  0.742824  0.257176  1
  O  O13  1  0.269972  0.257176  0.742824  1
  O  O14  1  0.256938  0.243062  0.243062  1
  O  O15  1  0.743062  0.756938  0.756938  1
  O  O16  1  0.500000  0.500000  0.500000  1
