# generated using pymatgen
data_Ce2Fe2H7N
_symmetry_space_group_name_H-M   'P 1'
_cell_length_a   6.19558970
_cell_length_b   6.19559094
_cell_length_c   4.72076303
_cell_angle_alpha   89.99760234
_cell_angle_beta   90.00239608
_cell_angle_gamma   144.04129732
_symmetry_Int_Tables_number   1
_chemical_formula_structural   Ce2Fe2H7N
_chemical_formula_sum   'Ce2 Fe2 H7 N1'
_cell_volume   106.40575000
_cell_formula_units_Z   1
loop_
 _symmetry_equiv_pos_site_id
 _symmetry_equiv_pos_as_xyz
  1  'x, y, z'
loop_
 _atom_site_type_symbol
 _atom_site_label
 _atom_site_symmetry_multiplicity
 _atom_site_fract_x
 _atom_site_fract_y
 _atom_site_fract_z
 _atom_site_occupancy
  Ce  Ce0  1  0.381370  0.618628  0.249987  1
  Ce  Ce1  1  0.631621  0.368377  0.750019  1
  Fe  Fe2  1  0.097900  0.902098  0.249999  1
  Fe  Fe3  1  0.899516  0.100482  0.750006  1
  H  H4  1  0.998038  0.001962  0.992503  1
  H  H5  1  0.194278  0.805720  0.999120  1
  H  H6  1  0.194279  0.805719  0.500960  1
  H  H7  1  0.998037  0.001963  0.507484  1
  H  H8  1  0.806563  0.193435  0.497414  1
  H  H9  1  0.411878  0.588120  0.749978  1
  H  H10  1  0.806570  0.193428  0.002516  1
  N  N11  1  0.579939  0.420059  0.250016  1
