# generated using pymatgen
data_Tb3Ho5(ReB6)4
_symmetry_space_group_name_H-M   'P 1'
_cell_length_a   3.68040900
_cell_length_b   9.16931901
_cell_length_c   11.55811401
_cell_angle_alpha   89.99509672
_cell_angle_beta   90.00000000
_cell_angle_gamma   90.00000000
_symmetry_Int_Tables_number   1
_chemical_formula_structural   Tb3Ho5(ReB6)4
_chemical_formula_sum   'Tb3 Ho5 Re4 B24'
_cell_volume   390.04987136
_cell_formula_units_Z   1
loop_
 _symmetry_equiv_pos_site_id
 _symmetry_equiv_pos_as_xyz
  1  'x, y, z'
loop_
 _atom_site_type_symbol
 _atom_site_label
 _atom_site_symmetry_multiplicity
 _atom_site_fract_x
 _atom_site_fract_y
 _atom_site_fract_z
 _atom_site_occupancy
  Tb  Tb0  1  0.000000  0.323534  0.413807  1
  Tb  Tb1  1  0.000000  0.676416  0.586201  1
  Tb  Tb2  1  0.000000  0.823578  0.086123  1
  Ho  Ho3  1  0.000000  0.176304  0.913899  1
  Ho  Ho4  1  0.000000  0.943357  0.369865  1
  Ho  Ho5  1  0.000000  0.056747  0.630135  1
  Ho  Ho6  1  0.000000  0.443239  0.129916  1
  Ho  Ho7  1  0.000000  0.556597  0.870040  1
  Re  Re8  1  0.000000  0.638962  0.320602  1
  Re  Re9  1  0.000000  0.360846  0.679674  1
  Re  Re10  1  0.000000  0.138964  0.179049  1
  Re  Re11  1  0.000000  0.861363  0.820737  1
  B  B12  1  0.500000  0.553715  0.432599  1
  B  B13  1  0.500000  0.446201  0.567473  1
  B  B14  1  0.500000  0.053834  0.067045  1
  B  B15  1  0.500000  0.946682  0.932652  1
  B  B16  1  0.500000  0.749563  0.418435  1
  B  B17  1  0.500000  0.250451  0.581678  1
  B  B18  1  0.500000  0.249488  0.081080  1
  B  B19  1  0.500000  0.750571  0.918395  1
  B  B20  1  0.500000  0.792302  0.265829  1
  B  B21  1  0.500000  0.207489  0.734489  1
  B  B22  1  0.500000  0.292284  0.234020  1
  B  B23  1  0.500000  0.707719  0.765911  1
  B  B24  1  0.500000  0.630924  0.185790  1
  B  B25  1  0.500000  0.368728  0.814473  1
  B  B26  1  0.500000  0.130984  0.314114  1
  B  B27  1  0.500000  0.869141  0.685926  1
  B  B28  1  0.500000  0.982989  0.212108  1
  B  B29  1  0.500000  0.017581  0.788031  1
  B  B30  1  0.500000  0.482880  0.287732  1
  B  B31  1  0.500000  0.517016  0.712290  1
  B  B32  1  0.500000  0.599697  0.027862  1
  B  B33  1  0.500000  0.399799  0.971998  1
  B  B34  1  0.500000  0.099621  0.472177  1
  B  B35  1  0.500000  0.900434  0.527846  1
