# generated using pymatgen
data_EuEr7BePd24
_symmetry_space_group_name_H-M   'P 1'
_cell_length_a   8.26828638
_cell_length_b   8.26828576
_cell_length_c   8.26828600
_cell_angle_alpha   89.96686966
_cell_angle_beta   90.03312341
_cell_angle_gamma   90.03312177
_symmetry_Int_Tables_number   1
_chemical_formula_structural   EuEr7BePd24
_chemical_formula_sum   'Eu1 Er7 Be1 Pd24'
_cell_volume   565.25740613
_cell_formula_units_Z   1
loop_
 _symmetry_equiv_pos_site_id
 _symmetry_equiv_pos_as_xyz
  1  'x, y, z'
loop_
 _atom_site_type_symbol
 _atom_site_label
 _atom_site_symmetry_multiplicity
 _atom_site_fract_x
 _atom_site_fract_y
 _atom_site_fract_z
 _atom_site_occupancy
  Eu  Eu0  1  0.748921  0.251079  0.251079  1
  Er  Er1  1  0.250493  0.250714  0.250714  1
  Er  Er2  1  0.749305  0.749525  0.749525  1
  Er  Er3  1  0.749286  0.749507  0.250714  1
  Er  Er4  1  0.749286  0.250714  0.749507  1
  Er  Er5  1  0.250475  0.250695  0.749525  1
  Er  Er6  1  0.250475  0.749525  0.250695  1
  Er  Er7  1  0.250866  0.749134  0.749134  1
  Be  Be8  1  0.000949  0.999051  0.999051  1
  Pd  Pd9  1  0.253448  0.500175  0.999810  1
  Pd  Pd10  1  0.746664  0.501979  0.998085  1
  Pd  Pd11  1  0.001915  0.253336  0.501979  1
  Pd  Pd12  1  0.498021  0.253336  0.998085  1
  Pd  Pd13  1  0.000190  0.746552  0.500175  1
  Pd  Pd14  1  0.499825  0.746552  0.999810  1
  Pd  Pd15  1  0.498021  0.998085  0.253336  1
  Pd  Pd16  1  0.253448  0.999810  0.500175  1
  Pd  Pd17  1  0.499825  0.999810  0.746552  1
  Pd  Pd18  1  0.746664  0.998085  0.501979  1
  Pd  Pd19  1  0.001915  0.501979  0.253336  1
  Pd  Pd20  1  0.000190  0.500175  0.746552  1
  Pd  Pd21  1  0.250451  0.500123  0.500123  1
  Pd  Pd22  1  0.749314  0.502500  0.502500  1
  Pd  Pd23  1  0.497500  0.250686  0.502500  1
  Pd  Pd24  1  0.499877  0.749549  0.500123  1
  Pd  Pd25  1  0.497500  0.502500  0.250686  1
  Pd  Pd26  1  0.499877  0.500123  0.749549  1
  Pd  Pd27  1  0.268117  0.999696  0.999696  1
  Pd  Pd28  1  0.732794  0.998112  0.998112  1
  Pd  Pd29  1  0.001888  0.267206  0.998112  1
  Pd  Pd30  1  0.000304  0.731883  0.999696  1
  Pd  Pd31  1  0.001888  0.998112  0.267206  1
  Pd  Pd32  1  0.000304  0.999696  0.731883  1
