# generated using pymatgen
data_Nd3Zn2AgPd3
_symmetry_space_group_name_H-M   'P 1'
_cell_length_a   7.49814074
_cell_length_b   7.49813943
_cell_length_c   3.98142200
_cell_angle_alpha   90.00000000
_cell_angle_beta   90.00000000
_cell_angle_gamma   118.76034935
_symmetry_Int_Tables_number   1
_chemical_formula_structural   Nd3Zn2AgPd3
_chemical_formula_sum   'Nd3 Zn2 Ag1 Pd3'
_cell_volume   196.23050684
_cell_formula_units_Z   1
loop_
 _symmetry_equiv_pos_site_id
 _symmetry_equiv_pos_as_xyz
  1  'x, y, z'
loop_
 _atom_site_type_symbol
 _atom_site_label
 _atom_site_symmetry_multiplicity
 _atom_site_fract_x
 _atom_site_fract_y
 _atom_site_fract_z
 _atom_site_occupancy
  Nd  Nd0  1  0.403627  0.403627  0.000000  1
  Nd  Nd1  1  0.594827  0.996808  0.000000  1
  Nd  Nd2  1  0.996808  0.594827  0.000000  1
  Zn  Zn3  1  0.247981  0.997668  0.500000  1
  Zn  Zn4  1  0.997668  0.247981  0.500000  1
  Ag  Ag5  1  0.752978  0.752978  0.500000  1
  Pd  Pd6  1  0.021796  0.021796  0.000000  1
  Pd  Pd7  1  0.662771  0.321544  0.500000  1
  Pd  Pd8  1  0.321544  0.662771  0.500000  1
