# generated using pymatgen
data_NaAsP4O13
_symmetry_space_group_name_H-M   'P 1'
_cell_length_a   4.99183541
_cell_length_b   7.82096963
_cell_length_c   15.03408900
_cell_angle_alpha   84.15363848
_cell_angle_beta   87.77088895
_cell_angle_gamma   80.49681673
_symmetry_Int_Tables_number   1
_chemical_formula_structural   NaAsP4O13
_chemical_formula_sum   'Na2 As2 P8 O26'
_cell_volume   575.73392154
_cell_formula_units_Z   2
loop_
 _symmetry_equiv_pos_site_id
 _symmetry_equiv_pos_as_xyz
  1  'x, y, z'
loop_
 _atom_site_type_symbol
 _atom_site_label
 _atom_site_symmetry_multiplicity
 _atom_site_fract_x
 _atom_site_fract_y
 _atom_site_fract_z
 _atom_site_occupancy
  Na  Na0  1  0.497902  0.499504  0.501195  1
  Na  Na1  1  0.951276  0.599977  0.006286  1
  As  As2  1  0.422626  0.058123  0.259326  1
  As  As3  1  0.568686  0.939048  0.738521  1
  P  P4  1  0.116114  0.787298  0.640691  1
  P  P5  1  0.295894  0.676817  0.294352  1
  P  P6  1  0.364018  0.588905  0.804094  1
  P  P7  1  0.623675  0.409374  0.191435  1
  P  P8  1  0.696826  0.319414  0.706768  1
  P  P9  1  0.874193  0.213191  0.355160  1
  P  P10  1  0.970649  0.902457  0.163158  1
  P  P11  1  0.019807  0.090427  0.838650  1
  O  O12  1  0.134682  0.048102  0.184934  1
  O  O13  1  0.012409  0.758066  0.250548  1
  O  O14  1  0.045890  0.821123  0.079770  1
  O  O15  1  0.186449  0.136855  0.349970  1
  O  O16  1  0.272143  0.546932  0.370434  1
  O  O17  1  0.162671  0.633374  0.722328  1
  O  O18  1  0.332706  0.015590  0.830644  1
  O  O19  1  0.189652  0.720943  0.553411  1
  O  O20  1  0.406284  0.286463  0.207402  1
  O  O21  1  0.226237  0.583970  0.891858  1
  O  O22  1  0.465423  0.598405  0.210121  1
  O  O23  1  0.436590  0.831892  0.314799  1
  O  O24  1  0.276556  0.931991  0.666391  1
  O  O25  1  0.714081  0.067094  0.330783  1
  O  O26  1  0.556794  0.165557  0.684127  1
  O  O27  1  0.518486  0.398034  0.789356  1
  O  O28  1  0.756034  0.422813  0.102879  1
  O  O29  1  0.800682  0.283131  0.441433  1
  O  O30  1  0.659130  0.977501  0.167962  1
  O  O31  1  0.586560  0.708344  0.788253  1
  O  O32  1  0.831554  0.362699  0.271440  1
  O  O33  1  0.725070  0.449187  0.630779  1
  O  O34  1  0.944240  0.160927  0.924264  1
  O  O35  1  0.803808  0.862005  0.646530  1
  O  O36  1  0.976260  0.239329  0.752624  1
  O  O37  1  0.859052  0.944373  0.812105  1
