# generated using pymatgen
data_La7IrPtAu
_symmetry_space_group_name_H-M   'P 1'
_cell_length_a   6.61688987
_cell_length_b   10.42031422
_cell_length_c   10.41378400
_cell_angle_alpha   120.03599881
_cell_angle_beta   90.23544807
_cell_angle_gamma   89.80288805
_symmetry_Int_Tables_number   1
_chemical_formula_structural   La7IrPtAu
_chemical_formula_sum   'La14 Ir2 Pt2 Au2'
_cell_volume   621.60148505
_cell_formula_units_Z   2
loop_
 _symmetry_equiv_pos_site_id
 _symmetry_equiv_pos_as_xyz
  1  'x, y, z'
loop_
 _atom_site_type_symbol
 _atom_site_label
 _atom_site_symmetry_multiplicity
 _atom_site_fract_x
 _atom_site_fract_y
 _atom_site_fract_z
 _atom_site_occupancy
  La  La0  1  0.469204  0.338378  0.662369  1
  La  La1  1  0.953953  0.662960  0.327204  1
  La  La2  1  0.239028  0.135062  0.879323  1
  La  La3  1  0.259547  0.742038  0.876306  1
  La  La4  1  0.257415  0.128539  0.255554  1
  La  La5  1  0.748374  0.874956  0.124433  1
  La  La6  1  0.749674  0.254375  0.139394  1
  La  La7  1  0.741259  0.860389  0.747632  1
  La  La8  1  0.441828  0.530508  0.458302  1
  La  La9  1  0.443722  0.928850  0.456586  1
  La  La10  1  0.439578  0.539396  0.075877  1
  La  La11  1  0.937683  0.457049  0.541726  1
  La  La12  1  0.940861  0.075907  0.526726  1
  La  La13  1  0.940037  0.472730  0.924260  1
  Ir  Ir14  1  0.690689  0.623054  0.812782  1
  Ir  Ir15  1  0.690008  0.187231  0.377324  1
  Pt  Pt16  1  0.189025  0.811337  0.189406  1
  Pt  Pt17  1  0.190754  0.377888  0.188441  1
  Au  Au18  1  0.188537  0.812851  0.622812  1
  Au  Au19  1  0.690822  0.186502  0.813546  1
