# generated using pymatgen
data_Tb7Ho12Lu(Cd3Ru)2
_symmetry_space_group_name_H-M   'P 1'
_cell_length_a   9.58346200
_cell_length_b   9.58346103
_cell_length_c   9.84079200
_cell_angle_alpha   90.00000000
_cell_angle_beta   90.00000000
_cell_angle_gamma   119.99999646
_symmetry_Int_Tables_number   1
_chemical_formula_structural   Tb7Ho12Lu(Cd3Ru)2
_chemical_formula_sum   'Tb7 Ho12 Lu1 Cd6 Ru2'
_cell_volume   782.71833237
_cell_formula_units_Z   1
loop_
 _symmetry_equiv_pos_site_id
 _symmetry_equiv_pos_as_xyz
  1  'x, y, z'
loop_
 _atom_site_type_symbol
 _atom_site_label
 _atom_site_symmetry_multiplicity
 _atom_site_fract_x
 _atom_site_fract_y
 _atom_site_fract_z
 _atom_site_occupancy
  Tb  Tb0  1  0.000000  0.000000  0.000000  1
  Tb  Tb1  1  0.540866  0.459134  0.250207  1
  Tb  Tb2  1  0.540866  0.081732  0.250207  1
  Tb  Tb3  1  0.918268  0.459134  0.250207  1
  Tb  Tb4  1  0.459134  0.540866  0.749793  1
  Tb  Tb5  1  0.459134  0.918268  0.749793  1
  Tb  Tb6  1  0.081732  0.540866  0.749793  1
  Ho  Ho7  1  0.209502  0.790498  0.439866  1
  Ho  Ho8  1  0.209502  0.419006  0.439866  1
  Ho  Ho9  1  0.580994  0.790498  0.439866  1
  Ho  Ho10  1  0.790498  0.209502  0.560134  1
  Ho  Ho11  1  0.790498  0.580994  0.560134  1
  Ho  Ho12  1  0.419006  0.209502  0.560134  1
  Ho  Ho13  1  0.789720  0.210280  0.940048  1
  Ho  Ho14  1  0.789720  0.579438  0.940048  1
  Ho  Ho15  1  0.420562  0.210280  0.940048  1
  Ho  Ho16  1  0.210280  0.789720  0.059952  1
  Ho  Ho17  1  0.210280  0.420562  0.059952  1
  Ho  Ho18  1  0.579438  0.789720  0.059952  1
  Lu  Lu19  1  0.000000  0.000000  0.500000  1
  Cd  Cd20  1  0.886080  0.113920  0.251984  1
  Cd  Cd21  1  0.886080  0.772161  0.251984  1
  Cd  Cd22  1  0.227839  0.113920  0.251984  1
  Cd  Cd23  1  0.113920  0.886080  0.748016  1
  Cd  Cd24  1  0.113920  0.227839  0.748016  1
  Cd  Cd25  1  0.772161  0.886080  0.748016  1
  Ru  Ru26  1  0.333333  0.666667  0.250355  1
  Ru  Ru27  1  0.666667  0.333333  0.749645  1
