# generated using pymatgen
data_RbLi12Tl7B4(P2O7)8
_symmetry_space_group_name_H-M   'P 1'
_cell_length_a   14.10266700
_cell_length_b   14.10266739
_cell_length_c   7.17903400
_cell_angle_alpha   90.00000000
_cell_angle_beta   90.00000000
_cell_angle_gamma   118.72769135
_symmetry_Int_Tables_number   1
_chemical_formula_structural   RbLi12Tl7B4(P2O7)8
_chemical_formula_sum   'Rb1 Li12 Tl7 B4 P16 O56'
_cell_volume   1252.06106823
_cell_formula_units_Z   1
loop_
 _symmetry_equiv_pos_site_id
 _symmetry_equiv_pos_as_xyz
  1  'x, y, z'
loop_
 _atom_site_type_symbol
 _atom_site_label
 _atom_site_symmetry_multiplicity
 _atom_site_fract_x
 _atom_site_fract_y
 _atom_site_fract_z
 _atom_site_occupancy
  Rb  Rb0  1  0.904047  0.404047  0.750000  1
  Li  Li1  1  0.881466  0.118668  0.499366  1
  Li  Li2  1  0.381203  0.618638  0.999772  1
  Li  Li3  1  0.118638  0.881203  0.500228  1
  Li  Li4  1  0.618668  0.381466  0.000634  1
  Li  Li5  1  0.601998  0.868388  0.977234  1
  Li  Li6  1  0.131805  0.398076  0.023560  1
  Li  Li7  1  0.631571  0.897931  0.477246  1
  Li  Li8  1  0.102640  0.368761  0.521873  1
  Li  Li9  1  0.397931  0.131571  0.022754  1
  Li  Li10  1  0.868761  0.602640  0.978127  1
  Li  Li11  1  0.368388  0.101998  0.522766  1
  Li  Li12  1  0.898076  0.631805  0.476440  1
  Tl  Tl13  1  0.389982  0.390004  0.814311  1
  Tl  Tl14  1  0.609998  0.610060  0.185709  1
  Tl  Tl15  1  0.110060  0.109998  0.314291  1
  Tl  Tl16  1  0.890004  0.889982  0.685689  1
  Tl  Tl17  1  0.407002  0.907002  0.750000  1
  Tl  Tl18  1  0.092602  0.592602  0.250000  1
  Tl  Tl19  1  0.592786  0.092786  0.250000  1
  B  B20  1  0.880076  0.120059  0.000385  1
  B  B21  1  0.379985  0.620031  0.500143  1
  B  B22  1  0.120031  0.879985  0.999857  1
  B  B23  1  0.620059  0.380076  0.499615  1
  P  P24  1  0.713669  0.091255  0.760379  1
  P  P25  1  0.909097  0.286553  0.240228  1
  P  P26  1  0.408847  0.786445  0.260187  1
  P  P27  1  0.213432  0.591047  0.739626  1
  P  P28  1  0.286445  0.908847  0.239813  1
  P  P29  1  0.091047  0.713432  0.760374  1
  P  P30  1  0.591255  0.213669  0.739621  1
  P  P31  1  0.786553  0.409097  0.259772  1
  P  P32  1  0.071517  0.196718  0.801256  1
  P  P33  1  0.803244  0.928449  0.198577  1
  P  P34  1  0.303398  0.428446  0.301345  1
  P  P35  1  0.571623  0.696730  0.698695  1
  P  P36  1  0.928446  0.803398  0.198655  1
  P  P37  1  0.196730  0.071623  0.801305  1
  P  P38  1  0.696718  0.571517  0.698744  1
  P  P39  1  0.428449  0.303244  0.301423  1
  O  O40  1  0.630864  0.012996  0.895564  1
  O  O41  1  0.987130  0.368918  0.104530  1
  O  O42  1  0.487181  0.869256  0.395365  1
  O  O43  1  0.130676  0.512806  0.604768  1
  O  O44  1  0.369256  0.987181  0.104635  1
  O  O45  1  0.012806  0.630676  0.895232  1
  O  O46  1  0.512996  0.130864  0.604436  1
  O  O47  1  0.868918  0.487130  0.395470  1
  O  O48  1  0.834531  0.144365  0.832644  1
  O  O49  1  0.856397  0.165557  0.168533  1
  O  O50  1  0.356277  0.665625  0.332201  1
  O  O51  1  0.334394  0.643783  0.667827  1
  O  O52  1  0.165625  0.856277  0.167799  1
  O  O53  1  0.143783  0.834394  0.832173  1
  O  O54  1  0.644365  0.334531  0.667356  1
  O  O55  1  0.665557  0.356397  0.331467  1
  O  O56  1  0.714053  0.052588  0.563163  1
  O  O57  1  0.947489  0.286499  0.437611  1
  O  O58  1  0.447631  0.786197  0.063004  1
  O  O59  1  0.213905  0.552441  0.936967  1
  O  O60  1  0.286197  0.947631  0.436996  1
  O  O61  1  0.052441  0.713905  0.563033  1
  O  O62  1  0.552588  0.214053  0.936837  1
  O  O63  1  0.786499  0.447489  0.062389  1
  O  O64  1  0.699759  0.199759  0.750000  1
  O  O65  1  0.800478  0.300478  0.250000  1
  O  O66  1  0.300499  0.800499  0.250000  1
  O  O67  1  0.199539  0.699539  0.750000  1
  O  O68  1  0.162078  0.162150  0.863932  1
  O  O69  1  0.838002  0.838075  0.135765  1
  O  O70  1  0.338075  0.338002  0.364235  1
  O  O71  1  0.662150  0.662078  0.636068  1
  O  O72  1  0.131806  0.318721  0.779704  1
  O  O73  1  0.681257  0.867899  0.220148  1
  O  O74  1  0.181398  0.367843  0.279775  1
  O  O75  1  0.632142  0.818732  0.720224  1
  O  O76  1  0.867843  0.681398  0.220225  1
  O  O77  1  0.318732  0.132142  0.779776  1
  O  O78  1  0.818721  0.631806  0.720296  1
  O  O79  1  0.367899  0.181257  0.279852  1
  O  O80  1  0.010540  0.132268  0.632682  1
  O  O81  1  0.867645  0.989372  0.367186  1
  O  O82  1  0.367675  0.489353  0.132645  1
  O  O83  1  0.510691  0.632377  0.867337  1
  O  O84  1  0.989353  0.867675  0.367355  1
  O  O85  1  0.132377  0.010691  0.632663  1
  O  O86  1  0.632268  0.510540  0.867318  1
  O  O87  1  0.489372  0.367645  0.132814  1
  O  O88  1  0.998521  0.166753  0.981119  1
  O  O89  1  0.833005  0.001575  0.018859  1
  O  O90  1  0.333174  0.501500  0.481051  1
  O  O91  1  0.498546  0.666822  0.518959  1
  O  O92  1  0.001500  0.833174  0.018949  1
  O  O93  1  0.166822  0.998546  0.981041  1
  O  O94  1  0.666753  0.498521  0.518881  1
  O  O95  1  0.501575  0.333005  0.481141  1
