# generated using pymatgen
data_Ce7Sm(AlRu)8
_symmetry_space_group_name_H-M   'P 1'
_cell_length_a   4.05541300
_cell_length_b   7.30973557
_cell_length_c   15.81386555
_cell_angle_alpha   90.63105077
_cell_angle_beta   90.00000000
_cell_angle_gamma   90.00000000
_symmetry_Int_Tables_number   1
_chemical_formula_structural   Ce7Sm(AlRu)8
_chemical_formula_sum   'Ce7 Sm1 Al8 Ru8'
_cell_volume   468.75774447
_cell_formula_units_Z   1
loop_
 _symmetry_equiv_pos_site_id
 _symmetry_equiv_pos_as_xyz
  1  'x, y, z'
loop_
 _atom_site_type_symbol
 _atom_site_label
 _atom_site_symmetry_multiplicity
 _atom_site_fract_x
 _atom_site_fract_y
 _atom_site_fract_z
 _atom_site_occupancy
  Ce  Ce0  1  0.250000  0.168650  0.561754  1
  Ce  Ce1  1  0.750000  0.827662  0.437850  1
  Ce  Ce2  1  0.750000  0.455923  0.281156  1
  Ce  Ce3  1  0.750000  0.331886  0.061765  1
  Ce  Ce4  1  0.250000  0.670001  0.938261  1
  Ce  Ce5  1  0.250000  0.046953  0.781181  1
  Ce  Ce6  1  0.250000  0.547370  0.719007  1
  Sm  Sm7  1  0.750000  0.959009  0.218773  1
  Al  Al8  1  0.750000  0.502613  0.563113  1
  Al  Al9  1  0.750000  0.367561  0.848694  1
  Al  Al10  1  0.750000  0.004108  0.936882  1
  Al  Al11  1  0.750000  0.867434  0.651225  1
  Al  Al12  1  0.250000  0.490388  0.437942  1
  Al  Al13  1  0.250000  0.998771  0.063932  1
  Al  Al14  1  0.250000  0.639153  0.150456  1
  Al  Al15  1  0.250000  0.129917  0.347897  1
  Ru  Ru16  1  0.750000  0.738516  0.819333  1
  Ru  Ru17  1  0.250000  0.234930  0.934395  1
  Ru  Ru18  1  0.750000  0.258970  0.435387  1
  Ru  Ru19  1  0.250000  0.749346  0.324888  1
  Ru  Ru20  1  0.750000  0.761510  0.059854  1
  Ru  Ru21  1  0.750000  0.239245  0.679611  1
  Ru  Ru22  1  0.250000  0.276810  0.180310  1
  Ru  Ru23  1  0.250000  0.733274  0.566333  1
