# generated using pymatgen
data_Th8Si8TcIr7
_symmetry_space_group_name_H-M   'P 1'
_cell_length_a   5.87463296
_cell_length_b   7.76493085
_cell_length_c   10.81812900
_cell_angle_alpha   88.29490147
_cell_angle_beta   90.06653554
_cell_angle_gamma   89.89849967
_symmetry_Int_Tables_number   1
_chemical_formula_structural   Th8Si8TcIr7
_chemical_formula_sum   'Th8 Si8 Tc1 Ir7'
_cell_volume   493.26141384
_cell_formula_units_Z   1
loop_
 _symmetry_equiv_pos_site_id
 _symmetry_equiv_pos_as_xyz
  1  'x, y, z'
loop_
 _atom_site_type_symbol
 _atom_site_label
 _atom_site_symmetry_multiplicity
 _atom_site_fract_x
 _atom_site_fract_y
 _atom_site_fract_z
 _atom_site_occupancy
  Th  Th0  1  0.354906  0.963805  0.139139  1
  Th  Th1  1  0.644702  0.039614  0.856588  1
  Th  Th2  1  0.848813  0.531813  0.859227  1
  Th  Th3  1  0.144152  0.466539  0.140051  1
  Th  Th4  1  0.874007  0.826126  0.368943  1
  Th  Th5  1  0.130206  0.174500  0.628133  1
  Th  Th6  1  0.375057  0.669363  0.628653  1
  Th  Th7  1  0.628997  0.327794  0.371272  1
  Si  Si8  1  0.869270  0.533214  0.579653  1
  Si  Si9  1  0.128377  0.467253  0.418362  1
  Si  Si10  1  0.374939  0.966412  0.418607  1
  Si  Si11  1  0.634976  0.035054  0.578870  1
  Si  Si12  1  0.643024  0.621608  0.145686  1
  Si  Si13  1  0.355726  0.376213  0.859833  1
  Si  Si14  1  0.138686  0.875841  0.857339  1
  Si  Si15  1  0.858198  0.121170  0.144905  1
  Tc  Tc16  1  0.597987  0.324637  0.669777  1
  Ir  Ir17  1  0.898895  0.835823  0.052158  1
  Ir  Ir18  1  0.091167  0.164665  0.948300  1
  Ir  Ir19  1  0.406587  0.666560  0.947425  1
  Ir  Ir20  1  0.595083  0.335268  0.057323  1
  Ir  Ir21  1  0.905135  0.822574  0.666656  1
  Ir  Ir22  1  0.104918  0.176080  0.331439  1
  Ir  Ir23  1  0.396188  0.678075  0.331660  1
