# generated using pymatgen
data_Y5Pa3Nb12Si15Ge
_symmetry_space_group_name_H-M   'P 1'
_cell_length_a   6.90696687
_cell_length_b   7.09563307
_cell_length_c   13.45956984
_cell_angle_alpha   90.01999514
_cell_angle_beta   89.76790425
_cell_angle_gamma   90.00488506
_symmetry_Int_Tables_number   1
_chemical_formula_structural   Y5Pa3Nb12Si15Ge
_chemical_formula_sum   'Y5 Pa3 Nb12 Si15 Ge1'
_cell_volume   659.63867569
_cell_formula_units_Z   1
loop_
 _symmetry_equiv_pos_site_id
 _symmetry_equiv_pos_as_xyz
  1  'x, y, z'
loop_
 _atom_site_type_symbol
 _atom_site_label
 _atom_site_symmetry_multiplicity
 _atom_site_fract_x
 _atom_site_fract_y
 _atom_site_fract_z
 _atom_site_occupancy
  Y  Y0  1  0.997055  0.828760  0.904781  1
  Y  Y1  1  0.496912  0.670625  0.905408  1
  Y  Y2  1  0.998572  0.829562  0.596204  1
  Y  Y3  1  0.500059  0.327618  0.403776  1
  Y  Y4  1  0.000620  0.172595  0.094824  1
  Pa  Pa5  1  0.501768  0.328647  0.094747  1
  Pa  Pa6  1  0.000259  0.171262  0.402891  1
  Pa  Pa7  1  0.499932  0.675013  0.598319  1
  Nb  Nb8  1  0.662880  0.005147  0.748930  1
  Nb  Nb9  1  0.166169  0.492415  0.750632  1
  Nb  Nb10  1  0.336284  0.996742  0.248343  1
  Nb  Nb11  1  0.836815  0.504360  0.251061  1
  Nb  Nb12  1  0.833834  0.326939  0.623635  1
  Nb  Nb13  1  0.337046  0.174732  0.876225  1
  Nb  Nb14  1  0.167670  0.669800  0.124624  1
  Nb  Nb15  1  0.663645  0.828559  0.375893  1
  Nb  Nb16  1  0.159845  0.676747  0.372915  1
  Nb  Nb17  1  0.659480  0.825951  0.125367  1
  Nb  Nb18  1  0.837525  0.325105  0.874927  1
  Nb  Nb19  1  0.340628  0.168876  0.626251  1
  Si  Si20  1  0.798694  0.624342  0.751395  1
  Si  Si21  1  0.294844  0.874452  0.751718  1
  Si  Si22  1  0.203775  0.374141  0.249825  1
  Si  Si23  1  0.704313  0.125316  0.248858  1
  Si  Si24  1  0.541354  0.375662  0.750923  1
  Si  Si25  1  0.041095  0.125575  0.750170  1
  Si  Si26  1  0.459500  0.624337  0.250758  1
  Si  Si27  1  0.958335  0.875873  0.247915  1
  Si  Si28  1  0.666349  0.040749  0.540762  1
  Si  Si29  1  0.162780  0.461281  0.958602  1
  Si  Si30  1  0.335337  0.961563  0.041825  1
  Si  Si31  1  0.830824  0.539779  0.457302  1
  Si  Si32  1  0.337163  0.960609  0.458507  1
  Si  Si33  1  0.839885  0.538886  0.042143  1
  Si  Si34  1  0.661559  0.037475  0.958397  1
  Ge  Ge35  1  0.167193  0.460504  0.541146  1
