# generated using pymatgen
data_Hf5Zr5(BePb3)2
_symmetry_space_group_name_H-M   'P 1'
_cell_length_a   8.73495200
_cell_length_b   8.73495211
_cell_length_c   5.84660500
_cell_angle_alpha   90.00000000
_cell_angle_beta   90.00000000
_cell_angle_gamma   120.03638462
_symmetry_Int_Tables_number   1
_chemical_formula_structural   Hf5Zr5(BePb3)2
_chemical_formula_sum   'Hf5 Zr5 Be2 Pb6'
_cell_volume   386.18561428
_cell_formula_units_Z   1
loop_
 _symmetry_equiv_pos_site_id
 _symmetry_equiv_pos_as_xyz
  1  'x, y, z'
loop_
 _atom_site_type_symbol
 _atom_site_label
 _atom_site_symmetry_multiplicity
 _atom_site_fract_x
 _atom_site_fract_y
 _atom_site_fract_z
 _atom_site_occupancy
  Hf  Hf0  1  0.666736  0.333345  0.999811  1
  Hf  Hf1  1  0.333345  0.666736  0.999811  1
  Hf  Hf2  1  0.333345  0.666736  0.500189  1
  Hf  Hf3  1  0.666736  0.333345  0.500189  1
  Hf  Hf4  1  0.754463  0.754463  0.750000  1
  Zr  Zr5  1  0.246907  0.000573  0.750000  1
  Zr  Zr6  1  0.000573  0.246907  0.750000  1
  Zr  Zr7  1  0.245760  0.245760  0.250000  1
  Zr  Zr8  1  0.753925  0.999034  0.250000  1
  Zr  Zr9  1  0.999034  0.753925  0.250000  1
  Be  Be10  1  0.999429  0.999429  0.998056  1
  Be  Be11  1  0.999429  0.999429  0.501944  1
  Pb  Pb12  1  0.391550  0.391550  0.750000  1
  Pb  Pb13  1  0.610090  0.999735  0.750000  1
  Pb  Pb14  1  0.999735  0.610090  0.750000  1
  Pb  Pb15  1  0.608494  0.608494  0.250000  1
  Pb  Pb16  1  0.390587  0.999860  0.250000  1
  Pb  Pb17  1  0.999860  0.390587  0.250000  1
