# generated using pymatgen
data_DyYHo2(CrB4)4
_symmetry_space_group_name_H-M   'P 1'
_cell_length_a   3.43927500
_cell_length_b   5.92923863
_cell_length_c   11.45852405
_cell_angle_alpha   89.96835468
_cell_angle_beta   90.00000000
_cell_angle_gamma   90.00000000
_symmetry_Int_Tables_number   1
_chemical_formula_structural   DyYHo2(CrB4)4
_chemical_formula_sum   'Dy1 Y1 Ho2 Cr4 B16'
_cell_volume   233.66542020
_cell_formula_units_Z   1
loop_
 _symmetry_equiv_pos_site_id
 _symmetry_equiv_pos_as_xyz
  1  'x, y, z'
loop_
 _atom_site_type_symbol
 _atom_site_label
 _atom_site_symmetry_multiplicity
 _atom_site_fract_x
 _atom_site_fract_y
 _atom_site_fract_z
 _atom_site_occupancy
  Dy  Dy0  1  0.000000  0.624440  0.349036  1
  Y  Y1  1  0.000000  0.375489  0.650986  1
  Ho  Ho2  1  0.000000  0.124563  0.150649  1
  Ho  Ho3  1  0.000000  0.875582  0.849382  1
  Cr  Cr4  1  0.000000  0.624427  0.080721  1
  Cr  Cr5  1  0.000000  0.375948  0.919054  1
  Cr  Cr6  1  0.000000  0.123830  0.418923  1
  Cr  Cr7  1  0.000000  0.875931  0.581223  1
  B  B8  1  0.500000  0.781673  0.184031  1
  B  B9  1  0.500000  0.218270  0.816117  1
  B  B10  1  0.500000  0.281132  0.315416  1
  B  B11  1  0.500000  0.718909  0.684595  1
  B  B12  1  0.500000  0.863138  0.032404  1
  B  B13  1  0.500000  0.137068  0.967698  1
  B  B14  1  0.500000  0.362603  0.467363  1
  B  B15  1  0.500000  0.637280  0.532403  1
  B  B16  1  0.500000  0.886814  0.453118  1
  B  B17  1  0.500000  0.112873  0.546701  1
  B  B18  1  0.500000  0.386490  0.046824  1
  B  B19  1  0.500000  0.613653  0.953219  1
  B  B20  1  0.500000  0.975251  0.308203  1
  B  B21  1  0.500000  0.024461  0.691839  1
  B  B22  1  0.500000  0.474896  0.191363  1
  B  B23  1  0.500000  0.525278  0.808729  1
