# generated using pymatgen
data_Dy2HoTh5(ReC2)4
_symmetry_space_group_name_H-M   'P 1'
_cell_length_a   5.30479700
_cell_length_b   6.67395361
_cell_length_c   9.94514200
_cell_angle_alpha   90.20112322
_cell_angle_beta   90.00000000
_cell_angle_gamma   90.00000000
_symmetry_Int_Tables_number   1
_chemical_formula_structural   Dy2HoTh5(ReC2)4
_chemical_formula_sum   'Dy2 Ho1 Th5 Re4 C8'
_cell_volume   352.09533093
_cell_formula_units_Z   1
loop_
 _symmetry_equiv_pos_site_id
 _symmetry_equiv_pos_as_xyz
  1  'x, y, z'
loop_
 _atom_site_type_symbol
 _atom_site_label
 _atom_site_symmetry_multiplicity
 _atom_site_fract_x
 _atom_site_fract_y
 _atom_site_fract_z
 _atom_site_occupancy
  Dy  Dy0  1  0.750000  0.675956  0.551510  1
  Dy  Dy1  1  0.750000  0.179939  0.946753  1
  Ho  Ho2  1  0.250000  0.323472  0.448256  1
  Th  Th3  1  0.250000  0.469875  0.781315  1
  Th  Th4  1  0.750000  0.029039  0.284724  1
  Th  Th5  1  0.250000  0.973193  0.712793  1
  Th  Th6  1  0.750000  0.525157  0.221402  1
  Th  Th7  1  0.250000  0.814502  0.047375  1
  Re  Re8  1  0.250000  0.273564  0.137334  1
  Re  Re9  1  0.750000  0.228762  0.635949  1
  Re  Re10  1  0.250000  0.772487  0.366529  1
  Re  Re11  1  0.750000  0.729122  0.860651  1
  C  C12  1  0.250000  0.170866  0.947615  1
  C  C13  1  0.750000  0.832859  0.052003  1
  C  C14  1  0.250000  0.669798  0.552848  1
  C  C15  1  0.750000  0.331016  0.448448  1
  C  C16  1  0.250000  0.040864  0.262987  1
  C  C17  1  0.750000  0.462059  0.759185  1
  C  C18  1  0.250000  0.535386  0.244483  1
  C  C19  1  0.750000  0.962083  0.737839  1
