# generated using pymatgen
data_Ho2AsPd3Pt5
_symmetry_space_group_name_H-M   'P 1'
_cell_length_a   4.13578600
_cell_length_b   4.09029100
_cell_length_c   11.27943900
_cell_angle_alpha   90.00000000
_cell_angle_beta   90.00000000
_cell_angle_gamma   90.00000000
_symmetry_Int_Tables_number   1
_chemical_formula_structural   Ho2AsPd3Pt5
_chemical_formula_sum   'Ho2 As1 Pd3 Pt5'
_cell_volume   190.80939971
_cell_formula_units_Z   1
loop_
 _symmetry_equiv_pos_site_id
 _symmetry_equiv_pos_as_xyz
  1  'x, y, z'
loop_
 _atom_site_type_symbol
 _atom_site_label
 _atom_site_symmetry_multiplicity
 _atom_site_fract_x
 _atom_site_fract_y
 _atom_site_fract_z
 _atom_site_occupancy
  Ho  Ho0  1  0.500000  0.500000  0.819570  1
  Ho  Ho1  1  0.500000  0.500000  0.181223  1
  As  As2  1  0.000000  0.000000  0.499403  1
  Pd  Pd3  1  0.500000  0.000000  0.631388  1
  Pd  Pd4  1  0.000000  0.500000  0.632579  1
  Pd  Pd5  1  0.500000  0.000000  0.368558  1
  Pt  Pt6  1  0.500000  0.000000  0.000009  1
  Pt  Pt7  1  0.000000  0.500000  0.000506  1
  Pt  Pt8  1  0.000000  0.500000  0.366368  1
  Pt  Pt9  1  0.000000  0.000000  0.816996  1
  Pt  Pt10  1  0.000000  0.000000  0.183400  1
