# generated using pymatgen
data_Ho7Er3OsRu3
_symmetry_space_group_name_H-M   'P 1'
_cell_length_a   6.31233222
_cell_length_b   7.26540852
_cell_length_c   8.42323751
_cell_angle_alpha   96.75042077
_cell_angle_beta   112.11420641
_cell_angle_gamma   89.95376059
_symmetry_Int_Tables_number   1
_chemical_formula_structural   Ho7Er3OsRu3
_chemical_formula_sum   'Ho7 Er3 Os1 Ru3'
_cell_volume   355.00798667
_cell_formula_units_Z   1
loop_
 _symmetry_equiv_pos_site_id
 _symmetry_equiv_pos_as_xyz
  1  'x, y, z'
loop_
 _atom_site_type_symbol
 _atom_site_label
 _atom_site_symmetry_multiplicity
 _atom_site_fract_x
 _atom_site_fract_y
 _atom_site_fract_z
 _atom_site_occupancy
  Ho  Ho0  1  0.791904  0.583115  0.813429  1
  Ho  Ho1  1  0.976199  0.915549  0.183593  1
  Ho  Ho2  1  0.207614  0.415393  0.186307  1
  Ho  Ho3  1  0.023493  0.084454  0.814225  1
  Ho  Ho4  1  0.206917  0.685078  0.566195  1
  Ho  Ho5  1  0.639653  0.816301  0.436030  1
  Ho  Ho6  1  0.794351  0.315268  0.434189  1
  Er  Er7  1  0.359281  0.184342  0.565085  1
  Er  Er8  1  0.420557  0.749875  0.999349  1
  Er  Er9  1  0.579795  0.250235  0.999805  1
  Os  Os10  1  0.602321  0.924255  0.781161  1
  Ru  Ru11  1  0.823310  0.576286  0.220604  1
  Ru  Ru12  1  0.397341  0.076325  0.220331  1
  Ru  Ru13  1  0.177264  0.423525  0.779698  1
