# generated using pymatgen
data_Nd7Th(CdIr)2
_symmetry_space_group_name_H-M   'P 1'
_cell_length_a   9.97551797
_cell_length_b   9.97551765
_cell_length_c   10.01657700
_cell_angle_alpha   59.86374645
_cell_angle_beta   59.86374752
_cell_angle_gamma   59.93754789
_symmetry_Int_Tables_number   1
_chemical_formula_structural   Nd7Th(CdIr)2
_chemical_formula_sum   'Nd14 Th2 Cd4 Ir4'
_cell_volume   703.02892229
_cell_formula_units_Z   2
loop_
 _symmetry_equiv_pos_site_id
 _symmetry_equiv_pos_as_xyz
  1  'x, y, z'
loop_
 _atom_site_type_symbol
 _atom_site_label
 _atom_site_symmetry_multiplicity
 _atom_site_fract_x
 _atom_site_fract_y
 _atom_site_fract_z
 _atom_site_occupancy
  Nd  Nd0  1  0.349166  0.951394  0.349720  1
  Nd  Nd1  1  0.951394  0.349166  0.349720  1
  Nd  Nd2  1  0.810322  0.190084  0.190306  1
  Nd  Nd3  1  0.190084  0.810322  0.809288  1
  Nd  Nd4  1  0.190084  0.810322  0.190306  1
  Nd  Nd5  1  0.810322  0.190084  0.809288  1
  Nd  Nd6  1  0.190001  0.190001  0.809999  1
  Nd  Nd7  1  0.809278  0.809278  0.190722  1
  Nd  Nd8  1  0.940314  0.561232  0.562489  1
  Nd  Nd9  1  0.561232  0.940314  0.935965  1
  Nd  Nd10  1  0.561232  0.940314  0.562489  1
  Nd  Nd11  1  0.940314  0.561232  0.935965  1
  Nd  Nd12  1  0.562129  0.562129  0.937871  1
  Nd  Nd13  1  0.938572  0.938572  0.561428  1
  Th  Th14  1  0.345087  0.345087  0.347108  1
  Th  Th15  1  0.345087  0.345087  0.962718  1
  Cd  Cd16  1  0.579438  0.579438  0.580849  1
  Cd  Cd17  1  0.579438  0.579438  0.260275  1
  Cd  Cd18  1  0.579460  0.258527  0.581006  1
  Cd  Cd19  1  0.258527  0.579460  0.581006  1
  Ir  Ir20  1  0.145723  0.145723  0.138261  1
  Ir  Ir21  1  0.145723  0.145723  0.570292  1
  Ir  Ir22  1  0.149869  0.567203  0.141464  1
  Ir  Ir23  1  0.567203  0.149869  0.141464  1
