# generated using pymatgen
data_Nd4Ho5ErPb6
_symmetry_space_group_name_H-M   'P 1'
_cell_length_a   9.16568600
_cell_length_b   9.16568532
_cell_length_c   6.72209500
_cell_angle_alpha   90.00000000
_cell_angle_beta   90.00000000
_cell_angle_gamma   119.55647261
_symmetry_Int_Tables_number   1
_chemical_formula_structural   Nd4Ho5ErPb6
_chemical_formula_sum   'Nd4 Ho5 Er1 Pb6'
_cell_volume   491.23452155
_cell_formula_units_Z   1
loop_
 _symmetry_equiv_pos_site_id
 _symmetry_equiv_pos_as_xyz
  1  'x, y, z'
loop_
 _atom_site_type_symbol
 _atom_site_label
 _atom_site_symmetry_multiplicity
 _atom_site_fract_x
 _atom_site_fract_y
 _atom_site_fract_z
 _atom_site_occupancy
  Nd  Nd0  1  0.238599  0.000995  0.750000  1
  Nd  Nd1  1  0.000995  0.238599  0.750000  1
  Nd  Nd2  1  0.761826  0.999132  0.250000  1
  Nd  Nd3  1  0.999132  0.761826  0.250000  1
  Ho  Ho4  1  0.666470  0.333212  0.999980  1
  Ho  Ho5  1  0.333212  0.666470  0.999980  1
  Ho  Ho6  1  0.333212  0.666470  0.500020  1
  Ho  Ho7  1  0.666470  0.333212  0.500020  1
  Ho  Ho8  1  0.757602  0.757602  0.750000  1
  Er  Er9  1  0.242710  0.242710  0.250000  1
  Pb  Pb10  1  0.401240  0.401240  0.750000  1
  Pb  Pb11  1  0.603783  0.997139  0.750000  1
  Pb  Pb12  1  0.997139  0.603783  0.750000  1
  Pb  Pb13  1  0.599009  0.599009  0.250000  1
  Pb  Pb14  1  0.396393  0.002209  0.250000  1
  Pb  Pb15  1  0.002209  0.396393  0.250000  1
