# generated using pymatgen
data_Cs2PtS15
_symmetry_space_group_name_H-M   'P 1'
_cell_length_a   9.55901978
_cell_length_b   9.55902060
_cell_length_c   13.81645379
_cell_angle_alpha   89.11250389
_cell_angle_beta   89.11250464
_cell_angle_gamma   66.14064030
_symmetry_Int_Tables_number   1
_chemical_formula_structural   Cs2PtS15
_chemical_formula_sum   'Cs4 Pt2 S30'
_cell_volume   1154.38951584
_cell_formula_units_Z   2
loop_
 _symmetry_equiv_pos_site_id
 _symmetry_equiv_pos_as_xyz
  1  'x, y, z'
loop_
 _atom_site_type_symbol
 _atom_site_label
 _atom_site_symmetry_multiplicity
 _atom_site_fract_x
 _atom_site_fract_y
 _atom_site_fract_z
 _atom_site_occupancy
  Cs  Cs0  1  0.774468  0.649821  0.133126  1
  Cs  Cs1  1  0.649821  0.774468  0.633126  1
  Cs  Cs2  1  0.934657  0.279730  0.395781  1
  Cs  Cs3  1  0.279730  0.934657  0.895781  1
  Pt  Pt4  1  0.205349  0.774712  0.254292  1
  Pt  Pt5  1  0.774712  0.205349  0.754292  1
  S  S6  1  0.544264  0.414961  0.272957  1
  S  S7  1  0.414961  0.544264  0.772957  1
  S  S8  1  0.569288  0.374589  0.123619  1
  S  S9  1  0.374589  0.569288  0.623619  1
  S  S10  1  0.351588  0.117771  0.369984  1
  S  S11  1  0.117771  0.351588  0.869984  1
  S  S12  1  0.352754  0.927448  0.447564  1
  S  S13  1  0.927448  0.352754  0.947564  1
  S  S14  1  0.164407  0.890392  0.413648  1
  S  S15  1  0.890392  0.164407  0.913648  1
  S  S16  1  0.475017  0.644103  0.292392  1
  S  S17  1  0.644103  0.475017  0.792392  1
  S  S18  1  0.341172  0.449152  0.084343  1
  S  S19  1  0.449152  0.341172  0.584343  1
  S  S20  1  0.249077  0.681487  0.088142  1
  S  S21  1  0.681487  0.249077  0.588142  1
  S  S22  1  0.221018  0.003014  0.183489  1
  S  S23  1  0.003014  0.221018  0.683489  1
  S  S24  1  0.408719  0.029599  0.231125  1
  S  S25  1  0.029599  0.408719  0.731125  1
  S  S26  1  0.152875  0.560567  0.314391  1
  S  S27  1  0.560567  0.152875  0.814391  1
  S  S28  1  0.805858  0.965913  0.329826  1
  S  S29  1  0.965913  0.805858  0.829826  1
  S  S30  1  0.016229  0.636096  0.432742  1
  S  S31  1  0.636096  0.016229  0.932742  1
  S  S32  1  0.937828  0.906466  0.208466  1
  S  S33  1  0.906466  0.937828  0.708466  1
  S  S34  1  0.792774  0.764642  0.383111  1
  S  S35  1  0.764642  0.792774  0.883111  1
