# generated using pymatgen
data_Ca2Pr8Si5As
_symmetry_space_group_name_H-M   'P 1'
_cell_length_a   7.75367381
_cell_length_b   7.75367413
_cell_length_c   9.04173045
_cell_angle_alpha   115.38963152
_cell_angle_beta   115.38963543
_cell_angle_gamma   90.00000102
_symmetry_Int_Tables_number   1
_chemical_formula_structural   Ca2Pr8Si5As
_chemical_formula_sum   'Ca2 Pr8 Si5 As1'
_cell_volume   432.24655518
_cell_formula_units_Z   1
loop_
 _symmetry_equiv_pos_site_id
 _symmetry_equiv_pos_as_xyz
  1  'x, y, z'
loop_
 _atom_site_type_symbol
 _atom_site_label
 _atom_site_symmetry_multiplicity
 _atom_site_fract_x
 _atom_site_fract_y
 _atom_site_fract_z
 _atom_site_occupancy
  Ca  Ca0  1  0.498762  0.498762  0.997524  1
  Ca  Ca1  1  0.001238  0.001238  0.002476  1
  Pr  Pr2  1  0.967440  0.823245  0.287897  1
  Pr  Pr3  1  0.320457  0.464652  0.287897  1
  Pr  Pr4  1  0.823245  0.320457  0.287897  1
  Pr  Pr5  1  0.464652  0.967440  0.287897  1
  Pr  Pr6  1  0.035348  0.179543  0.712103  1
  Pr  Pr7  1  0.676755  0.532560  0.712103  1
  Pr  Pr8  1  0.179543  0.676755  0.712103  1
  Pr  Pr9  1  0.532560  0.035348  0.712103  1
  Si  Si10  1  0.250000  0.250000  0.500000  1
  Si  Si11  1  0.614718  0.885282  0.000000  1
  Si  Si12  1  0.385282  0.114718  0.000000  1
  Si  Si13  1  0.885282  0.385282  0.000000  1
  Si  Si14  1  0.114718  0.614718  0.000000  1
  As  As15  1  0.750000  0.750000  0.500000  1
