# generated using pymatgen
data_Nd2NiIr5
_symmetry_space_group_name_H-M   'P 1'
_cell_length_a   5.36098000
_cell_length_b   5.36078575
_cell_length_c   17.16730600
_cell_angle_alpha   90.00000000
_cell_angle_beta   90.00000000
_cell_angle_gamma   120.00066570
_symmetry_Int_Tables_number   1
_chemical_formula_structural   Nd2NiIr5
_chemical_formula_sum   'Nd6 Ni3 Ir15'
_cell_volume   427.27010180
_cell_formula_units_Z   3
loop_
 _symmetry_equiv_pos_site_id
 _symmetry_equiv_pos_as_xyz
  1  'x, y, z'
loop_
 _atom_site_type_symbol
 _atom_site_label
 _atom_site_symmetry_multiplicity
 _atom_site_fract_x
 _atom_site_fract_y
 _atom_site_fract_z
 _atom_site_occupancy
  Nd  Nd0  1  0.333345  0.666686  0.542882  1
  Nd  Nd1  1  0.666670  0.333334  0.038184  1
  Nd  Nd2  1  0.666670  0.333334  0.461816  1
  Nd  Nd3  1  0.333345  0.666686  0.957118  1
  Nd  Nd4  1  0.333342  0.666672  0.750000  1
  Nd  Nd5  1  0.666656  0.333333  0.250000  1
  Ni  Ni6  1  0.999901  0.999877  0.750000  1
  Ni  Ni7  1  0.333231  0.666581  0.250000  1
  Ni  Ni8  1  0.666811  0.333465  0.750000  1
  Ir  Ir9  1  0.168335  0.336671  0.127533  1
  Ir  Ir10  1  0.832641  0.665295  0.632442  1
  Ir  Ir11  1  0.663299  0.831661  0.127539  1
  Ir  Ir12  1  0.168358  0.831665  0.127529  1
  Ir  Ir13  1  0.832611  0.167345  0.632443  1
  Ir  Ir14  1  0.334743  0.167356  0.632460  1
  Ir  Ir15  1  0.832641  0.665295  0.867558  1
  Ir  Ir16  1  0.832611  0.167345  0.867557  1
  Ir  Ir17  1  0.334743  0.167356  0.867540  1
  Ir  Ir18  1  0.663299  0.831661  0.372461  1
  Ir  Ir19  1  0.168358  0.831665  0.372471  1
  Ir  Ir20  1  0.168335  0.336671  0.372467  1
  Ir  Ir21  1  0.000036  0.000038  0.250000  1
  Ir  Ir22  1  0.000010  0.000006  0.997170  1
  Ir  Ir23  1  0.000010  0.000006  0.502830  1
