# generated using pymatgen
data_Y3Th11(Os2Ru)2
_symmetry_space_group_name_H-M   'P 1'
_cell_length_a   9.87628965
_cell_length_b   9.95316592
_cell_length_c   6.39266895
_cell_angle_alpha   90.04711221
_cell_angle_beta   89.75521458
_cell_angle_gamma   120.22035857
_symmetry_Int_Tables_number   1
_chemical_formula_structural   Y3Th11(Os2Ru)2
_chemical_formula_sum   'Y3 Th11 Os4 Ru2'
_cell_volume   542.99371283
_cell_formula_units_Z   1
loop_
 _symmetry_equiv_pos_site_id
 _symmetry_equiv_pos_as_xyz
  1  'x, y, z'
loop_
 _atom_site_type_symbol
 _atom_site_label
 _atom_site_symmetry_multiplicity
 _atom_site_fract_x
 _atom_site_fract_y
 _atom_site_fract_z
 _atom_site_occupancy
  Y  Y0  1  0.460287  0.535080  0.295452  1
  Y  Y1  1  0.072649  0.535730  0.296543  1
  Y  Y2  1  0.925944  0.462511  0.798398  1
  Th  Th3  1  0.251191  0.127501  0.510237  1
  Th  Th4  1  0.543537  0.083296  0.796421  1
  Th  Th5  1  0.747087  0.873095  0.014733  1
  Th  Th6  1  0.666677  0.334113  0.276541  1
  Th  Th7  1  0.126714  0.870301  0.006186  1
  Th  Th8  1  0.459524  0.918095  0.297996  1
  Th  Th9  1  0.539760  0.466756  0.798771  1
  Th  Th10  1  0.876903  0.128835  0.512733  1
  Th  Th11  1  0.124410  0.252266  0.013651  1
  Th  Th12  1  0.875018  0.748491  0.507906  1
  Th  Th13  1  0.333797  0.666237  0.773401  1
  Os  Os14  1  0.812616  0.629556  0.049781  1
  Os  Os15  1  0.813178  0.182870  0.050690  1
  Os  Os16  1  0.628393  0.813472  0.549502  1
  Os  Os17  1  0.371017  0.188086  0.041462  1
  Ru  Ru18  1  0.182222  0.362620  0.552334  1
  Ru  Ru19  1  0.189078  0.821088  0.541257  1
