# generated using pymatgen
data_TbYTm2(Al3Ir)6
_symmetry_space_group_name_H-M   'P 1'
_cell_length_a   7.54926630
_cell_length_b   7.54928071
_cell_length_c   9.46555200
_cell_angle_alpha   90.00000000
_cell_angle_beta   90.00000000
_cell_angle_gamma   119.49692472
_symmetry_Int_Tables_number   1
_chemical_formula_structural   TbYTm2(Al3Ir)6
_chemical_formula_sum   'Tb1 Y1 Tm2 Al18 Ir6'
_cell_volume   469.53311625
_cell_formula_units_Z   1
loop_
 _symmetry_equiv_pos_site_id
 _symmetry_equiv_pos_as_xyz
  1  'x, y, z'
loop_
 _atom_site_type_symbol
 _atom_site_label
 _atom_site_symmetry_multiplicity
 _atom_site_fract_x
 _atom_site_fract_y
 _atom_site_fract_z
 _atom_site_occupancy
  Tb  Tb0  1  0.671341  0.994784  0.250000  1
  Y  Y1  1  0.994762  0.671189  0.250000  1
  Tm  Tm2  1  0.005469  0.328310  0.750000  1
  Tm  Tm3  1  0.328257  0.005492  0.750000  1
  Al  Al4  1  0.129635  0.129731  0.250000  1
  Al  Al5  1  0.871290  0.871410  0.750000  1
  Al  Al6  1  0.001348  0.335274  0.072925  1
  Al  Al7  1  0.999430  0.664728  0.924548  1
  Al  Al8  1  0.999430  0.664728  0.575452  1
  Al  Al9  1  0.335005  0.001186  0.427072  1
  Al  Al10  1  0.001348  0.335274  0.427075  1
  Al  Al11  1  0.664735  0.999460  0.575318  1
  Al  Al12  1  0.664735  0.999460  0.924682  1
  Al  Al13  1  0.335005  0.001186  0.072928  1
  Al  Al14  1  0.333057  0.333063  0.552924  1
  Al  Al15  1  0.666553  0.666416  0.449468  1
  Al  Al16  1  0.666553  0.666416  0.050532  1
  Al  Al17  1  0.333057  0.333063  0.947076  1
  Al  Al18  1  0.339521  0.548073  0.250000  1
  Al  Al19  1  0.660308  0.450785  0.750000  1
  Al  Al20  1  0.547939  0.339157  0.250000  1
  Al  Al21  1  0.450777  0.660446  0.750000  1
  Ir  Ir22  1  0.671868  0.327753  0.999319  1
  Ir  Ir23  1  0.327705  0.671839  0.999282  1
  Ir  Ir24  1  0.327705  0.671839  0.500718  1
  Ir  Ir25  1  0.671868  0.327753  0.500681  1
  Ir  Ir26  1  0.000646  0.000593  0.999108  1
  Ir  Ir27  1  0.000646  0.000593  0.500892  1
