# generated using pymatgen
data_Be4NbRu
_symmetry_space_group_name_H-M   'P 1'
_cell_length_a   4.45686894
_cell_length_b   4.45686843
_cell_length_c   4.45686900
_cell_angle_alpha   60.00000319
_cell_angle_beta   60.00000701
_cell_angle_gamma   60.00000514
_symmetry_Int_Tables_number   1
_chemical_formula_structural   Be4NbRu
_chemical_formula_sum   'Be4 Nb1 Ru1'
_cell_volume   62.60003831
_cell_formula_units_Z   1
loop_
 _symmetry_equiv_pos_site_id
 _symmetry_equiv_pos_as_xyz
  1  'x, y, z'
loop_
 _atom_site_type_symbol
 _atom_site_label
 _atom_site_symmetry_multiplicity
 _atom_site_fract_x
 _atom_site_fract_y
 _atom_site_fract_z
 _atom_site_occupancy
  Be  Be0  1  0.124470  0.124470  0.124470  1
  Be  Be1  1  0.626590  0.124470  0.124470  1
  Be  Be2  1  0.124470  0.626590  0.124470  1
  Be  Be3  1  0.124470  0.124470  0.626590  1
  Nb  Nb4  1  0.750000  0.750000  0.750000  1
  Ru  Ru5  1  0.500000  0.500000  0.500000  1
