# generated using pymatgen
data_Dy5Ti2P12Ir16Rh
_symmetry_space_group_name_H-M   'P 1'
_cell_length_a   12.61584900
_cell_length_b   12.80054101
_cell_length_c   3.96377000
_cell_angle_alpha   90.00000000
_cell_angle_beta   90.00000000
_cell_angle_gamma   119.52384999
_symmetry_Int_Tables_number   1
_chemical_formula_structural   Dy5Ti2P12Ir16Rh
_chemical_formula_sum   'Dy5 Ti2 P12 Ir16 Rh1'
_cell_volume   556.99038690
_cell_formula_units_Z   1
loop_
 _symmetry_equiv_pos_site_id
 _symmetry_equiv_pos_as_xyz
  1  'x, y, z'
loop_
 _atom_site_type_symbol
 _atom_site_label
 _atom_site_symmetry_multiplicity
 _atom_site_fract_x
 _atom_site_fract_y
 _atom_site_fract_z
 _atom_site_occupancy
  Dy  Dy0  1  0.329950  0.660441  0.500000  1
  Dy  Dy1  1  0.669510  0.339559  0.500000  1
  Dy  Dy2  1  0.999139  0.811701  0.000000  1
  Dy  Dy3  1  0.187438  0.188299  0.000000  1
  Dy  Dy4  1  0.812033  0.000000  0.000000  1
  Ti  Ti5  1  0.998426  0.446596  0.500000  1
  Ti  Ti6  1  0.551830  0.553404  0.500000  1
  P  P7  1  0.001987  0.639784  0.500000  1
  P  P8  1  0.362203  0.360216  0.500000  1
  P  P9  1  0.642863  0.000000  0.500000  1
  P  P10  1  0.514220  0.682462  0.000000  1
  P  P11  1  0.310174  0.825270  0.000000  1
  P  P12  1  0.162872  0.480728  0.000000  1
  P  P13  1  0.484904  0.174730  0.000000  1
  P  P14  1  0.682144  0.519272  0.000000  1
  P  P15  1  0.831757  0.317538  0.000000  1
  P  P16  1  0.999861  0.175642  0.500000  1
  P  P17  1  0.824219  0.824358  0.500000  1
  P  P18  1  0.182007  0.000000  0.500000  1
  Ir  Ir19  1  0.505669  0.863062  0.000000  1
  Ir  Ir20  1  0.127137  0.641000  0.000000  1
  Ir  Ir21  1  0.355209  0.492192  0.000000  1
  Ir  Ir22  1  0.486138  0.359000  0.000000  1
  Ir  Ir23  1  0.863019  0.507808  0.000000  1
  Ir  Ir24  1  0.642608  0.136938  0.000000  1
  Ir  Ir25  1  0.997199  0.281495  0.000000  1
  Ir  Ir26  1  0.715705  0.718505  0.000000  1
  Ir  Ir27  1  0.287408  0.000000  0.000000  1
  Ir  Ir28  1  0.623832  0.805833  0.500000  1
  Ir  Ir29  1  0.200571  0.822201  0.500000  1
  Ir  Ir30  1  0.177160  0.368707  0.500000  1
  Ir  Ir31  1  0.378371  0.177799  0.500000  1
  Ir  Ir32  1  0.808453  0.631293  0.500000  1
  Ir  Ir33  1  0.817998  0.194167  0.500000  1
  Ir  Ir34  1  0.003386  0.000000  0.500000  1
  Rh  Rh35  1  0.462600  0.000000  0.500000  1
