# generated using pymatgen
data_Er3Tm5(AgPt)2
_symmetry_space_group_name_H-M   'P 1'
_cell_length_a   9.46076707
_cell_length_b   9.46047088
_cell_length_c   9.46004725
_cell_angle_alpha   60.21309665
_cell_angle_beta   60.21054224
_cell_angle_gamma   60.20970831
_symmetry_Int_Tables_number   1
_chemical_formula_structural   Er3Tm5(AgPt)2
_chemical_formula_sum   'Er6 Tm10 Ag4 Pt4'
_cell_volume   601.57314374
_cell_formula_units_Z   2
loop_
 _symmetry_equiv_pos_site_id
 _symmetry_equiv_pos_as_xyz
  1  'x, y, z'
loop_
 _atom_site_type_symbol
 _atom_site_label
 _atom_site_symmetry_multiplicity
 _atom_site_fract_x
 _atom_site_fract_y
 _atom_site_fract_z
 _atom_site_occupancy
  Er  Er0  1  0.933895  0.565960  0.565970  1
  Er  Er1  1  0.565395  0.935892  0.935901  1
  Er  Er2  1  0.565999  0.933860  0.565965  1
  Er  Er3  1  0.935886  0.565366  0.935923  1
  Er  Er4  1  0.565999  0.565925  0.933912  1
  Er  Er5  1  0.935876  0.935897  0.565419  1
  Tm  Tm6  1  0.352727  0.352735  0.352752  1
  Tm  Tm7  1  0.358260  0.358261  0.930057  1
  Tm  Tm8  1  0.358247  0.930102  0.358259  1
  Tm  Tm9  1  0.930094  0.358250  0.358233  1
  Tm  Tm10  1  0.811862  0.188175  0.188189  1
  Tm  Tm11  1  0.187517  0.811095  0.811090  1
  Tm  Tm12  1  0.188192  0.811843  0.188199  1
  Tm  Tm13  1  0.811075  0.187533  0.811075  1
  Tm  Tm14  1  0.188182  0.188187  0.811860  1
  Tm  Tm15  1  0.811055  0.811099  0.187528  1
  Ag  Ag16  1  0.583460  0.583431  0.583404  1
  Ag  Ag17  1  0.582369  0.582320  0.252423  1
  Ag  Ag18  1  0.582373  0.252407  0.582320  1
  Ag  Ag19  1  0.252367  0.582395  0.582329  1
  Pt  Pt20  1  0.145940  0.145896  0.145851  1
  Pt  Pt21  1  0.142701  0.142770  0.567858  1
  Pt  Pt22  1  0.142693  0.567858  0.142774  1
  Pt  Pt23  1  0.567838  0.142742  0.142709  1
