# generated using pymatgen
data_Rb2Na3InS4
_symmetry_space_group_name_H-M   'P 1'
_cell_length_a   9.33307200
_cell_length_b   7.80404875
_cell_length_c   8.11028100
_cell_angle_alpha   89.25950728
_cell_angle_beta   90.00000000
_cell_angle_gamma   90.00000000
_symmetry_Int_Tables_number   1
_chemical_formula_structural   Rb2Na3InS4
_chemical_formula_sum   'Rb4 Na6 In2 S8'
_cell_volume   590.66905677
_cell_formula_units_Z   2
loop_
 _symmetry_equiv_pos_site_id
 _symmetry_equiv_pos_as_xyz
  1  'x, y, z'
loop_
 _atom_site_type_symbol
 _atom_site_label
 _atom_site_symmetry_multiplicity
 _atom_site_fract_x
 _atom_site_fract_y
 _atom_site_fract_z
 _atom_site_occupancy
  Rb  Rb0  1  0.750000  0.025202  0.503388  1
  Rb  Rb1  1  0.250000  0.974798  0.496612  1
  Rb  Rb2  1  0.000000  0.000000  0.000000  1
  Rb  Rb3  1  0.500000  0.000000  0.000000  1
  Na  Na4  1  0.482269  0.369556  0.668861  1
  Na  Na5  1  0.982269  0.630444  0.331139  1
  Na  Na6  1  0.517731  0.630444  0.331139  1
  Na  Na7  1  0.017731  0.369556  0.668861  1
  Na  Na8  1  0.750000  0.360414  0.155344  1
  Na  Na9  1  0.250000  0.639586  0.844656  1
  In  In10  1  0.250000  0.371955  0.177294  1
  In  In11  1  0.750000  0.628045  0.822706  1
  S  S12  1  0.250000  0.281321  0.876997  1
  S  S13  1  0.750000  0.718679  0.123003  1
  S  S14  1  0.975343  0.729397  0.673809  1
  S  S15  1  0.475343  0.270603  0.326191  1
  S  S16  1  0.024657  0.270603  0.326191  1
  S  S17  1  0.524657  0.729397  0.673809  1
  S  S18  1  0.750000  0.304576  0.818442  1
  S  S19  1  0.250000  0.695424  0.181558  1
