# generated using pymatgen
data_Dy16Tl3In(PtRh)2
_symmetry_space_group_name_H-M   'P 1'
_cell_length_a   9.71384650
_cell_length_b   9.70589319
_cell_length_c   9.70589215
_cell_angle_alpha   59.97858606
_cell_angle_beta   59.97143826
_cell_angle_gamma   59.97144723
_symmetry_Int_Tables_number   1
_chemical_formula_structural   Dy16Tl3In(PtRh)2
_chemical_formula_sum   'Dy16 Tl3 In1 Pt2 Rh2'
_cell_volume   646.67986578
_cell_formula_units_Z   1
loop_
 _symmetry_equiv_pos_site_id
 _symmetry_equiv_pos_as_xyz
  1  'x, y, z'
loop_
 _atom_site_type_symbol
 _atom_site_label
 _atom_site_symmetry_multiplicity
 _atom_site_fract_x
 _atom_site_fract_y
 _atom_site_fract_z
 _atom_site_occupancy
  Dy  Dy0  1  0.689867  0.310046  0.310046  1
  Dy  Dy1  1  0.686722  0.692439  0.309715  1
  Dy  Dy2  1  0.310812  0.692063  0.310616  1
  Dy  Dy3  1  0.939070  0.937267  0.561942  1
  Dy  Dy4  1  0.150276  0.145880  0.553140  1
  Dy  Dy5  1  0.561940  0.937556  0.561101  1
  Dy  Dy6  1  0.153108  0.149393  0.149393  1
  Dy  Dy7  1  0.310812  0.310616  0.692063  1
  Dy  Dy8  1  0.939779  0.560196  0.560196  1
  Dy  Dy9  1  0.561940  0.561101  0.937556  1
  Dy  Dy10  1  0.563282  0.937225  0.937225  1
  Dy  Dy11  1  0.939070  0.561942  0.937267  1
  Dy  Dy12  1  0.150276  0.553140  0.145880  1
  Dy  Dy13  1  0.310560  0.688848  0.688848  1
  Dy  Dy14  1  0.686722  0.309715  0.692439  1
  Dy  Dy15  1  0.548200  0.149213  0.149213  1
  Tl  Tl16  1  0.914364  0.915229  0.254989  1
  Tl  Tl17  1  0.254987  0.914855  0.914855  1
  Tl  Tl18  1  0.914364  0.254989  0.915229  1
  In  In19  1  0.915686  0.916360  0.916360  1
  Pt  Pt20  1  0.355718  0.357836  0.357836  1
  Pt  Pt21  1  0.928571  0.357869  0.357869  1
  Rh  Rh22  1  0.356937  0.358818  0.927400  1
  Rh  Rh23  1  0.356937  0.927400  0.358818  1
