# generated using pymatgen
data_ZrTa5NbCl18
_symmetry_space_group_name_H-M   'P 1'
_cell_length_a   10.07127606
_cell_length_b   10.08200783
_cell_length_c   10.10016814
_cell_angle_alpha   55.98332816
_cell_angle_beta   56.08983873
_cell_angle_gamma   56.09168869
_symmetry_Int_Tables_number   1
_chemical_formula_structural   ZrTa5NbCl18
_chemical_formula_sum   'Zr1 Ta5 Nb1 Cl18'
_cell_volume   658.91574907
_cell_formula_units_Z   1
loop_
 _symmetry_equiv_pos_site_id
 _symmetry_equiv_pos_as_xyz
  1  'x, y, z'
loop_
 _atom_site_type_symbol
 _atom_site_label
 _atom_site_symmetry_multiplicity
 _atom_site_fract_x
 _atom_site_fract_y
 _atom_site_fract_z
 _atom_site_occupancy
  Zr  Zr0  1  0.999963  0.999903  0.999999  1
  Ta  Ta1  1  0.408992  0.305273  0.647040  1
  Ta  Ta2  1  0.353187  0.590879  0.694389  1
  Ta  Ta3  1  0.695434  0.352955  0.590651  1
  Ta  Ta4  1  0.304774  0.647418  0.409050  1
  Ta  Ta5  1  0.647020  0.409507  0.305316  1
  Nb  Nb6  1  0.591574  0.696169  0.351936  1
  Cl  Cl7  1  0.567493  0.158791  0.443329  1
  Cl  Cl8  1  0.221372  0.370795  0.910854  1
  Cl  Cl9  1  0.910922  0.221332  0.371767  1
  Cl  Cl10  1  0.368095  0.912244  0.221064  1
  Cl  Cl11  1  0.779859  0.627187  0.087396  1
  Cl  Cl12  1  0.088937  0.778402  0.628453  1
  Cl  Cl13  1  0.719057  0.963276  0.149700  1
  Cl  Cl14  1  0.960308  0.151563  0.718497  1
  Cl  Cl15  1  0.151310  0.718068  0.960581  1
  Cl  Cl16  1  0.282273  0.040451  0.847718  1
  Cl  Cl17  1  0.039709  0.847452  0.281706  1
  Cl  Cl18  1  0.848724  0.281387  0.040037  1
  Cl  Cl19  1  0.557808  0.431784  0.840500  1
  Cl  Cl20  1  0.157980  0.442645  0.568194  1
  Cl  Cl21  1  0.442074  0.568022  0.159648  1
  Cl  Cl22  1  0.430326  0.841258  0.559739  1
  Cl  Cl23  1  0.843968  0.554582  0.433574  1
  Cl  Cl24  1  0.628841  0.088658  0.778860  1
