# generated using pymatgen
data_Zr9TiGaSiSn6
_symmetry_space_group_name_H-M   'P 1'
_cell_length_a   8.69916800
_cell_length_b   8.69916795
_cell_length_c   5.86369200
_cell_angle_alpha   90.00000000
_cell_angle_beta   90.00000000
_cell_angle_gamma   119.99999258
_symmetry_Int_Tables_number   1
_chemical_formula_structural   Zr9TiGaSiSn6
_chemical_formula_sum   'Zr9 Ti1 Ga1 Si1 Sn6'
_cell_volume   384.28837602
_cell_formula_units_Z   1
loop_
 _symmetry_equiv_pos_site_id
 _symmetry_equiv_pos_as_xyz
  1  'x, y, z'
loop_
 _atom_site_type_symbol
 _atom_site_label
 _atom_site_symmetry_multiplicity
 _atom_site_fract_x
 _atom_site_fract_y
 _atom_site_fract_z
 _atom_site_occupancy
  Zr  Zr0  1  0.333333  0.666667  0.000000  1
  Zr  Zr1  1  0.333333  0.666667  0.500000  1
  Zr  Zr2  1  0.666667  0.333333  0.500000  1
  Zr  Zr3  1  0.736835  0.737300  0.741828  1
  Zr  Zr4  1  0.262700  0.999535  0.741828  1
  Zr  Zr5  1  0.000465  0.263165  0.741828  1
  Zr  Zr6  1  0.262700  0.263165  0.258172  1
  Zr  Zr7  1  0.736835  0.999535  0.258172  1
  Zr  Zr8  1  0.000465  0.737300  0.258172  1
  Ti  Ti9  1  0.666667  0.333333  0.000000  1
  Ga  Ga10  1  0.000000  0.000000  0.000000  1
  Si  Si11  1  0.000000  0.000000  0.500000  1
  Sn  Sn12  1  0.394561  0.390046  0.757547  1
  Sn  Sn13  1  0.609954  0.004515  0.757547  1
  Sn  Sn14  1  0.995485  0.605439  0.757547  1
  Sn  Sn15  1  0.609954  0.605439  0.242453  1
  Sn  Sn16  1  0.394561  0.004515  0.242453  1
  Sn  Sn17  1  0.995485  0.390046  0.242453  1
