# generated using pymatgen
data_Pr16Sm4Si15Ru
_symmetry_space_group_name_H-M   'P 1'
_cell_length_a   7.89356711
_cell_length_b   7.88637427
_cell_length_c   15.21148702
_cell_angle_alpha   90.21868092
_cell_angle_beta   89.90799930
_cell_angle_gamma   90.12927224
_symmetry_Int_Tables_number   1
_chemical_formula_structural   Pr16Sm4Si15Ru
_chemical_formula_sum   'Pr16 Sm4 Si15 Ru1'
_cell_volume   946.92926370
_cell_formula_units_Z   1
loop_
 _symmetry_equiv_pos_site_id
 _symmetry_equiv_pos_as_xyz
  1  'x, y, z'
loop_
 _atom_site_type_symbol
 _atom_site_label
 _atom_site_symmetry_multiplicity
 _atom_site_fract_x
 _atom_site_fract_y
 _atom_site_fract_z
 _atom_site_occupancy
  Pr  Pr0  1  0.372184  0.011460  0.449915  1
  Pr  Pr1  1  0.487919  0.878451  0.697515  1
  Pr  Pr2  1  0.510819  0.123847  0.198165  1
  Pr  Pr3  1  0.875474  0.488116  0.300674  1
  Pr  Pr4  1  0.126757  0.504403  0.798430  1
  Pr  Pr5  1  0.626001  0.988696  0.948272  1
  Pr  Pr6  1  0.006369  0.377040  0.552227  1
  Pr  Pr7  1  0.987941  0.625247  0.050874  1
  Pr  Pr8  1  0.133797  0.984458  0.872687  1
  Pr  Pr9  1  0.517710  0.630350  0.126350  1
  Pr  Pr10  1  0.471484  0.359959  0.629291  1
  Pr  Pr11  1  0.627632  0.515756  0.873790  1
  Pr  Pr12  1  0.374314  0.483048  0.373445  1
  Pr  Pr13  1  0.873602  0.021521  0.377197  1
  Pr  Pr14  1  0.981414  0.126865  0.123959  1
  Pr  Pr15  1  0.027460  0.882686  0.626510  1
  Sm  Sm16  1  0.306214  0.306783  0.998199  1
  Sm  Sm17  1  0.190366  0.809201  0.249988  1
  Sm  Sm18  1  0.822654  0.188836  0.749225  1
  Sm  Sm19  1  0.694036  0.689215  0.501876  1
  Si  Si20  1  0.331988  0.692606  0.951671  1
  Si  Si21  1  0.665226  0.304960  0.452956  1
  Si  Si22  1  0.695183  0.333546  0.049037  1
  Si  Si23  1  0.306065  0.668909  0.546916  1
  Si  Si24  1  0.807676  0.831302  0.204292  1
  Si  Si25  1  0.169047  0.195662  0.297003  1
  Si  Si26  1  0.832324  0.803655  0.798929  1
  Si  Si27  1  0.287617  0.922569  0.059650  1
  Si  Si28  1  0.579204  0.787100  0.311947  1
  Si  Si29  1  0.425022  0.208332  0.812872  1
  Si  Si30  1  0.779009  0.582166  0.689484  1
  Si  Si31  1  0.212650  0.423012  0.188829  1
  Si  Si32  1  0.705816  0.073192  0.559837  1
  Si  Si33  1  0.920969  0.286878  0.940305  1
  Si  Si34  1  0.078842  0.716254  0.439769  1
  Ru  Ru35  1  0.189219  0.173919  0.697917  1
