# generated using pymatgen
data_Ca3YPd4
_symmetry_space_group_name_H-M   'P 1'
_cell_length_a   4.43267300
_cell_length_b   5.77215261
_cell_length_c   7.34016646
_cell_angle_alpha   89.26634502
_cell_angle_beta   90.00000000
_cell_angle_gamma   90.00000000
_symmetry_Int_Tables_number   1
_chemical_formula_structural   Ca3YPd4
_chemical_formula_sum   'Ca3 Y1 Pd4'
_cell_volume   187.79058025
_cell_formula_units_Z   1
loop_
 _symmetry_equiv_pos_site_id
 _symmetry_equiv_pos_as_xyz
  1  'x, y, z'
loop_
 _atom_site_type_symbol
 _atom_site_label
 _atom_site_symmetry_multiplicity
 _atom_site_fract_x
 _atom_site_fract_y
 _atom_site_fract_z
 _atom_site_occupancy
  Ca  Ca0  1  0.250000  0.360998  0.681190  1
  Ca  Ca1  1  0.250000  0.137727  0.182958  1
  Ca  Ca2  1  0.750000  0.639939  0.317011  1
  Y  Y3  1  0.750000  0.864363  0.816997  1
  Pd  Pd4  1  0.250000  0.856132  0.553079  1
  Pd  Pd5  1  0.250000  0.651296  0.020631  1
  Pd  Pd6  1  0.750000  0.137543  0.468999  1
  Pd  Pd7  1  0.750000  0.352003  0.959135  1
