# generated using pymatgen
data_Mg2P7Ru12
_symmetry_space_group_name_H-M   'P 1'
_cell_length_a   9.41876579
_cell_length_b   9.41149705
_cell_length_c   3.88629600
_cell_angle_alpha   90.00000000
_cell_angle_beta   90.00000000
_cell_angle_gamma   119.94800882
_symmetry_Int_Tables_number   1
_chemical_formula_structural   Mg2P7Ru12
_chemical_formula_sum   'Mg2 P7 Ru12'
_cell_volume   298.50148958
_cell_formula_units_Z   1
loop_
 _symmetry_equiv_pos_site_id
 _symmetry_equiv_pos_as_xyz
  1  'x, y, z'
loop_
 _atom_site_type_symbol
 _atom_site_label
 _atom_site_symmetry_multiplicity
 _atom_site_fract_x
 _atom_site_fract_y
 _atom_site_fract_z
 _atom_site_occupancy
  Mg  Mg0  1  0.333341  0.666679  0.000000  1
  Mg  Mg1  1  0.666407  0.333233  0.500000  1
  P  P2  1  0.000041  0.000063  0.000000  1
  P  P3  1  0.693489  0.102417  0.000000  1
  P  P4  1  0.408862  0.306581  0.000000  1
  P  P5  1  0.897695  0.591317  0.000000  1
  P  P6  1  0.112753  0.400443  0.500000  1
  P  P7  1  0.599546  0.712276  0.500000  1
  P  P8  1  0.287703  0.887059  0.500000  1
  Ru  Ru9  1  0.439536  0.081394  0.000000  1
  Ru  Ru10  1  0.151377  0.274451  0.000000  1
  Ru  Ru11  1  0.918425  0.358122  0.000000  1
  Ru  Ru12  1  0.641886  0.560457  0.000000  1
  Ru  Ru13  1  0.123125  0.848605  0.000000  1
  Ru  Ru14  1  0.725764  0.877074  0.000000  1
  Ru  Ru15  1  0.210538  0.089585  0.500000  1
  Ru  Ru16  1  0.910410  0.120923  0.500000  1
  Ru  Ru17  1  0.389215  0.446972  0.500000  1
  Ru  Ru18  1  0.057735  0.610766  0.500000  1
  Ru  Ru19  1  0.879086  0.789416  0.500000  1
  Ru  Ru20  1  0.553042  0.942198  0.500000  1
