# generated using pymatgen
data_Sr6ErTmBi6
_symmetry_space_group_name_H-M   'P 1'
_cell_length_a   8.58813314
_cell_length_b   8.73515468
_cell_length_c   8.58673118
_cell_angle_alpha   109.74247793
_cell_angle_beta   108.84432720
_cell_angle_gamma   109.78368512
_symmetry_Int_Tables_number   1
_chemical_formula_structural   Sr6ErTmBi6
_chemical_formula_sum   'Sr6 Er1 Tm1 Bi6'
_cell_volume   496.11073427
_cell_formula_units_Z   1
loop_
 _symmetry_equiv_pos_site_id
 _symmetry_equiv_pos_as_xyz
  1  'x, y, z'
loop_
 _atom_site_type_symbol
 _atom_site_label
 _atom_site_symmetry_multiplicity
 _atom_site_fract_x
 _atom_site_fract_y
 _atom_site_fract_z
 _atom_site_occupancy
  Sr  Sr0  1  0.359482  0.354977  0.356842  1
  Sr  Sr1  1  0.999954  0.139682  0.497534  1
  Sr  Sr2  1  0.856905  0.854745  0.859479  1
  Sr  Sr3  1  0.997331  0.639506  0.499933  1
  Sr  Sr4  1  0.504515  0.004213  0.139052  1
  Sr  Sr5  1  0.639050  0.504351  0.004604  1
  Er  Er6  1  0.502211  0.004430  0.640833  1
  Tm  Tm7  1  0.140333  0.504270  0.002172  1
  Bi  Bi8  1  0.877443  0.253880  0.103633  1
  Bi  Bi9  1  0.140323  0.864727  0.255926  1
  Bi  Bi10  1  0.369925  0.628246  0.752348  1
  Bi  Bi11  1  0.252068  0.128364  0.869996  1
  Bi  Bi12  1  0.757003  0.365508  0.640978  1
  Bi  Bi13  1  0.603459  0.753101  0.376669  1
