# generated using pymatgen
data_Pr6Zn(SiS7)2
_symmetry_space_group_name_H-M   'P 1'
_cell_length_a   10.27320800
_cell_length_b   10.27320891
_cell_length_c   5.76215800
_cell_angle_alpha   90.00000000
_cell_angle_beta   90.00000000
_cell_angle_gamma   120.00000996
_symmetry_Int_Tables_number   1
_chemical_formula_structural   Pr6Zn(SiS7)2
_chemical_formula_sum   'Pr6 Zn1 Si2 S14'
_cell_volume   526.65711004
_cell_formula_units_Z   1
loop_
 _symmetry_equiv_pos_site_id
 _symmetry_equiv_pos_as_xyz
  1  'x, y, z'
loop_
 _atom_site_type_symbol
 _atom_site_label
 _atom_site_symmetry_multiplicity
 _atom_site_fract_x
 _atom_site_fract_y
 _atom_site_fract_z
 _atom_site_occupancy
  Pr  Pr0  1  0.310495  0.100524  0.750010  1
  Pr  Pr1  1  0.790028  0.689505  0.750010  1
  Pr  Pr2  1  0.899476  0.209972  0.750010  1
  Pr  Pr3  1  0.023353  0.565905  0.247357  1
  Pr  Pr4  1  0.542552  0.976647  0.247357  1
  Pr  Pr5  1  0.434095  0.457448  0.247357  1
  Zn  Zn6  1  0.666667  0.333333  0.508391  1
  Si  Si7  1  0.000000  0.000000  0.164397  1
  Si  Si8  1  0.333333  0.666667  0.659307  1
  S  S9  1  0.000000  0.000000  0.530277  1
  S  S10  1  0.333333  0.666667  0.025785  1
  S  S11  1  0.421923  0.174122  0.276973  1
  S  S12  1  0.752199  0.578077  0.276973  1
  S  S13  1  0.825878  0.247801  0.276973  1
  S  S14  1  0.912694  0.495790  0.753387  1
  S  S15  1  0.583095  0.087306  0.753387  1
  S  S16  1  0.504210  0.416905  0.753387  1
  S  S17  1  0.143697  0.219757  0.020813  1
  S  S18  1  0.076058  0.856303  0.020813  1
  S  S19  1  0.780243  0.923942  0.020813  1
  S  S20  1  0.190252  0.446685  0.516749  1
  S  S21  1  0.256434  0.809748  0.516749  1
  S  S22  1  0.553315  0.743566  0.516749  1
