# generated using pymatgen
data_Rb2NaCrO4
_symmetry_space_group_name_H-M   'P 1'
_cell_length_a   6.12180200
_cell_length_b   6.07931560
_cell_length_c   7.99226445
_cell_angle_alpha   86.62821311
_cell_angle_beta   90.00000000
_cell_angle_gamma   90.00000000
_symmetry_Int_Tables_number   1
_chemical_formula_structural   Rb2NaCrO4
_chemical_formula_sum   'Rb4 Na2 Cr2 O8'
_cell_volume   296.92814160
_cell_formula_units_Z   2
loop_
 _symmetry_equiv_pos_site_id
 _symmetry_equiv_pos_as_xyz
  1  'x, y, z'
loop_
 _atom_site_type_symbol
 _atom_site_label
 _atom_site_symmetry_multiplicity
 _atom_site_fract_x
 _atom_site_fract_y
 _atom_site_fract_z
 _atom_site_occupancy
  Rb  Rb0  1  0.750000  0.117466  0.826993  1
  Rb  Rb1  1  0.250000  0.882534  0.173007  1
  Rb  Rb2  1  0.250000  0.306045  0.481524  1
  Rb  Rb3  1  0.750000  0.693955  0.518476  1
  Na  Na4  1  0.750000  0.614313  0.032489  1
  Na  Na5  1  0.250000  0.385687  0.967511  1
  Cr  Cr6  1  0.250000  0.807909  0.744112  1
  Cr  Cr7  1  0.750000  0.192091  0.255888  1
  O  O8  1  0.520271  0.327309  0.172811  1
  O  O9  1  0.020271  0.672691  0.827188  1
  O  O10  1  0.479729  0.672691  0.827188  1
  O  O11  1  0.979729  0.327309  0.172811  1
  O  O12  1  0.750000  0.209148  0.470082  1
  O  O13  1  0.750000  0.926387  0.188852  1
  O  O14  1  0.250000  0.790852  0.529918  1
  O  O15  1  0.250000  0.073613  0.811148  1
