# generated using pymatgen
data_Dy3Ho17Ir7Ru5
_symmetry_space_group_name_H-M   'P 1'
_cell_length_a   10.79969669
_cell_length_b   10.79900923
_cell_length_c   6.38420302
_cell_angle_alpha   89.95968429
_cell_angle_beta   89.97077825
_cell_angle_gamma   90.03621261
_symmetry_Int_Tables_number   1
_chemical_formula_structural   Dy3Ho17Ir7Ru5
_chemical_formula_sum   'Dy3 Ho17 Ir7 Ru5'
_cell_volume   744.56378626
_cell_formula_units_Z   1
loop_
 _symmetry_equiv_pos_site_id
 _symmetry_equiv_pos_as_xyz
  1  'x, y, z'
loop_
 _atom_site_type_symbol
 _atom_site_label
 _atom_site_symmetry_multiplicity
 _atom_site_fract_x
 _atom_site_fract_y
 _atom_site_fract_z
 _atom_site_occupancy
  Dy  Dy0  1  0.293463  0.086427  0.378038  1
  Dy  Dy1  1  0.292861  0.913391  0.878157  1
  Dy  Dy2  1  0.707358  0.086759  0.878477  1
  Ho  Ho3  1  0.706884  0.913762  0.377412  1
  Ho  Ho4  1  0.586504  0.793495  0.878242  1
  Ho  Ho5  1  0.587236  0.206712  0.378427  1
  Ho  Ho6  1  0.413626  0.793383  0.378146  1
  Ho  Ho7  1  0.413398  0.206464  0.877599  1
  Ho  Ho8  1  0.206348  0.413612  0.621832  1
  Ho  Ho9  1  0.206444  0.586452  0.121887  1
  Ho  Ho10  1  0.793399  0.412868  0.121623  1
  Ho  Ho11  1  0.793737  0.586610  0.622454  1
  Ho  Ho12  1  0.913652  0.706372  0.121767  1
  Ho  Ho13  1  0.913353  0.292907  0.621402  1
  Ho  Ho14  1  0.086389  0.706894  0.621678  1
  Ho  Ho15  1  0.086103  0.293199  0.122532  1
  Ho  Ho16  1  0.999455  0.000910  0.499454  1
  Ho  Ho17  1  0.999018  0.000417  0.000632  1
  Ho  Ho18  1  0.500155  0.500098  0.000149  1
  Ho  Ho19  1  0.499932  0.499871  0.499867  1
  Ir  Ir20  1  0.846916  0.846411  0.749689  1
  Ir  Ir21  1  0.153263  0.153351  0.750462  1
  Ir  Ir22  1  0.152916  0.846691  0.250254  1
  Ir  Ir23  1  0.652071  0.348059  0.749895  1
  Ir  Ir24  1  0.653003  0.652720  0.249781  1
  Ir  Ir25  1  0.347329  0.347205  0.250126  1
  Ir  Ir26  1  0.347412  0.652466  0.749885  1
  Ru  Ru27  1  0.847732  0.152405  0.250233  1
  Ru  Ru28  1  0.500260  0.000173  0.122011  1
  Ru  Ru29  1  0.499994  0.999952  0.621791  1
  Ru  Ru30  1  0.999998  0.500131  0.878006  1
  Ru  Ru31  1  0.999792  0.499834  0.378091  1
