# generated using pymatgen
data_LaNdFe2(TeO6)2
_symmetry_space_group_name_H-M   'P 1'
_cell_length_a   5.25920500
_cell_length_b   5.25909541
_cell_length_c   10.33485700
_cell_angle_alpha   90.00139962
_cell_angle_beta   89.99959427
_cell_angle_gamma   119.99983058
_symmetry_Int_Tables_number   1
_chemical_formula_structural   LaNdFe2(TeO6)2
_chemical_formula_sum   'La1 Nd1 Fe2 Te2 O12'
_cell_volume   247.55231626
_cell_formula_units_Z   1
loop_
 _symmetry_equiv_pos_site_id
 _symmetry_equiv_pos_as_xyz
  1  'x, y, z'
loop_
 _atom_site_type_symbol
 _atom_site_label
 _atom_site_symmetry_multiplicity
 _atom_site_fract_x
 _atom_site_fract_y
 _atom_site_fract_z
 _atom_site_occupancy
  La  La0  1  0.000000  0.000000  0.500000  1
  Nd  Nd1  1  0.000000  0.000000  0.000000  1
  Fe  Fe2  1  0.333290  0.666636  0.248636  1
  Fe  Fe3  1  0.666710  0.333364  0.751364  1
  Te  Te4  1  0.333377  0.666688  0.752138  1
  Te  Te5  1  0.666623  0.333312  0.247862  1
  O  O6  1  0.372979  0.359791  0.141998  1
  O  O7  1  0.640129  0.013172  0.141992  1
  O  O8  1  0.986751  0.626940  0.141993  1
  O  O9  1  0.627021  0.640209  0.858002  1
  O  O10  1  0.359871  0.986828  0.858008  1
  O  O11  1  0.013249  0.373060  0.858007  1
  O  O12  1  0.633776  0.621160  0.355261  1
  O  O13  1  0.378774  0.012617  0.355254  1
  O  O14  1  0.987308  0.366157  0.355260  1
  O  O15  1  0.366224  0.378840  0.644739  1
  O  O16  1  0.621226  0.987383  0.644746  1
  O  O17  1  0.012692  0.633843  0.644740  1
