# generated using pymatgen
data_Sm2U2Ga12Pd
_symmetry_space_group_name_H-M   'P 1'
_cell_length_a   7.50565642
_cell_length_b   7.51159278
_cell_length_c   7.52705451
_cell_angle_alpha   109.34207791
_cell_angle_beta   109.31945138
_cell_angle_gamma   109.65535239
_symmetry_Int_Tables_number   1
_chemical_formula_structural   Sm2U2Ga12Pd
_chemical_formula_sum   'Sm2 U2 Ga12 Pd1'
_cell_volume   327.06797552
_cell_formula_units_Z   1
loop_
 _symmetry_equiv_pos_site_id
 _symmetry_equiv_pos_as_xyz
  1  'x, y, z'
loop_
 _atom_site_type_symbol
 _atom_site_label
 _atom_site_symmetry_multiplicity
 _atom_site_fract_x
 _atom_site_fract_y
 _atom_site_fract_z
 _atom_site_occupancy
  Sm  Sm0  1  0.500000  0.500000  0.500000  1
  Sm  Sm1  1  0.000000  0.000000  0.500000  1
  U  U2  1  0.000000  0.500000  0.000000  1
  U  U3  1  0.500000  0.000000  0.000000  1
  Ga  Ga4  1  0.251399  0.504504  0.755960  1
  Ga  Ga5  1  0.005802  0.703938  0.709778  1
  Ga  Ga6  1  0.296547  0.296544  0.000001  1
  Ga  Ga7  1  0.495464  0.748529  0.244027  1
  Ga  Ga8  1  0.750059  0.250028  0.500041  1
  Ga  Ga9  1  0.748601  0.495496  0.244040  1
  Ga  Ga10  1  0.249941  0.749972  0.499959  1
  Ga  Ga11  1  0.703996  0.005837  0.709785  1
  Ga  Ga12  1  0.504536  0.251471  0.755973  1
  Ga  Ga13  1  0.994198  0.296062  0.290222  1
  Ga  Ga14  1  0.296004  0.994163  0.290215  1
  Ga  Ga15  1  0.703453  0.703456  0.999999  1
  Pd  Pd16  1  0.000000  0.000000  0.000000  1
