# generated using pymatgen
data_Yb7Ho(Lu3Pt4)4
_symmetry_space_group_name_H-M   'P 1'
_cell_length_a   7.41607534
_cell_length_b   7.51328123
_cell_length_c   14.46884877
_cell_angle_alpha   90.07037234
_cell_angle_beta   89.95699991
_cell_angle_gamma   89.94623790
_symmetry_Int_Tables_number   1
_chemical_formula_structural   Yb7Ho(Lu3Pt4)4
_chemical_formula_sum   'Yb7 Ho1 Lu12 Pt16'
_cell_volume   806.18945725
_cell_formula_units_Z   1
loop_
 _symmetry_equiv_pos_site_id
 _symmetry_equiv_pos_as_xyz
  1  'x, y, z'
loop_
 _atom_site_type_symbol
 _atom_site_label
 _atom_site_symmetry_multiplicity
 _atom_site_fract_x
 _atom_site_fract_y
 _atom_site_fract_z
 _atom_site_occupancy
  Yb  Yb0  1  0.499797  0.679995  0.592757  1
  Yb  Yb1  1  0.999126  0.820421  0.907096  1
  Yb  Yb2  1  0.500620  0.320234  0.092945  1
  Yb  Yb3  1  0.000449  0.179622  0.407076  1
  Yb  Yb4  1  0.500737  0.320440  0.406804  1
  Yb  Yb5  1  0.000838  0.179596  0.092769  1
  Yb  Yb6  1  0.499972  0.679784  0.907601  1
  Ho  Ho7  1  0.001637  0.818692  0.593765  1
  Lu  Lu8  1  0.655601  0.165858  0.622926  1
  Lu  Lu9  1  0.155640  0.333886  0.877537  1
  Lu  Lu10  1  0.344327  0.834448  0.122743  1
  Lu  Lu11  1  0.843853  0.665160  0.376723  1
  Lu  Lu12  1  0.344408  0.834390  0.377299  1
  Lu  Lu13  1  0.844388  0.665753  0.122558  1
  Lu  Lu14  1  0.655449  0.165470  0.877363  1
  Lu  Lu15  1  0.155453  0.333525  0.622408  1
  Lu  Lu16  1  0.818329  0.509650  0.750508  1
  Lu  Lu17  1  0.319572  0.990277  0.750398  1
  Lu  Lu18  1  0.181009  0.489871  0.249736  1
  Lu  Lu19  1  0.681108  0.010266  0.250032  1
  Pt  Pt20  1  0.680912  0.961621  0.456653  1
  Pt  Pt21  1  0.177116  0.537745  0.045390  1
  Pt  Pt22  1  0.322994  0.037737  0.954506  1
  Pt  Pt23  1  0.824452  0.465989  0.546004  1
  Pt  Pt24  1  0.318259  0.033159  0.545661  1
  Pt  Pt25  1  0.823356  0.462139  0.954336  1
  Pt  Pt26  1  0.677031  0.962331  0.045523  1
  Pt  Pt27  1  0.175578  0.541201  0.455874  1
  Pt  Pt28  1  0.454228  0.378717  0.750502  1
  Pt  Pt29  1  0.955740  0.121208  0.748944  1
  Pt  Pt30  1  0.544137  0.622066  0.249649  1
  Pt  Pt31  1  0.044624  0.877602  0.249877  1
  Pt  Pt32  1  0.684341  0.862608  0.748794  1
  Pt  Pt33  1  0.181637  0.638652  0.747674  1
  Pt  Pt34  1  0.316833  0.136364  0.249956  1
  Pt  Pt35  1  0.816451  0.363525  0.249615  1
