# generated using pymatgen
data_Sc4P4Pt3Rh
_symmetry_space_group_name_H-M   'P 1'
_cell_length_a   3.85239900
_cell_length_b   6.59675309
_cell_length_c   7.47080719
_cell_angle_alpha   90.37244960
_cell_angle_beta   90.00000000
_cell_angle_gamma   90.00000000
_symmetry_Int_Tables_number   1
_chemical_formula_structural   Sc4P4Pt3Rh
_chemical_formula_sum   'Sc4 P4 Pt3 Rh1'
_cell_volume   189.85403970
_cell_formula_units_Z   1
loop_
 _symmetry_equiv_pos_site_id
 _symmetry_equiv_pos_as_xyz
  1  'x, y, z'
loop_
 _atom_site_type_symbol
 _atom_site_label
 _atom_site_symmetry_multiplicity
 _atom_site_fract_x
 _atom_site_fract_y
 _atom_site_fract_z
 _atom_site_occupancy
  Sc  Sc0  1  0.250000  0.033005  0.181239  1
  Sc  Sc1  1  0.250000  0.529008  0.319024  1
  Sc  Sc2  1  0.750000  0.466206  0.680771  1
  Sc  Sc3  1  0.750000  0.969688  0.820618  1
  P  P4  1  0.750000  0.744106  0.124710  1
  P  P5  1  0.750000  0.252158  0.367067  1
  P  P6  1  0.250000  0.748768  0.625805  1
  P  P7  1  0.250000  0.251450  0.883038  1
  Pt  Pt8  1  0.750000  0.842407  0.439084  1
  Pt  Pt9  1  0.250000  0.157842  0.564327  1
  Pt  Pt10  1  0.250000  0.654975  0.938467  1
  Rh  Rh11  1  0.750000  0.350385  0.055851  1
