# generated using pymatgen
data_TeP4OsO14
_symmetry_space_group_name_H-M   'P 1'
_cell_length_a   8.40895047
_cell_length_b   4.94864829
_cell_length_c   7.12210900
_cell_angle_alpha   74.22848152
_cell_angle_beta   90.57772690
_cell_angle_gamma   89.74397407
_symmetry_Int_Tables_number   1
_chemical_formula_structural   TeP4OsO14
_chemical_formula_sum   'Te1 P4 Os1 O14'
_cell_volume   285.19193504
_cell_formula_units_Z   1
loop_
 _symmetry_equiv_pos_site_id
 _symmetry_equiv_pos_as_xyz
  1  'x, y, z'
loop_
 _atom_site_type_symbol
 _atom_site_label
 _atom_site_symmetry_multiplicity
 _atom_site_fract_x
 _atom_site_fract_y
 _atom_site_fract_z
 _atom_site_occupancy
  Te  Te0  1  0.006547  0.780957  0.730822  1
  P  P1  1  0.254843  0.228082  0.893354  1
  P  P2  1  0.815999  0.386419  0.476316  1
  P  P3  1  0.711530  0.772686  0.106481  1
  P  P4  1  0.323227  0.614461  0.516551  1
  Os  Os5  1  0.500363  0.218775  0.282901  1
  O  O6  1  0.832781  0.569465  0.619442  1
  O  O7  1  0.793032  0.863435  0.912673  1
  O  O8  1  0.098144  0.387896  0.906661  1
  O  O9  1  0.366380  0.442902  0.737058  1
  O  O10  1  0.225442  0.972087  0.817650  1
  O  O11  1  0.841069  0.581700  0.258385  1
  O  O12  1  0.944494  0.159183  0.503801  1
  O  O13  1  0.325346  0.412180  0.387033  1
  O  O14  1  0.676613  0.029297  0.183616  1
  O  O15  1  0.644100  0.276836  0.494906  1
  O  O16  1  0.345940  0.146118  0.084921  1
  O  O17  1  0.148221  0.721313  0.511967  1
  O  O18  1  0.562258  0.590650  0.105709  1
  O  O19  1  0.446276  0.845557  0.469753  1
