# generated using pymatgen
data_Sr4TiFe(IrO6)2
_symmetry_space_group_name_H-M   'P 1'
_cell_length_a   5.61695361
_cell_length_b   5.59630763
_cell_length_c   9.71999077
_cell_angle_alpha   89.94704017
_cell_angle_beta   125.27040735
_cell_angle_gamma   90.02132868
_symmetry_Int_Tables_number   1
_chemical_formula_structural   Sr4TiFe(IrO6)2
_chemical_formula_sum   'Sr4 Ti1 Fe1 Ir2 O12'
_cell_volume   249.45383695
_cell_formula_units_Z   1
loop_
 _symmetry_equiv_pos_site_id
 _symmetry_equiv_pos_as_xyz
  1  'x, y, z'
loop_
 _atom_site_type_symbol
 _atom_site_label
 _atom_site_symmetry_multiplicity
 _atom_site_fract_x
 _atom_site_fract_y
 _atom_site_fract_z
 _atom_site_occupancy
  Sr  Sr0  1  0.248881  0.010819  0.247582  1
  Sr  Sr1  1  0.746521  0.511326  0.247634  1
  Sr  Sr2  1  0.253479  0.488675  0.752366  1
  Sr  Sr3  1  0.751120  0.989180  0.752418  1
  Ti  Ti4  1  0.499999  0.500001  0.500000  1
  Fe  Fe5  1  0.500001  0.000000  0.000000  1
  Ir  Ir6  1  0.000000  0.500001  0.000000  1
  Ir  Ir7  1  0.000000  0.000000  0.500000  1
  O  O8  1  0.289547  0.272676  0.019629  1
  O  O9  1  0.246553  0.770084  0.019658  1
  O  O10  1  0.790666  0.997269  0.252099  1
  O  O11  1  0.215882  0.497436  0.252536  1
  O  O12  1  0.748788  0.272370  0.481244  1
  O  O13  1  0.708630  0.767703  0.481246  1
  O  O14  1  0.291371  0.232298  0.518754  1
  O  O15  1  0.251213  0.727629  0.518756  1
  O  O16  1  0.784118  0.502564  0.747464  1
  O  O17  1  0.209335  0.002732  0.747901  1
  O  O18  1  0.753445  0.229916  0.980342  1
  O  O19  1  0.710452  0.727324  0.980371  1
