# generated using pymatgen
data_HoEr3Si4RuRh3
_symmetry_space_group_name_H-M   'P 1'
_cell_length_a   4.26978800
_cell_length_b   6.88782547
_cell_length_c   7.27654413
_cell_angle_alpha   89.96220135
_cell_angle_beta   90.00000000
_cell_angle_gamma   90.00000000
_symmetry_Int_Tables_number   1
_chemical_formula_structural   HoEr3Si4RuRh3
_chemical_formula_sum   'Ho1 Er3 Si4 Ru1 Rh3'
_cell_volume   213.99987492
_cell_formula_units_Z   1
loop_
 _symmetry_equiv_pos_site_id
 _symmetry_equiv_pos_as_xyz
  1  'x, y, z'
loop_
 _atom_site_type_symbol
 _atom_site_label
 _atom_site_symmetry_multiplicity
 _atom_site_fract_x
 _atom_site_fract_y
 _atom_site_fract_z
 _atom_site_occupancy
  Ho  Ho0  1  0.750000  0.507142  0.311564  1
  Er  Er1  1  0.250000  0.494794  0.690222  1
  Er  Er2  1  0.250000  0.996660  0.812419  1
  Er  Er3  1  0.750000  0.002412  0.187133  1
  Si  Si4  1  0.250000  0.296694  0.107234  1
  Si  Si5  1  0.750000  0.703979  0.887843  1
  Si  Si6  1  0.250000  0.798017  0.400674  1
  Si  Si7  1  0.750000  0.200512  0.604111  1
  Ru  Ru8  1  0.750000  0.846196  0.566953  1
  Rh  Rh9  1  0.250000  0.155576  0.431764  1
  Rh  Rh10  1  0.750000  0.342396  0.930844  1
  Rh  Rh11  1  0.250000  0.655623  0.069242  1
