# generated using pymatgen
data_HoThSc2(Al3Ir)6
_symmetry_space_group_name_H-M   'P 1'
_cell_length_a   7.54326402
_cell_length_b   7.55090257
_cell_length_c   9.40447500
_cell_angle_alpha   90.00000000
_cell_angle_beta   90.00000000
_cell_angle_gamma   119.56066348
_symmetry_Int_Tables_number   1
_chemical_formula_structural   HoThSc2(Al3Ir)6
_chemical_formula_sum   'Ho1 Th1 Sc2 Al18 Ir6'
_cell_volume   465.93896566
_cell_formula_units_Z   1
loop_
 _symmetry_equiv_pos_site_id
 _symmetry_equiv_pos_as_xyz
  1  'x, y, z'
loop_
 _atom_site_type_symbol
 _atom_site_label
 _atom_site_symmetry_multiplicity
 _atom_site_fract_x
 _atom_site_fract_y
 _atom_site_fract_z
 _atom_site_occupancy
  Ho  Ho0  1  0.672495  0.994709  0.250000  1
  Th  Th1  1  0.994252  0.671090  0.250000  1
  Sc  Sc2  1  0.003013  0.328406  0.750000  1
  Sc  Sc3  1  0.326746  0.003731  0.750000  1
  Al  Al4  1  0.132420  0.134834  0.250000  1
  Al  Al5  1  0.876697  0.878983  0.750000  1
  Al  Al6  1  0.002134  0.331150  0.068033  1
  Al  Al7  1  0.002785  0.664391  0.912954  1
  Al  Al8  1  0.002785  0.664391  0.587046  1
  Al  Al9  1  0.339825  0.005576  0.431959  1
  Al  Al10  1  0.002134  0.331150  0.431967  1
  Al  Al11  1  0.664716  0.003465  0.581897  1
  Al  Al12  1  0.664716  0.003465  0.918103  1
  Al  Al13  1  0.339825  0.005576  0.068041  1
  Al  Al14  1  0.329484  0.329565  0.563457  1
  Al  Al15  1  0.662257  0.665831  0.457486  1
  Al  Al16  1  0.662257  0.665831  0.042514  1
  Al  Al17  1  0.329484  0.329565  0.936543  1
  Al  Al18  1  0.344065  0.547723  0.250000  1
  Al  Al19  1  0.657809  0.444469  0.750000  1
  Al  Al20  1  0.542844  0.335646  0.250000  1
  Al  Al21  1  0.445548  0.660362  0.750000  1
  Ir  Ir22  1  0.673487  0.329464  0.999410  1
  Ir  Ir23  1  0.326729  0.671803  0.999374  1
  Ir  Ir24  1  0.326729  0.671803  0.500626  1
  Ir  Ir25  1  0.673487  0.329464  0.500590  1
  Ir  Ir26  1  0.000638  0.998778  0.999760  1
  Ir  Ir27  1  0.000638  0.998778  0.500240  1
