# generated using pymatgen
data_La4Ni2Hg3
_symmetry_space_group_name_H-M   'P 1'
_cell_length_a   3.79853700
_cell_length_b   7.67254720
_cell_length_c   8.30286420
_cell_angle_alpha   107.54433379
_cell_angle_beta   90.00000000
_cell_angle_gamma   90.00000000
_symmetry_Int_Tables_number   1
_chemical_formula_structural   La4Ni2Hg3
_chemical_formula_sum   'La4 Ni2 Hg3'
_cell_volume   230.72638889
_cell_formula_units_Z   1
loop_
 _symmetry_equiv_pos_site_id
 _symmetry_equiv_pos_as_xyz
  1  'x, y, z'
loop_
 _atom_site_type_symbol
 _atom_site_label
 _atom_site_symmetry_multiplicity
 _atom_site_fract_x
 _atom_site_fract_y
 _atom_site_fract_z
 _atom_site_occupancy
  La  La0  1  0.500000  0.914280  0.782728  1
  La  La1  1  0.500000  0.085720  0.217272  1
  La  La2  1  0.500000  0.392379  0.690243  1
  La  La3  1  0.500000  0.607621  0.309757  1
  Ni  Ni4  1  0.000000  0.653422  0.607512  1
  Ni  Ni5  1  0.000000  0.346578  0.392488  1
  Hg  Hg6  1  0.000000  0.700146  0.993188  1
  Hg  Hg7  1  0.000000  0.299854  0.006812  1
  Hg  Hg8  1  0.000000  0.000000  0.500000  1
