# generated using pymatgen
data_Nd3ThPd4
_symmetry_space_group_name_H-M   'P 1'
_cell_length_a   7.27740965
_cell_length_b   4.72359300
_cell_length_c   5.73959907
_cell_angle_alpha   90.00000000
_cell_angle_beta   88.88633575
_cell_angle_gamma   90.00000000
_symmetry_Int_Tables_number   1
_chemical_formula_structural   Nd3ThPd4
_chemical_formula_sum   'Nd3 Th1 Pd4'
_cell_volume   197.26444088
_cell_formula_units_Z   1
loop_
 _symmetry_equiv_pos_site_id
 _symmetry_equiv_pos_as_xyz
  1  'x, y, z'
loop_
 _atom_site_type_symbol
 _atom_site_label
 _atom_site_symmetry_multiplicity
 _atom_site_fract_x
 _atom_site_fract_y
 _atom_site_fract_z
 _atom_site_occupancy
  Nd  Nd0  1  0.183300  0.250001  0.140969  1
  Nd  Nd1  1  0.681480  0.250001  0.359831  1
  Nd  Nd2  1  0.315708  0.750000  0.641446  1
  Th  Th3  1  0.818104  0.750000  0.858688  1
  Pd  Pd4  1  0.463064  0.750000  0.142816  1
  Pd  Pd5  1  0.952540  0.750000  0.347598  1
  Pd  Pd6  1  0.032492  0.250001  0.655717  1
  Pd  Pd7  1  0.553313  0.250001  0.852935  1
