# generated using pymatgen
data_AlZnGeMo9
_symmetry_space_group_name_H-M   'P 1'
_cell_length_a   4.97650600
_cell_length_b   4.97051200
_cell_length_c   14.85367900
_cell_angle_alpha   90.00000000
_cell_angle_beta   90.00000000
_cell_angle_gamma   90.00000000
_symmetry_Int_Tables_number   1
_chemical_formula_structural   AlZnGeMo9
_chemical_formula_sum   'Al2 Zn2 Ge2 Mo18'
_cell_volume   367.41737739
_cell_formula_units_Z   2
loop_
 _symmetry_equiv_pos_site_id
 _symmetry_equiv_pos_as_xyz
  1  'x, y, z'
loop_
 _atom_site_type_symbol
 _atom_site_label
 _atom_site_symmetry_multiplicity
 _atom_site_fract_x
 _atom_site_fract_y
 _atom_site_fract_z
 _atom_site_occupancy
  Al  Al0  1  0.500000  0.500000  0.834881  1
  Al  Al1  1  0.500000  0.500000  0.498965  1
  Zn  Zn2  1  0.500000  0.500000  0.166269  1
  Zn  Zn3  1  0.000000  0.000000  0.000185  1
  Ge  Ge4  1  0.000000  0.000000  0.668037  1
  Ge  Ge5  1  0.000000  0.000000  0.331768  1
  Mo  Mo6  1  0.500000  0.000000  0.750570  1
  Mo  Mo7  1  0.500000  0.000000  0.416348  1
  Mo  Mo8  1  0.500000  0.000000  0.082968  1
  Mo  Mo9  1  0.250337  0.500000  0.000425  1
  Mo  Mo10  1  0.250746  0.500000  0.666394  1
  Mo  Mo11  1  0.250385  0.500000  0.332963  1
  Mo  Mo12  1  0.000000  0.749685  0.833928  1
  Mo  Mo13  1  0.000000  0.750531  0.499915  1
  Mo  Mo14  1  0.000000  0.750546  0.166251  1
  Mo  Mo15  1  0.500000  0.000000  0.917041  1
  Mo  Mo16  1  0.500000  0.000000  0.583542  1
  Mo  Mo17  1  0.500000  0.000000  0.249667  1
  Mo  Mo18  1  0.749663  0.500000  0.000425  1
  Mo  Mo19  1  0.749254  0.500000  0.666394  1
  Mo  Mo20  1  0.749615  0.500000  0.332963  1
  Mo  Mo21  1  0.000000  0.250315  0.833928  1
  Mo  Mo22  1  0.000000  0.249469  0.499915  1
  Mo  Mo23  1  0.000000  0.249454  0.166251  1
