# generated using pymatgen
data_BaSe23
_symmetry_space_group_name_H-M   'P 1'
_cell_length_a   5.39746987
_cell_length_b   10.07725794
_cell_length_c   16.08222500
_cell_angle_alpha   93.36146596
_cell_angle_beta   86.96594930
_cell_angle_gamma   87.56530097
_symmetry_Int_Tables_number   1
_chemical_formula_structural   BaSe23
_chemical_formula_sum   'Ba1 Se23'
_cell_volume   871.09830197
_cell_formula_units_Z   1
loop_
 _symmetry_equiv_pos_site_id
 _symmetry_equiv_pos_as_xyz
  1  'x, y, z'
loop_
 _atom_site_type_symbol
 _atom_site_label
 _atom_site_symmetry_multiplicity
 _atom_site_fract_x
 _atom_site_fract_y
 _atom_site_fract_z
 _atom_site_occupancy
  Ba  Ba0  1  0.435505  0.189904  0.375234  1
  Se  Se1  1  0.403616  0.842621  0.382207  1
  Se  Se2  1  0.035254  0.307011  0.146905  1
  Se  Se3  1  0.901894  0.264895  0.476628  1
  Se  Se4  1  0.194677  0.803014  0.511494  1
  Se  Se5  1  0.221566  0.237381  0.013982  1
  Se  Se6  1  0.798041  0.719299  0.018091  1
  Se  Se7  1  0.082585  0.451599  0.350745  1
  Se  Se8  1  0.684971  0.638978  0.348422  1
  Se  Se9  1  0.780295  0.128176  0.182504  1
  Se  Se10  1  0.293876  0.861884  0.146794  1
  Se  Se11  1  0.724550  0.625511  0.618792  1
  Se  Se12  1  0.320828  0.336060  0.608289  1
  Se  Se13  1  0.230697  0.861289  0.856694  1
  Se  Se14  1  0.733669  0.137074  0.866020  1
  Se  Se15  1  0.086759  0.664926  0.118336  1
  Se  Se16  1  0.480946  0.826623  0.616853  1
  Se  Se17  1  0.617900  0.158225  0.569971  1
  Se  Se18  1  0.006911  0.672098  0.885983  1
  Se  Se19  1  0.977381  0.315655  0.907589  1
  Se  Se20  1  0.431582  0.501854  0.264117  1
  Se  Se21  1  0.045422  0.982270  0.256284  1
  Se  Se22  1  0.519974  0.478503  0.705597  1
  Se  Se23  1  0.991097  0.995150  0.772475  1
