# generated using pymatgen
data_Ho5Er3Sc11Si16Rh
_symmetry_space_group_name_H-M   'P 1'
_cell_length_a   6.96607237
_cell_length_b   7.38475824
_cell_length_c   13.87664641
_cell_angle_alpha   89.94989138
_cell_angle_beta   89.95457159
_cell_angle_gamma   89.89232346
_symmetry_Int_Tables_number   1
_chemical_formula_structural   Ho5Er3Sc11Si16Rh
_chemical_formula_sum   'Ho5 Er3 Sc11 Si16 Rh1'
_cell_volume   713.85123903
_cell_formula_units_Z   1
loop_
 _symmetry_equiv_pos_site_id
 _symmetry_equiv_pos_as_xyz
  1  'x, y, z'
loop_
 _atom_site_type_symbol
 _atom_site_label
 _atom_site_symmetry_multiplicity
 _atom_site_fract_x
 _atom_site_fract_y
 _atom_site_fract_z
 _atom_site_occupancy
  Ho  Ho0  1  0.990545  0.813787  0.597804  1
  Ho  Ho1  1  0.511088  0.322140  0.093884  1
  Ho  Ho2  1  0.012631  0.178007  0.405734  1
  Ho  Ho3  1  0.510981  0.322230  0.404949  1
  Ho  Ho4  1  0.487924  0.673732  0.597788  1
  Er  Er5  1  0.012844  0.179229  0.093171  1
  Er  Er6  1  0.989919  0.816025  0.902675  1
  Er  Er7  1  0.489341  0.674960  0.902904  1
  Sc  Sc8  1  0.841207  0.496503  0.249354  1
  Sc  Sc9  1  0.342883  0.004615  0.249552  1
  Sc  Sc10  1  0.652072  0.997657  0.749912  1
  Sc  Sc11  1  0.320791  0.177647  0.628294  1
  Sc  Sc12  1  0.673090  0.825091  0.374392  1
  Sc  Sc13  1  0.173525  0.674562  0.375383  1
  Sc  Sc14  1  0.672685  0.824981  0.124978  1
  Sc  Sc15  1  0.832019  0.329009  0.629774  1
  Sc  Sc16  1  0.320056  0.177115  0.871955  1
  Sc  Sc17  1  0.831046  0.328037  0.870950  1
  Sc  Sc18  1  0.173565  0.673345  0.123406  1
  Si  Si19  1  0.022874  0.094634  0.750276  1
  Si  Si20  1  0.973466  0.888240  0.249155  1
  Si  Si21  1  0.470198  0.614411  0.249585  1
  Si  Si22  1  0.517718  0.394865  0.750956  1
  Si  Si23  1  0.281536  0.863252  0.750623  1
  Si  Si24  1  0.716862  0.130313  0.249283  1
  Si  Si25  1  0.215547  0.370911  0.249233  1
  Si  Si26  1  0.792762  0.628570  0.751064  1
  Si  Si27  1  0.160725  0.462367  0.539785  1
  Si  Si28  1  0.843345  0.534470  0.463115  1
  Si  Si29  1  0.344500  0.964526  0.463381  1
  Si  Si30  1  0.843104  0.534942  0.036283  1
  Si  Si31  1  0.658457  0.034803  0.540685  1
  Si  Si32  1  0.159733  0.465836  0.955809  1
  Si  Si33  1  0.657653  0.034467  0.959491  1
  Si  Si34  1  0.343889  0.964538  0.036575  1
  Rh  Rh35  1  0.159424  0.530182  0.757844  1
