# generated using pymatgen
data_AcPr3(SnIr2)2
_symmetry_space_group_name_H-M   'P 1'
_cell_length_a   5.87254214
_cell_length_b   5.93067974
_cell_length_c   8.12574700
_cell_angle_alpha   101.53375503
_cell_angle_beta   101.78997636
_cell_angle_gamma   59.48575514
_symmetry_Int_Tables_number   1
_chemical_formula_structural   AcPr3(SnIr2)2
_chemical_formula_sum   'Ac1 Pr3 Sn2 Ir4'
_cell_volume   237.10806617
_cell_formula_units_Z   1
loop_
 _symmetry_equiv_pos_site_id
 _symmetry_equiv_pos_as_xyz
  1  'x, y, z'
loop_
 _atom_site_type_symbol
 _atom_site_label
 _atom_site_symmetry_multiplicity
 _atom_site_fract_x
 _atom_site_fract_y
 _atom_site_fract_z
 _atom_site_occupancy
  Ac  Ac0  1  0.796398  0.497334  0.146424  1
  Pr  Pr1  1  0.506345  0.201513  0.354801  1
  Pr  Pr2  1  0.493123  0.800139  0.651825  1
  Pr  Pr3  1  0.200201  0.505892  0.846769  1
  Sn  Sn4  1  0.150709  0.851113  0.252283  1
  Sn  Sn5  1  0.848478  0.146099  0.745968  1
  Ir  Ir6  1  0.275829  0.003936  0.995702  1
  Ir  Ir7  1  0.998361  0.718572  0.504298  1
  Ir  Ir8  1  0.010345  0.274464  0.499176  1
  Ir  Ir9  1  0.720212  0.000937  0.002751  1
