# generated using pymatgen
data_Zr6Zn16Cu3Ni4As
_symmetry_space_group_name_H-M   'P 1'
_cell_length_a   8.62470101
_cell_length_b   8.62049910
_cell_length_c   8.62470111
_cell_angle_alpha   60.01611373
_cell_angle_beta   59.96776644
_cell_angle_gamma   60.01611309
_symmetry_Int_Tables_number   1
_chemical_formula_structural   Zr6Zn16Cu3Ni4As
_chemical_formula_sum   'Zr6 Zn16 Cu3 Ni4 As1'
_cell_volume   453.42481711
_cell_formula_units_Z   1
loop_
 _symmetry_equiv_pos_site_id
 _symmetry_equiv_pos_as_xyz
  1  'x, y, z'
loop_
 _atom_site_type_symbol
 _atom_site_label
 _atom_site_symmetry_multiplicity
 _atom_site_fract_x
 _atom_site_fract_y
 _atom_site_fract_z
 _atom_site_occupancy
  Zr  Zr0  1  0.716394  0.283606  0.283606  1
  Zr  Zr1  1  0.283606  0.716394  0.716394  1
  Zr  Zr2  1  0.284973  0.715027  0.284973  1
  Zr  Zr3  1  0.715027  0.284973  0.715027  1
  Zr  Zr4  1  0.283606  0.283606  0.716394  1
  Zr  Zr5  1  0.716394  0.716394  0.283606  1
  Zn  Zn6  1  0.124576  0.120650  0.124576  1
  Zn  Zn7  1  0.875424  0.879350  0.875424  1
  Zn  Zn8  1  0.120650  0.124576  0.630198  1
  Zn  Zn9  1  0.124576  0.630198  0.124576  1
  Zn  Zn10  1  0.879350  0.875424  0.369802  1
  Zn  Zn11  1  0.875424  0.369802  0.875424  1
  Zn  Zn12  1  0.630198  0.124576  0.120650  1
  Zn  Zn13  1  0.369802  0.875424  0.879350  1
  Zn  Zn14  1  0.334962  0.338800  0.334962  1
  Zn  Zn15  1  0.665038  0.661200  0.665038  1
  Zn  Zn16  1  0.338800  0.334962  0.991277  1
  Zn  Zn17  1  0.334962  0.991277  0.334962  1
  Zn  Zn18  1  0.661200  0.665038  0.008723  1
  Zn  Zn19  1  0.665038  0.008723  0.665038  1
  Zn  Zn20  1  0.991277  0.334962  0.338800  1
  Zn  Zn21  1  0.008723  0.665038  0.661200  1
  Cu  Cu22  1  0.000000  0.500000  0.000000  1
  Cu  Cu23  1  0.500000  0.000000  0.500000  1
  Cu  Cu24  1  0.000000  0.000000  0.000000  1
  Ni  Ni25  1  0.500000  0.000000  0.000000  1
  Ni  Ni26  1  0.000000  0.500000  0.500000  1
  Ni  Ni27  1  0.000000  0.000000  0.500000  1
  Ni  Ni28  1  0.500000  0.500000  0.000000  1
  As  As29  1  0.500000  0.500000  0.500000  1
