# generated using pymatgen
data_Pu11O20
_symmetry_space_group_name_H-M   'P 1'
_cell_length_a   6.65285042
_cell_length_b   6.67382603
_cell_length_c   10.12081414
_cell_angle_alpha   96.21632262
_cell_angle_beta   90.12503790
_cell_angle_gamma   99.76152653
_symmetry_Int_Tables_number   1
_chemical_formula_structural   Pu11O20
_chemical_formula_sum   'Pu11 O20'
_cell_volume   440.15719230
_cell_formula_units_Z   1
loop_
 _symmetry_equiv_pos_site_id
 _symmetry_equiv_pos_as_xyz
  1  'x, y, z'
loop_
 _atom_site_type_symbol
 _atom_site_label
 _atom_site_symmetry_multiplicity
 _atom_site_fract_x
 _atom_site_fract_y
 _atom_site_fract_z
 _atom_site_occupancy
  Pu  Pu0  1  0.000000  0.000000  0.000000  1
  Pu  Pu1  1  0.179991  0.100912  0.363383  1
  Pu  Pu2  1  0.820009  0.899088  0.636617  1
  Pu  Pu3  1  0.113982  0.553748  0.173675  1
  Pu  Pu4  1  0.886018  0.446252  0.826325  1
  Pu  Pu5  1  0.271745  0.639854  0.529022  1
  Pu  Pu6  1  0.728255  0.360146  0.470978  1
  Pu  Pu7  1  0.358659  0.153044  0.725014  1
  Pu  Pu8  1  0.641341  0.846956  0.274986  1
  Pu  Pu9  1  0.468184  0.732959  0.915701  1
  Pu  Pu10  1  0.531816  0.267041  0.084299  1
  O  O11  1  0.135848  0.655312  0.961885  1
  O  O12  1  0.864152  0.344688  0.038115  1
  O  O13  1  0.033072  0.157763  0.798826  1
  O  O14  1  0.966928  0.842237  0.201174  1
  O  O15  1  0.047977  0.430338  0.372158  1
  O  O16  1  0.952023  0.569662  0.627842  1
  O  O17  1  0.155018  0.943709  0.564011  1
  O  O18  1  0.844982  0.056291  0.435989  1
  O  O19  1  0.338481  0.030936  0.929276  1
  O  O20  1  0.661519  0.969064  0.070724  1
  O  O21  1  0.199316  0.225426  0.152984  1
  O  O22  1  0.800684  0.774574  0.847016  1
  O  O23  1  0.309834  0.798115  0.333604  1
  O  O24  1  0.690166  0.201885  0.666396  1
  O  O25  1  0.365375  0.330159  0.540192  1
  O  O26  1  0.634625  0.669841  0.459808  1
  O  O27  1  0.464454  0.817618  0.701079  1
  O  O28  1  0.535546  0.182382  0.298921  1
  O  O29  1  0.468206  0.592016  0.124654  1
  O  O30  1  0.531794  0.407984  0.875346  1
