# generated using pymatgen
data_Hf6AlCoAs
_symmetry_space_group_name_H-M   'P 1'
_cell_length_a   3.41029400
_cell_length_b   7.65601201
_cell_length_c   7.65592600
_cell_angle_alpha   119.99975142
_cell_angle_beta   90.00000000
_cell_angle_gamma   90.00000000
_symmetry_Int_Tables_number   1
_chemical_formula_structural   Hf6AlCoAs
_chemical_formula_sum   'Hf6 Al1 Co1 As1'
_cell_volume   173.11068447
_cell_formula_units_Z   1
loop_
 _symmetry_equiv_pos_site_id
 _symmetry_equiv_pos_as_xyz
  1  'x, y, z'
loop_
 _atom_site_type_symbol
 _atom_site_label
 _atom_site_symmetry_multiplicity
 _atom_site_fract_x
 _atom_site_fract_y
 _atom_site_fract_z
 _atom_site_occupancy
  Hf  Hf0  1  0.500000  0.588447  0.986388  1
  Hf  Hf1  1  0.500000  0.397920  0.411548  1
  Hf  Hf2  1  0.500000  0.013596  0.602071  1
  Hf  Hf3  1  0.000000  0.249982  0.003522  1
  Hf  Hf4  1  0.000000  0.753515  0.750013  1
  Hf  Hf5  1  0.000000  0.996472  0.246466  1
  Al  Al6  1  0.000000  0.666659  0.333335  1
  Co  Co7  1  0.500000  0.999993  0.999989  1
  As  As8  1  0.000000  0.333316  0.666667  1
