# generated using pymatgen
data_Sc2SiB2RuRh4
_symmetry_space_group_name_H-M   'P 1'
_cell_length_a   9.30847400
_cell_length_b   3.02871900
_cell_length_c   9.30847400
_cell_angle_alpha   90.00000000
_cell_angle_beta   90.00000000
_cell_angle_gamma   90.00000000
_symmetry_Int_Tables_number   1
_chemical_formula_structural   Sc2SiB2RuRh4
_chemical_formula_sum   'Sc4 Si2 B4 Ru2 Rh8'
_cell_volume   262.43149958
_cell_formula_units_Z   2
loop_
 _symmetry_equiv_pos_site_id
 _symmetry_equiv_pos_as_xyz
  1  'x, y, z'
loop_
 _atom_site_type_symbol
 _atom_site_label
 _atom_site_symmetry_multiplicity
 _atom_site_fract_x
 _atom_site_fract_y
 _atom_site_fract_z
 _atom_site_occupancy
  Sc  Sc0  1  0.672954  0.000000  0.172953  1
  Sc  Sc1  1  0.172953  0.000000  0.327046  1
  Sc  Sc2  1  0.827047  0.000000  0.672954  1
  Sc  Sc3  1  0.327046  0.000000  0.827047  1
  Si  Si4  1  0.000000  0.000000  0.000000  1
  Si  Si5  1  0.500000  0.000000  0.500000  1
  B  B6  1  0.376973  0.000000  0.123026  1
  B  B7  1  0.876974  0.000000  0.376973  1
  B  B8  1  0.123026  0.000000  0.623025  1
  B  B9  1  0.623025  0.000000  0.876974  1
  Ru  Ru10  1  0.500000  0.500000  0.000000  1
  Ru  Ru11  1  0.000000  0.500000  0.500000  1
  Rh  Rh12  1  0.210566  0.500000  0.071913  1
  Rh  Rh13  1  0.928087  0.500000  0.210566  1
  Rh  Rh14  1  0.428087  0.500000  0.289433  1
  Rh  Rh15  1  0.710567  0.500000  0.428087  1
  Rh  Rh16  1  0.289433  0.500000  0.571913  1
  Rh  Rh17  1  0.571913  0.500000  0.710567  1
  Rh  Rh18  1  0.071913  0.500000  0.789433  1
  Rh  Rh19  1  0.789433  0.500000  0.928087  1
