# generated using pymatgen
data_NdHoFe8Co4P7
_symmetry_space_group_name_H-M   'P 1'
_cell_length_a   9.00657319
_cell_length_b   9.00995466
_cell_length_c   3.62808300
_cell_angle_alpha   90.00000000
_cell_angle_beta   90.00000000
_cell_angle_gamma   119.93879475
_symmetry_Int_Tables_number   1
_chemical_formula_structural   NdHoFe8Co4P7
_chemical_formula_sum   'Nd1 Ho1 Fe8 Co4 P7'
_cell_volume   255.12766398
_cell_formula_units_Z   1
loop_
 _symmetry_equiv_pos_site_id
 _symmetry_equiv_pos_as_xyz
  1  'x, y, z'
loop_
 _atom_site_type_symbol
 _atom_site_label
 _atom_site_symmetry_multiplicity
 _atom_site_fract_x
 _atom_site_fract_y
 _atom_site_fract_z
 _atom_site_occupancy
  Nd  Nd0  1  0.000543  0.999857  0.000000  1
  Ho  Ho1  1  0.332724  0.666695  0.500000  1
  Fe  Fe2  1  0.098159  0.394680  0.000000  1
  Fe  Fe3  1  0.785373  0.179261  0.000000  1
  Fe  Fe4  1  0.394971  0.215407  0.000000  1
  Fe  Fe5  1  0.818475  0.604417  0.000000  1
  Fe  Fe6  1  0.053810  0.766251  0.500000  1
  Fe  Fe7  1  0.541213  0.105278  0.500000  1
  Fe  Fe8  1  0.564012  0.459557  0.500000  1
  Fe  Fe9  1  0.888043  0.432974  0.500000  1
  Co  Co10  1  0.298267  0.902681  0.000000  1
  Co  Co11  1  0.605468  0.704303  0.000000  1
  Co  Co12  1  0.713698  0.946193  0.500000  1
  Co  Co13  1  0.234430  0.286411  0.500000  1
  P  P14  1  0.555997  0.926094  0.000000  1
  P  P15  1  0.368938  0.444682  0.000000  1
  P  P16  1  0.074005  0.629810  0.000000  1
  P  P17  1  0.956677  0.228612  0.500000  1
  P  P18  1  0.270018  0.044663  0.500000  1
  P  P19  1  0.778498  0.729432  0.500000  1
  P  P20  1  0.666683  0.332739  0.000000  1
