# generated using pymatgen
data_La5Nd3GaPd24
_symmetry_space_group_name_H-M   'P 1'
_cell_length_a   8.53034811
_cell_length_b   8.53034811
_cell_length_c   8.53034811
_cell_angle_alpha   90.01316549
_cell_angle_beta   90.01316549
_cell_angle_gamma   89.98683451
_symmetry_Int_Tables_number   1
_chemical_formula_structural   La5Nd3GaPd24
_chemical_formula_sum   'La5 Nd3 Ga1 Pd24'
_cell_volume   620.72641790
_cell_formula_units_Z   1
loop_
 _symmetry_equiv_pos_site_id
 _symmetry_equiv_pos_as_xyz
  1  'x, y, z'
loop_
 _atom_site_type_symbol
 _atom_site_label
 _atom_site_symmetry_multiplicity
 _atom_site_fract_x
 _atom_site_fract_y
 _atom_site_fract_z
 _atom_site_occupancy
  La  La0  1  0.252372  0.252372  0.747628  1
  La  La1  1  0.252215  0.747855  0.252145  1
  La  La2  1  0.747855  0.252215  0.252145  1
  La  La3  1  0.747855  0.747855  0.747785  1
  La  La4  1  0.747810  0.747810  0.252190  1
  Nd  Nd5  1  0.748284  0.251646  0.748354  1
  Nd  Nd6  1  0.251646  0.748284  0.748354  1
  Nd  Nd7  1  0.251646  0.251646  0.251716  1
  Ga  Ga8  1  0.000034  0.000034  0.999966  1
  Pd  Pd9  1  0.500209  0.500209  0.746559  1
  Pd  Pd10  1  0.500209  0.253441  0.499791  1
  Pd  Pd11  1  0.253441  0.500209  0.499791  1
  Pd  Pd12  1  0.499446  0.499446  0.253435  1
  Pd  Pd13  1  0.499446  0.746565  0.500554  1
  Pd  Pd14  1  0.746565  0.499446  0.500554  1
  Pd  Pd15  1  0.999897  0.999897  0.706389  1
  Pd  Pd16  1  0.999897  0.293611  0.000103  1
  Pd  Pd17  1  0.293611  0.999897  0.000103  1
  Pd  Pd18  1  0.000537  0.000537  0.293699  1
  Pd  Pd19  1  0.000537  0.706301  0.999463  1
  Pd  Pd20  1  0.706301  0.000537  0.999463  1
  Pd  Pd21  1  0.999796  0.500188  0.739258  1
  Pd  Pd22  1  0.500188  0.260742  0.000204  1
  Pd  Pd23  1  0.260742  0.999796  0.499812  1
  Pd  Pd24  1  0.999796  0.260742  0.499812  1
  Pd  Pd25  1  0.500188  0.999796  0.739258  1
  Pd  Pd26  1  0.260742  0.500188  0.000204  1
  Pd  Pd27  1  0.000543  0.499556  0.260731  1
  Pd  Pd28  1  0.499556  0.739269  0.999457  1
  Pd  Pd29  1  0.000543  0.739269  0.500444  1
  Pd  Pd30  1  0.499556  0.000543  0.260731  1
  Pd  Pd31  1  0.739269  0.000543  0.500444  1
  Pd  Pd32  1  0.739269  0.499556  0.999457  1
