# generated using pymatgen
data_SmHo19Rh12
_symmetry_space_group_name_H-M   'P 1'
_cell_length_a   10.91208640
_cell_length_b   10.90884262
_cell_length_c   6.35012600
_cell_angle_alpha   89.98273066
_cell_angle_beta   90.01559974
_cell_angle_gamma   90.00877068
_symmetry_Int_Tables_number   1
_chemical_formula_structural   SmHo19Rh12
_chemical_formula_sum   'Sm1 Ho19 Rh12'
_cell_volume   755.90770892
_cell_formula_units_Z   1
loop_
 _symmetry_equiv_pos_site_id
 _symmetry_equiv_pos_as_xyz
  1  'x, y, z'
loop_
 _atom_site_type_symbol
 _atom_site_label
 _atom_site_symmetry_multiplicity
 _atom_site_fract_x
 _atom_site_fract_y
 _atom_site_fract_z
 _atom_site_occupancy
  Sm  Sm0  1  0.289129  0.089623  0.377458  1
  Ho  Ho1  1  0.291582  0.909957  0.879405  1
  Ho  Ho2  1  0.708947  0.088907  0.879463  1
  Ho  Ho3  1  0.708815  0.910755  0.379343  1
  Ho  Ho4  1  0.589314  0.791039  0.879156  1
  Ho  Ho5  1  0.590211  0.209007  0.379324  1
  Ho  Ho6  1  0.411415  0.790422  0.379484  1
  Ho  Ho7  1  0.412086  0.209120  0.879351  1
  Ho  Ho8  1  0.208832  0.411485  0.620737  1
  Ho  Ho9  1  0.208956  0.588908  0.120246  1
  Ho  Ho10  1  0.790918  0.411492  0.120275  1
  Ho  Ho11  1  0.791186  0.588785  0.619942  1
  Ho  Ho12  1  0.911189  0.708845  0.120310  1
  Ho  Ho13  1  0.911032  0.291130  0.620039  1
  Ho  Ho14  1  0.088773  0.708706  0.620467  1
  Ho  Ho15  1  0.087445  0.292266  0.119443  1
  Ho  Ho16  1  0.998648  0.999450  0.501118  1
  Ho  Ho17  1  0.999899  0.999948  0.000569  1
  Ho  Ho18  1  0.500172  0.500304  0.000002  1
  Ho  Ho19  1  0.500333  0.499873  0.500455  1
  Rh  Rh20  1  0.846084  0.153877  0.250320  1
  Rh  Rh21  1  0.846018  0.845914  0.750297  1
  Rh  Rh22  1  0.152810  0.154483  0.753373  1
  Rh  Rh23  1  0.152962  0.844182  0.249035  1
  Rh  Rh24  1  0.654034  0.346076  0.750125  1
  Rh  Rh25  1  0.653847  0.654068  0.250165  1
  Rh  Rh26  1  0.346510  0.348032  0.249306  1
  Rh  Rh27  1  0.345846  0.654123  0.749672  1
  Rh  Rh28  1  0.501572  0.999267  0.123503  1
  Rh  Rh29  1  0.501875  0.999475  0.626071  1
  Rh  Rh30  1  0.999839  0.500141  0.875708  1
  Rh  Rh31  1  0.999721  0.500341  0.375844  1
