# generated using pymatgen
data_Hf3Re3SiP2
_symmetry_space_group_name_H-M   'P 1'
_cell_length_a   6.86106100
_cell_length_b   6.86106251
_cell_length_c   3.43332700
_cell_angle_alpha   90.00000000
_cell_angle_beta   90.00000000
_cell_angle_gamma   120.00000719
_symmetry_Int_Tables_number   1
_chemical_formula_structural   Hf3Re3SiP2
_chemical_formula_sum   'Hf3 Re3 Si1 P2'
_cell_volume   139.96789324
_cell_formula_units_Z   1
loop_
 _symmetry_equiv_pos_site_id
 _symmetry_equiv_pos_as_xyz
  1  'x, y, z'
loop_
 _atom_site_type_symbol
 _atom_site_label
 _atom_site_symmetry_multiplicity
 _atom_site_fract_x
 _atom_site_fract_y
 _atom_site_fract_z
 _atom_site_occupancy
  Hf  Hf0  1  0.405144  0.405144  0.500000  1
  Hf  Hf1  1  0.594856  0.000000  0.500000  1
  Hf  Hf2  1  0.000000  0.594856  0.500000  1
  Re  Re3  1  0.745191  0.745191  0.000000  1
  Re  Re4  1  0.254809  0.000000  0.000000  1
  Re  Re5  1  0.000000  0.254809  0.000000  1
  Si  Si6  1  0.000000  0.000000  0.500000  1
  P  P7  1  0.666667  0.333333  0.000000  1
  P  P8  1  0.333333  0.666667  0.000000  1
