# generated using pymatgen
data_Dy7Sc(Si4W3)4
_symmetry_space_group_name_H-M   'P 1'
_cell_length_a   6.75172180
_cell_length_b   6.91937068
_cell_length_c   12.88682507
_cell_angle_alpha   90.08746530
_cell_angle_beta   89.97565292
_cell_angle_gamma   90.05035830
_symmetry_Int_Tables_number   1
_chemical_formula_structural   Dy7Sc(Si4W3)4
_chemical_formula_sum   'Dy7 Sc1 Si16 W12'
_cell_volume   602.04139901
_cell_formula_units_Z   1
loop_
 _symmetry_equiv_pos_site_id
 _symmetry_equiv_pos_as_xyz
  1  'x, y, z'
loop_
 _atom_site_type_symbol
 _atom_site_label
 _atom_site_symmetry_multiplicity
 _atom_site_fract_x
 _atom_site_fract_y
 _atom_site_fract_z
 _atom_site_occupancy
  Dy  Dy0  1  0.494987  0.668254  0.593120  1
  Dy  Dy1  1  0.995234  0.832254  0.906971  1
  Dy  Dy2  1  0.504825  0.332317  0.093252  1
  Dy  Dy3  1  0.004388  0.167298  0.408470  1
  Dy  Dy4  1  0.504337  0.331576  0.407944  1
  Dy  Dy5  1  0.004791  0.167736  0.093223  1
  Dy  Dy6  1  0.495003  0.668301  0.905284  1
  Sc  Sc7  1  0.992458  0.830462  0.594839  1
  Si  Si8  1  0.663784  0.957064  0.454970  1
  Si  Si9  1  0.162249  0.542267  0.046561  1
  Si  Si10  1  0.338636  0.042883  0.952509  1
  Si  Si11  1  0.839911  0.462164  0.547459  1
  Si  Si12  1  0.331624  0.038799  0.547447  1
  Si  Si13  1  0.837689  0.457129  0.952825  1
  Si  Si14  1  0.661844  0.957268  0.046693  1
  Si  Si15  1  0.161464  0.545443  0.455146  1
  Si  Si16  1  0.463403  0.370948  0.749677  1
  Si  Si17  1  0.964256  0.125075  0.747767  1
  Si  Si18  1  0.537374  0.628771  0.250509  1
  Si  Si19  1  0.037006  0.871682  0.250258  1
  Si  Si20  1  0.700757  0.865342  0.748001  1
  Si  Si21  1  0.193405  0.637033  0.747504  1
  Si  Si22  1  0.303077  0.134087  0.250479  1
  Si  Si23  1  0.803733  0.366614  0.250842  1
  W  W24  1  0.668106  0.162579  0.625138  1
  W  W25  1  0.166393  0.335819  0.873037  1
  W  W26  1  0.332929  0.836692  0.125501  1
  W  W27  1  0.833935  0.665195  0.375719  1
  W  W28  1  0.332853  0.836453  0.374514  1
  W  W29  1  0.833066  0.664052  0.125949  1
  W  W30  1  0.668620  0.162448  0.873590  1
  W  W31  1  0.167672  0.336329  0.625483  1
  W  W32  1  0.833839  0.500020  0.749211  1
  W  W33  1  0.333386  0.999275  0.748628  1
  W  W34  1  0.166680  0.501213  0.250500  1
  W  W35  1  0.666284  0.999156  0.250983  1
