# generated using pymatgen
data_Dy8Ho3In9Ru4
_symmetry_space_group_name_H-M   'P 1'
_cell_length_a   3.81620800
_cell_length_b   12.89448226
_cell_length_c   12.89261443
_cell_angle_alpha   112.85459131
_cell_angle_beta   90.00000000
_cell_angle_gamma   90.00000000
_symmetry_Int_Tables_number   1
_chemical_formula_structural   Dy8Ho3In9Ru4
_chemical_formula_sum   'Dy8 Ho3 In9 Ru4'
_cell_volume   584.61401401
_cell_formula_units_Z   1
loop_
 _symmetry_equiv_pos_site_id
 _symmetry_equiv_pos_as_xyz
  1  'x, y, z'
loop_
 _atom_site_type_symbol
 _atom_site_label
 _atom_site_symmetry_multiplicity
 _atom_site_fract_x
 _atom_site_fract_y
 _atom_site_fract_z
 _atom_site_occupancy
  Dy  Dy0  1  0.000000  0.418185  0.085321  1
  Dy  Dy1  1  0.000000  0.163637  0.836165  1
  Dy  Dy2  1  0.000000  0.836392  0.163793  1
  Dy  Dy3  1  0.000000  0.370149  0.629813  1
  Dy  Dy4  1  0.000000  0.629887  0.370323  1
  Dy  Dy5  1  0.000000  0.693946  0.693914  1
  Dy  Dy6  1  0.000000  0.306111  0.306271  1
  Dy  Dy7  1  0.000000  0.999830  0.999970  1
  Ho  Ho8  1  0.000000  0.914255  0.581681  1
  Ho  Ho9  1  0.000000  0.085799  0.418331  1
  Ho  Ho10  1  0.000000  0.581700  0.914137  1
  In  In11  1  0.500000  0.152570  0.629748  1
  In  In12  1  0.500000  0.847504  0.370320  1
  In  In13  1  0.500000  0.630234  0.152840  1
  In  In14  1  0.500000  0.370188  0.846952  1
  In  In15  1  0.500000  0.929250  0.781950  1
  In  In16  1  0.500000  0.070719  0.218103  1
  In  In17  1  0.500000  0.781925  0.929241  1
  In  In18  1  0.500000  0.217538  0.070755  1
  In  In19  1  0.500000  0.500008  0.499966  1
  Ru  Ru20  1  0.500000  0.741994  0.547682  1
  Ru  Ru21  1  0.500000  0.258076  0.452388  1
  Ru  Ru22  1  0.500000  0.547708  0.741990  1
  Ru  Ru23  1  0.500000  0.452394  0.258347  1
