# generated using pymatgen
data_Be4VTc
_symmetry_space_group_name_H-M   'P 1'
_cell_length_a   4.32713700
_cell_length_b   4.32713762
_cell_length_c   7.14654900
_cell_angle_alpha   90.00000000
_cell_angle_beta   90.00000000
_cell_angle_gamma   120.00000287
_symmetry_Int_Tables_number   1
_chemical_formula_structural   Be4VTc
_chemical_formula_sum   'Be8 V2 Tc2'
_cell_volume   115.88529976
_cell_formula_units_Z   2
loop_
 _symmetry_equiv_pos_site_id
 _symmetry_equiv_pos_as_xyz
  1  'x, y, z'
loop_
 _atom_site_type_symbol
 _atom_site_label
 _atom_site_symmetry_multiplicity
 _atom_site_fract_x
 _atom_site_fract_y
 _atom_site_fract_z
 _atom_site_occupancy
  Be  Be0  1  0.000000  0.000000  0.000696  1
  Be  Be1  1  0.000000  0.000000  0.500696  1
  Be  Be2  1  0.830829  0.661657  0.249550  1
  Be  Be3  1  0.169171  0.830829  0.749550  1
  Be  Be4  1  0.661657  0.830829  0.749550  1
  Be  Be5  1  0.338343  0.169171  0.249550  1
  Be  Be6  1  0.830829  0.169171  0.249550  1
  Be  Be7  1  0.169171  0.338343  0.749550  1
  V  V8  1  0.666667  0.333333  0.938512  1
  V  V9  1  0.333333  0.666667  0.438512  1
  Tc  Tc10  1  0.333333  0.666667  0.062140  1
  Tc  Tc11  1  0.666667  0.333333  0.562140  1
