# generated using pymatgen
data_CeNd3Dy4(CdRu)2
_symmetry_space_group_name_H-M   'P 1'
_cell_length_a   9.84207813
_cell_length_b   9.72294010
_cell_length_c   9.72293983
_cell_angle_alpha   59.74589704
_cell_angle_beta   59.59382527
_cell_angle_gamma   59.59382896
_symmetry_Int_Tables_number   1
_chemical_formula_structural   CeNd3Dy4(CdRu)2
_chemical_formula_sum   'Ce2 Nd6 Dy8 Cd4 Ru4'
_cell_volume   652.59342182
_cell_formula_units_Z   2
loop_
 _symmetry_equiv_pos_site_id
 _symmetry_equiv_pos_as_xyz
  1  'x, y, z'
loop_
 _atom_site_type_symbol
 _atom_site_label
 _atom_site_symmetry_multiplicity
 _atom_site_fract_x
 _atom_site_fract_y
 _atom_site_fract_z
 _atom_site_occupancy
  Ce  Ce0  1  0.974983  0.339790  0.339790  1
  Ce  Ce1  1  0.345436  0.339790  0.339790  1
  Nd  Nd2  1  0.559990  0.557514  0.941477  1
  Nd  Nd3  1  0.941021  0.557514  0.941477  1
  Nd  Nd4  1  0.558675  0.941325  0.941325  1
  Nd  Nd5  1  0.941021  0.941477  0.557514  1
  Nd  Nd6  1  0.559990  0.941477  0.557514  1
  Nd  Nd7  1  0.941659  0.558341  0.558341  1
  Dy  Dy8  1  0.186522  0.188250  0.813532  1
  Dy  Dy9  1  0.811697  0.188250  0.813532  1
  Dy  Dy10  1  0.186393  0.813607  0.813606  1
  Dy  Dy11  1  0.811697  0.813533  0.188250  1
  Dy  Dy12  1  0.186521  0.813532  0.188249  1
  Dy  Dy13  1  0.812430  0.187570  0.187570  1
  Dy  Dy14  1  0.348136  0.348629  0.955099  1
  Dy  Dy15  1  0.348136  0.955099  0.348629  1
  Cd  Cd16  1  0.580012  0.578173  0.261804  1
  Cd  Cd17  1  0.580012  0.261804  0.578173  1
  Cd  Cd18  1  0.262560  0.578766  0.578766  1
  Cd  Cd19  1  0.579907  0.578766  0.578766  1
  Ru  Ru20  1  0.138525  0.150178  0.572772  1
  Ru  Ru21  1  0.138525  0.572772  0.150178  1
  Ru  Ru22  1  0.574269  0.146924  0.146924  1
  Ru  Ru23  1  0.131883  0.146924  0.146924  1
