# generated using pymatgen
data_Er4ScGaNiBi
_symmetry_space_group_name_H-M   'P 1'
_cell_length_a   8.40760420
_cell_length_b   8.40760459
_cell_length_c   8.60618204
_cell_angle_alpha   125.19361595
_cell_angle_beta   125.19360778
_cell_angle_gamma   79.63563281
_symmetry_Int_Tables_number   1
_chemical_formula_structural   Er4ScGaNiBi
_chemical_formula_sum   'Er8 Sc2 Ga2 Ni2 Bi2'
_cell_volume   395.57599122
_cell_formula_units_Z   2
loop_
 _symmetry_equiv_pos_site_id
 _symmetry_equiv_pos_as_xyz
  1  'x, y, z'
loop_
 _atom_site_type_symbol
 _atom_site_label
 _atom_site_symmetry_multiplicity
 _atom_site_fract_x
 _atom_site_fract_y
 _atom_site_fract_z
 _atom_site_occupancy
  Er  Er0  1  0.781318  0.281318  0.793034  1
  Er  Er1  1  0.218682  0.718682  0.206966  1
  Er  Er2  1  0.488283  0.988283  0.206966  1
  Er  Er3  1  0.305478  0.460239  0.500000  1
  Er  Er4  1  0.039761  0.194522  0.500000  1
  Er  Er5  1  0.511717  0.011717  0.793034  1
  Er  Er6  1  0.694522  0.539761  0.500000  1
  Er  Er7  1  0.960239  0.805478  0.500000  1
  Sc  Sc8  1  0.000000  0.000000  0.000000  1
  Sc  Sc9  1  0.500000  0.500000  0.000000  1
  Ga  Ga10  1  0.142955  0.642955  0.785910  1
  Ga  Ga11  1  0.857045  0.357045  0.214090  1
  Ni  Ni12  1  0.629351  0.870649  0.500000  1
  Ni  Ni13  1  0.370649  0.129351  0.500000  1
  Bi  Bi14  1  0.250000  0.250000  0.000000  1
  Bi  Bi15  1  0.750000  0.750000  0.000000  1
