# generated using pymatgen
data_Sm6EuPdBr12
_symmetry_space_group_name_H-M   'P 1'
_cell_length_a   9.54581259
_cell_length_b   9.42948506
_cell_length_c   9.43769600
_cell_angle_alpha   106.29146933
_cell_angle_beta   106.18813207
_cell_angle_gamma   106.50942825
_symmetry_Int_Tables_number   1
_chemical_formula_structural   Sm6EuPdBr12
_chemical_formula_sum   'Sm6 Eu1 Pd1 Br12'
_cell_volume   720.01794541
_cell_formula_units_Z   1
loop_
 _symmetry_equiv_pos_site_id
 _symmetry_equiv_pos_as_xyz
  1  'x, y, z'
loop_
 _atom_site_type_symbol
 _atom_site_label
 _atom_site_symmetry_multiplicity
 _atom_site_fract_x
 _atom_site_fract_y
 _atom_site_fract_z
 _atom_site_occupancy
  Sm  Sm0  1  0.104844  0.314978  0.021487  1
  Sm  Sm1  1  0.312586  0.020605  0.104033  1
  Sm  Sm2  1  0.021020  0.105059  0.314515  1
  Sm  Sm3  1  0.978979  0.894941  0.685485  1
  Sm  Sm4  1  0.687414  0.979394  0.895966  1
  Sm  Sm5  1  0.895156  0.685022  0.978513  1
  Eu  Eu6  1  0.500000  0.500000  0.500000  1
  Pd  Pd7  1  0.000000  0.000000  0.000000  1
  Br  Br8  1  0.216254  0.678160  0.071761  1
  Br  Br9  1  0.448173  0.367716  0.149225  1
  Br  Br10  1  0.680130  0.073069  0.218714  1
  Br  Br11  1  0.927793  0.781122  0.321462  1
  Br  Br12  1  0.153016  0.451562  0.369085  1
  Br  Br13  1  0.365876  0.149290  0.450169  1
  Br  Br14  1  0.634124  0.850710  0.549831  1
  Br  Br15  1  0.846983  0.548438  0.630915  1
  Br  Br16  1  0.072208  0.218879  0.678539  1
  Br  Br17  1  0.319871  0.926932  0.781286  1
  Br  Br18  1  0.551826  0.632283  0.850775  1
  Br  Br19  1  0.783746  0.321841  0.928239  1
