# generated using pymatgen
data_Sr5Yb3(Sn4Au3)4
_symmetry_space_group_name_H-M   'P 1'
_cell_length_a   15.38258500
_cell_length_b   15.38258578
_cell_length_c   4.48876900
_cell_angle_alpha   90.00000000
_cell_angle_beta   90.00000000
_cell_angle_gamma   120.00000047
_symmetry_Int_Tables_number   1
_chemical_formula_structural   Sr5Yb3(Sn4Au3)4
_chemical_formula_sum   'Sr5 Yb3 Sn16 Au12'
_cell_volume   919.84903113
_cell_formula_units_Z   1
loop_
 _symmetry_equiv_pos_site_id
 _symmetry_equiv_pos_as_xyz
  1  'x, y, z'
loop_
 _atom_site_type_symbol
 _atom_site_label
 _atom_site_symmetry_multiplicity
 _atom_site_fract_x
 _atom_site_fract_y
 _atom_site_fract_z
 _atom_site_occupancy
  Sr  Sr0  1  0.333333  0.666667  0.000000  1
  Sr  Sr1  1  0.666667  0.333333  0.000000  1
  Sr  Sr2  1  0.820394  0.000000  0.500000  1
  Sr  Sr3  1  0.000000  0.820394  0.500000  1
  Sr  Sr4  1  0.179606  0.179606  0.500000  1
  Yb  Yb5  1  0.430848  0.000000  0.000000  1
  Yb  Yb6  1  0.000000  0.430848  0.000000  1
  Yb  Yb7  1  0.569152  0.569152  0.000000  1
  Sn  Sn8  1  0.188542  0.369049  0.000000  1
  Sn  Sn9  1  0.630951  0.819494  0.000000  1
  Sn  Sn10  1  0.369049  0.188542  0.000000  1
  Sn  Sn11  1  0.180506  0.811458  0.000000  1
  Sn  Sn12  1  0.819494  0.630951  0.000000  1
  Sn  Sn13  1  0.811458  0.180506  0.000000  1
  Sn  Sn14  1  0.280042  0.000000  0.500000  1
  Sn  Sn15  1  0.000000  0.280042  0.500000  1
  Sn  Sn16  1  0.719958  0.719958  0.500000  1
  Sn  Sn17  1  0.368208  0.495778  0.500000  1
  Sn  Sn18  1  0.504222  0.872430  0.500000  1
  Sn  Sn19  1  0.495778  0.368208  0.500000  1
  Sn  Sn20  1  0.127570  0.631792  0.500000  1
  Sn  Sn21  1  0.872430  0.504222  0.500000  1
  Sn  Sn22  1  0.631792  0.127570  0.500000  1
  Sn  Sn23  1  0.000000  0.000000  0.000000  1
  Au  Au24  1  0.171095  0.477468  0.500000  1
  Au  Au25  1  0.522532  0.693627  0.500000  1
  Au  Au26  1  0.477468  0.171095  0.500000  1
  Au  Au27  1  0.306373  0.828905  0.500000  1
  Au  Au28  1  0.693627  0.522532  0.500000  1
  Au  Au29  1  0.828905  0.306373  0.500000  1
  Au  Au30  1  0.173845  0.000000  0.000000  1
  Au  Au31  1  0.000000  0.173845  0.000000  1
  Au  Au32  1  0.826155  0.826155  0.000000  1
  Au  Au33  1  0.621464  0.000000  0.000000  1
  Au  Au34  1  0.000000  0.621464  0.000000  1
  Au  Au35  1  0.378536  0.378536  0.000000  1
