# generated using pymatgen
data_Yb4Lu4B24Ir3Ru
_symmetry_space_group_name_H-M   'P 1'
_cell_length_a   3.60339700
_cell_length_b   9.07858791
_cell_length_c   11.46606715
_cell_angle_alpha   90.05121996
_cell_angle_beta   90.00000000
_cell_angle_gamma   90.00000000
_symmetry_Int_Tables_number   1
_chemical_formula_structural   Yb4Lu4B24Ir3Ru
_chemical_formula_sum   'Yb4 Lu4 B24 Ir3 Ru1'
_cell_volume   375.09797790
_cell_formula_units_Z   1
loop_
 _symmetry_equiv_pos_site_id
 _symmetry_equiv_pos_as_xyz
  1  'x, y, z'
loop_
 _atom_site_type_symbol
 _atom_site_label
 _atom_site_symmetry_multiplicity
 _atom_site_fract_x
 _atom_site_fract_y
 _atom_site_fract_z
 _atom_site_occupancy
  Yb  Yb0  1  0.000000  0.322389  0.415584  1
  Yb  Yb1  1  0.000000  0.679423  0.588038  1
  Yb  Yb2  1  0.000000  0.823080  0.082275  1
  Yb  Yb3  1  0.000000  0.174958  0.913220  1
  Lu  Lu4  1  0.000000  0.943908  0.372858  1
  Lu  Lu5  1  0.000000  0.053460  0.629033  1
  Lu  Lu6  1  0.000000  0.443626  0.126788  1
  Lu  Lu7  1  0.000000  0.558914  0.872498  1
  B  B8  1  0.500000  0.555105  0.433173  1
  B  B9  1  0.500000  0.445024  0.567222  1
  B  B10  1  0.500000  0.054565  0.066848  1
  B  B11  1  0.500000  0.945310  0.932141  1
  B  B12  1  0.500000  0.750041  0.419497  1
  B  B13  1  0.500000  0.249955  0.580812  1
  B  B14  1  0.500000  0.249454  0.080500  1
  B  B15  1  0.500000  0.751048  0.918039  1
  B  B16  1  0.500000  0.791031  0.264521  1
  B  B17  1  0.500000  0.208513  0.735136  1
  B  B18  1  0.500000  0.291374  0.235385  1
  B  B19  1  0.500000  0.708919  0.765253  1
  B  B20  1  0.500000  0.630846  0.182870  1
  B  B21  1  0.500000  0.368987  0.816347  1
  B  B22  1  0.500000  0.131341  0.317211  1
  B  B23  1  0.500000  0.869028  0.684737  1
  B  B24  1  0.500000  0.983652  0.212862  1
  B  B25  1  0.500000  0.016310  0.787291  1
  B  B26  1  0.500000  0.483497  0.287228  1
  B  B27  1  0.500000  0.516924  0.712836  1
  B  B28  1  0.500000  0.601821  0.028032  1
  B  B29  1  0.500000  0.397465  0.972068  1
  B  B30  1  0.500000  0.102253  0.472228  1
  B  B31  1  0.500000  0.897643  0.527516  1
  Ir  Ir32  1  0.000000  0.638810  0.319768  1
  Ir  Ir33  1  0.000000  0.361012  0.679802  1
  Ir  Ir34  1  0.000000  0.139341  0.180754  1
  Ru  Ru35  1  0.000000  0.860974  0.819629  1
