# generated using pymatgen
data_Pr3ThAl13Ga5Ir6
_symmetry_space_group_name_H-M   'P 1'
_cell_length_a   7.62210382
_cell_length_b   7.62454030
_cell_length_c   9.68626100
_cell_angle_alpha   90.00000000
_cell_angle_beta   90.00000000
_cell_angle_gamma   119.48719740
_symmetry_Int_Tables_number   1
_chemical_formula_structural   Pr3ThAl13Ga5Ir6
_chemical_formula_sum   'Pr3 Th1 Al13 Ga5 Ir6'
_cell_volume   490.00031161
_cell_formula_units_Z   1
loop_
 _symmetry_equiv_pos_site_id
 _symmetry_equiv_pos_as_xyz
  1  'x, y, z'
loop_
 _atom_site_type_symbol
 _atom_site_label
 _atom_site_symmetry_multiplicity
 _atom_site_fract_x
 _atom_site_fract_y
 _atom_site_fract_z
 _atom_site_occupancy
  Pr  Pr0  1  0.004394  0.330187  0.750000  1
  Pr  Pr1  1  0.670064  0.992825  0.250000  1
  Pr  Pr2  1  0.330481  0.003440  0.750000  1
  Th  Th3  1  0.999547  0.673802  0.250000  1
  Al  Al4  1  0.001708  0.332607  0.072295  1
  Al  Al5  1  0.995804  0.664573  0.925998  1
  Al  Al6  1  0.995804  0.664573  0.574002  1
  Al  Al7  1  0.338510  0.005765  0.427845  1
  Al  Al8  1  0.001708  0.332607  0.427705  1
  Al  Al9  1  0.665199  0.997192  0.571410  1
  Al  Al10  1  0.665199  0.997192  0.928590  1
  Al  Al11  1  0.338510  0.005765  0.072155  1
  Al  Al12  1  0.333892  0.333959  0.547704  1
  Al  Al13  1  0.663590  0.664673  0.449360  1
  Al  Al14  1  0.663590  0.664673  0.050640  1
  Al  Al15  1  0.333892  0.333959  0.952296  1
  Al  Al16  1  0.546397  0.340695  0.250000  1
  Ga  Ga17  1  0.133707  0.134983  0.250000  1
  Ga  Ga18  1  0.870055  0.870881  0.750000  1
  Ga  Ga19  1  0.341200  0.544390  0.250000  1
  Ga  Ga20  1  0.659156  0.453582  0.750000  1
  Ga  Ga21  1  0.453565  0.659883  0.750000  1
  Ir  Ir22  1  0.670777  0.330985  0.004189  1
  Ir  Ir23  1  0.326711  0.670493  0.001298  1
  Ir  Ir24  1  0.326711  0.670493  0.498702  1
  Ir  Ir25  1  0.670777  0.330985  0.495811  1
  Ir  Ir26  1  0.999527  0.997421  0.002127  1
  Ir  Ir27  1  0.999527  0.997421  0.497873  1
