# generated using pymatgen
data_YbY3(HfIr)4
_symmetry_space_group_name_H-M   'P 1'
_cell_length_a   4.52671500
_cell_length_b   7.09917016
_cell_length_c   8.30289194
_cell_angle_alpha   90.04814614
_cell_angle_beta   90.00000000
_cell_angle_gamma   90.00000000
_symmetry_Int_Tables_number   1
_chemical_formula_structural   YbY3(HfIr)4
_chemical_formula_sum   'Yb1 Y3 Hf4 Ir4'
_cell_volume   266.82097723
_cell_formula_units_Z   1
loop_
 _symmetry_equiv_pos_site_id
 _symmetry_equiv_pos_as_xyz
  1  'x, y, z'
loop_
 _atom_site_type_symbol
 _atom_site_label
 _atom_site_symmetry_multiplicity
 _atom_site_fract_x
 _atom_site_fract_y
 _atom_site_fract_z
 _atom_site_occupancy
  Yb  Yb0  1  0.250000  0.982526  0.322426  1
  Y  Y1  1  0.250000  0.487252  0.177364  1
  Y  Y2  1  0.750000  0.014104  0.677291  1
  Y  Y3  1  0.750000  0.515463  0.821912  1
  Hf  Hf4  1  0.250000  0.356248  0.571460  1
  Hf  Hf5  1  0.250000  0.861054  0.926428  1
  Hf  Hf6  1  0.750000  0.640991  0.429016  1
  Hf  Hf7  1  0.750000  0.142669  0.073002  1
  Ir  Ir8  1  0.250000  0.230085  0.906116  1
  Ir  Ir9  1  0.250000  0.723613  0.598825  1
  Ir  Ir10  1  0.750000  0.770426  0.089709  1
  Ir  Ir11  1  0.750000  0.275571  0.406452  1
