# generated using pymatgen
data_ScCd2Ni2SbO8
_symmetry_space_group_name_H-M   'P 1'
_cell_length_a   6.37296833
_cell_length_b   6.30572939
_cell_length_c   6.29546261
_cell_angle_alpha   59.89418951
_cell_angle_beta   89.66883934
_cell_angle_gamma   119.07227369
_symmetry_Int_Tables_number   1
_chemical_formula_structural   ScCd2Ni2SbO8
_chemical_formula_sum   'Sc1 Cd2 Ni2 Sb1 O8'
_cell_volume   180.57184991
_cell_formula_units_Z   1
loop_
 _symmetry_equiv_pos_site_id
 _symmetry_equiv_pos_as_xyz
  1  'x, y, z'
loop_
 _atom_site_type_symbol
 _atom_site_label
 _atom_site_symmetry_multiplicity
 _atom_site_fract_x
 _atom_site_fract_y
 _atom_site_fract_z
 _atom_site_occupancy
  Sc  Sc0  1  0.375101  0.750069  0.374872  1
  Cd  Cd1  1  0.965776  0.978511  0.013221  1
  Cd  Cd2  1  0.784161  0.521527  0.736797  1
  Ni  Ni3  1  0.374973  0.249604  0.375216  1
  Ni  Ni4  1  0.374992  0.750135  0.874671  1
  Sb  Sb5  1  0.875133  0.250060  0.374944  1
  O  O6  1  0.121162  0.271498  0.149597  1
  O  O7  1  0.630793  0.229558  0.166739  1
  O  O8  1  0.558428  0.703555  0.146316  1
  O  O9  1  0.118549  0.701622  0.151098  1
  O  O10  1  0.628837  0.228483  0.600452  1
  O  O11  1  0.119244  0.270527  0.583345  1
  O  O12  1  0.191387  0.796331  0.603828  1
  O  O13  1  0.631470  0.798520  0.598903  1
