# generated using pymatgen
data_Gd2Dy(SnRh)3
_symmetry_space_group_name_H-M   'P 1'
_cell_length_a   7.37794800
_cell_length_b   7.37794840
_cell_length_c   3.97374000
_cell_angle_alpha   90.00000000
_cell_angle_beta   90.00000000
_cell_angle_gamma   120.46588433
_symmetry_Int_Tables_number   1
_chemical_formula_structural   Gd2Dy(SnRh)3
_chemical_formula_sum   'Gd2 Dy1 Sn3 Rh3'
_cell_volume   186.44178774
_cell_formula_units_Z   1
loop_
 _symmetry_equiv_pos_site_id
 _symmetry_equiv_pos_as_xyz
  1  'x, y, z'
loop_
 _atom_site_type_symbol
 _atom_site_label
 _atom_site_symmetry_multiplicity
 _atom_site_fract_x
 _atom_site_fract_y
 _atom_site_fract_z
 _atom_site_occupancy
  Gd  Gd0  1  0.589999  0.000912  0.500000  1
  Gd  Gd1  1  0.000912  0.589999  0.500000  1
  Dy  Dy2  1  0.409361  0.409361  0.500000  1
  Sn  Sn3  1  0.741146  0.741146  0.000000  1
  Sn  Sn4  1  0.256529  0.002188  0.000000  1
  Sn  Sn5  1  0.002188  0.256529  0.000000  1
  Rh  Rh6  1  0.667984  0.333180  0.000000  1
  Rh  Rh7  1  0.333180  0.667984  0.000000  1
  Rh  Rh8  1  0.998702  0.998702  0.500000  1
