# generated using pymatgen
data_Dy9Ho(SiPb3)2
_symmetry_space_group_name_H-M   'P 1'
_cell_length_a   9.34070200
_cell_length_b   9.34070181
_cell_length_c   6.51339400
_cell_angle_alpha   90.00000000
_cell_angle_beta   90.00000000
_cell_angle_gamma   120.00000068
_symmetry_Int_Tables_number   1
_chemical_formula_structural   Dy9Ho(SiPb3)2
_chemical_formula_sum   'Dy9 Ho1 Si2 Pb6'
_cell_volume   492.14944905
_cell_formula_units_Z   1
loop_
 _symmetry_equiv_pos_site_id
 _symmetry_equiv_pos_as_xyz
  1  'x, y, z'
loop_
 _atom_site_type_symbol
 _atom_site_label
 _atom_site_symmetry_multiplicity
 _atom_site_fract_x
 _atom_site_fract_y
 _atom_site_fract_z
 _atom_site_occupancy
  Dy  Dy0  1  0.248370  0.999980  0.249996  1
  Dy  Dy1  1  0.000020  0.751630  0.750004  1
  Dy  Dy2  1  0.000020  0.248390  0.249996  1
  Dy  Dy3  1  0.751610  0.999980  0.750004  1
  Dy  Dy4  1  0.666667  0.333333  0.500000  1
  Dy  Dy5  1  0.248370  0.248390  0.750004  1
  Dy  Dy6  1  0.333333  0.666667  0.000000  1
  Dy  Dy7  1  0.666667  0.333333  0.000000  1
  Dy  Dy8  1  0.751610  0.751630  0.249996  1
  Ho  Ho9  1  0.333333  0.666667  0.500000  1
  Si  Si10  1  0.000000  0.000000  0.000000  1
  Si  Si11  1  0.000000  0.000000  0.500000  1
  Pb  Pb12  1  0.607629  0.999958  0.250017  1
  Pb  Pb13  1  0.392329  0.999958  0.749983  1
  Pb  Pb14  1  0.000042  0.607671  0.250017  1
  Pb  Pb15  1  0.607629  0.607671  0.749983  1
  Pb  Pb16  1  0.392329  0.392371  0.250017  1
  Pb  Pb17  1  0.000042  0.392371  0.749983  1
