# generated using pymatgen
data_BaCd4Ni12Te6PbO36
_symmetry_space_group_name_H-M   'P 1'
_cell_length_a   9.49125500
_cell_length_b   9.49125443
_cell_length_c   9.03425100
_cell_angle_alpha   90.00000000
_cell_angle_beta   90.00000000
_cell_angle_gamma   120.00000546
_symmetry_Int_Tables_number   1
_chemical_formula_structural   BaCd4Ni12Te6PbO36
_chemical_formula_sum   'Ba1 Cd4 Ni12 Te6 Pb1 O36'
_cell_volume   704.80668985
_cell_formula_units_Z   1
loop_
 _symmetry_equiv_pos_site_id
 _symmetry_equiv_pos_as_xyz
  1  'x, y, z'
loop_
 _atom_site_type_symbol
 _atom_site_label
 _atom_site_symmetry_multiplicity
 _atom_site_fract_x
 _atom_site_fract_y
 _atom_site_fract_z
 _atom_site_occupancy
  Ba  Ba0  1  0.000000  0.000000  0.500000  1
  Cd  Cd1  1  0.333333  0.666667  0.435263  1
  Cd  Cd2  1  0.666667  0.333333  0.935525  1
  Cd  Cd3  1  0.666667  0.333333  0.564737  1
  Cd  Cd4  1  0.333333  0.666667  0.064475  1
  Ni  Ni5  1  0.359344  0.007591  0.588199  1
  Ni  Ni6  1  0.648248  0.640656  0.588199  1
  Ni  Ni7  1  0.992409  0.351752  0.588199  1
  Ni  Ni8  1  0.642704  0.992297  0.088561  1
  Ni  Ni9  1  0.349592  0.357296  0.088561  1
  Ni  Ni10  1  0.007703  0.650408  0.088561  1
  Ni  Ni11  1  0.640656  0.992409  0.411801  1
  Ni  Ni12  1  0.351752  0.359344  0.411801  1
  Ni  Ni13  1  0.007591  0.648248  0.411801  1
  Ni  Ni14  1  0.357296  0.007703  0.911439  1
  Ni  Ni15  1  0.650408  0.642704  0.911439  1
  Ni  Ni16  1  0.992297  0.349592  0.911439  1
  Te  Te17  1  0.662738  0.640091  0.249737  1
  Te  Te18  1  0.977353  0.337262  0.249737  1
  Te  Te19  1  0.359909  0.022647  0.249737  1
  Te  Te20  1  0.337262  0.359909  0.750263  1
  Te  Te21  1  0.022647  0.662738  0.750263  1
  Te  Te22  1  0.640091  0.977353  0.750263  1
  Pb  Pb23  1  0.000000  0.000000  0.000000  1
  O  O24  1  0.206767  0.894931  0.407284  1
  O  O25  1  0.688164  0.793233  0.407284  1
  O  O26  1  0.105069  0.311836  0.407284  1
  O  O27  1  0.797377  0.101059  0.908191  1
  O  O28  1  0.303683  0.202623  0.908191  1
  O  O29  1  0.898941  0.696317  0.908191  1
  O  O30  1  0.793233  0.105069  0.592716  1
  O  O31  1  0.311836  0.206767  0.592716  1
  O  O32  1  0.894931  0.688164  0.592716  1
  O  O33  1  0.202623  0.898941  0.091809  1
  O  O34  1  0.696317  0.797377  0.091809  1
  O  O35  1  0.101059  0.303683  0.091809  1
  O  O36  1  0.482555  0.876385  0.589460  1
  O  O37  1  0.393830  0.517445  0.589460  1
  O  O38  1  0.123615  0.606170  0.589460  1
  O  O39  1  0.517045  0.123437  0.088503  1
  O  O40  1  0.606391  0.482955  0.088503  1
  O  O41  1  0.876563  0.393609  0.088503  1
  O  O42  1  0.517445  0.123615  0.410540  1
  O  O43  1  0.606170  0.482555  0.410540  1
  O  O44  1  0.876385  0.393830  0.410540  1
  O  O45  1  0.482955  0.876563  0.911497  1
  O  O46  1  0.393609  0.517045  0.911497  1
  O  O47  1  0.123437  0.606391  0.911497  1
  O  O48  1  0.127263  0.581017  0.248785  1
  O  O49  1  0.453754  0.872737  0.248785  1
  O  O50  1  0.418983  0.546246  0.248785  1
  O  O51  1  0.872737  0.418983  0.751215  1
  O  O52  1  0.546246  0.127263  0.751215  1
  O  O53  1  0.581017  0.453754  0.751215  1
  O  O54  1  0.892394  0.707744  0.251406  1
  O  O55  1  0.815350  0.107606  0.251406  1
  O  O56  1  0.292256  0.184650  0.251406  1
  O  O57  1  0.107606  0.292256  0.748594  1
  O  O58  1  0.184650  0.892394  0.748594  1
  O  O59  1  0.707744  0.815350  0.748594  1
