# generated using pymatgen
data_Ho2Tm5Sn23Ir6
_symmetry_space_group_name_H-M   'P 1'
_cell_length_a   9.83905000
_cell_length_b   9.83905051
_cell_length_c   10.10596000
_cell_angle_alpha   90.00088514
_cell_angle_beta   89.99910903
_cell_angle_gamma   119.99850556
_symmetry_Int_Tables_number   1
_chemical_formula_structural   Ho2Tm5Sn23Ir6
_chemical_formula_sum   'Ho2 Tm5 Sn23 Ir6'
_cell_volume   847.26858500
_cell_formula_units_Z   1
loop_
 _symmetry_equiv_pos_site_id
 _symmetry_equiv_pos_as_xyz
  1  'x, y, z'
loop_
 _atom_site_type_symbol
 _atom_site_label
 _atom_site_symmetry_multiplicity
 _atom_site_fract_x
 _atom_site_fract_y
 _atom_site_fract_z
 _atom_site_occupancy
  Ho  Ho0  1  0.480726  0.519299  0.306945  1
  Ho  Ho1  1  0.000012  0.999985  0.999985  1
  Tm  Tm2  1  0.518996  0.481003  0.693283  1
  Tm  Tm3  1  0.480995  0.961947  0.306808  1
  Tm  Tm4  1  0.519001  0.038029  0.693208  1
  Tm  Tm5  1  0.038053  0.519005  0.306808  1
  Tm  Tm6  1  0.961971  0.480998  0.693208  1
  Sn  Sn7  1  0.119723  0.880280  0.284240  1
  Sn  Sn8  1  0.880290  0.119707  0.715793  1
  Sn  Sn9  1  0.119386  0.239118  0.284148  1
  Sn  Sn10  1  0.880245  0.760548  0.715769  1
  Sn  Sn11  1  0.760886  0.880619  0.284147  1
  Sn  Sn12  1  0.239448  0.119752  0.715768  1
  Sn  Sn13  1  0.777045  0.222950  0.456959  1
  Sn  Sn14  1  0.222985  0.777012  0.543087  1
  Sn  Sn15  1  0.777463  0.554184  0.457055  1
  Sn  Sn16  1  0.222702  0.445861  0.543341  1
  Sn  Sn17  1  0.445817  0.222540  0.457054  1
  Sn  Sn18  1  0.554134  0.777294  0.543346  1
  Sn  Sn19  1  0.352333  0.999940  0.999878  1
  Sn  Sn20  1  0.647685  0.000025  0.999971  1
  Sn  Sn21  1  0.999975  0.352313  0.999971  1
  Sn  Sn22  1  0.000056  0.647667  0.999877  1
  Sn  Sn23  1  0.647811  0.647761  0.999994  1
  Sn  Sn24  1  0.352237  0.352188  0.000002  1
  Sn  Sn25  1  0.332989  0.667012  0.125494  1
  Sn  Sn26  1  0.666681  0.333323  0.874272  1
  Sn  Sn27  1  0.333307  0.666681  0.827094  1
  Sn  Sn28  1  0.666683  0.333315  0.172943  1
  Sn  Sn29  1  0.000059  0.999937  0.500009  1
  Ir  Ir30  1  0.830785  0.169216  0.198919  1
  Ir  Ir31  1  0.169134  0.830867  0.800978  1
  Ir  Ir32  1  0.831494  0.661909  0.198754  1
  Ir  Ir33  1  0.169170  0.338373  0.801068  1
  Ir  Ir34  1  0.338093  0.168508  0.198755  1
  Ir  Ir35  1  0.661628  0.830831  0.801069  1
