# generated using pymatgen
data_Tm3MgCd2Ga2Ag
_symmetry_space_group_name_H-M   'P 1'
_cell_length_a   7.29458800
_cell_length_b   7.30768403
_cell_length_c   4.32150000
_cell_angle_alpha   90.00000000
_cell_angle_beta   90.00000000
_cell_angle_gamma   119.94073580
_symmetry_Int_Tables_number   1
_chemical_formula_structural   Tm3MgCd2Ga2Ag
_chemical_formula_sum   'Tm3 Mg1 Cd2 Ga2 Ag1'
_cell_volume   199.62030865
_cell_formula_units_Z   1
loop_
 _symmetry_equiv_pos_site_id
 _symmetry_equiv_pos_as_xyz
  1  'x, y, z'
loop_
 _atom_site_type_symbol
 _atom_site_label
 _atom_site_symmetry_multiplicity
 _atom_site_fract_x
 _atom_site_fract_y
 _atom_site_fract_z
 _atom_site_occupancy
  Tm  Tm0  1  0.000385  0.575825  0.000000  1
  Tm  Tm1  1  0.424560  0.424175  0.000000  1
  Tm  Tm2  1  0.578941  0.000000  0.000000  1
  Mg  Mg3  1  0.241404  0.000000  0.500000  1
  Cd  Cd4  1  0.001405  0.252391  0.500000  1
  Cd  Cd5  1  0.749015  0.747609  0.500000  1
  Ga  Ga6  1  0.662128  0.327872  0.500000  1
  Ga  Ga7  1  0.334255  0.672128  0.500000  1
  Ag  Ag8  1  0.007909  0.000000  0.000000  1
