# generated using pymatgen
data_Y3Sc3CoTe2
_symmetry_space_group_name_H-M   'P 1'
_cell_length_a   3.94354700
_cell_length_b   8.01496203
_cell_length_c   8.01730001
_cell_angle_alpha   120.01416187
_cell_angle_beta   90.00000000
_cell_angle_gamma   90.00000000
_symmetry_Int_Tables_number   1
_chemical_formula_structural   Y3Sc3CoTe2
_chemical_formula_sum   'Y3 Sc3 Co1 Te2'
_cell_volume   219.42457406
_cell_formula_units_Z   1
loop_
 _symmetry_equiv_pos_site_id
 _symmetry_equiv_pos_as_xyz
  1  'x, y, z'
loop_
 _atom_site_type_symbol
 _atom_site_label
 _atom_site_symmetry_multiplicity
 _atom_site_fract_x
 _atom_site_fract_y
 _atom_site_fract_z
 _atom_site_occupancy
  Y  Y0  1  0.000000  0.389150  0.389176  1
  Y  Y1  1  0.000000  0.000002  0.610837  1
  Y  Y2  1  0.000000  0.610813  0.000025  1
  Sc  Sc3  1  0.500000  0.774090  0.774004  1
  Sc  Sc4  1  0.500000  0.000039  0.225907  1
  Sc  Sc5  1  0.500000  0.225924  0.999956  1
  Co  Co6  1  0.000000  0.999994  0.000042  1
  Te  Te7  1  0.500000  0.666763  0.333389  1
  Te  Te8  1  0.500000  0.333226  0.666664  1
