# generated using pymatgen
data_Na3Ho(PO4)2
_symmetry_space_group_name_H-M   'P 1'
_cell_length_a   5.28180763
_cell_length_b   5.28180712
_cell_length_c   7.15226673
_cell_angle_alpha   89.94073323
_cell_angle_beta   89.94072999
_cell_angle_gamma   64.69975836
_symmetry_Int_Tables_number   1
_chemical_formula_structural   Na3Ho(PO4)2
_chemical_formula_sum   'Na3 Ho1 P2 O8'
_cell_volume   180.39135243
_cell_formula_units_Z   1
loop_
 _symmetry_equiv_pos_site_id
 _symmetry_equiv_pos_as_xyz
  1  'x, y, z'
loop_
 _atom_site_type_symbol
 _atom_site_label
 _atom_site_symmetry_multiplicity
 _atom_site_fract_x
 _atom_site_fract_y
 _atom_site_fract_z
 _atom_site_occupancy
  Na  Na0  1  0.685774  0.685774  0.286511  1
  Na  Na1  1  0.000000  0.000000  0.500000  1
  Na  Na2  1  0.314226  0.314226  0.713489  1
  Ho  Ho3  1  0.000000  0.000000  0.000000  1
  P  P4  1  0.653011  0.653011  0.772421  1
  P  P5  1  0.346989  0.346989  0.227579  1
  O  O6  1  0.248619  0.248619  0.402210  1
  O  O7  1  0.751381  0.751381  0.597790  1
  O  O8  1  0.227989  0.676252  0.224886  1
  O  O9  1  0.323748  0.772011  0.775114  1
  O  O10  1  0.772011  0.323748  0.775114  1
  O  O11  1  0.676252  0.227989  0.224886  1
  O  O12  1  0.248277  0.248277  0.048839  1
  O  O13  1  0.751723  0.751723  0.951161  1
