# generated using pymatgen
data_Tm20IrOs2Pt9
_symmetry_space_group_name_H-M   'P 1'
_cell_length_a   10.91226500
_cell_length_b   10.91226500
_cell_length_c   6.28804200
_cell_angle_alpha   90.00000000
_cell_angle_beta   90.00000000
_cell_angle_gamma   90.00000000
_symmetry_Int_Tables_number   1
_chemical_formula_structural   Tm20IrOs2Pt9
_chemical_formula_sum   'Tm20 Ir1 Os2 Pt9'
_cell_volume   748.76449374
_cell_formula_units_Z   1
loop_
 _symmetry_equiv_pos_site_id
 _symmetry_equiv_pos_as_xyz
  1  'x, y, z'
loop_
 _atom_site_type_symbol
 _atom_site_label
 _atom_site_symmetry_multiplicity
 _atom_site_fract_x
 _atom_site_fract_y
 _atom_site_fract_z
 _atom_site_occupancy
  Tm  Tm0  1  0.293139  0.087941  0.368271  1
  Tm  Tm1  1  0.294459  0.912695  0.878197  1
  Tm  Tm2  1  0.705541  0.087305  0.878197  1
  Tm  Tm3  1  0.706861  0.912059  0.368271  1
  Tm  Tm4  1  0.587305  0.794459  0.878197  1
  Tm  Tm5  1  0.587941  0.206861  0.368271  1
  Tm  Tm6  1  0.412059  0.793139  0.368271  1
  Tm  Tm7  1  0.412695  0.205541  0.878197  1
  Tm  Tm8  1  0.203930  0.413073  0.628793  1
  Tm  Tm9  1  0.203287  0.585702  0.124470  1
  Tm  Tm10  1  0.796713  0.414298  0.124470  1
  Tm  Tm11  1  0.796070  0.586927  0.628793  1
  Tm  Tm12  1  0.914298  0.703287  0.124470  1
  Tm  Tm13  1  0.913073  0.296070  0.628793  1
  Tm  Tm14  1  0.086927  0.703930  0.628793  1
  Tm  Tm15  1  0.085702  0.296713  0.124470  1
  Tm  Tm16  1  0.000000  0.000000  0.501038  1
  Tm  Tm17  1  0.000000  0.000000  0.000525  1
  Tm  Tm18  1  0.500000  0.500000  0.000525  1
  Tm  Tm19  1  0.500000  0.500000  0.501038  1
  Ir  Ir20  1  0.000000  0.500000  0.378006  1
  Os  Os21  1  0.500000  0.000000  0.124161  1
  Os  Os22  1  0.000000  0.500000  0.875108  1
  Pt  Pt23  1  0.846188  0.152797  0.250611  1
  Pt  Pt24  1  0.846167  0.846980  0.749652  1
  Pt  Pt25  1  0.153833  0.153020  0.749652  1
  Pt  Pt26  1  0.153812  0.847203  0.250611  1
  Pt  Pt27  1  0.653020  0.346167  0.749652  1
  Pt  Pt28  1  0.652797  0.653812  0.250611  1
  Pt  Pt29  1  0.347203  0.346188  0.250611  1
  Pt  Pt30  1  0.346980  0.653833  0.749652  1
  Pt  Pt31  1  0.500000  0.000000  0.619621  1
