# generated using pymatgen
data_YbDyAl8SiIr3
_symmetry_space_group_name_H-M   'P 1'
_cell_length_a   7.53042034
_cell_length_b   7.54144135
_cell_length_c   9.38562000
_cell_angle_alpha   90.00000000
_cell_angle_beta   90.00000000
_cell_angle_gamma   119.61469894
_symmetry_Int_Tables_number   1
_chemical_formula_structural   YbDyAl8SiIr3
_chemical_formula_sum   'Yb2 Dy2 Al16 Si2 Ir6'
_cell_volume   463.38320097
_cell_formula_units_Z   2
loop_
 _symmetry_equiv_pos_site_id
 _symmetry_equiv_pos_as_xyz
  1  'x, y, z'
loop_
 _atom_site_type_symbol
 _atom_site_label
 _atom_site_symmetry_multiplicity
 _atom_site_fract_x
 _atom_site_fract_y
 _atom_site_fract_z
 _atom_site_occupancy
  Yb  Yb0  1  0.994979  0.674027  0.750000  1
  Yb  Yb1  1  0.005021  0.325973  0.250000  1
  Dy  Dy2  1  0.675849  0.996622  0.750000  1
  Dy  Dy3  1  0.324151  0.003378  0.250000  1
  Al  Al4  1  0.001747  0.337417  0.574372  1
  Al  Al5  1  0.998253  0.662583  0.425628  1
  Al  Al6  1  0.998253  0.662583  0.074372  1
  Al  Al7  1  0.334982  0.000336  0.923844  1
  Al  Al8  1  0.001747  0.337417  0.925628  1
  Al  Al9  1  0.665018  0.999664  0.076156  1
  Al  Al10  1  0.665018  0.999664  0.423844  1
  Al  Al11  1  0.334982  0.000336  0.576156  1
  Al  Al12  1  0.334963  0.335978  0.054446  1
  Al  Al13  1  0.665037  0.664022  0.945554  1
  Al  Al14  1  0.665037  0.664022  0.554446  1
  Al  Al15  1  0.334963  0.335978  0.445554  1
  Al  Al16  1  0.335052  0.547191  0.750000  1
  Al  Al17  1  0.664948  0.452809  0.250000  1
  Al  Al18  1  0.547302  0.334163  0.750000  1
  Al  Al19  1  0.452698  0.665837  0.250000  1
  Si  Si20  1  0.129306  0.130981  0.750000  1
  Si  Si21  1  0.870694  0.869019  0.250000  1
  Ir  Ir22  1  0.669586  0.327114  0.500076  1
  Ir  Ir23  1  0.330414  0.672886  0.499924  1
  Ir  Ir24  1  0.330414  0.672886  0.000076  1
  Ir  Ir25  1  0.669586  0.327114  0.999924  1
  Ir  Ir26  1  0.000000  0.000000  0.500000  1
  Ir  Ir27  1  0.000000  0.000000  0.000000  1
