# generated using pymatgen
data_Tm4Zn2B4Ir3Rh7
_symmetry_space_group_name_H-M   'P 1'
_cell_length_a   9.51130229
_cell_length_b   9.52041329
_cell_length_c   3.16160600
_cell_angle_alpha   90.00000000
_cell_angle_beta   90.00000000
_cell_angle_gamma   89.97162865
_symmetry_Int_Tables_number   1
_chemical_formula_structural   Tm4Zn2B4Ir3Rh7
_chemical_formula_sum   'Tm4 Zn2 B4 Ir3 Rh7'
_cell_volume   286.28822153
_cell_formula_units_Z   1
loop_
 _symmetry_equiv_pos_site_id
 _symmetry_equiv_pos_as_xyz
  1  'x, y, z'
loop_
 _atom_site_type_symbol
 _atom_site_label
 _atom_site_symmetry_multiplicity
 _atom_site_fract_x
 _atom_site_fract_y
 _atom_site_fract_z
 _atom_site_occupancy
  Tm  Tm0  1  0.321879  0.822097  0.000000  1
  Tm  Tm1  1  0.677649  0.176312  0.000000  1
  Tm  Tm2  1  0.177458  0.322298  0.000000  1
  Tm  Tm3  1  0.822655  0.678050  0.000000  1
  Zn  Zn4  1  0.499570  0.500344  0.000000  1
  Zn  Zn5  1  0.000126  0.000221  0.000000  1
  B  B6  1  0.122353  0.622128  0.000000  1
  B  B7  1  0.874680  0.378255  0.000000  1
  B  B8  1  0.377641  0.122572  0.000000  1
  B  B9  1  0.622495  0.876958  0.000000  1
  Ir  Ir10  1  0.719772  0.430983  0.500000  1
  Ir  Ir11  1  0.000964  0.500312  0.500000  1
  Ir  Ir12  1  0.499702  0.999174  0.500000  1
  Rh  Rh13  1  0.569470  0.719558  0.500000  1
  Rh  Rh14  1  0.431331  0.280218  0.500000  1
  Rh  Rh15  1  0.931656  0.219629  0.500000  1
  Rh  Rh16  1  0.069595  0.780724  0.500000  1
  Rh  Rh17  1  0.780429  0.930684  0.500000  1
  Rh  Rh18  1  0.219852  0.069992  0.500000  1
  Rh  Rh19  1  0.280723  0.569489  0.500000  1
