# generated using pymatgen
data_Er4Hf5NbGe8
_symmetry_space_group_name_H-M   'P 1'
_cell_length_a   7.34084504
_cell_length_b   7.34084435
_cell_length_c   13.44680900
_cell_angle_alpha   90.00000000
_cell_angle_beta   90.00000000
_cell_angle_gamma   90.11911320
_symmetry_Int_Tables_number   1
_chemical_formula_structural   Er4Hf5NbGe8
_chemical_formula_sum   'Er8 Hf10 Nb2 Ge16'
_cell_volume   724.62008895
_cell_formula_units_Z   2
loop_
 _symmetry_equiv_pos_site_id
 _symmetry_equiv_pos_as_xyz
  1  'x, y, z'
loop_
 _atom_site_type_symbol
 _atom_site_label
 _atom_site_symmetry_multiplicity
 _atom_site_fract_x
 _atom_site_fract_y
 _atom_site_fract_z
 _atom_site_occupancy
  Er  Er0  1  0.999272  0.340083  0.217540  1
  Er  Er1  1  0.000728  0.659917  0.717540  1
  Er  Er2  1  0.158969  0.501074  0.468786  1
  Er  Er3  1  0.498926  0.841031  0.031214  1
  Er  Er4  1  0.841031  0.498926  0.968786  1
  Er  Er5  1  0.501074  0.158969  0.531214  1
  Er  Er6  1  0.340083  0.999272  0.782460  1
  Er  Er7  1  0.659917  0.000728  0.282460  1
  Hf  Hf8  1  0.327180  0.672820  0.250000  1
  Hf  Hf9  1  0.672820  0.327180  0.750000  1
  Hf  Hf10  1  0.153556  0.996066  0.377240  1
  Hf  Hf11  1  0.846444  0.003934  0.877240  1
  Hf  Hf12  1  0.506725  0.657319  0.624508  1
  Hf  Hf13  1  0.342681  0.493275  0.875492  1
  Hf  Hf14  1  0.493275  0.342681  0.124508  1
  Hf  Hf15  1  0.657319  0.506725  0.375492  1
  Hf  Hf16  1  0.996066  0.153556  0.622760  1
  Hf  Hf17  1  0.003934  0.846444  0.122760  1
  Nb  Nb18  1  0.171622  0.171622  0.000000  1
  Nb  Nb19  1  0.828378  0.828378  0.500000  1
  Ge  Ge20  1  0.365827  0.301107  0.323765  1
  Ge  Ge21  1  0.634173  0.698893  0.823765  1
  Ge  Ge22  1  0.199581  0.864715  0.572741  1
  Ge  Ge23  1  0.135285  0.800419  0.927259  1
  Ge  Ge24  1  0.800419  0.135285  0.072741  1
  Ge  Ge25  1  0.864715  0.199581  0.427259  1
  Ge  Ge26  1  0.301107  0.365827  0.676235  1
  Ge  Ge27  1  0.698893  0.634173  0.176235  1
  Ge  Ge28  1  0.297301  0.038361  0.181090  1
  Ge  Ge29  1  0.702699  0.961639  0.681090  1
  Ge  Ge30  1  0.463853  0.800189  0.431519  1
  Ge  Ge31  1  0.199811  0.536147  0.068481  1
  Ge  Ge32  1  0.536147  0.199811  0.931519  1
  Ge  Ge33  1  0.800189  0.463853  0.568481  1
  Ge  Ge34  1  0.038361  0.297301  0.818910  1
  Ge  Ge35  1  0.961639  0.702699  0.318910  1
