# generated using pymatgen
data_P4PdRhO14
_symmetry_space_group_name_H-M   'P 1'
_cell_length_a   4.82589823
_cell_length_b   6.93978052
_cell_length_c   8.10736600
_cell_angle_alpha   91.87251148
_cell_angle_beta   92.35538435
_cell_angle_gamma   106.34557732
_symmetry_Int_Tables_number   1
_chemical_formula_structural   P4PdRhO14
_chemical_formula_sum   'P4 Pd1 Rh1 O14'
_cell_volume   260.04930911
_cell_formula_units_Z   1
loop_
 _symmetry_equiv_pos_site_id
 _symmetry_equiv_pos_as_xyz
  1  'x, y, z'
loop_
 _atom_site_type_symbol
 _atom_site_label
 _atom_site_symmetry_multiplicity
 _atom_site_fract_x
 _atom_site_fract_y
 _atom_site_fract_z
 _atom_site_occupancy
  P  P0  1  0.530477  0.140090  0.766124  1
  P  P1  1  0.113784  0.747586  0.692192  1
  P  P2  1  0.886216  0.252414  0.307808  1
  P  P3  1  0.469523  0.859910  0.233876  1
  Pd  Pd4  1  0.000000  0.000000  0.000000  1
  Rh  Rh5  1  0.500000  0.500000  0.500000  1
  O  O6  1  0.379647  0.174320  0.923797  1
  O  O7  1  0.033876  0.751145  0.874689  1
  O  O8  1  0.801989  0.067666  0.795938  1
  O  O9  1  0.294211  0.597085  0.679592  1
  O  O10  1  0.630327  0.325974  0.664900  1
  O  O11  1  0.307207  0.967575  0.648056  1
  O  O12  1  0.859843  0.715232  0.562745  1
  O  O13  1  0.140157  0.284768  0.437255  1
  O  O14  1  0.692793  0.032425  0.351944  1
  O  O15  1  0.369673  0.674026  0.335100  1
  O  O16  1  0.705789  0.402915  0.320408  1
  O  O17  1  0.198011  0.932334  0.204062  1
  O  O18  1  0.966124  0.248855  0.125311  1
  O  O19  1  0.620353  0.825680  0.076203  1
