# generated using pymatgen
data_Nd2PbO2
_symmetry_space_group_name_H-M   'P 1'
_cell_length_a   3.97466500
_cell_length_b   14.89691100
_cell_length_c   7.95947600
_cell_angle_alpha   90.00000000
_cell_angle_beta   90.00000000
_cell_angle_gamma   90.00000000
_symmetry_Int_Tables_number   1
_chemical_formula_structural   Nd2PbO2
_chemical_formula_sum   'Nd8 Pb4 O8'
_cell_volume   471.28241069
_cell_formula_units_Z   4
loop_
 _symmetry_equiv_pos_site_id
 _symmetry_equiv_pos_as_xyz
  1  'x, y, z'
loop_
 _atom_site_type_symbol
 _atom_site_label
 _atom_site_symmetry_multiplicity
 _atom_site_fract_x
 _atom_site_fract_y
 _atom_site_fract_z
 _atom_site_occupancy
  Nd  Nd0  1  0.000000  0.332363  0.876595  1
  Nd  Nd1  1  0.000000  0.667637  0.876595  1
  Nd  Nd2  1  0.500000  0.167637  0.123405  1
  Nd  Nd3  1  0.500000  0.832363  0.123405  1
  Nd  Nd4  1  0.000000  0.328958  0.373491  1
  Nd  Nd5  1  0.000000  0.671042  0.373491  1
  Nd  Nd6  1  0.500000  0.171042  0.626509  1
  Nd  Nd7  1  0.500000  0.828958  0.626509  1
  Pb  Pb8  1  0.000000  0.000000  0.854680  1
  Pb  Pb9  1  0.500000  0.500000  0.145320  1
  Pb  Pb10  1  0.000000  0.000000  0.396303  1
  Pb  Pb11  1  0.500000  0.500000  0.603697  1
  O  O12  1  0.000000  0.252404  0.627056  1
  O  O13  1  0.000000  0.747596  0.627056  1
  O  O14  1  0.500000  0.247596  0.372944  1
  O  O15  1  0.500000  0.752404  0.372944  1
  O  O16  1  0.000000  0.247430  0.122925  1
  O  O17  1  0.000000  0.752570  0.122925  1
  O  O18  1  0.500000  0.252570  0.877075  1
  O  O19  1  0.500000  0.747430  0.877075  1
