# generated using pymatgen
data_Tb2BeCo16
_symmetry_space_group_name_H-M   'P 1'
_cell_length_a   6.25508470
_cell_length_b   6.19349863
_cell_length_c   6.25508500
_cell_angle_alpha   83.39119091
_cell_angle_beta   82.52216718
_cell_angle_gamma   83.39117887
_symmetry_Int_Tables_number   1
_chemical_formula_structural   Tb2BeCo16
_chemical_formula_sum   'Tb2 Be1 Co16'
_cell_volume   237.43372493
_cell_formula_units_Z   1
loop_
 _symmetry_equiv_pos_site_id
 _symmetry_equiv_pos_as_xyz
  1  'x, y, z'
loop_
 _atom_site_type_symbol
 _atom_site_label
 _atom_site_symmetry_multiplicity
 _atom_site_fract_x
 _atom_site_fract_y
 _atom_site_fract_z
 _atom_site_occupancy
  Tb  Tb0  1  0.655973  0.657039  0.655973  1
  Tb  Tb1  1  0.344027  0.342961  0.344027  1
  Be  Be2  1  0.000000  0.500000  0.000000  1
  Co  Co3  1  0.000000  0.000000  0.500000  1
  Co  Co4  1  0.500000  0.000000  0.000000  1
  Co  Co5  1  0.282999  0.706850  0.998997  1
  Co  Co6  1  0.712366  0.000000  0.287634  1
  Co  Co7  1  0.001003  0.293150  0.717001  1
  Co  Co8  1  0.287634  0.000000  0.712366  1
  Co  Co9  1  0.998997  0.706850  0.282999  1
  Co  Co10  1  0.717001  0.293150  0.001003  1
  Co  Co11  1  0.340504  0.349272  0.854086  1
  Co  Co12  1  0.346464  0.846361  0.346464  1
  Co  Co13  1  0.854086  0.349272  0.340504  1
  Co  Co14  1  0.659496  0.650728  0.145914  1
  Co  Co15  1  0.653536  0.153639  0.653536  1
  Co  Co16  1  0.145914  0.650728  0.659496  1
  Co  Co17  1  0.902965  0.904401  0.902965  1
  Co  Co18  1  0.097035  0.095599  0.097035  1
