# generated using pymatgen
data_LiV5Os4
_symmetry_space_group_name_H-M   'P 1'
_cell_length_a   4.21935137
_cell_length_b   7.80138314
_cell_length_c   4.22488100
_cell_angle_alpha   90.00000000
_cell_angle_beta   90.00000000
_cell_angle_gamma   74.39740307
_symmetry_Int_Tables_number   1
_chemical_formula_structural   LiV5Os4
_chemical_formula_sum   'Li1 V5 Os4'
_cell_volume   133.94480674
_cell_formula_units_Z   1
loop_
 _symmetry_equiv_pos_site_id
 _symmetry_equiv_pos_as_xyz
  1  'x, y, z'
loop_
 _atom_site_type_symbol
 _atom_site_label
 _atom_site_symmetry_multiplicity
 _atom_site_fract_x
 _atom_site_fract_y
 _atom_site_fract_z
 _atom_site_occupancy
  Li  Li0  1  0.083461  0.800044  0.500001  1
  V  V1  1  0.383268  0.199950  0.000000  1
  V  V2  1  0.783252  0.400116  0.000000  1
  V  V3  1  0.583298  0.800019  0.000000  1
  V  V4  1  0.886515  0.193268  0.500001  1
  V  V5  1  0.280093  0.406791  0.500001  1
  Os  Os6  1  0.981205  0.003767  0.000000  1
  Os  Os7  1  0.185386  0.596121  0.000000  1
  Os  Os8  1  0.480899  0.004633  0.500001  1
  Os  Os9  1  0.685801  0.595292  0.500001  1
