# generated using pymatgen
data_Pr4NdSn15Ir3Rh5
_symmetry_space_group_name_H-M   'P 1'
_cell_length_a   4.54364200
_cell_length_b   7.32550186
_cell_length_c   18.78980910
_cell_angle_alpha   89.90510568
_cell_angle_beta   90.00000000
_cell_angle_gamma   90.00000000
_symmetry_Int_Tables_number   1
_chemical_formula_structural   Pr4NdSn15Ir3Rh5
_chemical_formula_sum   'Pr4 Nd1 Sn15 Ir3 Rh5'
_cell_volume   625.40775265
_cell_formula_units_Z   1
loop_
 _symmetry_equiv_pos_site_id
 _symmetry_equiv_pos_as_xyz
  1  'x, y, z'
loop_
 _atom_site_type_symbol
 _atom_site_label
 _atom_site_symmetry_multiplicity
 _atom_site_fract_x
 _atom_site_fract_y
 _atom_site_fract_z
 _atom_site_occupancy
  Pr  Pr0  1  0.500000  0.002117  0.856339  1
  Pr  Pr1  1  0.500000  0.501041  0.357445  1
  Pr  Pr2  1  0.000000  0.001366  0.143313  1
  Pr  Pr3  1  0.000000  0.500227  0.641216  1
  Nd  Nd4  1  0.500000  0.493042  0.930334  1
  Sn  Sn5  1  0.000000  0.717346  0.806569  1
  Sn  Sn6  1  0.000000  0.780270  0.305369  1
  Sn  Sn7  1  0.500000  0.277782  0.194213  1
  Sn  Sn8  1  0.500000  0.218597  0.693724  1
  Sn  Sn9  1  0.000000  0.854187  0.969694  1
  Sn  Sn10  1  0.000000  0.631348  0.468149  1
  Sn  Sn11  1  0.500000  0.134947  0.032489  1
  Sn  Sn12  1  0.500000  0.365096  0.530719  1
  Sn  Sn13  1  0.000000  0.304820  0.819380  1
  Sn  Sn14  1  0.000000  0.198549  0.317556  1
  Sn  Sn15  1  0.500000  0.696764  0.185583  1
  Sn  Sn16  1  0.500000  0.807577  0.679373  1
  Sn  Sn17  1  0.500000  0.019026  0.432833  1
  Sn  Sn18  1  0.000000  0.511648  0.067537  1
  Sn  Sn19  1  0.000000  0.981776  0.568209  1
  Ir  Ir20  1  0.000000  0.230139  0.965199  1
  Ir  Ir21  1  0.500000  0.764467  0.044656  1
  Ir  Ir22  1  0.500000  0.750668  0.533831  1
  Rh  Rh23  1  0.000000  0.247991  0.464551  1
  Rh  Rh24  1  0.000000  0.018391  0.715671  1
  Rh  Rh25  1  0.000000  0.482804  0.213211  1
  Rh  Rh26  1  0.500000  0.986192  0.288860  1
  Rh  Rh27  1  0.500000  0.521819  0.773977  1
