# generated using pymatgen
data_Y5Er15Cd4(NiHg)2
_symmetry_space_group_name_H-M   'P 1'
_cell_length_a   9.61793004
_cell_length_b   9.60837349
_cell_length_c   9.57201700
_cell_angle_alpha   90.00000000
_cell_angle_beta   90.00000000
_cell_angle_gamma   119.96054845
_symmetry_Int_Tables_number   1
_chemical_formula_structural   Y5Er15Cd4(NiHg)2
_chemical_formula_sum   'Y5 Er15 Cd4 Ni2 Hg2'
_cell_volume   766.36929358
_cell_formula_units_Z   1
loop_
 _symmetry_equiv_pos_site_id
 _symmetry_equiv_pos_as_xyz
  1  'x, y, z'
loop_
 _atom_site_type_symbol
 _atom_site_label
 _atom_site_symmetry_multiplicity
 _atom_site_fract_x
 _atom_site_fract_y
 _atom_site_fract_z
 _atom_site_occupancy
  Y  Y0  1  0.547564  0.088890  0.250000  1
  Y  Y1  1  0.913276  0.456650  0.250000  1
  Y  Y2  1  0.456659  0.542767  0.750000  1
  Y  Y3  1  0.455574  0.912229  0.750000  1
  Y  Y4  1  0.088704  0.544949  0.750000  1
  Er  Er5  1  0.996508  0.997976  0.493056  1
  Er  Er6  1  0.996508  0.997976  0.006944  1
  Er  Er7  1  0.546270  0.460329  0.250000  1
  Er  Er8  1  0.210929  0.790451  0.436668  1
  Er  Er9  1  0.211737  0.420904  0.435766  1
  Er  Er10  1  0.578515  0.788841  0.436078  1
  Er  Er11  1  0.790104  0.210674  0.563417  1
  Er  Er12  1  0.789058  0.578385  0.563578  1
  Er  Er13  1  0.421188  0.210841  0.562744  1
  Er  Er14  1  0.790104  0.210674  0.936583  1
  Er  Er15  1  0.789058  0.578385  0.936422  1
  Er  Er16  1  0.421188  0.210841  0.937256  1
  Er  Er17  1  0.210929  0.790451  0.063332  1
  Er  Er18  1  0.211737  0.420904  0.064234  1
  Er  Er19  1  0.578515  0.788841  0.063922  1
  Cd  Cd20  1  0.236617  0.118547  0.250000  1
  Cd  Cd21  1  0.113004  0.886594  0.750000  1
  Cd  Cd22  1  0.112456  0.226792  0.750000  1
  Cd  Cd23  1  0.771634  0.886404  0.750000  1
  Ni  Ni24  1  0.332032  0.665946  0.250000  1
  Ni  Ni25  1  0.665222  0.332318  0.750000  1
  Hg  Hg26  1  0.882990  0.120930  0.250000  1
  Hg  Hg27  1  0.881917  0.760515  0.250000  1
