# generated using pymatgen
data_Ho10TlIn2Sb3
_symmetry_space_group_name_H-M   'P 1'
_cell_length_a   8.94099800
_cell_length_b   8.93532838
_cell_length_c   6.49469700
_cell_angle_alpha   90.00000000
_cell_angle_beta   90.00000000
_cell_angle_gamma   120.02099187
_symmetry_Int_Tables_number   1
_chemical_formula_structural   Ho10TlIn2Sb3
_chemical_formula_sum   'Ho10 Tl1 In2 Sb3'
_cell_volume   449.25626020
_cell_formula_units_Z   1
loop_
 _symmetry_equiv_pos_site_id
 _symmetry_equiv_pos_as_xyz
  1  'x, y, z'
loop_
 _atom_site_type_symbol
 _atom_site_label
 _atom_site_symmetry_multiplicity
 _atom_site_fract_x
 _atom_site_fract_y
 _atom_site_fract_z
 _atom_site_occupancy
  Ho  Ho0  1  0.331006  0.665590  0.000749  1
  Ho  Ho1  1  0.665417  0.334410  0.499251  1
  Ho  Ho2  1  0.665417  0.334410  0.000749  1
  Ho  Ho3  1  0.331006  0.665590  0.499251  1
  Ho  Ho4  1  0.760817  0.000000  0.750000  1
  Ho  Ho5  1  0.763213  0.759697  0.250000  1
  Ho  Ho6  1  0.003517  0.240303  0.250000  1
  Ho  Ho7  1  0.001510  0.762579  0.750000  1
  Ho  Ho8  1  0.238933  0.237421  0.750000  1
  Ho  Ho9  1  0.237839  0.000000  0.250000  1
  Tl  Tl10  1  0.395382  0.000000  0.750000  1
  In  In11  1  0.395518  0.396355  0.250000  1
  In  In12  1  0.999161  0.603645  0.250000  1
  Sb  Sb13  1  0.997829  0.392479  0.750000  1
  Sb  Sb14  1  0.605350  0.607521  0.750000  1
  Sb  Sb15  1  0.608084  0.000000  0.250000  1
