# generated using pymatgen
data_Th6Cd19Ag4P
_symmetry_space_group_name_H-M   'P 1'
_cell_length_a   9.99175730
_cell_length_b   9.98626010
_cell_length_c   9.99175800
_cell_angle_alpha   60.01820431
_cell_angle_beta   59.96359976
_cell_angle_gamma   60.01819956
_symmetry_Int_Tables_number   1
_chemical_formula_structural   Th6Cd19Ag4P
_chemical_formula_sum   'Th6 Cd19 Ag4 P1'
_cell_volume   704.97125337
_cell_formula_units_Z   1
loop_
 _symmetry_equiv_pos_site_id
 _symmetry_equiv_pos_as_xyz
  1  'x, y, z'
loop_
 _atom_site_type_symbol
 _atom_site_label
 _atom_site_symmetry_multiplicity
 _atom_site_fract_x
 _atom_site_fract_y
 _atom_site_fract_z
 _atom_site_occupancy
  Th  Th0  1  0.799955  0.799955  0.200045  1
  Th  Th1  1  0.199820  0.800180  0.199820  1
  Th  Th2  1  0.799955  0.200045  0.200045  1
  Th  Th3  1  0.200045  0.200045  0.799955  1
  Th  Th4  1  0.800180  0.199820  0.800180  1
  Th  Th5  1  0.200045  0.799955  0.799955  1
  Cd  Cd6  1  0.836779  0.831020  0.501179  1
  Cd  Cd7  1  0.831020  0.501179  0.831020  1
  Cd  Cd8  1  0.501179  0.831020  0.836779  1
  Cd  Cd9  1  0.831020  0.836779  0.831020  1
  Cd  Cd10  1  0.163221  0.168980  0.498821  1
  Cd  Cd11  1  0.168980  0.498821  0.168980  1
  Cd  Cd12  1  0.498821  0.168980  0.163221  1
  Cd  Cd13  1  0.168980  0.163221  0.168980  1
  Cd  Cd14  1  0.617933  0.623788  0.134489  1
  Cd  Cd15  1  0.623788  0.134489  0.623788  1
  Cd  Cd16  1  0.134489  0.623788  0.617933  1
  Cd  Cd17  1  0.623788  0.617933  0.623788  1
  Cd  Cd18  1  0.382067  0.376212  0.865511  1
  Cd  Cd19  1  0.376212  0.865511  0.376212  1
  Cd  Cd20  1  0.865511  0.376212  0.382067  1
  Cd  Cd21  1  0.376212  0.382067  0.376212  1
  Cd  Cd22  1  0.500000  0.000000  0.500000  1
  Cd  Cd23  1  0.000000  0.500000  0.000000  1
  Cd  Cd24  1  0.500000  0.500000  0.500000  1
  Ag  Ag25  1  0.000000  0.000000  0.500000  1
  Ag  Ag26  1  0.000000  0.500000  0.500000  1
  Ag  Ag27  1  0.500000  0.500000  0.000000  1
  Ag  Ag28  1  0.500000  0.000000  0.000000  1
  P  P29  1  0.000000  0.000000  0.000000  1
