# generated using pymatgen
data_Ac2Si3Ni8
_symmetry_space_group_name_H-M   'P 1'
_cell_length_a   10.23843100
_cell_length_b   10.23843100
_cell_length_c   7.67468900
_cell_angle_alpha   90.00000000
_cell_angle_beta   90.00000000
_cell_angle_gamma   90.00000000
_symmetry_Int_Tables_number   1
_chemical_formula_structural   Ac2Si3Ni8
_chemical_formula_sum   'Ac8 Si12 Ni32'
_cell_volume   804.50287648
_cell_formula_units_Z   4
loop_
 _symmetry_equiv_pos_site_id
 _symmetry_equiv_pos_as_xyz
  1  'x, y, z'
loop_
 _atom_site_type_symbol
 _atom_site_label
 _atom_site_symmetry_multiplicity
 _atom_site_fract_x
 _atom_site_fract_y
 _atom_site_fract_z
 _atom_site_occupancy
  Ac  Ac0  1  0.500000  0.706469  0.650424  1
  Ac  Ac1  1  0.500000  0.293531  0.650424  1
  Ac  Ac2  1  0.206469  0.000000  0.150424  1
  Ac  Ac3  1  0.793531  0.000000  0.150424  1
  Ac  Ac4  1  0.000000  0.793531  0.849576  1
  Ac  Ac5  1  0.000000  0.206469  0.849576  1
  Ac  Ac6  1  0.293531  0.500000  0.349576  1
  Ac  Ac7  1  0.706469  0.500000  0.349576  1
  Si  Si8  1  0.500000  0.000000  0.273547  1
  Si  Si9  1  0.500000  0.000000  0.773547  1
  Si  Si10  1  0.000000  0.500000  0.226453  1
  Si  Si11  1  0.000000  0.500000  0.726453  1
  Si  Si12  1  0.293589  0.706411  0.000000  1
  Si  Si13  1  0.293589  0.293589  0.000000  1
  Si  Si14  1  0.706411  0.706411  0.000000  1
  Si  Si15  1  0.706411  0.293589  0.000000  1
  Si  Si16  1  0.206411  0.793589  0.500000  1
  Si  Si17  1  0.206411  0.206411  0.500000  1
  Si  Si18  1  0.793589  0.793589  0.500000  1
  Si  Si19  1  0.793589  0.206411  0.500000  1
  Ni  Ni20  1  0.500000  0.866732  0.015499  1
  Ni  Ni21  1  0.500000  0.133268  0.015499  1
  Ni  Ni22  1  0.366732  0.000000  0.515499  1
  Ni  Ni23  1  0.633268  0.000000  0.515499  1
  Ni  Ni24  1  0.000000  0.633268  0.484501  1
  Ni  Ni25  1  0.000000  0.366732  0.484501  1
  Ni  Ni26  1  0.133268  0.500000  0.984501  1
  Ni  Ni27  1  0.866732  0.500000  0.984501  1
  Ni  Ni28  1  0.373342  0.793846  0.285020  1
  Ni  Ni29  1  0.373342  0.206154  0.285020  1
  Ni  Ni30  1  0.626658  0.793846  0.285020  1
  Ni  Ni31  1  0.626658  0.206154  0.285020  1
  Ni  Ni32  1  0.293846  0.873342  0.785020  1
  Ni  Ni33  1  0.293846  0.126658  0.785020  1
  Ni  Ni34  1  0.706154  0.873342  0.785020  1
  Ni  Ni35  1  0.706154  0.126658  0.785020  1
  Ni  Ni36  1  0.126658  0.706154  0.214980  1
  Ni  Ni37  1  0.126658  0.293846  0.214980  1
  Ni  Ni38  1  0.873342  0.706154  0.214980  1
  Ni  Ni39  1  0.873342  0.293846  0.214980  1
  Ni  Ni40  1  0.206154  0.626658  0.714980  1
  Ni  Ni41  1  0.206154  0.373342  0.714980  1
  Ni  Ni42  1  0.793846  0.626658  0.714980  1
  Ni  Ni43  1  0.793846  0.373342  0.714980  1
  Ni  Ni44  1  0.500000  0.631678  0.097710  1
  Ni  Ni45  1  0.500000  0.368322  0.097710  1
  Ni  Ni46  1  0.131678  0.000000  0.597710  1
  Ni  Ni47  1  0.868322  0.000000  0.597710  1
  Ni  Ni48  1  0.000000  0.868322  0.402290  1
  Ni  Ni49  1  0.000000  0.131678  0.402290  1
  Ni  Ni50  1  0.368322  0.500000  0.902290  1
  Ni  Ni51  1  0.631678  0.500000  0.902290  1
