# generated using pymatgen
data_Ho12Th4MgCd3Ir4
_symmetry_space_group_name_H-M   'P 1'
_cell_length_a   9.75446938
_cell_length_b   9.75447030
_cell_length_c   9.75446933
_cell_angle_alpha   59.82357956
_cell_angle_beta   59.82357918
_cell_angle_gamma   59.82357867
_symmetry_Int_Tables_number   1
_chemical_formula_structural   Ho12Th4MgCd3Ir4
_chemical_formula_sum   'Ho12 Th4 Mg1 Cd3 Ir4'
_cell_volume   653.66231230
_cell_formula_units_Z   1
loop_
 _symmetry_equiv_pos_site_id
 _symmetry_equiv_pos_as_xyz
  1  'x, y, z'
loop_
 _atom_site_type_symbol
 _atom_site_label
 _atom_site_symmetry_multiplicity
 _atom_site_fract_x
 _atom_site_fract_y
 _atom_site_fract_z
 _atom_site_occupancy
  Ho  Ho0  1  0.061717  0.438246  0.438246  1
  Ho  Ho1  1  0.436672  0.063234  0.063234  1
  Ho  Ho2  1  0.438246  0.061717  0.438246  1
  Ho  Ho3  1  0.063234  0.436672  0.063234  1
  Ho  Ho4  1  0.438246  0.438246  0.061717  1
  Ho  Ho5  1  0.063234  0.063234  0.436672  1
  Ho  Ho6  1  0.187724  0.815300  0.815300  1
  Ho  Ho7  1  0.814303  0.185562  0.185562  1
  Ho  Ho8  1  0.815300  0.187724  0.815300  1
  Ho  Ho9  1  0.185562  0.814303  0.185562  1
  Ho  Ho10  1  0.815300  0.815300  0.187724  1
  Ho  Ho11  1  0.185562  0.185562  0.814303  1
  Th  Th12  1  0.599191  0.599191  0.599191  1
  Th  Th13  1  0.600191  0.600191  0.200456  1
  Th  Th14  1  0.600191  0.200456  0.600191  1
  Th  Th15  1  0.200456  0.600191  0.600191  1
  Mg  Mg16  1  0.829839  0.829839  0.829839  1
  Cd  Cd17  1  0.832161  0.832161  0.501755  1
  Cd  Cd18  1  0.832161  0.501755  0.832161  1
  Cd  Cd19  1  0.501755  0.832161  0.832161  1
  Ir  Ir20  1  0.393256  0.393256  0.393256  1
  Ir  Ir21  1  0.392544  0.392544  0.820613  1
  Ir  Ir22  1  0.392544  0.820613  0.392544  1
  Ir  Ir23  1  0.820613  0.392544  0.392544  1
