# generated using pymatgen
data_Li4TiZn3Pd8
_symmetry_space_group_name_H-M   'P 1'
_cell_length_a   5.85316600
_cell_length_b   6.62466500
_cell_length_c   5.84545000
_cell_angle_alpha   90.00000000
_cell_angle_beta   89.99907923
_cell_angle_gamma   89.99949467
_symmetry_Int_Tables_number   1
_chemical_formula_structural   Li4TiZn3Pd8
_chemical_formula_sum   'Li4 Ti1 Zn3 Pd8'
_cell_volume   226.65886658
_cell_formula_units_Z   1
loop_
 _symmetry_equiv_pos_site_id
 _symmetry_equiv_pos_as_xyz
  1  'x, y, z'
loop_
 _atom_site_type_symbol
 _atom_site_label
 _atom_site_symmetry_multiplicity
 _atom_site_fract_x
 _atom_site_fract_y
 _atom_site_fract_z
 _atom_site_occupancy
  Li  Li0  1  0.749867  0.250000  0.000002  1
  Li  Li1  1  0.250137  0.749999  0.999999  1
  Li  Li2  1  0.249843  0.750000  0.499932  1
  Li  Li3  1  0.750142  0.250000  0.500067  1
  Ti  Ti4  1  0.749804  0.749999  0.500008  1
  Zn  Zn5  1  0.249766  0.250000  0.000000  1
  Zn  Zn6  1  0.750220  0.749999  0.000001  1
  Zn  Zn7  1  0.250207  0.250000  0.499990  1
  Pd  Pd8  1  0.500207  0.999648  0.251305  1
  Pd  Pd9  1  0.500208  0.500353  0.251305  1
  Pd  Pd10  1  0.999684  0.500502  0.251423  1
  Pd  Pd11  1  0.999683  0.999498  0.251425  1
  Pd  Pd12  1  0.999806  0.999646  0.748585  1
  Pd  Pd13  1  0.999806  0.500354  0.748585  1
  Pd  Pd14  1  0.500308  0.500512  0.748686  1
  Pd  Pd15  1  0.500308  0.999488  0.748687  1
