# generated using pymatgen
data_Ho2Er10TlInFe2Ru
_symmetry_space_group_name_H-M   'P 1'
_cell_length_a   8.30566471
_cell_length_b   8.30559620
_cell_length_c   8.30074100
_cell_angle_alpha   108.64264917
_cell_angle_beta   108.64408415
_cell_angle_gamma   111.16492220
_symmetry_Int_Tables_number   1
_chemical_formula_structural   Ho2Er10TlInFe2Ru
_chemical_formula_sum   'Ho2 Er10 Tl1 In1 Fe2 Ru1'
_cell_volume   440.37697985
_cell_formula_units_Z   1
loop_
 _symmetry_equiv_pos_site_id
 _symmetry_equiv_pos_as_xyz
  1  'x, y, z'
loop_
 _atom_site_type_symbol
 _atom_site_label
 _atom_site_symmetry_multiplicity
 _atom_site_fract_x
 _atom_site_fract_y
 _atom_site_fract_z
 _atom_site_occupancy
  Ho  Ho0  1  0.307269  0.693046  0.000283  1
  Ho  Ho1  1  0.692731  0.306954  0.999717  1
  Er  Er2  1  0.430658  0.192933  0.238480  1
  Er  Er3  1  0.569342  0.807067  0.761520  1
  Er  Er4  1  0.954461  0.192235  0.761576  1
  Er  Er5  1  0.192427  0.954124  0.760997  1
  Er  Er6  1  0.045539  0.807765  0.238424  1
  Er  Er7  1  0.807573  0.045876  0.239003  1
  Er  Er8  1  0.193119  0.431469  0.239038  1
  Er  Er9  1  0.806881  0.568531  0.760962  1
  Er  Er10  1  0.307747  0.307315  0.615080  1
  Er  Er11  1  0.692253  0.692685  0.384920  1
  Tl  Tl12  1  0.000000  0.500000  0.500000  1
  In  In13  1  0.500000  0.000000  0.500000  1
  Fe  Fe14  1  0.385242  0.385229  0.999976  1
  Fe  Fe15  1  0.614758  0.614771  0.000024  1
  Ru  Ru16  1  0.000000  0.000000  0.000000  1
