# generated using pymatgen
data_Hf6CoSn6Ir4Ru
_symmetry_space_group_name_H-M   'P 1'
_cell_length_a   7.40438800
_cell_length_b   7.40438654
_cell_length_c   7.12582500
_cell_angle_alpha   90.00000000
_cell_angle_beta   90.00000000
_cell_angle_gamma   119.99999758
_symmetry_Int_Tables_number   1
_chemical_formula_structural   Hf6CoSn6Ir4Ru
_chemical_formula_sum   'Hf6 Co1 Sn6 Ir4 Ru1'
_cell_volume   338.33275548
_cell_formula_units_Z   1
loop_
 _symmetry_equiv_pos_site_id
 _symmetry_equiv_pos_as_xyz
  1  'x, y, z'
loop_
 _atom_site_type_symbol
 _atom_site_label
 _atom_site_symmetry_multiplicity
 _atom_site_fract_x
 _atom_site_fract_y
 _atom_site_fract_z
 _atom_site_occupancy
  Hf  Hf0  1  0.016555  0.404149  0.750000  1
  Hf  Hf1  1  0.595851  0.612407  0.750000  1
  Hf  Hf2  1  0.387593  0.983445  0.750000  1
  Hf  Hf3  1  0.981559  0.388216  0.250000  1
  Hf  Hf4  1  0.611784  0.593342  0.250000  1
  Hf  Hf5  1  0.406658  0.018441  0.250000  1
  Co  Co6  1  0.000000  0.000000  0.250000  1
  Sn  Sn7  1  0.264847  0.264450  0.494126  1
  Sn  Sn8  1  0.999603  0.735153  0.494126  1
  Sn  Sn9  1  0.999603  0.735153  0.005874  1
  Sn  Sn10  1  0.735550  0.000397  0.494126  1
  Sn  Sn11  1  0.735550  0.000397  0.005874  1
  Sn  Sn12  1  0.264847  0.264450  0.005874  1
  Ir  Ir13  1  0.333333  0.666667  0.471245  1
  Ir  Ir14  1  0.666667  0.333333  0.532483  1
  Ir  Ir15  1  0.333333  0.666667  0.028755  1
  Ir  Ir16  1  0.666667  0.333333  0.967517  1
  Ru  Ru17  1  0.000000  0.000000  0.750000  1
