# generated using pymatgen
data_ScMnFe2Co2P3
_symmetry_space_group_name_H-M   'P 1'
_cell_length_a   3.56416000
_cell_length_b   10.20728900
_cell_length_c   11.72260400
_cell_angle_alpha   90.00000000
_cell_angle_beta   90.00000000
_cell_angle_gamma   90.00000000
_symmetry_Int_Tables_number   1
_chemical_formula_structural   ScMnFe2Co2P3
_chemical_formula_sum   'Sc4 Mn4 Fe8 Co8 P12'
_cell_volume   426.47315341
_cell_formula_units_Z   4
loop_
 _symmetry_equiv_pos_site_id
 _symmetry_equiv_pos_as_xyz
  1  'x, y, z'
loop_
 _atom_site_type_symbol
 _atom_site_label
 _atom_site_symmetry_multiplicity
 _atom_site_fract_x
 _atom_site_fract_y
 _atom_site_fract_z
 _atom_site_occupancy
  Sc  Sc0  1  0.250000  0.581556  0.704924  1
  Sc  Sc1  1  0.250000  0.918444  0.204924  1
  Sc  Sc2  1  0.750000  0.418444  0.295076  1
  Sc  Sc3  1  0.750000  0.081556  0.795076  1
  Mn  Mn4  1  0.250000  0.708295  0.989581  1
  Mn  Mn5  1  0.250000  0.791705  0.489581  1
  Mn  Mn6  1  0.750000  0.291705  0.010419  1
  Mn  Mn7  1  0.750000  0.208295  0.510419  1
  Fe  Fe8  1  0.250000  0.404987  0.487611  1
  Fe  Fe9  1  0.250000  0.095013  0.987611  1
  Fe  Fe10  1  0.750000  0.595013  0.512389  1
  Fe  Fe11  1  0.750000  0.904987  0.012389  1
  Fe  Fe12  1  0.250000  0.220470  0.174349  1
  Fe  Fe13  1  0.250000  0.279531  0.674349  1
  Fe  Fe14  1  0.750000  0.779531  0.825651  1
  Fe  Fe15  1  0.750000  0.720469  0.325651  1
  Co  Co16  1  0.250000  0.883111  0.700173  1
  Co  Co17  1  0.250000  0.616889  0.200173  1
  Co  Co18  1  0.750000  0.116889  0.299827  1
  Co  Co19  1  0.750000  0.383111  0.799827  1
  Co  Co20  1  0.250000  0.462927  0.932870  1
  Co  Co21  1  0.250000  0.037073  0.432870  1
  Co  Co22  1  0.750000  0.537073  0.067130  1
  Co  Co23  1  0.750000  0.962927  0.567130  1
  P  P24  1  0.250000  0.420178  0.116860  1
  P  P25  1  0.250000  0.079822  0.616860  1
  P  P26  1  0.750000  0.579822  0.883140  1
  P  P27  1  0.750000  0.920178  0.383140  1
  P  P28  1  0.250000  0.263298  0.864249  1
  P  P29  1  0.250000  0.236702  0.364249  1
  P  P30  1  0.750000  0.736702  0.135751  1
  P  P31  1  0.750000  0.763298  0.635751  1
  P  P32  1  0.250000  0.593662  0.389274  1
  P  P33  1  0.250000  0.906338  0.889274  1
  P  P34  1  0.750000  0.406338  0.610726  1
  P  P35  1  0.750000  0.093662  0.110726  1
