# generated using pymatgen
data_Yb5Si2Hg
_symmetry_space_group_name_H-M   'P 1'
_cell_length_a   9.34154373
_cell_length_b   9.34162920
_cell_length_c   9.34364536
_cell_angle_alpha   131.60573633
_cell_angle_beta   131.60527346
_cell_angle_gamma   70.83680927
_symmetry_Int_Tables_number   1
_chemical_formula_structural   Yb5Si2Hg
_chemical_formula_sum   'Yb10 Si4 Hg2'
_cell_volume   446.53539045
_cell_formula_units_Z   2
loop_
 _symmetry_equiv_pos_site_id
 _symmetry_equiv_pos_as_xyz
  1  'x, y, z'
loop_
 _atom_site_type_symbol
 _atom_site_label
 _atom_site_symmetry_multiplicity
 _atom_site_fract_x
 _atom_site_fract_y
 _atom_site_fract_z
 _atom_site_occupancy
  Yb  Yb0  1  0.500000  0.500000  0.000000  1
  Yb  Yb1  1  0.537312  0.037207  0.851539  1
  Yb  Yb2  1  0.185660  0.685766  0.148452  1
  Yb  Yb3  1  0.037113  0.185765  0.499894  1
  Yb  Yb4  1  0.685871  0.537220  0.500108  1
  Yb  Yb5  1  0.462688  0.962793  0.148461  1
  Yb  Yb6  1  0.814340  0.314234  0.851548  1
  Yb  Yb7  1  0.962887  0.814235  0.500106  1
  Yb  Yb8  1  0.314129  0.462780  0.499892  1
  Yb  Yb9  1  0.000000  0.000000  0.000000  1
  Si  Si10  1  0.887921  0.387725  0.275644  1
  Si  Si11  1  0.112079  0.612275  0.724356  1
  Si  Si12  1  0.387764  0.112037  0.499802  1
  Si  Si13  1  0.612236  0.887963  0.500198  1
  Hg  Hg14  1  0.249034  0.249047  0.000000  1
  Hg  Hg15  1  0.750966  0.750953  0.000000  1
