# generated using pymatgen
data_Ho8Al3Si8Ge
_symmetry_space_group_name_H-M   'P 1'
_cell_length_a   5.58186688
_cell_length_b   5.58186730
_cell_length_c   19.44795046
_cell_angle_alpha   82.20149758
_cell_angle_beta   82.20149710
_cell_angle_gamma   42.52502501
_symmetry_Int_Tables_number   1
_chemical_formula_structural   Ho8Al3Si8Ge
_chemical_formula_sum   'Ho8 Al3 Si8 Ge1'
_cell_volume   405.20066182
_cell_formula_units_Z   1
loop_
 _symmetry_equiv_pos_site_id
 _symmetry_equiv_pos_as_xyz
  1  'x, y, z'
loop_
 _atom_site_type_symbol
 _atom_site_label
 _atom_site_symmetry_multiplicity
 _atom_site_fract_x
 _atom_site_fract_y
 _atom_site_fract_z
 _atom_site_occupancy
  Ho  Ho0  1  0.462791  0.462791  0.676572  1
  Ho  Ho1  1  0.703477  0.703477  0.928717  1
  Ho  Ho2  1  0.973639  0.973639  0.179244  1
  Ho  Ho3  1  0.216757  0.216757  0.428050  1
  Ho  Ho4  1  0.783243  0.783243  0.571950  1
  Ho  Ho5  1  0.026361  0.026361  0.820756  1
  Ho  Ho6  1  0.296523  0.296523  0.071283  1
  Ho  Ho7  1  0.537209  0.537209  0.323428  1
  Al  Al8  1  0.254588  0.254588  0.252321  1
  Al  Al9  1  0.500000  0.500000  0.500000  1
  Al  Al10  1  0.745412  0.745412  0.747679  1
  Si  Si11  1  0.172698  0.172698  0.676309  1
  Si  Si12  1  0.415757  0.415757  0.923123  1
  Si  Si13  1  0.686909  0.686909  0.180047  1
  Si  Si14  1  0.928012  0.928012  0.427870  1
  Si  Si15  1  0.071988  0.071988  0.572130  1
  Si  Si16  1  0.313091  0.313091  0.819953  1
  Si  Si17  1  0.584243  0.584243  0.076877  1
  Si  Si18  1  0.827302  0.827302  0.323691  1
  Ge  Ge19  1  0.000000  0.000000  0.000000  1
