# generated using pymatgen
data_Ca6Pr2Zn(Si4Pd)3
_symmetry_space_group_name_H-M   'P 1'
_cell_length_a   8.25711200
_cell_length_b   8.25711271
_cell_length_c   8.54435100
_cell_angle_alpha   90.00000000
_cell_angle_beta   90.00000000
_cell_angle_gamma   120.00000516
_symmetry_Int_Tables_number   1
_chemical_formula_structural   Ca6Pr2Zn(Si4Pd)3
_chemical_formula_sum   'Ca6 Pr2 Zn1 Si12 Pd3'
_cell_volume   504.50570109
_cell_formula_units_Z   1
loop_
 _symmetry_equiv_pos_site_id
 _symmetry_equiv_pos_as_xyz
  1  'x, y, z'
loop_
 _atom_site_type_symbol
 _atom_site_label
 _atom_site_symmetry_multiplicity
 _atom_site_fract_x
 _atom_site_fract_y
 _atom_site_fract_z
 _atom_site_occupancy
  Ca  Ca0  1  0.497418  0.502582  0.743489  1
  Ca  Ca1  1  0.498391  0.501609  0.256531  1
  Ca  Ca2  1  0.005163  0.502582  0.743489  1
  Ca  Ca3  1  0.003219  0.501609  0.256531  1
  Ca  Ca4  1  0.497418  0.994837  0.743489  1
  Ca  Ca5  1  0.498391  0.996781  0.256531  1
  Pr  Pr6  1  0.000000  0.000000  0.747606  1
  Pr  Pr7  1  0.000000  0.000000  0.253051  1
  Zn  Zn8  1  0.666667  0.333333  0.995050  1
  Si  Si9  1  0.837273  0.162727  0.000852  1
  Si  Si10  1  0.167531  0.832469  0.999430  1
  Si  Si11  1  0.325453  0.162727  0.000852  1
  Si  Si12  1  0.165043  0.834957  0.500154  1
  Si  Si13  1  0.664939  0.832469  0.999430  1
  Si  Si14  1  0.834347  0.165653  0.500084  1
  Si  Si15  1  0.837273  0.674547  0.000852  1
  Si  Si16  1  0.669914  0.834957  0.500154  1
  Si  Si17  1  0.167531  0.335061  0.999430  1
  Si  Si18  1  0.331306  0.165653  0.500084  1
  Si  Si19  1  0.165043  0.330086  0.500154  1
  Si  Si20  1  0.834347  0.668694  0.500084  1
  Pd  Pd21  1  0.333333  0.666667  0.001950  1
  Pd  Pd22  1  0.333333  0.666667  0.498668  1
  Pd  Pd23  1  0.666667  0.333333  0.502054  1
