# generated using pymatgen
data_RbTi2Cl7
_symmetry_space_group_name_H-M   'P 1'
_cell_length_a   11.31365100
_cell_length_b   6.73283140
_cell_length_c   7.47759960
_cell_angle_alpha   84.42151947
_cell_angle_beta   90.00000000
_cell_angle_gamma   90.00000000
_symmetry_Int_Tables_number   1
_chemical_formula_structural   RbTi2Cl7
_chemical_formula_sum   'Rb2 Ti4 Cl14'
_cell_volume   566.89288968
_cell_formula_units_Z   2
loop_
 _symmetry_equiv_pos_site_id
 _symmetry_equiv_pos_as_xyz
  1  'x, y, z'
loop_
 _atom_site_type_symbol
 _atom_site_label
 _atom_site_symmetry_multiplicity
 _atom_site_fract_x
 _atom_site_fract_y
 _atom_site_fract_z
 _atom_site_occupancy
  Rb  Rb0  1  0.750000  0.060116  0.626153  1
  Rb  Rb1  1  0.250000  0.939884  0.373847  1
  Ti  Ti2  1  0.886154  0.416065  0.126122  1
  Ti  Ti3  1  0.386154  0.583935  0.873878  1
  Ti  Ti4  1  0.113846  0.583935  0.873878  1
  Ti  Ti5  1  0.613846  0.416065  0.126122  1
  Cl  Cl6  1  0.750000  0.563652  0.890613  1
  Cl  Cl7  1  0.250000  0.436348  0.109387  1
  Cl  Cl8  1  0.750000  0.545649  0.343106  1
  Cl  Cl9  1  0.250000  0.454351  0.656894  1
  Cl  Cl10  1  0.750000  0.127802  0.131483  1
  Cl  Cl11  1  0.250000  0.872198  0.868517  1
  Cl  Cl12  1  0.001525  0.276421  0.892283  1
  Cl  Cl13  1  0.501525  0.723579  0.107717  1
  Cl  Cl14  1  0.998475  0.723579  0.107717  1
  Cl  Cl15  1  0.498475  0.276421  0.892283  1
  Cl  Cl16  1  0.997318  0.254489  0.355107  1
  Cl  Cl17  1  0.497318  0.745511  0.644893  1
  Cl  Cl18  1  0.002682  0.745511  0.644893  1
  Cl  Cl19  1  0.502682  0.254489  0.355107  1
