# generated using pymatgen
data_Al2In(Ni10B3)2
_symmetry_space_group_name_H-M   'P 1'
_cell_length_a   7.44429511
_cell_length_b   7.44429527
_cell_length_c   7.44429400
_cell_angle_alpha   60.00000563
_cell_angle_beta   60.00000494
_cell_angle_gamma   60.00000399
_symmetry_Int_Tables_number   1
_chemical_formula_structural   Al2In(Ni10B3)2
_chemical_formula_sum   'Al2 In1 Ni20 B6'
_cell_volume   291.71296959
_cell_formula_units_Z   1
loop_
 _symmetry_equiv_pos_site_id
 _symmetry_equiv_pos_as_xyz
  1  'x, y, z'
loop_
 _atom_site_type_symbol
 _atom_site_label
 _atom_site_symmetry_multiplicity
 _atom_site_fract_x
 _atom_site_fract_y
 _atom_site_fract_z
 _atom_site_occupancy
  Al  Al0  1  0.000000  0.000000  0.000000  1
  Al  Al1  1  0.250000  0.250000  0.250000  1
  In  In2  1  0.750000  0.750000  0.750000  1
  Ni  Ni3  1  0.001252  0.336107  0.661389  1
  Ni  Ni4  1  0.001252  0.001252  0.661389  1
  Ni  Ni5  1  0.661389  0.336107  0.001252  1
  Ni  Ni6  1  0.001252  0.336107  0.001252  1
  Ni  Ni7  1  0.336107  0.001252  0.661389  1
  Ni  Ni8  1  0.336107  0.001252  0.001252  1
  Ni  Ni9  1  0.661389  0.001252  0.001252  1
  Ni  Ni10  1  0.336107  0.661389  0.001252  1
  Ni  Ni11  1  0.661389  0.001252  0.336107  1
  Ni  Ni12  1  0.001252  0.001252  0.336107  1
  Ni  Ni13  1  0.001252  0.661389  0.001252  1
  Ni  Ni14  1  0.001252  0.661389  0.336107  1
  Ni  Ni15  1  0.611346  0.165962  0.611346  1
  Ni  Ni16  1  0.380534  0.380534  0.858399  1
  Ni  Ni17  1  0.858399  0.380534  0.380534  1
  Ni  Ni18  1  0.380534  0.380534  0.380534  1
  Ni  Ni19  1  0.165962  0.611346  0.611346  1
  Ni  Ni20  1  0.611346  0.611346  0.611346  1
  Ni  Ni21  1  0.611346  0.611346  0.165962  1
  Ni  Ni22  1  0.380534  0.858399  0.380534  1
  B  B23  1  0.727280  0.272720  0.727280  1
  B  B24  1  0.727280  0.272720  0.272720  1
  B  B25  1  0.272720  0.727280  0.727280  1
  B  B26  1  0.272720  0.272720  0.727280  1
  B  B27  1  0.727280  0.727280  0.272720  1
  B  B28  1  0.272720  0.727280  0.272720  1
