# generated using pymatgen
data_TbY5MoO12
_symmetry_space_group_name_H-M   'P 1'
_cell_length_a   6.49979106
_cell_length_b   6.49978441
_cell_length_c   6.50766449
_cell_angle_alpha   98.63224206
_cell_angle_beta   98.53534147
_cell_angle_gamma   98.56661142
_symmetry_Int_Tables_number   1
_chemical_formula_structural   TbY5MoO12
_chemical_formula_sum   'Tb1 Y5 Mo1 O12'
_cell_volume   264.65130650
_cell_formula_units_Z   1
loop_
 _symmetry_equiv_pos_site_id
 _symmetry_equiv_pos_as_xyz
  1  'x, y, z'
loop_
 _atom_site_type_symbol
 _atom_site_label
 _atom_site_symmetry_multiplicity
 _atom_site_fract_x
 _atom_site_fract_y
 _atom_site_fract_z
 _atom_site_occupancy
  Tb  Tb0  1  0.612446  0.314385  0.143098  1
  Y  Y1  1  0.144179  0.611249  0.315756  1
  Y  Y2  1  0.684518  0.856040  0.389188  1
  Y  Y3  1  0.315184  0.143879  0.611199  1
  Y  Y4  1  0.856105  0.388945  0.684473  1
  Y  Y5  1  0.388630  0.684800  0.856277  1
  Mo  Mo6  1  0.999919  0.999686  0.999943  1
  O  O7  1  0.703728  0.925370  0.034180  1
  O  O8  1  0.966169  0.296513  0.075310  1
  O  O9  1  0.432691  0.592781  0.176868  1
  O  O10  1  0.075176  0.966420  0.295918  1
  O  O11  1  0.823006  0.567850  0.407748  1
  O  O12  1  0.592843  0.176728  0.433273  1
  O  O13  1  0.407072  0.822599  0.567910  1
  O  O14  1  0.176754  0.432137  0.592261  1
  O  O15  1  0.924704  0.033684  0.704432  1
  O  O16  1  0.567245  0.408406  0.821598  1
  O  O17  1  0.033600  0.703710  0.924795  1
  O  O18  1  0.296032  0.074816  0.965775  1
