# generated using pymatgen
data_Ti8Mn4ReIr3
_symmetry_space_group_name_H-M   'P 1'
_cell_length_a   6.07790000
_cell_length_b   4.31402400
_cell_length_c   8.63626100
_cell_angle_alpha   90.00000000
_cell_angle_beta   90.00016445
_cell_angle_gamma   90.00000000
_symmetry_Int_Tables_number   1
_chemical_formula_structural   Ti8Mn4ReIr3
_chemical_formula_sum   'Ti8 Mn4 Re1 Ir3'
_cell_volume   226.44454654
_cell_formula_units_Z   1
loop_
 _symmetry_equiv_pos_site_id
 _symmetry_equiv_pos_as_xyz
  1  'x, y, z'
loop_
 _atom_site_type_symbol
 _atom_site_label
 _atom_site_symmetry_multiplicity
 _atom_site_fract_x
 _atom_site_fract_y
 _atom_site_fract_z
 _atom_site_occupancy
  Ti  Ti0  1  0.002589  0.749999  0.125001  1
  Ti  Ti1  1  0.497431  0.749999  0.125005  1
  Ti  Ti2  1  0.001393  0.249999  0.373446  1
  Ti  Ti3  1  0.498649  0.249999  0.373452  1
  Ti  Ti4  1  0.500121  0.749999  0.624995  1
  Ti  Ti5  1  0.999836  0.749999  0.625002  1
  Ti  Ti6  1  0.498625  0.249999  0.876554  1
  Ti  Ti7  1  0.001367  0.249999  0.876555  1
  Mn  Mn8  1  0.750014  0.249999  0.124996  1
  Mn  Mn9  1  0.250001  0.749999  0.377086  1
  Mn  Mn10  1  0.750006  0.249999  0.625001  1
  Mn  Mn11  1  0.249976  0.749999  0.872910  1
  Re  Re12  1  0.249997  0.249999  0.125005  1
  Ir  Ir13  1  0.750015  0.749999  0.375869  1
  Ir  Ir14  1  0.249988  0.249999  0.624994  1
  Ir  Ir15  1  0.749988  0.749999  0.874128  1
