# generated using pymatgen
data_HfZr2AuN
_symmetry_space_group_name_H-M   'P 1'
_cell_length_a   5.99058311
_cell_length_b   5.99058391
_cell_length_c   9.10982900
_cell_angle_alpha   90.00000000
_cell_angle_beta   90.00000000
_cell_angle_gamma   147.43671068
_symmetry_Int_Tables_number   1
_chemical_formula_structural   HfZr2AuN
_chemical_formula_sum   'Hf2 Zr4 Au2 N2'
_cell_volume   175.96127592
_cell_formula_units_Z   2
loop_
 _symmetry_equiv_pos_site_id
 _symmetry_equiv_pos_as_xyz
  1  'x, y, z'
loop_
 _atom_site_type_symbol
 _atom_site_label
 _atom_site_symmetry_multiplicity
 _atom_site_fract_x
 _atom_site_fract_y
 _atom_site_fract_z
 _atom_site_occupancy
  Hf  Hf0  1  0.374786  0.625212  0.546299  1
  Hf  Hf1  1  0.374786  0.625212  0.953701  1
  Zr  Zr2  1  0.626493  0.373505  0.045328  1
  Zr  Zr3  1  0.954374  0.045625  0.250000  1
  Zr  Zr4  1  0.626493  0.373505  0.454673  1
  Zr  Zr5  1  0.045726  0.954273  0.750000  1
  Au  Au6  1  0.249410  0.750588  0.250000  1
  Au  Au7  1  0.755208  0.244790  0.750000  1
  N  N8  1  0.996358  0.003642  0.998972  1
  N  N9  1  0.996358  0.003642  0.501028  1
