# generated using pymatgen
data_Ce3AlGa2Pd3
_symmetry_space_group_name_H-M   'P 1'
_cell_length_a   7.20613700
_cell_length_b   7.28579961
_cell_length_c   4.11096800
_cell_angle_alpha   90.00000000
_cell_angle_beta   90.00000000
_cell_angle_gamma   119.63894841
_symmetry_Int_Tables_number   1
_chemical_formula_structural   Ce3AlGa2Pd3
_chemical_formula_sum   'Ce3 Al1 Ga2 Pd3'
_cell_volume   187.59577094
_cell_formula_units_Z   1
loop_
 _symmetry_equiv_pos_site_id
 _symmetry_equiv_pos_as_xyz
  1  'x, y, z'
loop_
 _atom_site_type_symbol
 _atom_site_label
 _atom_site_symmetry_multiplicity
 _atom_site_fract_x
 _atom_site_fract_y
 _atom_site_fract_z
 _atom_site_occupancy
  Ce  Ce0  1  0.997840  0.578582  0.500000  1
  Ce  Ce1  1  0.419258  0.421418  0.500000  1
  Ce  Ce2  1  0.586206  0.000000  0.500000  1
  Al  Al3  1  0.235636  0.000000  0.000000  1
  Ga  Ga4  1  0.003271  0.243255  0.000000  1
  Ga  Ga5  1  0.760016  0.756745  0.000000  1
  Pd  Pd6  1  0.008460  0.000000  0.500000  1
  Pd  Pd7  1  0.330672  0.672033  0.000000  1
  Pd  Pd8  1  0.658640  0.327967  0.000000  1
