# generated using pymatgen
data_DyCo4(Ni4B3)2
_symmetry_space_group_name_H-M   'P 1'
_cell_length_a   5.99323713
_cell_length_b   5.98755740
_cell_length_c   5.99323745
_cell_angle_alpha   104.44036706
_cell_angle_beta   104.31071385
_cell_angle_gamma   104.44037244
_symmetry_Int_Tables_number   1
_chemical_formula_structural   DyCo4(Ni4B3)2
_chemical_formula_sum   'Dy1 Co4 Ni8 B6'
_cell_volume   190.40198707
_cell_formula_units_Z   1
loop_
 _symmetry_equiv_pos_site_id
 _symmetry_equiv_pos_as_xyz
  1  'x, y, z'
loop_
 _atom_site_type_symbol
 _atom_site_label
 _atom_site_symmetry_multiplicity
 _atom_site_fract_x
 _atom_site_fract_y
 _atom_site_fract_z
 _atom_site_occupancy
  Dy  Dy0  1  0.999275  0.000000  0.000725  1
  Co  Co1  1  0.865657  0.132099  0.501265  1
  Co  Co2  1  0.133566  0.500000  0.866434  1
  Co  Co3  1  0.498735  0.867901  0.134343  1
  Co  Co4  1  0.867188  0.500000  0.132812  1
  Ni  Ni5  1  0.499708  0.130951  0.867681  1
  Ni  Ni6  1  0.132319  0.869049  0.500292  1
  Ni  Ni7  1  0.812847  0.550523  0.547890  1
  Ni  Ni8  1  0.547657  0.547495  0.815045  1
  Ni  Ni9  1  0.545769  0.811686  0.546335  1
  Ni  Ni10  1  0.184955  0.452505  0.452343  1
  Ni  Ni11  1  0.452110  0.449477  0.187153  1
  Ni  Ni12  1  0.453665  0.188314  0.454231  1
  B  B13  1  0.329885  0.765216  0.770803  1
  B  B14  1  0.764773  0.767595  0.320458  1
  B  B15  1  0.772953  0.334320  0.769802  1
  B  B16  1  0.679542  0.232405  0.235227  1
  B  B17  1  0.229197  0.234784  0.670115  1
  B  B18  1  0.230198  0.665680  0.227047  1
