# generated using pymatgen
data_Ca2Ga3Pd
_symmetry_space_group_name_H-M   'P 1'
_cell_length_a   5.85574581
_cell_length_b   5.85574592
_cell_length_c   7.26573504
_cell_angle_alpha   50.50281626
_cell_angle_beta   50.50281455
_cell_angle_gamma   44.85743529
_symmetry_Int_Tables_number   1
_chemical_formula_structural   Ca2Ga3Pd
_chemical_formula_sum   'Ca2 Ga3 Pd1'
_cell_volume   127.51390992
_cell_formula_units_Z   1
loop_
 _symmetry_equiv_pos_site_id
 _symmetry_equiv_pos_as_xyz
  1  'x, y, z'
loop_
 _atom_site_type_symbol
 _atom_site_label
 _atom_site_symmetry_multiplicity
 _atom_site_fract_x
 _atom_site_fract_y
 _atom_site_fract_z
 _atom_site_occupancy
  Ca  Ca0  1  0.453579  0.453579  0.795651  1
  Ca  Ca1  1  0.547466  0.547466  0.202167  1
  Ga  Ga2  1  0.154711  0.154711  0.398171  1
  Ga  Ga3  1  0.170632  0.170632  0.770137  1
  Ga  Ga4  1  0.836654  0.836654  0.225877  1
  Pd  Pd5  1  0.836956  0.836956  0.607997  1
