# generated using pymatgen
data_Hf2InPdRh4
_symmetry_space_group_name_H-M   'P 1'
_cell_length_a   4.19425300
_cell_length_b   5.61072982
_cell_length_c   11.11532691
_cell_angle_alpha   88.90243918
_cell_angle_beta   90.00000000
_cell_angle_gamma   90.00000000
_symmetry_Int_Tables_number   1
_chemical_formula_structural   Hf2InPdRh4
_chemical_formula_sum   'Hf4 In2 Pd2 Rh8'
_cell_volume   261.52699987
_cell_formula_units_Z   2
loop_
 _symmetry_equiv_pos_site_id
 _symmetry_equiv_pos_as_xyz
  1  'x, y, z'
loop_
 _atom_site_type_symbol
 _atom_site_label
 _atom_site_symmetry_multiplicity
 _atom_site_fract_x
 _atom_site_fract_y
 _atom_site_fract_z
 _atom_site_occupancy
  Hf  Hf0  1  0.500000  0.176502  0.639005  1
  Hf  Hf1  1  0.500000  0.823498  0.360995  1
  Hf  Hf2  1  0.500000  0.692953  0.862636  1
  Hf  Hf3  1  0.500000  0.307047  0.137364  1
  In  In4  1  0.000000  0.500000  0.500000  1
  In  In5  1  0.000000  0.000000  0.000000  1
  Pd  Pd6  1  0.000000  0.441648  0.749781  1
  Pd  Pd7  1  0.000000  0.558352  0.250219  1
  Rh  Rh8  1  0.500000  0.211701  0.882476  1
  Rh  Rh9  1  0.500000  0.788299  0.117524  1
  Rh  Rh10  1  0.500000  0.706490  0.616318  1
  Rh  Rh11  1  0.500000  0.293510  0.383682  1
  Rh  Rh12  1  0.000000  0.000000  0.500000  1
  Rh  Rh13  1  0.000000  0.500000  0.000000  1
  Rh  Rh14  1  0.000000  0.059428  0.248480  1
  Rh  Rh15  1  0.000000  0.940572  0.751520  1
