# generated using pymatgen
data_Dy2Sc3Nb3(Co4P3)4
_symmetry_space_group_name_H-M   'P 1'
_cell_length_a   12.08227800
_cell_length_b   12.08227827
_cell_length_c   3.65033400
_cell_angle_alpha   90.00000000
_cell_angle_beta   90.00000000
_cell_angle_gamma   119.99999925
_symmetry_Int_Tables_number   1
_chemical_formula_structural   Dy2Sc3Nb3(Co4P3)4
_chemical_formula_sum   'Dy2 Sc3 Nb3 Co16 P12'
_cell_volume   461.48851438
_cell_formula_units_Z   1
loop_
 _symmetry_equiv_pos_site_id
 _symmetry_equiv_pos_as_xyz
  1  'x, y, z'
loop_
 _atom_site_type_symbol
 _atom_site_label
 _atom_site_symmetry_multiplicity
 _atom_site_fract_x
 _atom_site_fract_y
 _atom_site_fract_z
 _atom_site_occupancy
  Dy  Dy0  1  0.333333  0.666667  0.000000  1
  Dy  Dy1  1  0.666667  0.333333  0.000000  1
  Sc  Sc2  1  0.817901  0.000000  0.500000  1
  Sc  Sc3  1  0.000000  0.817901  0.500000  1
  Sc  Sc4  1  0.182099  0.182099  0.500000  1
  Nb  Nb5  1  0.446279  0.000000  0.000000  1
  Nb  Nb6  1  0.000000  0.446279  0.000000  1
  Nb  Nb7  1  0.553721  0.553721  0.000000  1
  Co  Co8  1  0.275979  0.000000  0.500000  1
  Co  Co9  1  0.000000  0.275979  0.500000  1
  Co  Co10  1  0.724021  0.724021  0.500000  1
  Co  Co11  1  0.630583  0.806129  0.000000  1
  Co  Co12  1  0.193871  0.824454  0.000000  1
  Co  Co13  1  0.175546  0.369417  0.000000  1
  Co  Co14  1  0.369417  0.175546  0.000000  1
  Co  Co15  1  0.806129  0.630583  0.000000  1
  Co  Co16  1  0.824454  0.193871  0.000000  1
  Co  Co17  1  0.521573  0.873852  0.500000  1
  Co  Co18  1  0.126148  0.647721  0.500000  1
  Co  Co19  1  0.352279  0.478427  0.500000  1
  Co  Co20  1  0.478427  0.352279  0.500000  1
  Co  Co21  1  0.873852  0.521573  0.500000  1
  Co  Co22  1  0.647721  0.126148  0.500000  1
  Co  Co23  1  0.000000  0.000000  0.000000  1
  P  P24  1  0.174146  0.000000  0.000000  1
  P  P25  1  0.000000  0.174146  0.000000  1
  P  P26  1  0.825854  0.825854  0.000000  1
  P  P27  1  0.521743  0.688923  0.500000  1
  P  P28  1  0.311077  0.832820  0.500000  1
  P  P29  1  0.167180  0.478257  0.500000  1
  P  P30  1  0.478257  0.167180  0.500000  1
  P  P31  1  0.688923  0.521743  0.500000  1
  P  P32  1  0.832820  0.311077  0.500000  1
  P  P33  1  0.649282  0.000000  0.000000  1
  P  P34  1  0.000000  0.649282  0.000000  1
  P  P35  1  0.350718  0.350718  0.000000  1
