# generated using pymatgen
data_Nd5Ni(P2Ru3)6
_symmetry_space_group_name_H-M   'P 1'
_cell_length_a   12.59594000
_cell_length_b   12.59594066
_cell_length_c   3.97736500
_cell_angle_alpha   90.00000000
_cell_angle_beta   90.00000000
_cell_angle_gamma   119.99260835
_symmetry_Int_Tables_number   1
_chemical_formula_structural   Nd5Ni(P2Ru3)6
_chemical_formula_sum   'Nd5 Ni1 P12 Ru18'
_cell_volume   546.53705405
_cell_formula_units_Z   1
loop_
 _symmetry_equiv_pos_site_id
 _symmetry_equiv_pos_as_xyz
  1  'x, y, z'
loop_
 _atom_site_type_symbol
 _atom_site_label
 _atom_site_symmetry_multiplicity
 _atom_site_fract_x
 _atom_site_fract_y
 _atom_site_fract_z
 _atom_site_occupancy
  Nd  Nd0  1  0.666695  0.333358  0.000000  1
  Nd  Nd1  1  0.333357  0.666694  0.000000  1
  Nd  Nd2  1  0.187673  0.000013  0.500001  1
  Nd  Nd3  1  0.000013  0.187671  0.500001  1
  Nd  Nd4  1  0.812265  0.812265  0.500001  1
  Ni  Ni5  1  0.999961  0.999961  0.000000  1
  P  P6  1  0.376554  0.000008  0.000000  1
  P  P7  1  0.818873  0.999989  0.000000  1
  P  P8  1  0.181092  0.181092  0.000000  1
  P  P9  1  0.000008  0.376554  0.000000  1
  P  P10  1  0.623457  0.623456  0.000000  1
  P  P11  1  0.999989  0.818872  0.000000  1
  P  P12  1  0.695040  0.169502  0.500001  1
  P  P13  1  0.474479  0.305008  0.500001  1
  P  P14  1  0.305007  0.474479  0.500001  1
  P  P15  1  0.830524  0.525547  0.500001  1
  P  P16  1  0.169502  0.695041  0.500001  1
  P  P17  1  0.525548  0.830525  0.500001  1
  Ru  Ru18  1  0.557934  0.000018  0.000000  1
  Ru  Ru19  1  0.808124  0.184266  0.000000  1
  Ru  Ru20  1  0.376151  0.191880  0.000000  1
  Ru  Ru21  1  0.191880  0.376151  0.000000  1
  Ru  Ru22  1  0.442069  0.442069  0.000000  1
  Ru  Ru23  1  0.000018  0.557934  0.000000  1
  Ru  Ru24  1  0.815744  0.623858  0.000000  1
  Ru  Ru25  1  0.184265  0.808123  0.000000  1
  Ru  Ru26  1  0.623857  0.815744  0.000000  1
  Ru  Ru27  1  0.719591  0.999993  0.500001  1
  Ru  Ru28  1  0.491581  0.124309  0.500001  1
  Ru  Ru29  1  0.280396  0.280396  0.500001  1
  Ru  Ru30  1  0.875720  0.367271  0.500001  1
  Ru  Ru31  1  0.124309  0.491581  0.500001  1
  Ru  Ru32  1  0.632746  0.508415  0.500001  1
  Ru  Ru33  1  0.508415  0.632746  0.500001  1
  Ru  Ru34  1  0.999993  0.719591  0.500001  1
  Ru  Ru35  1  0.367271  0.875719  0.500001  1
