# generated using pymatgen
data_Ac2B4Ir3Ru
_symmetry_space_group_name_H-M   'P 1'
_cell_length_a   7.18326732
_cell_length_b   6.22004782
_cell_length_c   5.68640550
_cell_angle_alpha   74.06195460
_cell_angle_beta   56.36901832
_cell_angle_gamma   49.97259894
_symmetry_Int_Tables_number   1
_chemical_formula_structural   Ac2B4Ir3Ru
_chemical_formula_sum   'Ac2 B4 Ir3 Ru1'
_cell_volume   160.65486923
_cell_formula_units_Z   1
loop_
 _symmetry_equiv_pos_site_id
 _symmetry_equiv_pos_as_xyz
  1  'x, y, z'
loop_
 _atom_site_type_symbol
 _atom_site_label
 _atom_site_symmetry_multiplicity
 _atom_site_fract_x
 _atom_site_fract_y
 _atom_site_fract_z
 _atom_site_occupancy
  Ac  Ac0  1  0.998000  0.998000  0.002000  1
  Ac  Ac1  1  0.248771  0.248771  0.251229  1
  B  B2  1  0.673168  0.324429  0.677493  1
  B  B3  1  0.324429  0.673168  0.324910  1
  B  B4  1  0.923431  0.581243  0.921457  1
  B  B5  1  0.581243  0.923431  0.573869  1
  Ir  Ir6  1  0.618426  0.618426  0.881574  1
  Ir  Ir7  1  0.632050  0.632050  0.367949  1
  Ir  Ir8  1  0.368396  0.368397  0.631603  1
  Ru  Ru9  1  0.882086  0.882085  0.617914  1
