# generated using pymatgen
data_Lu3Al2Co9B4
_symmetry_space_group_name_H-M   'P 1'
_cell_length_a   5.07801700
_cell_length_b   5.07685892
_cell_length_c   9.50605900
_cell_angle_alpha   89.99995220
_cell_angle_beta   90.00005212
_cell_angle_gamma   120.00578454
_symmetry_Int_Tables_number   1
_chemical_formula_structural   Lu3Al2Co9B4
_chemical_formula_sum   'Lu3 Al2 Co9 B4'
_cell_volume   212.22427835
_cell_formula_units_Z   1
loop_
 _symmetry_equiv_pos_site_id
 _symmetry_equiv_pos_as_xyz
  1  'x, y, z'
loop_
 _atom_site_type_symbol
 _atom_site_label
 _atom_site_symmetry_multiplicity
 _atom_site_fract_x
 _atom_site_fract_y
 _atom_site_fract_z
 _atom_site_occupancy
  Lu  Lu0  1  0.999979  0.000002  0.999941  1
  Lu  Lu1  1  0.999996  0.999991  0.338711  1
  Lu  Lu2  1  0.000006  0.000000  0.661248  1
  Al  Al3  1  0.333323  0.666711  0.000015  1
  Al  Al4  1  0.666648  0.333288  0.000015  1
  Co  Co5  1  0.499998  0.000000  0.500011  1
  Co  Co6  1  0.500001  0.500002  0.500008  1
  Co  Co7  1  0.999999  0.500001  0.500005  1
  Co  Co8  1  0.499992  0.000002  0.205894  1
  Co  Co9  1  0.499993  0.500001  0.205890  1
  Co  Co10  1  0.999992  0.500006  0.205869  1
  Co  Co11  1  0.499998  0.999996  0.794131  1
  Co  Co12  1  0.500000  0.500004  0.794134  1
  Co  Co13  1  0.999994  0.499998  0.794142  1
  B  B14  1  0.333329  0.666645  0.348559  1
  B  B15  1  0.666661  0.333355  0.348558  1
  B  B16  1  0.666650  0.333321  0.651435  1
  B  B17  1  0.333340  0.666677  0.651435  1
