# generated using pymatgen
data_Sr2PrNd(Ga3O7)2
_symmetry_space_group_name_H-M   'P 1'
_cell_length_a   8.10052853
_cell_length_b   8.10053116
_cell_length_c   5.36740622
_cell_angle_alpha   90.02296214
_cell_angle_beta   90.02296435
_cell_angle_gamma   90.43056014
_symmetry_Int_Tables_number   1
_chemical_formula_structural   Sr2PrNd(Ga3O7)2
_chemical_formula_sum   'Sr2 Pr1 Nd1 Ga6 O14'
_cell_volume   352.19159297
_cell_formula_units_Z   1
loop_
 _symmetry_equiv_pos_site_id
 _symmetry_equiv_pos_as_xyz
  1  'x, y, z'
loop_
 _atom_site_type_symbol
 _atom_site_label
 _atom_site_symmetry_multiplicity
 _atom_site_fract_x
 _atom_site_fract_y
 _atom_site_fract_z
 _atom_site_occupancy
  Sr  Sr0  1  0.161444  0.838578  0.490021  1
  Sr  Sr1  1  0.838578  0.161444  0.490021  1
  Pr  Pr2  1  0.338378  0.338378  0.511751  1
  Nd  Nd3  1  0.661994  0.661994  0.512837  1
  Ga  Ga4  1  0.357816  0.642626  0.033962  1
  Ga  Ga5  1  0.853710  0.853710  0.966000  1
  Ga  Ga6  1  0.642626  0.357816  0.033962  1
  Ga  Ga7  1  0.145934  0.145934  0.965838  1
  Ga  Ga8  1  0.500127  0.999687  0.998358  1
  Ga  Ga9  1  0.999687  0.500127  0.998358  1
  O  O10  1  0.999788  0.999788  0.819146  1
  O  O11  1  0.500960  0.500960  0.206416  1
  O  O12  1  0.371184  0.630053  0.694812  1
  O  O13  1  0.847341  0.847341  0.303581  1
  O  O14  1  0.630053  0.371184  0.694812  1
  O  O15  1  0.151240  0.151240  0.303207  1
  O  O16  1  0.417784  0.835322  0.204138  1
  O  O17  1  0.903716  0.657706  0.789914  1
  O  O18  1  0.582424  0.164842  0.203447  1
  O  O19  1  0.095299  0.342045  0.790962  1
  O  O20  1  0.342045  0.095299  0.790962  1
  O  O21  1  0.835322  0.417784  0.204138  1
  O  O22  1  0.657706  0.903716  0.789914  1
  O  O23  1  0.164842  0.582424  0.203447  1
