# generated using pymatgen
data_Zr6Co17MoP12
_symmetry_space_group_name_H-M   'P 1'
_cell_length_a   3.63498300
_cell_length_b   10.31567200
_cell_length_c   11.97056800
_cell_angle_alpha   90.00000000
_cell_angle_beta   90.00000000
_cell_angle_gamma   90.00000000
_symmetry_Int_Tables_number   1
_chemical_formula_structural   Zr6Co17MoP12
_chemical_formula_sum   'Zr6 Co17 Mo1 P12'
_cell_volume   448.86388793
_cell_formula_units_Z   1
loop_
 _symmetry_equiv_pos_site_id
 _symmetry_equiv_pos_as_xyz
  1  'x, y, z'
loop_
 _atom_site_type_symbol
 _atom_site_label
 _atom_site_symmetry_multiplicity
 _atom_site_fract_x
 _atom_site_fract_y
 _atom_site_fract_z
 _atom_site_occupancy
  Zr  Zr0  1  0.000000  0.500000  0.530094  1
  Zr  Zr1  1  0.500000  0.000000  0.473542  1
  Zr  Zr2  1  0.500000  0.821253  0.208550  1
  Zr  Zr3  1  0.500000  0.178747  0.208550  1
  Zr  Zr4  1  0.000000  0.679361  0.793301  1
  Zr  Zr5  1  0.000000  0.320639  0.793301  1
  Co  Co6  1  0.000000  0.000000  0.834364  1
  Co  Co7  1  0.500000  0.500000  0.702679  1
  Co  Co8  1  0.000000  0.000000  0.296576  1
  Co  Co9  1  0.000000  0.500000  0.987481  1
  Co  Co10  1  0.500000  0.000000  0.013967  1
  Co  Co11  1  0.500000  0.330943  0.990069  1
  Co  Co12  1  0.500000  0.669057  0.990069  1
  Co  Co13  1  0.000000  0.165836  0.005496  1
  Co  Co14  1  0.000000  0.834164  0.005496  1
  Co  Co15  1  0.500000  0.298571  0.433604  1
  Co  Co16  1  0.500000  0.701429  0.433604  1
  Co  Co17  1  0.000000  0.200480  0.567565  1
  Co  Co18  1  0.000000  0.799520  0.567565  1
  Co  Co19  1  0.500000  0.876236  0.706745  1
  Co  Co20  1  0.500000  0.123764  0.706745  1
  Co  Co21  1  0.000000  0.624569  0.294531  1
  Co  Co22  1  0.000000  0.375431  0.294531  1
  Mo  Mo23  1  0.500000  0.500000  0.160570  1
  P  P24  1  0.500000  0.500000  0.878531  1
  P  P25  1  0.000000  0.000000  0.120449  1
  P  P26  1  0.500000  0.500000  0.357105  1
  P  P27  1  0.000000  0.000000  0.648132  1
  P  P28  1  0.500000  0.315944  0.618037  1
  P  P29  1  0.500000  0.684056  0.618037  1
  P  P30  1  0.000000  0.182770  0.383526  1
  P  P31  1  0.000000  0.817230  0.383526  1
  P  P32  1  0.500000  0.847996  0.887882  1
  P  P33  1  0.500000  0.152004  0.887882  1
  P  P34  1  0.000000  0.660757  0.108951  1
  P  P35  1  0.000000  0.339243  0.108951  1
