# generated using pymatgen
data_Tb2Al8GaIr3
_symmetry_space_group_name_H-M   'P 1'
_cell_length_a   7.54427354
_cell_length_b   7.54427286
_cell_length_c   9.54087000
_cell_angle_alpha   90.00000000
_cell_angle_beta   90.00000000
_cell_angle_gamma   119.43231564
_symmetry_Int_Tables_number   1
_chemical_formula_structural   Tb2Al8GaIr3
_chemical_formula_sum   'Tb4 Al16 Ga2 Ir6'
_cell_volume   472.94368618
_cell_formula_units_Z   2
loop_
 _symmetry_equiv_pos_site_id
 _symmetry_equiv_pos_as_xyz
  1  'x, y, z'
loop_
 _atom_site_type_symbol
 _atom_site_label
 _atom_site_symmetry_multiplicity
 _atom_site_fract_x
 _atom_site_fract_y
 _atom_site_fract_z
 _atom_site_occupancy
  Tb  Tb0  1  0.994257  0.674014  0.250000  1
  Tb  Tb1  1  0.005743  0.325986  0.750000  1
  Tb  Tb2  1  0.674014  0.994257  0.250000  1
  Tb  Tb3  1  0.325986  0.005743  0.750000  1
  Al  Al4  1  0.001711  0.335825  0.072884  1
  Al  Al5  1  0.998289  0.664175  0.927116  1
  Al  Al6  1  0.998289  0.664175  0.572884  1
  Al  Al7  1  0.335825  0.001711  0.427116  1
  Al  Al8  1  0.001711  0.335825  0.427116  1
  Al  Al9  1  0.664175  0.998289  0.572884  1
  Al  Al10  1  0.664175  0.998289  0.927116  1
  Al  Al11  1  0.335825  0.001711  0.072884  1
  Al  Al12  1  0.334341  0.334341  0.552895  1
  Al  Al13  1  0.665659  0.665659  0.447105  1
  Al  Al14  1  0.665659  0.665659  0.052895  1
  Al  Al15  1  0.334341  0.334341  0.947105  1
  Al  Al16  1  0.337866  0.548585  0.250000  1
  Al  Al17  1  0.662134  0.451415  0.750000  1
  Al  Al18  1  0.548585  0.337866  0.250000  1
  Al  Al19  1  0.451415  0.662134  0.750000  1
  Ga  Ga20  1  0.134583  0.134583  0.250000  1
  Ga  Ga21  1  0.865417  0.865417  0.750000  1
  Ir  Ir22  1  0.671657  0.328343  0.000000  1
  Ir  Ir23  1  0.328343  0.671657  0.000000  1
  Ir  Ir24  1  0.328343  0.671657  0.500000  1
  Ir  Ir25  1  0.671657  0.328343  0.500000  1
  Ir  Ir26  1  0.000000  0.000000  0.000000  1
  Ir  Ir27  1  0.000000  0.000000  0.500000  1
