# generated using pymatgen
data_Ce3Sm7(Al2Os3)2
_symmetry_space_group_name_H-M   'P 1'
_cell_length_a   8.53124779
_cell_length_b   8.53124808
_cell_length_c   8.53124894
_cell_angle_alpha   109.97263624
_cell_angle_beta   109.97263303
_cell_angle_gamma   109.97264025
_symmetry_Int_Tables_number   1
_chemical_formula_structural   Ce3Sm7(Al2Os3)2
_chemical_formula_sum   'Ce3 Sm7 Al4 Os6'
_cell_volume   468.90342416
_cell_formula_units_Z   1
loop_
 _symmetry_equiv_pos_site_id
 _symmetry_equiv_pos_as_xyz
  1  'x, y, z'
loop_
 _atom_site_type_symbol
 _atom_site_label
 _atom_site_symmetry_multiplicity
 _atom_site_fract_x
 _atom_site_fract_y
 _atom_site_fract_z
 _atom_site_occupancy
  Ce  Ce0  1  0.251412  0.194215  0.940738  1
  Ce  Ce1  1  0.940738  0.251412  0.194215  1
  Ce  Ce2  1  0.194215  0.940738  0.251412  1
  Sm  Sm3  1  0.780718  0.780718  0.780718  1
  Sm  Sm4  1  0.315623  0.567941  0.750608  1
  Sm  Sm5  1  0.750608  0.315623  0.567941  1
  Sm  Sm6  1  0.567941  0.750608  0.315623  1
  Sm  Sm7  1  0.720339  0.506001  0.996208  1
  Sm  Sm8  1  0.996208  0.720339  0.506001  1
  Sm  Sm9  1  0.506001  0.996208  0.720339  1
  Al  Al10  1  0.403615  0.403615  0.403615  1
  Al  Al11  1  0.094595  0.498742  0.003394  1
  Al  Al12  1  0.003394  0.094595  0.498742  1
  Al  Al13  1  0.498742  0.003394  0.094595  1
  Os  Os14  1  0.900639  0.125718  0.753217  1
  Os  Os15  1  0.753217  0.900639  0.125718  1
  Os  Os16  1  0.125718  0.753217  0.900639  1
  Os  Os17  1  0.230739  0.600296  0.365241  1
  Os  Os18  1  0.365241  0.230739  0.600296  1
  Os  Os19  1  0.600296  0.365241  0.230739  1
