# generated using pymatgen
data_Nd17Ho3Sn9Sb7
_symmetry_space_group_name_H-M   'P 1'
_cell_length_a   8.31788597
_cell_length_b   8.38930097
_cell_length_c   15.90889914
_cell_angle_alpha   89.95582443
_cell_angle_beta   90.20192301
_cell_angle_gamma   90.05590900
_symmetry_Int_Tables_number   1
_chemical_formula_structural   Nd17Ho3Sn9Sb7
_chemical_formula_sum   'Nd17 Ho3 Sn9 Sb7'
_cell_volume   1110.13509917
_cell_formula_units_Z   1
loop_
 _symmetry_equiv_pos_site_id
 _symmetry_equiv_pos_as_xyz
  1  'x, y, z'
loop_
 _atom_site_type_symbol
 _atom_site_label
 _atom_site_symmetry_multiplicity
 _atom_site_fract_x
 _atom_site_fract_y
 _atom_site_fract_z
 _atom_site_occupancy
  Nd  Nd0  1  0.070786  0.166822  0.389941  1
  Nd  Nd1  1  0.405717  0.837255  0.115494  1
  Nd  Nd2  1  0.092235  0.336397  0.614342  1
  Nd  Nd3  1  0.437671  0.672874  0.891983  1
  Nd  Nd4  1  0.906576  0.664805  0.116074  1
  Nd  Nd5  1  0.091686  0.334682  0.885541  1
  Nd  Nd6  1  0.429779  0.667423  0.610057  1
  Nd  Nd7  1  0.589220  0.164869  0.613269  1
  Nd  Nd8  1  0.762309  0.501828  0.750471  1
  Nd  Nd9  1  0.908875  0.663942  0.384961  1
  Nd  Nd10  1  0.066487  0.166293  0.109983  1
  Nd  Nd11  1  0.931054  0.831766  0.889464  1
  Nd  Nd12  1  0.592681  0.164346  0.885522  1
  Nd  Nd13  1  0.568994  0.329577  0.111454  1
  Nd  Nd14  1  0.408024  0.836842  0.385969  1
  Nd  Nd15  1  0.928682  0.831982  0.610515  1
  Nd  Nd16  1  0.571791  0.333375  0.388225  1
  Ho  Ho17  1  0.239255  0.499019  0.249592  1
  Ho  Ho18  1  0.738667  0.000000  0.248002  1
  Ho  Ho19  1  0.260879  0.999805  0.750336  1
  Sn  Sn20  1  0.626425  0.868079  0.749060  1
  Sn  Sn21  1  0.872981  0.361966  0.250419  1
  Sn  Sn22  1  0.604553  0.631428  0.250787  1
  Sn  Sn23  1  0.391849  0.370223  0.750323  1
  Sn  Sn24  1  0.134033  0.637572  0.750480  1
  Sn  Sn25  1  0.894319  0.128131  0.748726  1
  Sn  Sn26  1  0.739952  0.988543  0.048234  1
  Sn  Sn27  1  0.370779  0.136465  0.250805  1
  Sn  Sn28  1  0.105227  0.870176  0.251173  1
  Sb  Sb29  1  0.757022  0.493083  0.548141  1
  Sb  Sb30  1  0.742983  0.993871  0.448322  1
  Sb  Sb31  1  0.243917  0.505643  0.448210  1
  Sb  Sb32  1  0.257326  0.008378  0.948924  1
  Sb  Sb33  1  0.759433  0.490175  0.952651  1
  Sb  Sb34  1  0.242939  0.507318  0.050688  1
  Sb  Sb35  1  0.254898  0.005050  0.551860  1
