# generated using pymatgen
data_Tb3As2Se
_symmetry_space_group_name_H-M   'P 1'
_cell_length_a   7.16912644
_cell_length_b   7.16912747
_cell_length_c   7.16912682
_cell_angle_alpha   146.57455781
_cell_angle_beta   132.10096162
_cell_angle_gamma   59.66582968
_symmetry_Int_Tables_number   1
_chemical_formula_structural   Tb3As2Se
_chemical_formula_sum   'Tb3 As2 Se1'
_cell_volume   149.25174050
_cell_formula_units_Z   1
loop_
 _symmetry_equiv_pos_site_id
 _symmetry_equiv_pos_as_xyz
  1  'x, y, z'
loop_
 _atom_site_type_symbol
 _atom_site_label
 _atom_site_symmetry_multiplicity
 _atom_site_fract_x
 _atom_site_fract_y
 _atom_site_fract_z
 _atom_site_occupancy
  Tb  Tb0  1  0.500000  0.000000  0.500000  1
  Tb  Tb1  1  0.172651  0.672651  0.500000  1
  Tb  Tb2  1  0.827349  0.327349  0.500000  1
  As  As3  1  0.665555  0.665555  0.000000  1
  As  As4  1  0.334445  0.334445  0.000000  1
  Se  Se5  1  0.000000  0.000000  0.000000  1
