# generated using pymatgen
data_Lu7ScSi16(Mo2W)4
_symmetry_space_group_name_H-M   'P 1'
_cell_length_a   6.68568030
_cell_length_b   6.87576257
_cell_length_c   12.78907604
_cell_angle_alpha   90.05209164
_cell_angle_beta   89.98756736
_cell_angle_gamma   90.02541106
_symmetry_Int_Tables_number   1
_chemical_formula_structural   Lu7ScSi16(Mo2W)4
_chemical_formula_sum   'Lu7 Sc1 Si16 Mo8 W4'
_cell_volume   587.90264490
_cell_formula_units_Z   1
loop_
 _symmetry_equiv_pos_site_id
 _symmetry_equiv_pos_as_xyz
  1  'x, y, z'
loop_
 _atom_site_type_symbol
 _atom_site_label
 _atom_site_symmetry_multiplicity
 _atom_site_fract_x
 _atom_site_fract_y
 _atom_site_fract_z
 _atom_site_occupancy
  Lu  Lu0  1  0.494925  0.668936  0.593316  1
  Lu  Lu1  1  0.995264  0.831541  0.906649  1
  Lu  Lu2  1  0.504864  0.331420  0.093587  1
  Lu  Lu3  1  0.004587  0.167945  0.407973  1
  Lu  Lu4  1  0.504336  0.331173  0.407426  1
  Lu  Lu5  1  0.004731  0.168670  0.093521  1
  Lu  Lu6  1  0.495262  0.669140  0.905438  1
  Sc  Sc7  1  0.994069  0.829913  0.594866  1
  Si  Si8  1  0.663576  0.959188  0.454535  1
  Si  Si9  1  0.162818  0.540314  0.046513  1
  Si  Si10  1  0.337995  0.040830  0.952857  1
  Si  Si11  1  0.838754  0.462681  0.547167  1
  Si  Si12  1  0.332689  0.037792  0.546916  1
  Si  Si13  1  0.837226  0.459217  0.953070  1
  Si  Si14  1  0.662476  0.959226  0.046716  1
  Si  Si15  1  0.161990  0.542714  0.454411  1
  Si  Si16  1  0.465117  0.371260  0.749885  1
  Si  Si17  1  0.965555  0.126513  0.748255  1
  Si  Si18  1  0.535363  0.628853  0.250226  1
  Si  Si19  1  0.034985  0.871494  0.250188  1
  Si  Si20  1  0.700360  0.863986  0.748572  1
  Si  Si21  1  0.195534  0.637551  0.748353  1
  Si  Si22  1  0.302293  0.136062  0.250441  1
  Si  Si23  1  0.802746  0.364347  0.250732  1
  Mo  Mo24  1  0.669016  0.163368  0.624807  1
  Mo  Mo25  1  0.168740  0.335713  0.873995  1
  Mo  Mo26  1  0.330692  0.836553  0.124928  1
  Mo  Mo27  1  0.831259  0.664710  0.375729  1
  Mo  Mo28  1  0.330949  0.836044  0.374953  1
  Mo  Mo29  1  0.830924  0.663729  0.125246  1
  Mo  Mo30  1  0.670367  0.162857  0.874568  1
  Mo  Mo31  1  0.169791  0.336322  0.624745  1
  W  W32  1  0.833127  0.503239  0.749579  1
  W  W33  1  0.333098  0.996455  0.749009  1
  W  W34  1  0.167448  0.497258  0.250198  1
  W  W35  1  0.667071  0.002992  0.250630  1
