# generated using pymatgen
data_Sc8Ta7Nb4Si16Rh
_symmetry_space_group_name_H-M   'P 1'
_cell_length_a   6.65560406
_cell_length_b   6.91278214
_cell_length_c   13.06985404
_cell_angle_alpha   89.99621674
_cell_angle_beta   89.99211202
_cell_angle_gamma   90.58217195
_symmetry_Int_Tables_number   1
_chemical_formula_structural   Sc8Ta7Nb4Si16Rh
_chemical_formula_sum   'Sc8 Ta7 Nb4 Si16 Rh1'
_cell_volume   601.29647962
_cell_formula_units_Z   1
loop_
 _symmetry_equiv_pos_site_id
 _symmetry_equiv_pos_as_xyz
  1  'x, y, z'
loop_
 _atom_site_type_symbol
 _atom_site_label
 _atom_site_symmetry_multiplicity
 _atom_site_fract_x
 _atom_site_fract_y
 _atom_site_fract_z
 _atom_site_occupancy
  Sc  Sc0  1  0.496322  0.676153  0.592861  1
  Sc  Sc1  1  0.002226  0.827600  0.906991  1
  Sc  Sc2  1  0.498097  0.326499  0.095097  1
  Sc  Sc3  1  0.999833  0.173411  0.403442  1
  Sc  Sc4  1  0.498167  0.326415  0.404938  1
  Sc  Sc5  1  0.999798  0.173402  0.096479  1
  Sc  Sc6  1  0.496317  0.675773  0.907050  1
  Sc  Sc7  1  0.001917  0.827340  0.593045  1
  Ta  Ta8  1  0.670000  0.170664  0.627644  1
  Ta  Ta9  1  0.161969  0.323367  0.872742  1
  Ta  Ta10  1  0.335840  0.825948  0.124462  1
  Ta  Ta11  1  0.835767  0.673710  0.377059  1
  Ta  Ta12  1  0.340455  0.999672  0.750167  1
  Ta  Ta13  1  0.162216  0.506976  0.249942  1
  Ta  Ta14  1  0.661780  0.993825  0.250141  1
  Nb  Nb15  1  0.335717  0.825890  0.375765  1
  Nb  Nb16  1  0.835671  0.673901  0.122563  1
  Nb  Nb17  1  0.670436  0.170799  0.872522  1
  Nb  Nb18  1  0.162264  0.323145  0.626948  1
  Si  Si19  1  0.670411  0.967815  0.460518  1
  Si  Si20  1  0.169427  0.532510  0.037921  1
  Si  Si21  1  0.333000  0.034785  0.959468  1
  Si  Si22  1  0.830900  0.465464  0.541483  1
  Si  Si23  1  0.333776  0.034390  0.540886  1
  Si  Si24  1  0.831379  0.465387  0.958250  1
  Si  Si25  1  0.669443  0.968071  0.039881  1
  Si  Si26  1  0.168338  0.532326  0.461725  1
  Si  Si27  1  0.470256  0.388986  0.750266  1
  Si  Si28  1  0.964402  0.102674  0.749901  1
  Si  Si29  1  0.538908  0.613256  0.250117  1
  Si  Si30  1  0.037853  0.886358  0.249869  1
  Si  Si31  1  0.705875  0.855616  0.749847  1
  Si  Si32  1  0.196602  0.633196  0.750016  1
  Si  Si33  1  0.295298  0.138433  0.249831  1
  Si  Si34  1  0.792880  0.363155  0.250127  1
  Rh  Rh35  1  0.826460  0.523082  0.750033  1
