# generated using pymatgen
data_AlCu2Mo3C
_symmetry_space_group_name_H-M   'P 1'
_cell_length_a   7.98411439
_cell_length_b   7.98411412
_cell_length_c   7.98411300
_cell_angle_alpha   60.00000052
_cell_angle_beta   60.00000161
_cell_angle_gamma   60.00000237
_symmetry_Int_Tables_number   1
_chemical_formula_structural   AlCu2Mo3C
_chemical_formula_sum   'Al4 Cu8 Mo12 C4'
_cell_volume   359.88618733
_cell_formula_units_Z   4
loop_
 _symmetry_equiv_pos_site_id
 _symmetry_equiv_pos_as_xyz
  1  'x, y, z'
loop_
 _atom_site_type_symbol
 _atom_site_label
 _atom_site_symmetry_multiplicity
 _atom_site_fract_x
 _atom_site_fract_y
 _atom_site_fract_z
 _atom_site_occupancy
  Al  Al0  1  0.125000  0.125000  0.125000  1
  Al  Al1  1  0.625000  0.125000  0.125000  1
  Al  Al2  1  0.125000  0.125000  0.625000  1
  Al  Al3  1  0.125000  0.625000  0.125000  1
  Cu  Cu4  1  0.916951  0.916951  0.249147  1
  Cu  Cu5  1  0.333049  0.333049  0.333049  1
  Cu  Cu6  1  0.249147  0.916951  0.916951  1
  Cu  Cu7  1  0.333049  0.000853  0.333049  1
  Cu  Cu8  1  0.000853  0.333049  0.333049  1
  Cu  Cu9  1  0.333049  0.333049  0.000853  1
  Cu  Cu10  1  0.916951  0.916951  0.916951  1
  Cu  Cu11  1  0.916951  0.249147  0.916951  1
  Mo  Mo12  1  0.688771  0.311229  0.311229  1
  Mo  Mo13  1  0.938771  0.938771  0.561229  1
  Mo  Mo14  1  0.688771  0.688771  0.311229  1
  Mo  Mo15  1  0.688771  0.311229  0.688771  1
  Mo  Mo16  1  0.311229  0.688771  0.311229  1
  Mo  Mo17  1  0.561229  0.938771  0.561229  1
  Mo  Mo18  1  0.561229  0.938771  0.938771  1
  Mo  Mo19  1  0.938771  0.561229  0.561229  1
  Mo  Mo20  1  0.938771  0.561229  0.938771  1
  Mo  Mo21  1  0.311229  0.311229  0.688771  1
  Mo  Mo22  1  0.561229  0.561229  0.938771  1
  Mo  Mo23  1  0.311229  0.688771  0.688771  1
  C  C24  1  0.625000  0.625000  0.625000  1
  C  C25  1  0.625000  0.625000  0.125000  1
  C  C26  1  0.125000  0.625000  0.625000  1
  C  C27  1  0.625000  0.125000  0.625000  1
