# generated using pymatgen
data_Nd3Th(GaIr)4
_symmetry_space_group_name_H-M   'P 1'
_cell_length_a   4.41459900
_cell_length_b   7.04273897
_cell_length_c   7.92275831
_cell_angle_alpha   89.90820623
_cell_angle_beta   90.00000000
_cell_angle_gamma   90.00000000
_symmetry_Int_Tables_number   1
_chemical_formula_structural   Nd3Th(GaIr)4
_chemical_formula_sum   'Nd3 Th1 Ga4 Ir4'
_cell_volume   246.32511985
_cell_formula_units_Z   1
loop_
 _symmetry_equiv_pos_site_id
 _symmetry_equiv_pos_as_xyz
  1  'x, y, z'
loop_
 _atom_site_type_symbol
 _atom_site_label
 _atom_site_symmetry_multiplicity
 _atom_site_fract_x
 _atom_site_fract_y
 _atom_site_fract_z
 _atom_site_occupancy
  Nd  Nd0  1  0.250000  0.523633  0.808000  1
  Nd  Nd1  1  0.750000  0.977314  0.304607  1
  Nd  Nd2  1  0.750000  0.475193  0.191518  1
  Th  Th3  1  0.250000  0.024964  0.689119  1
  Ga  Ga4  1  0.250000  0.158170  0.074303  1
  Ga  Ga5  1  0.250000  0.657521  0.426088  1
  Ga  Ga6  1  0.750000  0.836482  0.932598  1
  Ga  Ga7  1  0.750000  0.348431  0.570454  1
  Ir  Ir8  1  0.250000  0.272431  0.400420  1
  Ir  Ir9  1  0.250000  0.774135  0.105984  1
  Ir  Ir10  1  0.750000  0.736108  0.609673  1
  Ir  Ir11  1  0.750000  0.215620  0.887235  1
