# generated using pymatgen
data_Y2Ho10IrOs3
_symmetry_space_group_name_H-M   'P 1'
_cell_length_a   6.34542490
_cell_length_b   7.36252006
_cell_length_c   9.03009600
_cell_angle_alpha   90.00000000
_cell_angle_beta   90.00000000
_cell_angle_gamma   90.06125884
_symmetry_Int_Tables_number   1
_chemical_formula_structural   Y2Ho10IrOs3
_chemical_formula_sum   'Y2 Ho10 Ir1 Os3'
_cell_volume   421.87065641
_cell_formula_units_Z   1
loop_
 _symmetry_equiv_pos_site_id
 _symmetry_equiv_pos_as_xyz
  1  'x, y, z'
loop_
 _atom_site_type_symbol
 _atom_site_label
 _atom_site_symmetry_multiplicity
 _atom_site_fract_x
 _atom_site_fract_y
 _atom_site_fract_z
 _atom_site_occupancy
  Y  Y0  1  0.871761  0.537339  0.250000  1
  Y  Y1  1  0.627915  0.038978  0.250000  1
  Ho  Ho2  1  0.332716  0.673914  0.061752  1
  Ho  Ho3  1  0.169458  0.176308  0.438741  1
  Ho  Ho4  1  0.668819  0.324863  0.563644  1
  Ho  Ho5  1  0.828954  0.824540  0.934805  1
  Ho  Ho6  1  0.668819  0.324863  0.936356  1
  Ho  Ho7  1  0.828954  0.824540  0.565195  1
  Ho  Ho8  1  0.332716  0.673914  0.438248  1
  Ho  Ho9  1  0.169458  0.176308  0.061259  1
  Ho  Ho10  1  0.129830  0.460971  0.750000  1
  Ho  Ho11  1  0.369632  0.961112  0.750000  1
  Ir  Ir12  1  0.044051  0.884732  0.250000  1
  Os  Os13  1  0.456365  0.384280  0.250000  1
  Os  Os14  1  0.962478  0.116245  0.750000  1
  Os  Os15  1  0.538073  0.617098  0.750000  1
