# generated using pymatgen
data_Hf2Zr4SiSb2
_symmetry_space_group_name_H-M   'P 1'
_cell_length_a   7.57005600
_cell_length_b   7.54334381
_cell_length_c   3.93868000
_cell_angle_alpha   90.00000000
_cell_angle_beta   90.00000000
_cell_angle_gamma   120.11720993
_symmetry_Int_Tables_number   1
_chemical_formula_structural   Hf2Zr4SiSb2
_chemical_formula_sum   'Hf2 Zr4 Si1 Sb2'
_cell_volume   194.54952415
_cell_formula_units_Z   1
loop_
 _symmetry_equiv_pos_site_id
 _symmetry_equiv_pos_as_xyz
  1  'x, y, z'
loop_
 _atom_site_type_symbol
 _atom_site_label
 _atom_site_symmetry_multiplicity
 _atom_site_fract_x
 _atom_site_fract_y
 _atom_site_fract_z
 _atom_site_occupancy
  Hf  Hf0  1  0.240875  0.238980  0.500000  1
  Hf  Hf1  1  0.001895  0.761020  0.500000  1
  Zr  Zr2  1  0.759146  0.000000  0.500000  1
  Zr  Zr3  1  0.999848  0.395464  0.000000  1
  Zr  Zr4  1  0.604384  0.604536  0.000000  1
  Zr  Zr5  1  0.393212  0.000000  0.000000  1
  Si  Si6  1  0.001254  0.000000  0.000000  1
  Sb  Sb7  1  0.332121  0.664856  0.500000  1
  Sb  Sb8  1  0.667266  0.335144  0.500000  1
