# generated using pymatgen
data_Ac2LaSmZn9AgSn2
_symmetry_space_group_name_H-M   'P 1'
_cell_length_a   8.71727400
_cell_length_b   8.71727315
_cell_length_c   9.24107000
_cell_angle_alpha   90.00000000
_cell_angle_beta   90.00000000
_cell_angle_gamma   149.27009273
_symmetry_Int_Tables_number   1
_chemical_formula_structural   Ac2LaSmZn9AgSn2
_chemical_formula_sum   'Ac2 La1 Sm1 Zn9 Ag1 Sn2'
_cell_volume   358.83718024
_cell_formula_units_Z   1
loop_
 _symmetry_equiv_pos_site_id
 _symmetry_equiv_pos_as_xyz
  1  'x, y, z'
loop_
 _atom_site_type_symbol
 _atom_site_label
 _atom_site_symmetry_multiplicity
 _atom_site_fract_x
 _atom_site_fract_y
 _atom_site_fract_z
 _atom_site_occupancy
  Ac  Ac0  1  0.999667  0.000333  0.497572  1
  Ac  Ac1  1  0.999667  0.000333  0.002428  1
  La  La2  1  0.792128  0.207872  0.750000  1
  Sm  Sm3  1  0.209534  0.790466  0.250000  1
  Zn  Zn4  1  0.811118  0.188882  0.389330  1
  Zn  Zn5  1  0.186517  0.813483  0.609192  1
  Zn  Zn6  1  0.811118  0.188882  0.110670  1
  Zn  Zn7  1  0.186517  0.813483  0.890808  1
  Zn  Zn8  1  0.659883  0.340117  0.487560  1
  Zn  Zn9  1  0.338709  0.661291  0.514292  1
  Zn  Zn10  1  0.659883  0.340117  0.012440  1
  Zn  Zn11  1  0.338709  0.661291  0.985708  1
  Zn  Zn12  1  0.601731  0.398269  0.750000  1
  Ag  Ag13  1  0.399156  0.600844  0.250000  1
  Sn  Sn14  1  0.567585  0.432415  0.250000  1
  Sn  Sn15  1  0.438080  0.561920  0.750000  1
