# generated using pymatgen
data_Mn2VBr13
_symmetry_space_group_name_H-M   'P 1'
_cell_length_a   11.48285300
_cell_length_b   9.76783710
_cell_length_c   10.55730874
_cell_angle_alpha   80.52821054
_cell_angle_beta   90.00000000
_cell_angle_gamma   90.00000000
_symmetry_Int_Tables_number   1
_chemical_formula_structural   Mn2VBr13
_chemical_formula_sum   'Mn4 V2 Br26'
_cell_volume   1167.99197291
_cell_formula_units_Z   2
loop_
 _symmetry_equiv_pos_site_id
 _symmetry_equiv_pos_as_xyz
  1  'x, y, z'
loop_
 _atom_site_type_symbol
 _atom_site_label
 _atom_site_symmetry_multiplicity
 _atom_site_fract_x
 _atom_site_fract_y
 _atom_site_fract_z
 _atom_site_occupancy
  Mn  Mn0  1  0.250000  0.836155  0.107044  1
  Mn  Mn1  1  0.750000  0.163845  0.892956  1
  Mn  Mn2  1  0.250000  0.675693  0.853079  1
  Mn  Mn3  1  0.750000  0.324307  0.146921  1
  V  V4  1  0.250000  0.263164  0.503614  1
  V  V5  1  0.750000  0.736836  0.496386  1
  Br  Br6  1  0.589908  0.811711  0.587185  1
  Br  Br7  1  0.089908  0.188289  0.412815  1
  Br  Br8  1  0.750000  0.420180  0.909257  1
  Br  Br9  1  0.250000  0.579820  0.090743  1
  Br  Br10  1  0.895023  0.155707  0.074582  1
  Br  Br11  1  0.395023  0.844293  0.925418  1
  Br  Br12  1  0.104977  0.844293  0.925418  1
  Br  Br13  1  0.604977  0.155707  0.074582  1
  Br  Br14  1  0.750000  0.199018  0.360375  1
  Br  Br15  1  0.250000  0.800982  0.639625  1
  Br  Br16  1  0.902228  0.475173  0.184451  1
  Br  Br17  1  0.402228  0.524827  0.815549  1
  Br  Br18  1  0.097772  0.524827  0.815549  1
  Br  Br19  1  0.597772  0.475173  0.184451  1
  Br  Br20  1  0.750000  0.919403  0.912892  1
  Br  Br21  1  0.250000  0.080597  0.087108  1
  Br  Br22  1  0.901658  0.197828  0.737671  1
  Br  Br23  1  0.401658  0.802172  0.262329  1
  Br  Br24  1  0.098342  0.802172  0.262329  1
  Br  Br25  1  0.598342  0.197828  0.737671  1
  Br  Br26  1  0.750000  0.811780  0.284169  1
  Br  Br27  1  0.250000  0.188220  0.715831  1
  Br  Br28  1  0.750000  0.504167  0.528174  1
  Br  Br29  1  0.250000  0.495833  0.471826  1
  Br  Br30  1  0.910092  0.811711  0.587185  1
  Br  Br31  1  0.410092  0.188289  0.412815  1
