# generated using pymatgen
data_U2Pa(Co3P2)3
_symmetry_space_group_name_H-M   'P 1'
_cell_length_a   3.73448600
_cell_length_b   10.38854700
_cell_length_c   12.26426000
_cell_angle_alpha   90.00000000
_cell_angle_beta   90.00000000
_cell_angle_gamma   90.00000000
_symmetry_Int_Tables_number   1
_chemical_formula_structural   U2Pa(Co3P2)3
_chemical_formula_sum   'U4 Pa2 Co18 P12'
_cell_volume   475.80280011
_cell_formula_units_Z   2
loop_
 _symmetry_equiv_pos_site_id
 _symmetry_equiv_pos_as_xyz
  1  'x, y, z'
loop_
 _atom_site_type_symbol
 _atom_site_label
 _atom_site_symmetry_multiplicity
 _atom_site_fract_x
 _atom_site_fract_y
 _atom_site_fract_z
 _atom_site_occupancy
  U  U0  1  0.500000  0.817887  0.206216  1
  U  U1  1  0.500000  0.182113  0.206216  1
  U  U2  1  0.000000  0.682113  0.793784  1
  U  U3  1  0.000000  0.317887  0.793784  1
  Pa  Pa4  1  0.000000  0.500000  0.524822  1
  Pa  Pa5  1  0.500000  0.000000  0.475178  1
  Co  Co6  1  0.000000  0.500000  0.984119  1
  Co  Co7  1  0.500000  0.000000  0.015881  1
  Co  Co8  1  0.500000  0.301989  0.431489  1
  Co  Co9  1  0.500000  0.698011  0.431489  1
  Co  Co10  1  0.000000  0.198011  0.568511  1
  Co  Co11  1  0.000000  0.801989  0.568511  1
  Co  Co12  1  0.500000  0.879041  0.711638  1
  Co  Co13  1  0.500000  0.120959  0.711638  1
  Co  Co14  1  0.000000  0.620959  0.288362  1
  Co  Co15  1  0.000000  0.379041  0.288362  1
  Co  Co16  1  0.500000  0.332337  0.994928  1
  Co  Co17  1  0.500000  0.667663  0.994928  1
  Co  Co18  1  0.000000  0.167663  0.005072  1
  Co  Co19  1  0.000000  0.832337  0.005072  1
  Co  Co20  1  0.500000  0.500000  0.158815  1
  Co  Co21  1  0.000000  0.000000  0.841185  1
  Co  Co22  1  0.500000  0.500000  0.701603  1
  Co  Co23  1  0.000000  0.000000  0.298397  1
  P  P24  1  0.500000  0.307161  0.615359  1
  P  P25  1  0.500000  0.692839  0.615359  1
  P  P26  1  0.000000  0.192839  0.384641  1
  P  P27  1  0.000000  0.807161  0.384641  1
  P  P28  1  0.500000  0.500000  0.883072  1
  P  P29  1  0.000000  0.000000  0.116928  1
  P  P30  1  0.500000  0.847025  0.893867  1
  P  P31  1  0.500000  0.152975  0.893867  1
  P  P32  1  0.000000  0.652975  0.106133  1
  P  P33  1  0.000000  0.347025  0.106133  1
  P  P34  1  0.500000  0.500000  0.341344  1
  P  P35  1  0.000000  0.000000  0.658656  1
