# generated using pymatgen
data_Ce4TlInIr3Rh
_symmetry_space_group_name_H-M   'P 1'
_cell_length_a   7.75314933
_cell_length_b   7.75861124
_cell_length_c   3.70406700
_cell_angle_alpha   90.00000000
_cell_angle_beta   90.00000000
_cell_angle_gamma   89.93282005
_symmetry_Int_Tables_number   1
_chemical_formula_structural   Ce4TlInIr3Rh
_chemical_formula_sum   'Ce4 Tl1 In1 Ir3 Rh1'
_cell_volume   222.81307625
_cell_formula_units_Z   1
loop_
 _symmetry_equiv_pos_site_id
 _symmetry_equiv_pos_as_xyz
  1  'x, y, z'
loop_
 _atom_site_type_symbol
 _atom_site_label
 _atom_site_symmetry_multiplicity
 _atom_site_fract_x
 _atom_site_fract_y
 _atom_site_fract_z
 _atom_site_occupancy
  Ce  Ce0  1  0.670163  0.169028  0.500000  1
  Ce  Ce1  1  0.333975  0.826801  0.500000  1
  Ce  Ce2  1  0.168760  0.334269  0.500000  1
  Ce  Ce3  1  0.829546  0.667736  0.500000  1
  Tl  Tl4  1  0.003048  0.999958  0.000000  1
  In  In5  1  0.500446  0.498112  0.000000  1
  Ir  Ir6  1  0.138764  0.627906  0.000000  1
  Ir  Ir7  1  0.861854  0.370454  0.000000  1
  Ir  Ir8  1  0.626760  0.864733  0.000000  1
  Rh  Rh9  1  0.366683  0.141005  0.000000  1
