# generated using pymatgen
data_Tm4Al5Ni9
_symmetry_space_group_name_H-M   'P 1'
_cell_length_a   5.15482598
_cell_length_b   5.15482610
_cell_length_c   12.11511341
_cell_angle_alpha   77.71682455
_cell_angle_beta   77.71682240
_cell_angle_gamma   59.99999414
_symmetry_Int_Tables_number   1
_chemical_formula_structural   Tm4Al5Ni9
_chemical_formula_sum   'Tm4 Al5 Ni9'
_cell_volume   270.25268119
_cell_formula_units_Z   1
loop_
 _symmetry_equiv_pos_site_id
 _symmetry_equiv_pos_as_xyz
  1  'x, y, z'
loop_
 _atom_site_type_symbol
 _atom_site_label
 _atom_site_symmetry_multiplicity
 _atom_site_fract_x
 _atom_site_fract_y
 _atom_site_fract_z
 _atom_site_occupancy
  Tm  Tm0  1  0.952632  0.952632  0.142107  1
  Tm  Tm1  1  0.047368  0.047368  0.857893  1
  Tm  Tm2  1  0.855218  0.855218  0.434345  1
  Tm  Tm3  1  0.144782  0.144782  0.565655  1
  Al  Al4  1  0.500000  0.500000  0.500000  1
  Al  Al5  1  0.722418  0.722418  0.832745  1
  Al  Al6  1  0.277582  0.277582  0.167255  1
  Al  Al7  1  0.610124  0.610124  0.169629  1
  Al  Al8  1  0.389876  0.389876  0.830371  1
  Ni  Ni9  1  0.000000  0.500000  0.000000  1
  Ni  Ni10  1  0.500000  0.000000  0.000000  1
  Ni  Ni11  1  0.500000  0.500000  0.000000  1
  Ni  Ni12  1  0.386022  0.386022  0.333521  1
  Ni  Ni13  1  0.894436  0.386022  0.333521  1
  Ni  Ni14  1  0.386022  0.894436  0.333521  1
  Ni  Ni15  1  0.613978  0.613978  0.666479  1
  Ni  Ni16  1  0.105564  0.613978  0.666479  1
  Ni  Ni17  1  0.613978  0.105564  0.666479  1
