# generated using pymatgen
data_Tb7Er3(GaBi)4
_symmetry_space_group_name_H-M   'P 1'
_cell_length_a   8.67404133
_cell_length_b   8.66418700
_cell_length_c   7.93564600
_cell_angle_alpha   90.04265349
_cell_angle_beta   90.07449607
_cell_angle_gamma   125.63867424
_symmetry_Int_Tables_number   1
_chemical_formula_structural   Tb7Er3(GaBi)4
_chemical_formula_sum   'Tb7 Er3 Ga4 Bi4'
_cell_volume   484.69085726
_cell_formula_units_Z   1
loop_
 _symmetry_equiv_pos_site_id
 _symmetry_equiv_pos_as_xyz
  1  'x, y, z'
loop_
 _atom_site_type_symbol
 _atom_site_label
 _atom_site_symmetry_multiplicity
 _atom_site_fract_x
 _atom_site_fract_y
 _atom_site_fract_z
 _atom_site_occupancy
  Tb  Tb0  1  0.041846  0.296377  0.332063  1
  Tb  Tb1  1  0.958270  0.703073  0.667756  1
  Tb  Tb2  1  0.458452  0.203371  0.831754  1
  Tb  Tb3  1  0.795605  0.541088  0.167682  1
  Tb  Tb4  1  0.542204  0.796694  0.168154  1
  Tb  Tb5  1  0.205448  0.459491  0.832402  1
  Tb  Tb6  1  0.705542  0.958945  0.667487  1
  Er  Er7  1  0.291466  0.041046  0.334074  1
  Er  Er8  1  0.000911  0.000394  0.000507  1
  Er  Er9  1  0.499514  0.498976  0.499595  1
  Ga  Ga10  1  0.373246  0.372736  0.127458  1
  Ga  Ga11  1  0.627192  0.626656  0.873026  1
  Ga  Ga12  1  0.127194  0.126671  0.626432  1
  Ga  Ga13  1  0.873833  0.873367  0.373231  1
  Bi  Bi14  1  0.794310  0.207543  0.998788  1
  Bi  Bi15  1  0.207613  0.794222  0.002443  1
  Bi  Bi16  1  0.703984  0.290264  0.497457  1
  Bi  Bi17  1  0.293373  0.709088  0.499692  1
