# generated using pymatgen
data_Ta5Be3MoAs
_symmetry_space_group_name_H-M   'P 1'
_cell_length_a   6.51004626
_cell_length_b   6.53803681
_cell_length_c   3.40089800
_cell_angle_alpha   90.00000000
_cell_angle_beta   90.00000000
_cell_angle_gamma   89.83449048
_symmetry_Int_Tables_number   1
_chemical_formula_structural   Ta5Be3MoAs
_chemical_formula_sum   'Ta5 Be3 Mo1 As1'
_cell_volume   144.75155265
_cell_formula_units_Z   1
loop_
 _symmetry_equiv_pos_site_id
 _symmetry_equiv_pos_as_xyz
  1  'x, y, z'
loop_
 _atom_site_type_symbol
 _atom_site_label
 _atom_site_symmetry_multiplicity
 _atom_site_fract_x
 _atom_site_fract_y
 _atom_site_fract_z
 _atom_site_occupancy
  Ta  Ta0  1  0.997431  0.006092  0.000000  1
  Ta  Ta1  1  0.674360  0.179382  0.500000  1
  Ta  Ta2  1  0.337514  0.834244  0.500000  1
  Ta  Ta3  1  0.183457  0.309223  0.500000  1
  Ta  Ta4  1  0.804021  0.677124  0.500000  1
  Be  Be5  1  0.873318  0.375580  0.000000  1
  Be  Be6  1  0.617054  0.886068  0.000000  1
  Be  Be7  1  0.387170  0.117445  0.000000  1
  Mo  Mo8  1  0.506768  0.498055  0.000000  1
  As  As9  1  0.118907  0.616787  0.000000  1
