# generated using pymatgen
data_Er12InTc2Ni2Ru
_symmetry_space_group_name_H-M   'P 1'
_cell_length_a   8.31959173
_cell_length_b   8.31959224
_cell_length_c   8.31959135
_cell_angle_alpha   113.80890083
_cell_angle_beta   109.94673529
_cell_angle_gamma   104.78343058
_symmetry_Int_Tables_number   1
_chemical_formula_structural   Er12InTc2Ni2Ru
_chemical_formula_sum   'Er12 In1 Tc2 Ni2 Ru1'
_cell_volume   440.53679650
_cell_formula_units_Z   1
loop_
 _symmetry_equiv_pos_site_id
 _symmetry_equiv_pos_as_xyz
  1  'x, y, z'
loop_
 _atom_site_type_symbol
 _atom_site_label
 _atom_site_symmetry_multiplicity
 _atom_site_fract_x
 _atom_site_fract_y
 _atom_site_fract_z
 _atom_site_occupancy
  Er  Er0  1  0.177210  0.271628  0.448837  1
  Er  Er1  1  0.822790  0.728372  0.551163  1
  Er  Er2  1  0.177210  0.728372  0.905583  1
  Er  Er3  1  0.822790  0.271628  0.094417  1
  Er  Er4  1  0.329881  0.645640  0.315759  1
  Er  Er5  1  0.670119  0.354360  0.684241  1
  Er  Er6  1  0.329881  0.014123  0.684241  1
  Er  Er7  1  0.670119  0.985877  0.315759  1
  Er  Er8  1  0.419196  0.232927  0.186268  1
  Er  Er9  1  0.580804  0.767073  0.813732  1
  Er  Er10  1  0.046659  0.232927  0.813732  1
  Er  Er11  1  0.953341  0.767073  0.186268  1
  In  In12  1  0.500000  0.500000  0.000000  1
  Tc  Tc13  1  0.331640  0.000000  0.331640  1
  Tc  Tc14  1  0.668360  0.000000  0.668360  1
  Ni  Ni15  1  0.114973  0.614973  0.500000  1
  Ni  Ni16  1  0.885027  0.385027  0.500000  1
  Ru  Ru17  1  0.000000  0.000000  0.000000  1
