# generated using pymatgen
data_Y8Ga10NiIr17
_symmetry_space_group_name_H-M   'P 1'
_cell_length_a   5.58564900
_cell_length_b   5.53715742
_cell_length_c   23.76208800
_cell_angle_alpha   90.00000000
_cell_angle_beta   90.00000000
_cell_angle_gamma   120.29011465
_symmetry_Int_Tables_number   1
_chemical_formula_structural   Y8Ga10NiIr17
_chemical_formula_sum   'Y8 Ga10 Ni1 Ir17'
_cell_volume   634.59799346
_cell_formula_units_Z   1
loop_
 _symmetry_equiv_pos_site_id
 _symmetry_equiv_pos_as_xyz
  1  'x, y, z'
loop_
 _atom_site_type_symbol
 _atom_site_label
 _atom_site_symmetry_multiplicity
 _atom_site_fract_x
 _atom_site_fract_y
 _atom_site_fract_z
 _atom_site_occupancy
  Y  Y0  1  0.333733  0.667467  0.529946  1
  Y  Y1  1  0.666976  0.333951  0.470285  1
  Y  Y2  1  0.666976  0.333951  0.029715  1
  Y  Y3  1  0.333733  0.667467  0.970054  1
  Y  Y4  1  0.333198  0.666396  0.678243  1
  Y  Y5  1  0.666071  0.332141  0.323770  1
  Y  Y6  1  0.666071  0.332141  0.176230  1
  Y  Y7  1  0.333198  0.666396  0.821757  1
  Ga  Ga8  1  0.000207  0.000414  0.000449  1
  Ga  Ga9  1  0.000207  0.000414  0.499551  1
  Ga  Ga10  1  0.330342  0.660685  0.169834  1
  Ga  Ga11  1  0.666807  0.333614  0.831860  1
  Ga  Ga12  1  0.666807  0.333614  0.668140  1
  Ga  Ga13  1  0.330342  0.660685  0.330166  1
  Ga  Ga14  1  0.003145  0.006289  0.166550  1
  Ga  Ga15  1  0.999969  0.999939  0.834845  1
  Ga  Ga16  1  0.999969  0.999939  0.665155  1
  Ga  Ga17  1  0.003145  0.006289  0.333450  1
  Ni  Ni18  1  0.164792  0.329581  0.250000  1
  Ir  Ir19  1  0.170689  0.341377  0.084340  1
  Ir  Ir20  1  0.829542  0.659085  0.917049  1
  Ir  Ir21  1  0.659124  0.828456  0.084559  1
  Ir  Ir22  1  0.829542  0.659085  0.582951  1
  Ir  Ir23  1  0.340533  0.169707  0.916476  1
  Ir  Ir24  1  0.170689  0.341377  0.415660  1
  Ir  Ir25  1  0.169332  0.828456  0.084559  1
  Ir  Ir26  1  0.340533  0.169707  0.583524  1
  Ir  Ir27  1  0.829173  0.169707  0.916476  1
  Ir  Ir28  1  0.659124  0.828456  0.415441  1
  Ir  Ir29  1  0.829173  0.169707  0.583524  1
  Ir  Ir30  1  0.169332  0.828456  0.415441  1
  Ir  Ir31  1  0.835340  0.670683  0.750000  1
  Ir  Ir32  1  0.671586  0.836764  0.250000  1
  Ir  Ir33  1  0.329985  0.165420  0.750000  1
  Ir  Ir34  1  0.165180  0.836764  0.250000  1
  Ir  Ir35  1  0.835433  0.165420  0.750000  1
