# generated using pymatgen
data_Pr6Dy10Cd4TcPt3
_symmetry_space_group_name_H-M   'P 1'
_cell_length_a   9.84746616
_cell_length_b   9.84750501
_cell_length_c   9.84752507
_cell_angle_alpha   59.56272548
_cell_angle_beta   59.56271592
_cell_angle_gamma   59.56241490
_symmetry_Int_Tables_number   1
_chemical_formula_structural   Pr6Dy10Cd4TcPt3
_chemical_formula_sum   'Pr6 Dy10 Cd4 Tc1 Pt3'
_cell_volume   668.53294244
_cell_formula_units_Z   1
loop_
 _symmetry_equiv_pos_site_id
 _symmetry_equiv_pos_as_xyz
  1  'x, y, z'
loop_
 _atom_site_type_symbol
 _atom_site_label
 _atom_site_symmetry_multiplicity
 _atom_site_fract_x
 _atom_site_fract_y
 _atom_site_fract_z
 _atom_site_occupancy
  Pr  Pr0  1  0.937821  0.561737  0.561738  1
  Pr  Pr1  1  0.553565  0.940950  0.940952  1
  Pr  Pr2  1  0.561735  0.937822  0.561741  1
  Pr  Pr3  1  0.940947  0.553565  0.940954  1
  Pr  Pr4  1  0.561737  0.561739  0.937824  1
  Pr  Pr5  1  0.940946  0.940951  0.553571  1
  Dy  Dy6  1  0.351037  0.351025  0.351017  1
  Dy  Dy7  1  0.347693  0.347685  0.955446  1
  Dy  Dy8  1  0.347697  0.955445  0.347679  1
  Dy  Dy9  1  0.955446  0.347690  0.347683  1
  Dy  Dy10  1  0.817322  0.185791  0.185786  1
  Dy  Dy11  1  0.184881  0.811409  0.811415  1
  Dy  Dy12  1  0.185795  0.817326  0.185783  1
  Dy  Dy13  1  0.811401  0.184882  0.811418  1
  Dy  Dy14  1  0.185790  0.185784  0.817333  1
  Dy  Dy15  1  0.811402  0.811412  0.184881  1
  Cd  Cd16  1  0.578960  0.578962  0.578965  1
  Cd  Cd17  1  0.579276  0.579280  0.260754  1
  Cd  Cd18  1  0.579275  0.260756  0.579280  1
  Cd  Cd19  1  0.260758  0.579277  0.579279  1
  Tc  Tc20  1  0.143165  0.143164  0.143159  1
  Pt  Pt21  1  0.144485  0.144482  0.574379  1
  Pt  Pt22  1  0.144485  0.574380  0.144481  1
  Pt  Pt23  1  0.574380  0.144483  0.144478  1
