# generated using pymatgen
data_Hf4Zr6Al12Ir3Pt4
_symmetry_space_group_name_H-M   'P 1'
_cell_length_a   8.94336148
_cell_length_b   8.94336256
_cell_length_c   8.94175800
_cell_angle_alpha   59.99406903
_cell_angle_beta   59.99406503
_cell_angle_gamma   60.00000397
_symmetry_Int_Tables_number   1
_chemical_formula_structural   Hf4Zr6Al12Ir3Pt4
_chemical_formula_sum   'Hf4 Zr6 Al12 Ir3 Pt4'
_cell_volume   505.67396885
_cell_formula_units_Z   1
loop_
 _symmetry_equiv_pos_site_id
 _symmetry_equiv_pos_as_xyz
  1  'x, y, z'
loop_
 _atom_site_type_symbol
 _atom_site_label
 _atom_site_symmetry_multiplicity
 _atom_site_fract_x
 _atom_site_fract_y
 _atom_site_fract_z
 _atom_site_occupancy
  Hf  Hf0  1  0.879984  0.879984  0.360049  1
  Hf  Hf1  1  0.877950  0.360697  0.883404  1
  Hf  Hf2  1  0.360697  0.877950  0.883404  1
  Hf  Hf3  1  0.877950  0.877950  0.883404  1
  Zr  Zr4  1  0.684693  0.684693  0.314047  1
  Zr  Zr5  1  0.316567  0.684693  0.314047  1
  Zr  Zr6  1  0.684693  0.316567  0.314047  1
  Zr  Zr7  1  0.315342  0.315342  0.687590  1
  Zr  Zr8  1  0.681727  0.315342  0.687590  1
  Zr  Zr9  1  0.315342  0.681727  0.687590  1
  Al  Al10  1  0.122923  0.122923  0.631229  1
  Al  Al11  1  0.126145  0.629249  0.118463  1
  Al  Al12  1  0.629249  0.126145  0.118463  1
  Al  Al13  1  0.126145  0.126145  0.118463  1
  Al  Al14  1  0.660232  0.660232  0.019302  1
  Al  Al15  1  0.659204  0.019648  0.661943  1
  Al  Al16  1  0.019648  0.659204  0.661943  1
  Al  Al17  1  0.659204  0.659204  0.661943  1
  Al  Al18  1  0.336351  0.336351  0.990946  1
  Al  Al19  1  0.338334  0.988638  0.334694  1
  Al  Al20  1  0.988638  0.338334  0.334694  1
  Al  Al21  1  0.338334  0.338334  0.334694  1
  Ir  Ir22  1  0.501690  0.501690  0.998302  1
  Ir  Ir23  1  0.998318  0.501690  0.998302  1
  Ir  Ir24  1  0.501690  0.998318  0.998302  1
  Pt  Pt25  1  0.999583  0.999583  0.001250  1
  Pt  Pt26  1  0.999362  0.999362  0.500632  1
  Pt  Pt27  1  0.500645  0.999362  0.500632  1
  Pt  Pt28  1  0.999362  0.500645  0.500632  1
