# generated using pymatgen
data_Tb3Tm5(HgIr)2
_symmetry_space_group_name_H-M   'P 1'
_cell_length_a   9.53562482
_cell_length_b   9.53562566
_cell_length_c   9.53562500
_cell_angle_alpha   59.99999881
_cell_angle_beta   59.99999592
_cell_angle_gamma   60.00000417
_symmetry_Int_Tables_number   1
_chemical_formula_structural   Tb3Tm5(HgIr)2
_chemical_formula_sum   'Tb6 Tm10 Hg4 Ir4'
_cell_volume   613.10168706
_cell_formula_units_Z   2
loop_
 _symmetry_equiv_pos_site_id
 _symmetry_equiv_pos_as_xyz
  1  'x, y, z'
loop_
 _atom_site_type_symbol
 _atom_site_label
 _atom_site_symmetry_multiplicity
 _atom_site_fract_x
 _atom_site_fract_y
 _atom_site_fract_z
 _atom_site_occupancy
  Tb  Tb0  1  0.190312  0.809688  0.809688  1
  Tb  Tb1  1  0.809688  0.190312  0.190312  1
  Tb  Tb2  1  0.809688  0.190312  0.809688  1
  Tb  Tb3  1  0.190312  0.809688  0.190312  1
  Tb  Tb4  1  0.809688  0.809688  0.190312  1
  Tb  Tb5  1  0.190312  0.190312  0.809688  1
  Tm  Tm6  1  0.600195  0.600195  0.600195  1
  Tm  Tm7  1  0.600195  0.600195  0.199416  1
  Tm  Tm8  1  0.600195  0.199416  0.600195  1
  Tm  Tm9  1  0.199416  0.600195  0.600195  1
  Tm  Tm10  1  0.061259  0.438741  0.438741  1
  Tm  Tm11  1  0.438741  0.061259  0.061259  1
  Tm  Tm12  1  0.438741  0.061259  0.438741  1
  Tm  Tm13  1  0.061259  0.438741  0.061259  1
  Tm  Tm14  1  0.438741  0.438741  0.061259  1
  Tm  Tm15  1  0.061259  0.061259  0.438741  1
  Hg  Hg16  1  0.834315  0.834315  0.834315  1
  Hg  Hg17  1  0.834315  0.834315  0.497055  1
  Hg  Hg18  1  0.834315  0.497055  0.834315  1
  Hg  Hg19  1  0.497055  0.834315  0.834315  1
  Ir  Ir20  1  0.391982  0.391982  0.391982  1
  Ir  Ir21  1  0.391982  0.391982  0.824055  1
  Ir  Ir22  1  0.391982  0.824055  0.391982  1
  Ir  Ir23  1  0.824055  0.391982  0.391982  1
