# generated using pymatgen
data_BaPaCoS3
_symmetry_space_group_name_H-M   'P 1'
_cell_length_a   3.91343068
_cell_length_b   10.03350811
_cell_length_c   7.15181512
_cell_angle_alpha   89.98392775
_cell_angle_beta   105.88140124
_cell_angle_gamma   89.99931906
_symmetry_Int_Tables_number   1
_chemical_formula_structural   BaPaCoS3
_chemical_formula_sum   'Ba2 Pa2 Co2 S6'
_cell_volume   270.10033010
_cell_formula_units_Z   2
loop_
 _symmetry_equiv_pos_site_id
 _symmetry_equiv_pos_as_xyz
  1  'x, y, z'
loop_
 _atom_site_type_symbol
 _atom_site_label
 _atom_site_symmetry_multiplicity
 _atom_site_fract_x
 _atom_site_fract_y
 _atom_site_fract_z
 _atom_site_occupancy
  Ba  Ba0  1  0.739474  0.499967  0.478975  1
  Ba  Ba1  1  0.260525  0.000030  0.521031  1
  Pa  Pa2  1  0.000002  0.249994  0.000004  1
  Pa  Pa3  1  0.999999  0.750007  0.000000  1
  Co  Co4  1  0.525575  0.000029  0.051260  1
  Co  Co5  1  0.474422  0.499976  0.948746  1
  S  S6  1  0.060130  0.500028  0.120197  1
  S  S7  1  0.629873  0.178848  0.259567  1
  S  S8  1  0.629812  0.821227  0.259460  1
  S  S9  1  0.370136  0.321153  0.740450  1
  S  S10  1  0.370184  0.678768  0.740549  1
  S  S11  1  0.939844  0.999973  0.879763  1
