# generated using pymatgen
data_Ho8AgHgRh2
_symmetry_space_group_name_H-M   'P 1'
_cell_length_a   9.53254323
_cell_length_b   9.53254315
_cell_length_c   9.54087000
_cell_angle_alpha   59.97110700
_cell_angle_beta   59.97110727
_cell_angle_gamma   59.94730605
_symmetry_Int_Tables_number   1
_chemical_formula_structural   Ho8AgHgRh2
_chemical_formula_sum   'Ho16 Ag2 Hg2 Rh4'
_cell_volume   612.53039525
_cell_formula_units_Z   2
loop_
 _symmetry_equiv_pos_site_id
 _symmetry_equiv_pos_as_xyz
  1  'x, y, z'
loop_
 _atom_site_type_symbol
 _atom_site_label
 _atom_site_symmetry_multiplicity
 _atom_site_fract_x
 _atom_site_fract_y
 _atom_site_fract_z
 _atom_site_occupancy
  Ho  Ho0  1  0.184936  0.184936  0.815064  1
  Ho  Ho1  1  0.601579  0.601579  0.195472  1
  Ho  Ho2  1  0.437757  0.060547  0.439964  1
  Ho  Ho3  1  0.439225  0.439225  0.060775  1
  Ho  Ho4  1  0.813126  0.185006  0.814528  1
  Ho  Ho5  1  0.185006  0.813126  0.187340  1
  Ho  Ho6  1  0.437757  0.060547  0.061732  1
  Ho  Ho7  1  0.185006  0.813126  0.814528  1
  Ho  Ho8  1  0.060547  0.437757  0.061732  1
  Ho  Ho9  1  0.812381  0.812381  0.187619  1
  Ho  Ho10  1  0.196720  0.600835  0.601222  1
  Ho  Ho11  1  0.060547  0.437757  0.439964  1
  Ho  Ho12  1  0.061267  0.061267  0.438733  1
  Ho  Ho13  1  0.813126  0.185006  0.187340  1
  Ho  Ho14  1  0.600835  0.196720  0.601222  1
  Ho  Ho15  1  0.601579  0.601579  0.601370  1
  Ag  Ag16  1  0.835169  0.835169  0.830467  1
  Ag  Ag17  1  0.835169  0.835169  0.499196  1
  Hg  Hg18  1  0.496780  0.837757  0.832732  1
  Hg  Hg19  1  0.837757  0.496780  0.832732  1
  Rh  Rh20  1  0.394461  0.821649  0.391945  1
  Rh  Rh21  1  0.393810  0.393810  0.390376  1
  Rh  Rh22  1  0.821649  0.394461  0.391945  1
  Rh  Rh23  1  0.393810  0.393810  0.822003  1
