# generated using pymatgen
data_Na3La(TbTe2)4
_symmetry_space_group_name_H-M   'P 1'
_cell_length_a   8.92168984
_cell_length_b   8.99890657
_cell_length_c   8.92168900
_cell_angle_alpha   60.28344239
_cell_angle_beta   59.99999941
_cell_angle_gamma   60.28344258
_symmetry_Int_Tables_number   1
_chemical_formula_structural   Na3La(TbTe2)4
_chemical_formula_sum   'Na3 La1 Tb4 Te8'
_cell_volume   508.64682429
_cell_formula_units_Z   1
loop_
 _symmetry_equiv_pos_site_id
 _symmetry_equiv_pos_as_xyz
  1  'x, y, z'
loop_
 _atom_site_type_symbol
 _atom_site_label
 _atom_site_symmetry_multiplicity
 _atom_site_fract_x
 _atom_site_fract_y
 _atom_site_fract_z
 _atom_site_occupancy
  Na  Na0  1  0.125000  0.125000  0.625000  1
  Na  Na1  1  0.625000  0.125000  0.125000  1
  Na  Na2  1  0.125000  0.125000  0.125000  1
  La  La3  1  0.125000  0.625000  0.125000  1
  Tb  Tb4  1  0.625000  0.125000  0.625000  1
  Tb  Tb5  1  0.625000  0.625000  0.625000  1
  Tb  Tb6  1  0.125000  0.625000  0.625000  1
  Tb  Tb7  1  0.625000  0.625000  0.125000  1
  Te  Te8  1  0.379575  0.861273  0.379575  1
  Te  Te9  1  0.870425  0.388727  0.870425  1
  Te  Te10  1  0.870177  0.874231  0.385415  1
  Te  Te11  1  0.870177  0.874231  0.870177  1
  Te  Te12  1  0.864585  0.375769  0.379823  1
  Te  Te13  1  0.379823  0.375769  0.864585  1
  Te  Te14  1  0.379823  0.375769  0.379823  1
  Te  Te15  1  0.385415  0.874231  0.870177  1
