# generated using pymatgen
data_SrNb6GeSe12
_symmetry_space_group_name_H-M   'P 1'
_cell_length_a   6.09150600
_cell_length_b   6.09150568
_cell_length_c   15.05856700
_cell_angle_alpha   90.00000000
_cell_angle_beta   90.00000000
_cell_angle_gamma   120.00001258
_symmetry_Int_Tables_number   1
_chemical_formula_structural   SrNb6GeSe12
_chemical_formula_sum   'Sr1 Nb6 Ge1 Se12'
_cell_volume   483.90883603
_cell_formula_units_Z   1
loop_
 _symmetry_equiv_pos_site_id
 _symmetry_equiv_pos_as_xyz
  1  'x, y, z'
loop_
 _atom_site_type_symbol
 _atom_site_label
 _atom_site_symmetry_multiplicity
 _atom_site_fract_x
 _atom_site_fract_y
 _atom_site_fract_z
 _atom_site_occupancy
  Sr  Sr0  1  0.000000  0.000000  0.000000  1
  Nb  Nb1  1  0.333333  0.666667  0.264065  1
  Nb  Nb2  1  0.000000  0.000000  0.262359  1
  Nb  Nb3  1  0.000000  0.000000  0.737641  1
  Nb  Nb4  1  0.333333  0.666667  0.735935  1
  Nb  Nb5  1  0.666667  0.333333  0.735935  1
  Nb  Nb6  1  0.666667  0.333333  0.264065  1
  Ge  Ge7  1  0.000000  0.000000  0.500000  1
  Se  Se8  1  0.000000  0.665543  0.626064  1
  Se  Se9  1  0.000000  0.661107  0.847335  1
  Se  Se10  1  0.000000  0.338893  0.152665  1
  Se  Se11  1  0.000000  0.334457  0.373936  1
  Se  Se12  1  0.334457  0.334457  0.626064  1
  Se  Se13  1  0.338893  0.338893  0.847335  1
  Se  Se14  1  0.661107  0.661107  0.152665  1
  Se  Se15  1  0.665543  0.665543  0.373936  1
  Se  Se16  1  0.338893  0.000000  0.152665  1
  Se  Se17  1  0.334457  0.000000  0.373936  1
  Se  Se18  1  0.665543  0.000000  0.626064  1
  Se  Se19  1  0.661107  0.000000  0.847335  1
