# generated using pymatgen
data_Hf18MnRe6Mo2P
_symmetry_space_group_name_H-M   'P 1'
_cell_length_a   8.57115000
_cell_length_b   8.57114945
_cell_length_c   8.57403900
_cell_angle_alpha   90.00000000
_cell_angle_beta   90.00000000
_cell_angle_gamma   120.00000214
_symmetry_Int_Tables_number   1
_chemical_formula_structural   Hf18MnRe6Mo2P
_chemical_formula_sum   'Hf18 Mn1 Re6 Mo2 P1'
_cell_volume   545.49935326
_cell_formula_units_Z   1
loop_
 _symmetry_equiv_pos_site_id
 _symmetry_equiv_pos_as_xyz
  1  'x, y, z'
loop_
 _atom_site_type_symbol
 _atom_site_label
 _atom_site_symmetry_multiplicity
 _atom_site_fract_x
 _atom_site_fract_y
 _atom_site_fract_z
 _atom_site_occupancy
  Hf  Hf0  1  0.201939  0.798061  0.443613  1
  Hf  Hf1  1  0.201939  0.403876  0.443613  1
  Hf  Hf2  1  0.596124  0.798061  0.443613  1
  Hf  Hf3  1  0.804537  0.195463  0.548833  1
  Hf  Hf4  1  0.804537  0.609075  0.548833  1
  Hf  Hf5  1  0.390925  0.195463  0.548833  1
  Hf  Hf6  1  0.804537  0.195463  0.951167  1
  Hf  Hf7  1  0.804537  0.609075  0.951167  1
  Hf  Hf8  1  0.390925  0.195463  0.951167  1
  Hf  Hf9  1  0.201939  0.798061  0.056387  1
  Hf  Hf10  1  0.201939  0.403876  0.056387  1
  Hf  Hf11  1  0.596124  0.798061  0.056387  1
  Hf  Hf12  1  0.539265  0.460735  0.250000  1
  Hf  Hf13  1  0.539265  0.078531  0.250000  1
  Hf  Hf14  1  0.921469  0.460735  0.250000  1
  Hf  Hf15  1  0.460177  0.539823  0.750000  1
  Hf  Hf16  1  0.460177  0.920352  0.750000  1
  Hf  Hf17  1  0.079648  0.539823  0.750000  1
  Mn  Mn18  1  0.333333  0.666667  0.250000  1
  Re  Re19  1  0.888472  0.111528  0.250000  1
  Re  Re20  1  0.888472  0.776941  0.250000  1
  Re  Re21  1  0.223059  0.111528  0.250000  1
  Re  Re22  1  0.110934  0.889066  0.750000  1
  Re  Re23  1  0.110934  0.221869  0.750000  1
  Re  Re24  1  0.778131  0.889066  0.750000  1
  Mo  Mo25  1  0.000000  0.000000  0.498477  1
  Mo  Mo26  1  0.000000  0.000000  0.001523  1
  P  P27  1  0.666667  0.333333  0.750000  1
