# generated using pymatgen
data_Dy20TlRu11
_symmetry_space_group_name_H-M   'P 1'
_cell_length_a   10.90795584
_cell_length_b   10.90795503
_cell_length_c   6.41223358
_cell_angle_alpha   90.16012152
_cell_angle_beta   90.16012731
_cell_angle_gamma   89.63398423
_symmetry_Int_Tables_number   1
_chemical_formula_structural   Dy20TlRu11
_chemical_formula_sum   'Dy20 Tl1 Ru11'
_cell_volume   762.92845333
_cell_formula_units_Z   1
loop_
 _symmetry_equiv_pos_site_id
 _symmetry_equiv_pos_as_xyz
  1  'x, y, z'
loop_
 _atom_site_type_symbol
 _atom_site_label
 _atom_site_symmetry_multiplicity
 _atom_site_fract_x
 _atom_site_fract_y
 _atom_site_fract_z
 _atom_site_occupancy
  Dy  Dy0  1  0.292672  0.088574  0.379881  1
  Dy  Dy1  1  0.290380  0.930002  0.876064  1
  Dy  Dy2  1  0.709494  0.088834  0.877491  1
  Dy  Dy3  1  0.709300  0.913609  0.379049  1
  Dy  Dy4  1  0.597474  0.798265  0.880519  1
  Dy  Dy5  1  0.588719  0.204116  0.377262  1
  Dy  Dy6  1  0.419874  0.800853  0.351880  1
  Dy  Dy7  1  0.414913  0.211203  0.875661  1
  Dy  Dy8  1  0.201735  0.402526  0.619481  1
  Dy  Dy9  1  0.199147  0.580126  0.148120  1
  Dy  Dy10  1  0.795884  0.411281  0.122738  1
  Dy  Dy11  1  0.788797  0.585087  0.624339  1
  Dy  Dy12  1  0.911426  0.707328  0.120119  1
  Dy  Dy13  1  0.911166  0.290506  0.622509  1
  Dy  Dy14  1  0.069998  0.709620  0.623936  1
  Dy  Dy15  1  0.086391  0.290700  0.120951  1
  Dy  Dy16  1  0.000517  0.000552  0.498254  1
  Dy  Dy17  1  0.999448  0.999483  0.001746  1
  Dy  Dy18  1  0.509030  0.493700  0.006272  1
  Dy  Dy19  1  0.506300  0.490970  0.493728  1
  Tl  Tl20  1  0.341161  0.658839  0.750000  1
  Ru  Ru21  1  0.847526  0.152474  0.250000  1
  Ru  Ru22  1  0.847438  0.847327  0.749122  1
  Ru  Ru23  1  0.152673  0.152562  0.750878  1
  Ru  Ru24  1  0.153493  0.846507  0.250000  1
  Ru  Ru25  1  0.654283  0.345717  0.750000  1
  Ru  Ru26  1  0.652064  0.651267  0.251872  1
  Ru  Ru27  1  0.348733  0.347936  0.248128  1
  Ru  Ru28  1  0.501996  0.002350  0.121613  1
  Ru  Ru29  1  0.501736  0.001416  0.625965  1
  Ru  Ru30  1  0.998584  0.498264  0.874035  1
  Ru  Ru31  1  0.997650  0.498004  0.378387  1
