# generated using pymatgen
data_TmLuMnAl3
_symmetry_space_group_name_H-M   'P 1'
_cell_length_a   5.38968463
_cell_length_b   5.38968486
_cell_length_c   5.38968404
_cell_angle_alpha   61.36789115
_cell_angle_beta   61.36788588
_cell_angle_gamma   61.36788157
_symmetry_Int_Tables_number   1
_chemical_formula_structural   TmLuMnAl3
_chemical_formula_sum   'Tm1 Lu1 Mn1 Al3'
_cell_volume   114.10943960
_cell_formula_units_Z   1
loop_
 _symmetry_equiv_pos_site_id
 _symmetry_equiv_pos_as_xyz
  1  'x, y, z'
loop_
 _atom_site_type_symbol
 _atom_site_label
 _atom_site_symmetry_multiplicity
 _atom_site_fract_x
 _atom_site_fract_y
 _atom_site_fract_z
 _atom_site_occupancy
  Tm  Tm0  1  0.998300  0.998300  0.998300  1
  Lu  Lu1  1  0.251625  0.251625  0.251625  1
  Mn  Mn2  1  0.625019  0.625019  0.625019  1
  Al  Al3  1  0.625011  0.625011  0.125034  1
  Al  Al4  1  0.625011  0.125034  0.625011  1
  Al  Al5  1  0.125034  0.625011  0.625011  1
