# generated using pymatgen
data_Tb7Sm(Er3Pb4)4
_symmetry_space_group_name_H-M   'P 1'
_cell_length_a   8.18365622
_cell_length_b   8.26269135
_cell_length_c   15.58352521
_cell_angle_alpha   89.97881095
_cell_angle_beta   89.94278994
_cell_angle_gamma   90.02570514
_symmetry_Int_Tables_number   1
_chemical_formula_structural   Tb7Sm(Er3Pb4)4
_chemical_formula_sum   'Tb7 Sm1 Er12 Pb16'
_cell_volume   1053.74208496
_cell_formula_units_Z   1
loop_
 _symmetry_equiv_pos_site_id
 _symmetry_equiv_pos_as_xyz
  1  'x, y, z'
loop_
 _atom_site_type_symbol
 _atom_site_label
 _atom_site_symmetry_multiplicity
 _atom_site_fract_x
 _atom_site_fract_y
 _atom_site_fract_z
 _atom_site_occupancy
  Tb  Tb0  1  0.034589  0.176944  0.599855  1
  Tb  Tb1  1  0.465414  0.676999  0.400037  1
  Tb  Tb2  1  0.965523  0.822901  0.099938  1
  Tb  Tb3  1  0.465483  0.677116  0.100039  1
  Tb  Tb4  1  0.965426  0.823026  0.400051  1
  Tb  Tb5  1  0.534595  0.322938  0.600020  1
  Tb  Tb6  1  0.034536  0.176869  0.900063  1
  Sm  Sm7  1  0.534179  0.322773  0.900336  1
  Er  Er8  1  0.376332  0.840805  0.879117  1
  Er  Er9  1  0.876487  0.659127  0.620840  1
  Er  Er10  1  0.623501  0.159089  0.379066  1
  Er  Er11  1  0.123656  0.341044  0.121019  1
  Er  Er12  1  0.623656  0.158879  0.121187  1
  Er  Er13  1  0.123530  0.340954  0.379045  1
  Er  Er14  1  0.376425  0.840890  0.620772  1
  Er  Er15  1  0.876606  0.659341  0.879112  1
  Er  Er16  1  0.207931  0.504877  0.749775  1
  Er  Er17  1  0.708320  0.995200  0.749826  1
  Er  Er18  1  0.791939  0.495400  0.250030  1
  Er  Er19  1  0.291863  0.004584  0.250056  1
  Pb  Pb20  1  0.282574  0.034128  0.042745  1
  Pb  Pb21  1  0.782561  0.465839  0.457256  1
  Pb  Pb22  1  0.717471  0.965881  0.542681  1
  Pb  Pb23  1  0.216501  0.534886  0.957453  1
  Pb  Pb24  1  0.717854  0.965214  0.957376  1
  Pb  Pb25  1  0.217446  0.534090  0.542734  1
  Pb  Pb26  1  0.282551  0.034162  0.457236  1
  Pb  Pb27  1  0.783294  0.466405  0.043217  1
  Pb  Pb28  1  0.571423  0.628011  0.749913  1
  Pb  Pb29  1  0.071320  0.872408  0.749971  1
  Pb  Pb30  1  0.428633  0.372390  0.250010  1
  Pb  Pb31  1  0.928643  0.127553  0.249984  1
  Pb  Pb32  1  0.344867  0.151461  0.749428  1
  Pb  Pb33  1  0.845974  0.347800  0.749813  1
  Pb  Pb34  1  0.654446  0.847778  0.250001  1
  Pb  Pb35  1  0.154452  0.652238  0.249993  1
