# generated using pymatgen
data_SrSb3F15
_symmetry_space_group_name_H-M   'P 1'
_cell_length_a   11.07563500
_cell_length_b   11.45866300
_cell_length_c   12.04547800
_cell_angle_alpha   90.00000000
_cell_angle_beta   90.00000000
_cell_angle_gamma   90.00000000
_symmetry_Int_Tables_number   1
_chemical_formula_structural   SrSb3F15
_chemical_formula_sum   'Sr4 Sb12 F60'
_cell_volume   1528.71533024
_cell_formula_units_Z   4
loop_
 _symmetry_equiv_pos_site_id
 _symmetry_equiv_pos_as_xyz
  1  'x, y, z'
loop_
 _atom_site_type_symbol
 _atom_site_label
 _atom_site_symmetry_multiplicity
 _atom_site_fract_x
 _atom_site_fract_y
 _atom_site_fract_z
 _atom_site_occupancy
  Sr  Sr0  1  0.999766  0.127037  0.869087  1
  Sr  Sr1  1  0.000234  0.627037  0.630913  1
  Sr  Sr2  1  0.499766  0.372963  0.130913  1
  Sr  Sr3  1  0.500234  0.872963  0.369087  1
  Sb  Sb4  1  0.755641  0.066612  0.155329  1
  Sb  Sb5  1  0.244359  0.566612  0.344671  1
  Sb  Sb6  1  0.255641  0.433388  0.844671  1
  Sb  Sb7  1  0.744359  0.933388  0.655329  1
  Sb  Sb8  1  0.744735  0.433293  0.845055  1
  Sb  Sb9  1  0.255265  0.933293  0.654945  1
  Sb  Sb10  1  0.244735  0.066707  0.154945  1
  Sb  Sb11  1  0.755265  0.566707  0.345055  1
  Sb  Sb12  1  0.983235  0.751678  0.994621  1
  Sb  Sb13  1  0.016765  0.251678  0.505379  1
  Sb  Sb14  1  0.483235  0.748322  0.005379  1
  Sb  Sb15  1  0.516765  0.248322  0.494621  1
  F  F16  1  0.649511  0.001184  0.268356  1
  F  F17  1  0.350489  0.501184  0.231644  1
  F  F18  1  0.149511  0.498816  0.731644  1
  F  F19  1  0.850489  0.998816  0.768356  1
  F  F20  1  0.851387  0.499836  0.733231  1
  F  F21  1  0.148613  0.999836  0.766769  1
  F  F22  1  0.351387  0.000164  0.266769  1
  F  F23  1  0.648613  0.500164  0.233231  1
  F  F24  1  0.856112  0.931652  0.164735  1
  F  F25  1  0.143888  0.431652  0.335265  1
  F  F26  1  0.356112  0.568348  0.835265  1
  F  F27  1  0.643888  0.068348  0.664735  1
  F  F28  1  0.645048  0.568118  0.836375  1
  F  F29  1  0.354952  0.068118  0.663625  1
  F  F30  1  0.145048  0.931882  0.163625  1
  F  F31  1  0.854952  0.431882  0.336375  1
  F  F32  1  0.650966  0.203037  0.146835  1
  F  F33  1  0.349034  0.703037  0.353165  1
  F  F34  1  0.150966  0.296963  0.853165  1
  F  F35  1  0.849034  0.796963  0.646835  1
  F  F36  1  0.848630  0.296556  0.852900  1
  F  F37  1  0.151370  0.796556  0.647100  1
  F  F38  1  0.348630  0.203444  0.147100  1
  F  F39  1  0.651370  0.703444  0.352900  1
  F  F40  1  0.005769  0.914880  0.948785  1
  F  F41  1  0.994231  0.414880  0.551215  1
  F  F42  1  0.505769  0.585120  0.051215  1
  F  F43  1  0.494231  0.085120  0.448785  1
  F  F44  1  0.005253  0.702838  0.838962  1
  F  F45  1  0.994747  0.202838  0.661038  1
  F  F46  1  0.505253  0.797162  0.161038  1
  F  F47  1  0.494747  0.297162  0.338962  1
  F  F48  1  0.846397  0.144681  0.266074  1
  F  F49  1  0.153603  0.644681  0.233926  1
  F  F50  1  0.346397  0.355319  0.733926  1
  F  F51  1  0.653603  0.855319  0.766074  1
  F  F52  1  0.655661  0.355920  0.732047  1
  F  F53  1  0.344339  0.855920  0.767953  1
  F  F54  1  0.155661  0.144080  0.267953  1
  F  F55  1  0.844339  0.644080  0.232047  1
  F  F56  1  0.657485  0.996472  0.044020  1
  F  F57  1  0.342515  0.496472  0.455980  1
  F  F58  1  0.157485  0.503528  0.955980  1
  F  F59  1  0.842515  0.003528  0.544020  1
  F  F60  1  0.843565  0.501452  0.957474  1
  F  F61  1  0.156435  0.001452  0.542526  1
  F  F62  1  0.343565  0.998548  0.042526  1
  F  F63  1  0.656435  0.498548  0.457474  1
  F  F64  1  0.858218  0.131680  0.039597  1
  F  F65  1  0.141782  0.631680  0.460403  1
  F  F66  1  0.358218  0.368320  0.960403  1
  F  F67  1  0.641782  0.868320  0.539597  1
  F  F68  1  0.641570  0.367132  0.959489  1
  F  F69  1  0.358430  0.867132  0.540511  1
  F  F70  1  0.141570  0.132868  0.040511  1
  F  F71  1  0.858430  0.632868  0.459489  1
  F  F72  1  0.811800  0.762202  0.975328  1
  F  F73  1  0.188200  0.262201  0.524672  1
  F  F74  1  0.311800  0.737798  0.024672  1
  F  F75  1  0.688200  0.237798  0.475328  1
