# generated using pymatgen
data_AlSbBr6
_symmetry_space_group_name_H-M   'P 1'
_cell_length_a   10.27976490
_cell_length_b   10.27976556
_cell_length_c   7.48955599
_cell_angle_alpha   70.88105937
_cell_angle_beta   70.88106099
_cell_angle_gamma   78.71921060
_symmetry_Int_Tables_number   1
_chemical_formula_structural   AlSbBr6
_chemical_formula_sum   'Al2 Sb2 Br12'
_cell_volume   703.07677695
_cell_formula_units_Z   2
loop_
 _symmetry_equiv_pos_site_id
 _symmetry_equiv_pos_as_xyz
  1  'x, y, z'
loop_
 _atom_site_type_symbol
 _atom_site_label
 _atom_site_symmetry_multiplicity
 _atom_site_fract_x
 _atom_site_fract_y
 _atom_site_fract_z
 _atom_site_occupancy
  Al  Al0  1  0.198117  0.198117  0.651078  1
  Al  Al1  1  0.801883  0.801883  0.348922  1
  Sb  Sb2  1  0.808896  0.191104  0.000000  1
  Sb  Sb3  1  0.191104  0.808896  0.000000  1
  Br  Br4  1  0.222077  0.582115  0.921322  1
  Br  Br5  1  0.417885  0.777923  0.078678  1
  Br  Br6  1  0.777923  0.417885  0.078678  1
  Br  Br7  1  0.582115  0.222077  0.921322  1
  Br  Br8  1  0.018408  0.724822  0.419734  1
  Br  Br9  1  0.275178  0.981592  0.580266  1
  Br  Br10  1  0.981592  0.275178  0.580266  1
  Br  Br11  1  0.724822  0.018408  0.419734  1
  Br  Br12  1  0.848981  0.848981  0.007374  1
  Br  Br13  1  0.151019  0.151019  0.992626  1
  Br  Br14  1  0.645980  0.645980  0.526376  1
  Br  Br15  1  0.354020  0.354020  0.473624  1
