# generated using pymatgen
data_DyMnHgPt3
_symmetry_space_group_name_H-M   'P 1'
_cell_length_a   5.25740896
_cell_length_b   5.25740757
_cell_length_c   5.25740736
_cell_angle_alpha   63.01105133
_cell_angle_beta   63.01106132
_cell_angle_gamma   63.01103962
_symmetry_Int_Tables_number   1
_chemical_formula_structural   DyMnHgPt3
_chemical_formula_sum   'Dy1 Mn1 Hg1 Pt3'
_cell_volume   109.62252744
_cell_formula_units_Z   1
loop_
 _symmetry_equiv_pos_site_id
 _symmetry_equiv_pos_as_xyz
  1  'x, y, z'
loop_
 _atom_site_type_symbol
 _atom_site_label
 _atom_site_symmetry_multiplicity
 _atom_site_fract_x
 _atom_site_fract_y
 _atom_site_fract_z
 _atom_site_occupancy
  Dy  Dy0  1  0.003911  0.003911  0.003911  1
  Mn  Mn1  1  0.623324  0.623324  0.623324  1
  Hg  Hg2  1  0.251347  0.251347  0.251347  1
  Pt  Pt3  1  0.623493  0.623493  0.124433  1
  Pt  Pt4  1  0.623493  0.124433  0.623493  1
  Pt  Pt5  1  0.124433  0.623493  0.623493  1
