# generated using pymatgen
data_Al2SiNi2
_symmetry_space_group_name_H-M   'P 1'
_cell_length_a   4.00286630
_cell_length_b   4.76200711
_cell_length_c   4.00161925
_cell_angle_alpha   90.01539101
_cell_angle_beta   119.98933281
_cell_angle_gamma   90.01082769
_symmetry_Int_Tables_number   1
_chemical_formula_structural   Al2SiNi2
_chemical_formula_sum   'Al2 Si1 Ni2'
_cell_volume   66.06541175
_cell_formula_units_Z   1
loop_
 _symmetry_equiv_pos_site_id
 _symmetry_equiv_pos_as_xyz
  1  'x, y, z'
loop_
 _atom_site_type_symbol
 _atom_site_label
 _atom_site_symmetry_multiplicity
 _atom_site_fract_x
 _atom_site_fract_y
 _atom_site_fract_z
 _atom_site_occupancy
  Al  Al0  1  0.981786  0.462423  0.189502  1
  Al  Al1  1  0.648658  0.827864  0.523466  1
  Si  Si2  1  0.314091  0.120722  0.856208  1
  Ni  Ni3  1  0.315897  0.624808  0.856490  1
  Ni  Ni4  1  0.647966  0.317853  0.522531  1
