# generated using pymatgen
data_Tm4Mg4Ir3Rh
_symmetry_space_group_name_H-M   'P 1'
_cell_length_a   4.06432800
_cell_length_b   7.03144028
_cell_length_c   8.49750187
_cell_angle_alpha   89.62091924
_cell_angle_beta   90.00000000
_cell_angle_gamma   90.00000000
_symmetry_Int_Tables_number   1
_chemical_formula_structural   Tm4Mg4Ir3Rh
_chemical_formula_sum   'Tm4 Mg4 Ir3 Rh1'
_cell_volume   242.83696972
_cell_formula_units_Z   1
loop_
 _symmetry_equiv_pos_site_id
 _symmetry_equiv_pos_as_xyz
  1  'x, y, z'
loop_
 _atom_site_type_symbol
 _atom_site_label
 _atom_site_symmetry_multiplicity
 _atom_site_fract_x
 _atom_site_fract_y
 _atom_site_fract_z
 _atom_site_occupancy
  Tm  Tm0  1  0.250000  0.539280  0.174790  1
  Tm  Tm1  1  0.750000  0.465180  0.828457  1
  Tm  Tm2  1  0.750000  0.956069  0.673066  1
  Tm  Tm3  1  0.250000  0.037657  0.324553  1
  Mg  Mg4  1  0.250000  0.635182  0.560851  1
  Mg  Mg5  1  0.750000  0.363479  0.439802  1
  Mg  Mg6  1  0.750000  0.864912  0.061057  1
  Mg  Mg7  1  0.250000  0.136958  0.939671  1
  Ir  Ir8  1  0.250000  0.752174  0.868065  1
  Ir  Ir9  1  0.750000  0.250916  0.130163  1
  Ir  Ir10  1  0.750000  0.750076  0.370084  1
  Rh  Rh11  1  0.250000  0.248115  0.629440  1
