# generated using pymatgen
data_Tb7Dy5Th4(MgRh)4
_symmetry_space_group_name_H-M   'P 1'
_cell_length_a   9.80640154
_cell_length_b   9.80640176
_cell_length_c   9.82898200
_cell_angle_alpha   59.92380127
_cell_angle_beta   59.92380053
_cell_angle_gamma   59.89497959
_symmetry_Int_Tables_number   1
_chemical_formula_structural   Tb7Dy5Th4(MgRh)4
_chemical_formula_sum   'Tb7 Dy5 Th4 Mg4 Rh4'
_cell_volume   667.06268872
_cell_formula_units_Z   1
loop_
 _symmetry_equiv_pos_site_id
 _symmetry_equiv_pos_as_xyz
  1  'x, y, z'
loop_
 _atom_site_type_symbol
 _atom_site_label
 _atom_site_symmetry_multiplicity
 _atom_site_fract_x
 _atom_site_fract_y
 _atom_site_fract_z
 _atom_site_occupancy
  Tb  Tb0  1  0.813834  0.813834  0.186166  1
  Tb  Tb1  1  0.935895  0.564961  0.565599  1
  Tb  Tb2  1  0.564961  0.935895  0.933545  1
  Tb  Tb3  1  0.564961  0.935895  0.565599  1
  Tb  Tb4  1  0.935895  0.564961  0.933545  1
  Tb  Tb5  1  0.565784  0.565784  0.934216  1
  Tb  Tb6  1  0.935237  0.935237  0.564763  1
  Dy  Dy7  1  0.813132  0.186921  0.187056  1
  Dy  Dy8  1  0.186921  0.813132  0.812891  1
  Dy  Dy9  1  0.186921  0.813132  0.187056  1
  Dy  Dy10  1  0.813132  0.186921  0.812891  1
  Dy  Dy11  1  0.187578  0.187578  0.812422  1
  Th  Th12  1  0.348216  0.348216  0.347378  1
  Th  Th13  1  0.348216  0.348216  0.956191  1
  Th  Th14  1  0.348867  0.954137  0.348498  1
  Th  Th15  1  0.954137  0.348867  0.348498  1
  Mg  Mg16  1  0.579509  0.579509  0.580839  1
  Mg  Mg17  1  0.579509  0.579509  0.260143  1
  Mg  Mg18  1  0.579325  0.259769  0.580453  1
  Mg  Mg19  1  0.259769  0.579325  0.580453  1
  Rh  Rh20  1  0.144061  0.144061  0.145476  1
  Rh  Rh21  1  0.144061  0.144061  0.566399  1
  Rh  Rh22  1  0.144182  0.565895  0.144960  1
  Rh  Rh23  1  0.565895  0.144182  0.144960  1
