# generated using pymatgen
data_Y24FeTc7
_symmetry_space_group_name_H-M   'P 1'
_cell_length_a   6.31882767
_cell_length_b   9.24237300
_cell_length_c   14.78586347
_cell_angle_alpha   90.00000000
_cell_angle_beta   90.21267659
_cell_angle_gamma   90.00000000
_symmetry_Int_Tables_number   1
_chemical_formula_structural   Y24FeTc7
_chemical_formula_sum   'Y24 Fe1 Tc7'
_cell_volume   863.50270564
_cell_formula_units_Z   1
loop_
 _symmetry_equiv_pos_site_id
 _symmetry_equiv_pos_as_xyz
  1  'x, y, z'
loop_
 _atom_site_type_symbol
 _atom_site_label
 _atom_site_symmetry_multiplicity
 _atom_site_fract_x
 _atom_site_fract_y
 _atom_site_fract_z
 _atom_site_occupancy
  Y  Y0  1  0.538791  0.750000  0.355616  1
  Y  Y1  1  0.035016  0.250000  0.145314  1
  Y  Y2  1  0.465515  0.250000  0.645703  1
  Y  Y3  1  0.966846  0.750000  0.849992  1
  Y  Y4  1  0.776942  0.750000  0.105394  1
  Y  Y5  1  0.275623  0.250000  0.394920  1
  Y  Y6  1  0.222169  0.250000  0.891812  1
  Y  Y7  1  0.731264  0.750000  0.607754  1
  Y  Y8  1  0.430043  0.933671  0.784921  1
  Y  Y9  1  0.929463  0.065752  0.712804  1
  Y  Y10  1  0.564843  0.434665  0.211286  1
  Y  Y11  1  0.064263  0.565203  0.287460  1
  Y  Y12  1  0.564843  0.065335  0.211286  1
  Y  Y13  1  0.064263  0.934797  0.287460  1
  Y  Y14  1  0.430043  0.566329  0.784921  1
  Y  Y15  1  0.929463  0.434248  0.712804  1
  Y  Y16  1  0.241690  0.934052  0.540934  1
  Y  Y17  1  0.739827  0.062872  0.963357  1
  Y  Y18  1  0.761925  0.436637  0.465313  1
  Y  Y19  1  0.259685  0.564577  0.034473  1
  Y  Y20  1  0.761925  0.063363  0.465313  1
  Y  Y21  1  0.259685  0.935423  0.034473  1
  Y  Y22  1  0.241690  0.565948  0.540934  1
  Y  Y23  1  0.739827  0.437128  0.963357  1
  Fe  Fe24  1  0.138192  0.750000  0.684823  1
  Tc  Tc25  1  0.937357  0.750000  0.441056  1
  Tc  Tc26  1  0.431694  0.250000  0.060229  1
  Tc  Tc27  1  0.068070  0.250000  0.563624  1
  Tc  Tc28  1  0.569830  0.750000  0.935269  1
  Tc  Tc29  1  0.358420  0.750000  0.183745  1
  Tc  Tc30  1  0.858731  0.250000  0.316925  1
  Tc  Tc31  1  0.642059  0.250000  0.816724  1
