# generated using pymatgen
data_DyUB6Ru
_symmetry_space_group_name_H-M   'P 1'
_cell_length_a   3.58780200
_cell_length_b   9.33593800
_cell_length_c   11.42245400
_cell_angle_alpha   90.00000000
_cell_angle_beta   90.00000000
_cell_angle_gamma   90.00000000
_symmetry_Int_Tables_number   1
_chemical_formula_structural   DyUB6Ru
_chemical_formula_sum   'Dy4 U4 B24 Ru4'
_cell_volume   382.60077401
_cell_formula_units_Z   4
loop_
 _symmetry_equiv_pos_site_id
 _symmetry_equiv_pos_as_xyz
  1  'x, y, z'
loop_
 _atom_site_type_symbol
 _atom_site_label
 _atom_site_symmetry_multiplicity
 _atom_site_fract_x
 _atom_site_fract_y
 _atom_site_fract_z
 _atom_site_occupancy
  Dy  Dy0  1  0.000000  0.336369  0.407244  1
  Dy  Dy1  1  0.000000  0.663631  0.592756  1
  Dy  Dy2  1  0.000000  0.836369  0.092756  1
  Dy  Dy3  1  0.000000  0.163631  0.907244  1
  U  U4  1  0.000000  0.957433  0.398031  1
  U  U5  1  0.000000  0.042567  0.601969  1
  U  U6  1  0.000000  0.457433  0.101969  1
  U  U7  1  0.000000  0.542567  0.898031  1
  B  B8  1  0.500000  0.551650  0.431174  1
  B  B9  1  0.500000  0.448350  0.568826  1
  B  B10  1  0.500000  0.051650  0.068826  1
  B  B11  1  0.500000  0.948350  0.931174  1
  B  B12  1  0.500000  0.742405  0.423160  1
  B  B13  1  0.500000  0.257595  0.576840  1
  B  B14  1  0.500000  0.242405  0.076840  1
  B  B15  1  0.500000  0.757595  0.923160  1
  B  B16  1  0.500000  0.802136  0.274806  1
  B  B17  1  0.500000  0.197864  0.725194  1
  B  B18  1  0.500000  0.302136  0.225194  1
  B  B19  1  0.500000  0.697864  0.774806  1
  B  B20  1  0.500000  0.644312  0.188931  1
  B  B21  1  0.500000  0.355688  0.811069  1
  B  B22  1  0.500000  0.144312  0.311069  1
  B  B23  1  0.500000  0.855688  0.688931  1
  B  B24  1  0.500000  0.988466  0.219221  1
  B  B25  1  0.500000  0.011534  0.780779  1
  B  B26  1  0.500000  0.488466  0.280779  1
  B  B27  1  0.500000  0.511534  0.719221  1
  B  B28  1  0.500000  0.642606  0.039759  1
  B  B29  1  0.500000  0.357394  0.960241  1
  B  B30  1  0.500000  0.142606  0.460241  1
  B  B31  1  0.500000  0.857394  0.539759  1
  Ru  Ru32  1  0.000000  0.644971  0.319685  1
  Ru  Ru33  1  0.000000  0.355029  0.680315  1
  Ru  Ru34  1  0.000000  0.144971  0.180315  1
  Ru  Ru35  1  0.000000  0.855029  0.819685  1
