# generated using pymatgen
data_Dy3YAl17GaIr6
_symmetry_space_group_name_H-M   'P 1'
_cell_length_a   7.54430301
_cell_length_b   7.54473136
_cell_length_c   9.49991900
_cell_angle_alpha   90.00000000
_cell_angle_beta   90.00000000
_cell_angle_gamma   119.41100268
_symmetry_Int_Tables_number   1
_chemical_formula_structural   Dy3YAl17GaIr6
_chemical_formula_sum   'Dy3 Y1 Al17 Ga1 Ir6'
_cell_volume   471.04300032
_cell_formula_units_Z   1
loop_
 _symmetry_equiv_pos_site_id
 _symmetry_equiv_pos_as_xyz
  1  'x, y, z'
loop_
 _atom_site_type_symbol
 _atom_site_label
 _atom_site_symmetry_multiplicity
 _atom_site_fract_x
 _atom_site_fract_y
 _atom_site_fract_z
 _atom_site_occupancy
  Dy  Dy0  1  0.006236  0.325567  0.250000  1
  Dy  Dy1  1  0.671889  0.994613  0.750000  1
  Dy  Dy2  1  0.325544  0.006229  0.250000  1
  Y  Y3  1  0.994543  0.671792  0.750000  1
  Al  Al4  1  0.130378  0.130566  0.750000  1
  Al  Al5  1  0.001351  0.335720  0.573900  1
  Al  Al6  1  0.998881  0.664332  0.426505  1
  Al  Al7  1  0.998881  0.664332  0.073495  1
  Al  Al8  1  0.335817  0.001392  0.926093  1
  Al  Al9  1  0.001351  0.335720  0.926100  1
  Al  Al10  1  0.664325  0.998888  0.073332  1
  Al  Al11  1  0.664325  0.998888  0.426668  1
  Al  Al12  1  0.335817  0.001392  0.573907  1
  Al  Al13  1  0.334001  0.333999  0.050606  1
  Al  Al14  1  0.666610  0.666653  0.947415  1
  Al  Al15  1  0.666610  0.666653  0.552585  1
  Al  Al16  1  0.334001  0.333999  0.449394  1
  Al  Al17  1  0.339659  0.548708  0.750000  1
  Al  Al18  1  0.661358  0.450648  0.250000  1
  Al  Al19  1  0.548481  0.339121  0.750000  1
  Al  Al20  1  0.450676  0.661413  0.250000  1
  Ga  Ga21  1  0.865730  0.865766  0.250000  1
  Ir  Ir22  1  0.672272  0.328765  0.499621  1
  Ir  Ir23  1  0.328881  0.672333  0.499597  1
  Ir  Ir24  1  0.328881  0.672333  0.000403  1
  Ir  Ir25  1  0.672272  0.328765  0.000379  1
  Ir  Ir26  1  0.000614  0.000706  0.502425  1
  Ir  Ir27  1  0.000614  0.000706  0.997575  1
