# generated using pymatgen
data_Sc3BC2N
_symmetry_space_group_name_H-M   'P 1'
_cell_length_a   3.30957110
_cell_length_b   3.30957017
_cell_length_c   15.12077300
_cell_angle_alpha   90.00000000
_cell_angle_beta   90.00000000
_cell_angle_gamma   90.03434741
_symmetry_Int_Tables_number   1
_chemical_formula_structural   Sc3BC2N
_chemical_formula_sum   'Sc6 B2 C4 N2'
_cell_volume   165.62169481
_cell_formula_units_Z   2
loop_
 _symmetry_equiv_pos_site_id
 _symmetry_equiv_pos_as_xyz
  1  'x, y, z'
loop_
 _atom_site_type_symbol
 _atom_site_label
 _atom_site_symmetry_multiplicity
 _atom_site_fract_x
 _atom_site_fract_y
 _atom_site_fract_z
 _atom_site_occupancy
  Sc  Sc0  1  0.535773  0.464228  0.108872  1
  Sc  Sc1  1  0.039715  0.960286  0.250000  1
  Sc  Sc2  1  0.535773  0.464228  0.391128  1
  Sc  Sc3  1  0.464228  0.535773  0.608872  1
  Sc  Sc4  1  0.960286  0.039715  0.750000  1
  Sc  Sc5  1  0.464228  0.535773  0.891128  1
  B  B6  1  0.000000  0.000000  0.000000  1
  B  B7  1  0.000000  0.000000  0.500000  1
  C  C8  1  0.033607  0.966394  0.097187  1
  C  C9  1  0.033607  0.966394  0.402813  1
  C  C10  1  0.966394  0.033607  0.597186  1
  C  C11  1  0.966394  0.033607  0.902814  1
  N  N12  1  0.539806  0.460195  0.250000  1
  N  N13  1  0.460195  0.539806  0.750000  1
