# generated using pymatgen
data_Sm4Dy2Cd23Sn
_symmetry_space_group_name_H-M   'P 1'
_cell_length_a   9.99318382
_cell_length_b   10.03709068
_cell_length_c   10.03709090
_cell_angle_alpha   60.41614305
_cell_angle_beta   60.14460126
_cell_angle_gamma   60.14459789
_symmetry_Int_Tables_number   1
_chemical_formula_structural   Sm4Dy2Cd23Sn
_chemical_formula_sum   'Sm4 Dy2 Cd23 Sn1'
_cell_volume   715.65479997
_cell_formula_units_Z   1
loop_
 _symmetry_equiv_pos_site_id
 _symmetry_equiv_pos_as_xyz
  1  'x, y, z'
loop_
 _atom_site_type_symbol
 _atom_site_label
 _atom_site_symmetry_multiplicity
 _atom_site_fract_x
 _atom_site_fract_y
 _atom_site_fract_z
 _atom_site_occupancy
  Sm  Sm0  1  0.778047  0.222082  0.221824  1
  Sm  Sm1  1  0.218660  0.220412  0.779588  1
  Sm  Sm2  1  0.781340  0.220412  0.779588  1
  Sm  Sm3  1  0.221953  0.778176  0.777918  1
  Dy  Dy4  1  0.780138  0.778885  0.221115  1
  Dy  Dy5  1  0.219862  0.778885  0.221115  1
  Cd  Cd6  1  0.844250  0.840849  0.470651  1
  Cd  Cd7  1  0.840924  0.478268  0.839883  1
  Cd  Cd8  1  0.474085  0.840304  0.842180  1
  Cd  Cd9  1  0.843432  0.840304  0.842180  1
  Cd  Cd10  1  0.159076  0.160117  0.521732  1
  Cd  Cd11  1  0.155750  0.529349  0.159151  1
  Cd  Cd12  1  0.525915  0.157820  0.159696  1
  Cd  Cd13  1  0.156568  0.157820  0.159696  1
  Cd  Cd14  1  0.621533  0.627938  0.128996  1
  Cd  Cd15  1  0.623951  0.125379  0.626718  1
  Cd  Cd16  1  0.125650  0.626380  0.622914  1
  Cd  Cd17  1  0.625056  0.626380  0.622914  1
  Cd  Cd18  1  0.376049  0.373282  0.874621  1
  Cd  Cd19  1  0.378467  0.871004  0.372062  1
  Cd  Cd20  1  0.874350  0.377086  0.373620  1
  Cd  Cd21  1  0.374944  0.377086  0.373620  1
  Cd  Cd22  1  0.999953  0.999336  0.500246  1
  Cd  Cd23  1  0.500466  0.999336  0.500246  1
  Cd  Cd24  1  0.000000  0.500021  0.499979  1
  Cd  Cd25  1  0.499534  0.499754  0.000664  1
  Cd  Cd26  1  0.000047  0.499754  0.000664  1
  Cd  Cd27  1  0.500000  0.999686  0.000314  1
  Cd  Cd28  1  0.500000  0.498244  0.501756  1
  Sn  Sn29  1  0.000000  0.995653  0.004347  1
