# generated using pymatgen
data_LaTh(MgIr)2
_symmetry_space_group_name_H-M   'P 1'
_cell_length_a   4.12112800
_cell_length_b   7.58487630
_cell_length_c   17.14872600
_cell_angle_alpha   90.35219760
_cell_angle_beta   90.00000000
_cell_angle_gamma   90.00000000
_symmetry_Int_Tables_number   1
_chemical_formula_structural   LaTh(MgIr)2
_chemical_formula_sum   'La4 Th4 Mg8 Ir8'
_cell_volume   536.02897024
_cell_formula_units_Z   4
loop_
 _symmetry_equiv_pos_site_id
 _symmetry_equiv_pos_as_xyz
  1  'x, y, z'
loop_
 _atom_site_type_symbol
 _atom_site_label
 _atom_site_symmetry_multiplicity
 _atom_site_fract_x
 _atom_site_fract_y
 _atom_site_fract_z
 _atom_site_occupancy
  La  La0  1  0.250000  0.162386  0.938794  1
  La  La1  1  0.250000  0.556734  0.782781  1
  La  La2  1  0.750000  0.336995  0.439544  1
  La  La3  1  0.250000  0.672032  0.560847  1
  Th  Th4  1  0.750000  0.437956  0.216318  1
  Th  Th5  1  0.750000  0.941811  0.283031  1
  Th  Th6  1  0.750000  0.830567  0.062337  1
  Th  Th7  1  0.250000  0.057731  0.716296  1
  Mg  Mg8  1  0.250000  0.998918  0.436573  1
  Mg  Mg9  1  0.750000  0.500395  0.936995  1
  Mg  Mg10  1  0.750000  0.010015  0.562430  1
  Mg  Mg11  1  0.250000  0.620942  0.349190  1
  Mg  Mg12  1  0.750000  0.382080  0.650661  1
  Mg  Mg13  1  0.750000  0.876920  0.851341  1
  Mg  Mg14  1  0.250000  0.488685  0.063449  1
  Mg  Mg15  1  0.250000  0.118194  0.150264  1
  Ir  Ir16  1  0.250000  0.250312  0.564612  1
  Ir  Ir17  1  0.750000  0.244711  0.065360  1
  Ir  Ir18  1  0.250000  0.239832  0.305869  1
  Ir  Ir19  1  0.750000  0.244931  0.807078  1
  Ir  Ir20  1  0.250000  0.751166  0.945966  1
  Ir  Ir21  1  0.750000  0.773723  0.689457  1
  Ir  Ir22  1  0.750000  0.761499  0.432560  1
  Ir  Ir23  1  0.250000  0.741462  0.188244  1
