# generated using pymatgen
data_Ta4Ti4Nb2Ge6BH
_symmetry_space_group_name_H-M   'P 1'
_cell_length_a   7.69750300
_cell_length_b   7.69750349
_cell_length_c   5.24375300
_cell_angle_alpha   90.00000000
_cell_angle_beta   90.00000000
_cell_angle_gamma   119.99999359
_symmetry_Int_Tables_number   1
_chemical_formula_structural   Ta4Ti4Nb2Ge6BH
_chemical_formula_sum   'Ta4 Ti4 Nb2 Ge6 B1 H1'
_cell_volume   269.07456559
_cell_formula_units_Z   1
loop_
 _symmetry_equiv_pos_site_id
 _symmetry_equiv_pos_as_xyz
  1  'x, y, z'
loop_
 _atom_site_type_symbol
 _atom_site_label
 _atom_site_symmetry_multiplicity
 _atom_site_fract_x
 _atom_site_fract_y
 _atom_site_fract_z
 _atom_site_occupancy
  Ta  Ta0  1  0.759681  0.759681  0.254213  1
  Ta  Ta1  1  0.240272  0.000468  0.255270  1
  Ta  Ta2  1  0.000468  0.240272  0.255270  1
  Ta  Ta3  1  0.240179  0.240179  0.744797  1
  Ti  Ti4  1  0.666322  0.333299  0.499910  1
  Ti  Ti5  1  0.333299  0.666322  0.499910  1
  Ti  Ti6  1  0.333093  0.666174  0.000318  1
  Ti  Ti7  1  0.666174  0.333093  0.000318  1
  Nb  Nb8  1  0.759335  0.000196  0.744603  1
  Nb  Nb9  1  0.000196  0.759335  0.744603  1
  Ge  Ge10  1  0.402422  0.402422  0.250669  1
  Ge  Ge11  1  0.597863  0.000066  0.250678  1
  Ge  Ge12  1  0.000066  0.597863  0.250678  1
  Ge  Ge13  1  0.597907  0.597907  0.749530  1
  Ge  Ge14  1  0.402064  0.000039  0.749341  1
  Ge  Ge15  1  0.000039  0.402064  0.749341  1
  B  B16  1  0.000259  0.000259  0.000438  1
  H  H17  1  0.000363  0.000363  0.500112  1
