# generated using pymatgen
data_Tm15Lu5Bi11Sb
_symmetry_space_group_name_H-M   'P 1'
_cell_length_a   8.12867895
_cell_length_b   9.42953503
_cell_length_c   11.85114108
_cell_angle_alpha   90.00491514
_cell_angle_beta   89.97896428
_cell_angle_gamma   90.00843409
_symmetry_Int_Tables_number   1
_chemical_formula_structural   Tm15Lu5Bi11Sb
_chemical_formula_sum   'Tm15 Lu5 Bi11 Sb1'
_cell_volume   908.38589530
_cell_formula_units_Z   1
loop_
 _symmetry_equiv_pos_site_id
 _symmetry_equiv_pos_as_xyz
  1  'x, y, z'
loop_
 _atom_site_type_symbol
 _atom_site_label
 _atom_site_symmetry_multiplicity
 _atom_site_fract_x
 _atom_site_fract_y
 _atom_site_fract_z
 _atom_site_occupancy
  Tm  Tm0  1  0.355843  0.249777  0.285820  1
  Tm  Tm1  1  0.645130  0.749970  0.717166  1
  Tm  Tm2  1  0.144811  0.749913  0.782063  1
  Tm  Tm3  1  0.855332  0.249837  0.217422  1
  Tm  Tm4  1  0.189448  0.249891  0.780095  1
  Tm  Tm5  1  0.812017  0.750006  0.217867  1
  Tm  Tm6  1  0.312607  0.749986  0.282186  1
  Tm  Tm7  1  0.682666  0.249999  0.714951  1
  Tm  Tm8  1  0.806554  0.934555  0.940428  1
  Tm  Tm9  1  0.308000  0.938201  0.559268  1
  Tm  Tm10  1  0.806723  0.565512  0.940476  1
  Tm  Tm11  1  0.690507  0.067915  0.442056  1
  Tm  Tm12  1  0.193514  0.433938  0.059859  1
  Tm  Tm13  1  0.690488  0.432082  0.442051  1
  Tm  Tm14  1  0.308062  0.561824  0.559307  1
  Lu  Lu15  1  0.027567  0.250008  0.511121  1
  Lu  Lu16  1  0.976955  0.749947  0.489412  1
  Lu  Lu17  1  0.475714  0.750012  0.011228  1
  Lu  Lu18  1  0.524449  0.249830  0.988759  1
  Lu  Lu19  1  0.193577  0.066636  0.059935  1
  Bi  Bi20  1  0.595421  0.750000  0.457177  1
  Bi  Bi21  1  0.095071  0.750836  0.042715  1
  Bi  Bi22  1  0.906143  0.249747  0.956523  1
  Bi  Bi23  1  0.066182  0.003396  0.326160  1
  Bi  Bi24  1  0.933302  0.996964  0.673954  1
  Bi  Bi25  1  0.433651  0.996115  0.826195  1
  Bi  Bi26  1  0.933251  0.502972  0.673913  1
  Bi  Bi27  1  0.566272  0.003855  0.174006  1
  Bi  Bi28  1  0.066137  0.496496  0.326199  1
  Bi  Bi29  1  0.566349  0.496032  0.174027  1
  Bi  Bi30  1  0.433531  0.503726  0.826185  1
  Sb  Sb31  1  0.404732  0.250021  0.541474  1
