# generated using pymatgen
data_Tb4Pr7Nd9Sn16
_symmetry_space_group_name_H-M   'P 1'
_cell_length_a   8.26749346
_cell_length_b   8.42625589
_cell_length_c   15.99565584
_cell_angle_alpha   90.01344131
_cell_angle_beta   90.20338400
_cell_angle_gamma   89.85398302
_symmetry_Int_Tables_number   1
_chemical_formula_structural   Tb4Pr7Nd9Sn16
_chemical_formula_sum   'Tb4 Pr7 Nd9 Sn16'
_cell_volume   1114.31094823
_cell_formula_units_Z   1
loop_
 _symmetry_equiv_pos_site_id
 _symmetry_equiv_pos_as_xyz
  1  'x, y, z'
loop_
 _atom_site_type_symbol
 _atom_site_label
 _atom_site_symmetry_multiplicity
 _atom_site_fract_x
 _atom_site_fract_y
 _atom_site_fract_z
 _atom_site_occupancy
  Tb  Tb0  1  0.194924  0.501176  0.750387  1
  Tb  Tb1  1  0.694649  0.998743  0.750408  1
  Tb  Tb2  1  0.804610  0.498611  0.249523  1
  Tb  Tb3  1  0.304991  0.001171  0.249743  1
  Pr  Pr4  1  0.013955  0.180653  0.598431  1
  Pr  Pr5  1  0.486368  0.680457  0.402401  1
  Pr  Pr6  1  0.985245  0.819116  0.097635  1
  Pr  Pr7  1  0.484747  0.679650  0.097726  1
  Pr  Pr8  1  0.986459  0.819656  0.402426  1
  Pr  Pr9  1  0.513236  0.320040  0.597762  1
  Pr  Pr10  1  0.014786  0.181057  0.901943  1
  Nd  Nd11  1  0.362698  0.836583  0.878283  1
  Nd  Nd12  1  0.861138  0.663627  0.621932  1
  Nd  Nd13  1  0.638689  0.163948  0.377912  1
  Nd  Nd14  1  0.136689  0.337336  0.120739  1
  Nd  Nd15  1  0.636631  0.162947  0.121707  1
  Nd  Nd16  1  0.138469  0.336393  0.378446  1
  Nd  Nd17  1  0.361714  0.836420  0.622575  1
  Nd  Nd18  1  0.863572  0.663130  0.879012  1
  Nd  Nd19  1  0.516791  0.319916  0.901413  1
  Sn  Sn20  1  0.297877  0.036261  0.043033  1
  Sn  Sn21  1  0.799654  0.463017  0.456984  1
  Sn  Sn22  1  0.699921  0.963728  0.543239  1
  Sn  Sn23  1  0.205114  0.534922  0.955979  1
  Sn  Sn24  1  0.701770  0.964401  0.956564  1
  Sn  Sn25  1  0.200137  0.537952  0.543128  1
  Sn  Sn26  1  0.300249  0.036654  0.457205  1
  Sn  Sn27  1  0.795627  0.462176  0.042555  1
  Sn  Sn28  1  0.560453  0.616749  0.750498  1
  Sn  Sn29  1  0.059687  0.882665  0.750259  1
  Sn  Sn30  1  0.439001  0.382629  0.249841  1
  Sn  Sn31  1  0.940158  0.117973  0.249582  1
  Sn  Sn32  1  0.322401  0.146289  0.750460  1
  Sn  Sn33  1  0.820683  0.354570  0.750157  1
  Sn  Sn34  1  0.678514  0.854096  0.250055  1
  Sn  Sn35  1  0.178393  0.645284  0.250056  1
