# generated using pymatgen
data_LiTm3(Ni4As3)2
_symmetry_space_group_name_H-M   'P 1'
_cell_length_a   3.87759400
_cell_length_b   10.93191200
_cell_length_c   12.69129000
_cell_angle_alpha   90.00000000
_cell_angle_beta   90.00000000
_cell_angle_gamma   90.00000000
_symmetry_Int_Tables_number   1
_chemical_formula_structural   LiTm3(Ni4As3)2
_chemical_formula_sum   'Li2 Tm6 Ni16 As12'
_cell_volume   537.97764533
_cell_formula_units_Z   2
loop_
 _symmetry_equiv_pos_site_id
 _symmetry_equiv_pos_as_xyz
  1  'x, y, z'
loop_
 _atom_site_type_symbol
 _atom_site_label
 _atom_site_symmetry_multiplicity
 _atom_site_fract_x
 _atom_site_fract_y
 _atom_site_fract_z
 _atom_site_occupancy
  Li  Li0  1  0.500000  0.500000  0.151917  1
  Li  Li1  1  0.000000  0.000000  0.848083  1
  Tm  Tm2  1  0.000000  0.500000  0.525515  1
  Tm  Tm3  1  0.500000  0.000000  0.474485  1
  Tm  Tm4  1  0.500000  0.819974  0.206051  1
  Tm  Tm5  1  0.500000  0.180026  0.206051  1
  Tm  Tm6  1  0.000000  0.680026  0.793949  1
  Tm  Tm7  1  0.000000  0.319974  0.793949  1
  Ni  Ni8  1  0.500000  0.500000  0.701789  1
  Ni  Ni9  1  0.000000  0.000000  0.298211  1
  Ni  Ni10  1  0.000000  0.500000  0.986350  1
  Ni  Ni11  1  0.500000  0.000000  0.013650  1
  Ni  Ni12  1  0.500000  0.331298  0.997926  1
  Ni  Ni13  1  0.500000  0.668702  0.997926  1
  Ni  Ni14  1  0.000000  0.168702  0.002074  1
  Ni  Ni15  1  0.000000  0.831298  0.002074  1
  Ni  Ni16  1  0.500000  0.302279  0.428941  1
  Ni  Ni17  1  0.500000  0.697721  0.428941  1
  Ni  Ni18  1  0.000000  0.197721  0.571059  1
  Ni  Ni19  1  0.000000  0.802279  0.571059  1
  Ni  Ni20  1  0.500000  0.879156  0.705452  1
  Ni  Ni21  1  0.500000  0.120844  0.705452  1
  Ni  Ni22  1  0.000000  0.620844  0.294548  1
  Ni  Ni23  1  0.000000  0.379156  0.294548  1
  As  As24  1  0.500000  0.500000  0.879844  1
  As  As25  1  0.000000  0.000000  0.120156  1
  As  As26  1  0.500000  0.500000  0.351520  1
  As  As27  1  0.000000  0.000000  0.648480  1
  As  As28  1  0.500000  0.315579  0.614967  1
  As  As29  1  0.500000  0.684421  0.614967  1
  As  As30  1  0.000000  0.184421  0.385033  1
  As  As31  1  0.000000  0.815579  0.385033  1
  As  As32  1  0.500000  0.842706  0.889611  1
  As  As33  1  0.500000  0.157294  0.889611  1
  As  As34  1  0.000000  0.657294  0.110389  1
  As  As35  1  0.000000  0.342706  0.110389  1
