# generated using pymatgen
data_Sr10MnTcN10
_symmetry_space_group_name_H-M   'P 1'
_cell_length_a   7.65329567
_cell_length_b   7.65329510
_cell_length_c   8.98954208
_cell_angle_alpha   76.31814564
_cell_angle_beta   76.31815035
_cell_angle_gamma   96.78084753
_symmetry_Int_Tables_number   1
_chemical_formula_structural   Sr10MnTcN10
_chemical_formula_sum   'Sr10 Mn1 Tc1 N10'
_cell_volume   488.56748585
_cell_formula_units_Z   1
loop_
 _symmetry_equiv_pos_site_id
 _symmetry_equiv_pos_as_xyz
  1  'x, y, z'
loop_
 _atom_site_type_symbol
 _atom_site_label
 _atom_site_symmetry_multiplicity
 _atom_site_fract_x
 _atom_site_fract_y
 _atom_site_fract_z
 _atom_site_occupancy
  Sr  Sr0  1  0.386492  0.393333  0.388084  1
  Sr  Sr1  1  0.606667  0.613508  0.611916  1
  Sr  Sr2  1  0.666731  0.667916  0.009990  1
  Sr  Sr3  1  0.332084  0.333269  0.990010  1
  Sr  Sr4  1  0.931135  0.917370  0.200906  1
  Sr  Sr5  1  0.082630  0.068865  0.799094  1
  Sr  Sr6  1  0.550257  0.088904  0.754330  1
  Sr  Sr7  1  0.911096  0.449743  0.245670  1
  Sr  Sr8  1  0.432155  0.894408  0.245071  1
  Sr  Sr9  1  0.105592  0.567845  0.754929  1
  Mn  Mn10  1  0.244138  0.755862  0.000000  1
  Tc  Tc11  1  0.756093  0.243907  0.000000  1
  N  N12  1  0.658118  0.657815  0.313241  1
  N  N13  1  0.342185  0.341882  0.686759  1
  N  N14  1  0.716392  0.009823  0.981646  1
  N  N15  1  0.990177  0.283608  0.018354  1
  N  N16  1  0.281438  0.985944  0.012050  1
  N  N17  1  0.014056  0.718562  0.987950  1
  N  N18  1  0.398248  0.732379  0.827930  1
  N  N19  1  0.267621  0.601752  0.172069  1
  N  N20  1  0.591348  0.264652  0.177069  1
  N  N21  1  0.735348  0.408652  0.822930  1
