# generated using pymatgen
data_FeCo2P2Ru
_symmetry_space_group_name_H-M   'P 1'
_cell_length_a   3.62522600
_cell_length_b   5.70709100
_cell_length_c   6.61779000
_cell_angle_alpha   90.00000000
_cell_angle_beta   90.00000000
_cell_angle_gamma   90.00000000
_symmetry_Int_Tables_number   1
_chemical_formula_structural   FeCo2P2Ru
_chemical_formula_sum   'Fe2 Co4 P4 Ru2'
_cell_volume   136.91873098
_cell_formula_units_Z   2
loop_
 _symmetry_equiv_pos_site_id
 _symmetry_equiv_pos_as_xyz
  1  'x, y, z'
loop_
 _atom_site_type_symbol
 _atom_site_label
 _atom_site_symmetry_multiplicity
 _atom_site_fract_x
 _atom_site_fract_y
 _atom_site_fract_z
 _atom_site_occupancy
  Fe  Fe0  1  0.750000  0.967203  0.834374  1
  Fe  Fe1  1  0.750000  0.467203  0.665626  1
  Co  Co2  1  0.250000  0.140938  0.571227  1
  Co  Co3  1  0.250000  0.640938  0.928773  1
  Co  Co4  1  0.750000  0.860757  0.439112  1
  Co  Co5  1  0.750000  0.360757  0.060888  1
  P  P6  1  0.250000  0.761650  0.622249  1
  P  P7  1  0.250000  0.261650  0.877751  1
  P  P8  1  0.750000  0.242473  0.382362  1
  P  P9  1  0.750000  0.742473  0.117638  1
  Ru  Ru10  1  0.250000  0.026978  0.164432  1
  Ru  Ru11  1  0.250000  0.526978  0.335568  1
