# generated using pymatgen
data_TmTh3Ni3Os
_symmetry_space_group_name_H-M   'P 1'
_cell_length_a   4.31000300
_cell_length_b   5.59700599
_cell_length_c   7.11537364
_cell_angle_alpha   89.86626446
_cell_angle_beta   90.00000000
_cell_angle_gamma   90.00000000
_symmetry_Int_Tables_number   1
_chemical_formula_structural   TmTh3Ni3Os
_chemical_formula_sum   'Tm1 Th3 Ni3 Os1'
_cell_volume   171.64449211
_cell_formula_units_Z   1
loop_
 _symmetry_equiv_pos_site_id
 _symmetry_equiv_pos_as_xyz
  1  'x, y, z'
loop_
 _atom_site_type_symbol
 _atom_site_label
 _atom_site_symmetry_multiplicity
 _atom_site_fract_x
 _atom_site_fract_y
 _atom_site_fract_z
 _atom_site_occupancy
  Tm  Tm0  1  0.250000  0.356606  0.681185  1
  Th  Th1  1  0.250000  0.145249  0.181838  1
  Th  Th2  1  0.750000  0.853144  0.813105  1
  Th  Th3  1  0.750000  0.640771  0.322971  1
  Ni  Ni4  1  0.750000  0.348693  0.945999  1
  Ni  Ni5  1  0.750000  0.140677  0.463739  1
  Ni  Ni6  1  0.250000  0.863934  0.544212  1
  Os  Os7  1  0.250000  0.650925  0.046950  1
