# generated using pymatgen
data_CaPr15(NdSn4)4
_symmetry_space_group_name_H-M   'P 1'
_cell_length_a   8.26429867
_cell_length_b   8.54038407
_cell_length_c   16.14919459
_cell_angle_alpha   90.02891708
_cell_angle_beta   89.27984062
_cell_angle_gamma   89.91840006
_symmetry_Int_Tables_number   1
_chemical_formula_structural   CaPr15(NdSn4)4
_chemical_formula_sum   'Ca1 Pr15 Nd4 Sn16'
_cell_volume   1139.72340622
_cell_formula_units_Z   1
loop_
 _symmetry_equiv_pos_site_id
 _symmetry_equiv_pos_as_xyz
  1  'x, y, z'
loop_
 _atom_site_type_symbol
 _atom_site_label
 _atom_site_symmetry_multiplicity
 _atom_site_fract_x
 _atom_site_fract_y
 _atom_site_fract_z
 _atom_site_occupancy
  Ca  Ca0  1  0.328133  0.995878  0.250642  1
  Pr  Pr1  1  0.843585  0.667346  0.623022  1
  Pr  Pr2  1  0.652789  0.167795  0.376999  1
  Pr  Pr3  1  0.160839  0.328071  0.123323  1
  Pr  Pr4  1  0.659143  0.170216  0.123527  1
  Pr  Pr5  1  0.156717  0.330642  0.377114  1
  Pr  Pr6  1  0.345429  0.830799  0.624002  1
  Pr  Pr7  1  0.839781  0.669594  0.876437  1
  Pr  Pr8  1  0.495437  0.319500  0.902110  1
  Pr  Pr9  1  0.999432  0.182481  0.597840  1
  Pr  Pr10  1  0.500204  0.683306  0.402752  1
  Pr  Pr11  1  0.006065  0.817925  0.096686  1
  Pr  Pr12  1  0.503443  0.682307  0.097270  1
  Pr  Pr13  1  0.003322  0.818570  0.403442  1
  Pr  Pr14  1  0.499640  0.319058  0.597830  1
  Pr  Pr15  1  0.994776  0.182010  0.902047  1
  Nd  Nd16  1  0.338236  0.829607  0.875528  1
  Nd  Nd17  1  0.172066  0.499243  0.747931  1
  Nd  Nd18  1  0.670900  0.001666  0.748736  1
  Nd  Nd19  1  0.827823  0.503721  0.252154  1
  Sn  Sn20  1  0.323564  0.035158  0.038700  1
  Sn  Sn21  1  0.813036  0.462783  0.458981  1
  Sn  Sn22  1  0.687068  0.962529  0.539755  1
  Sn  Sn23  1  0.178318  0.535454  0.958806  1
  Sn  Sn24  1  0.673562  0.963102  0.959324  1
  Sn  Sn25  1  0.188748  0.537104  0.540143  1
  Sn  Sn26  1  0.312624  0.037534  0.462156  1
  Sn  Sn27  1  0.823295  0.464386  0.041476  1
  Sn  Sn28  1  0.539202  0.611123  0.751337  1
  Sn  Sn29  1  0.038876  0.890562  0.750320  1
  Sn  Sn30  1  0.459488  0.394218  0.249477  1
  Sn  Sn31  1  0.960378  0.108662  0.249913  1
  Sn  Sn32  1  0.300069  0.144675  0.751169  1
  Sn  Sn33  1  0.800430  0.355688  0.750952  1
  Sn  Sn34  1  0.704723  0.857331  0.249127  1
  Sn  Sn35  1  0.198861  0.639959  0.248968  1
