# generated using pymatgen
data_Yb10SmY9Sn16
_symmetry_space_group_name_H-M   'P 1'
_cell_length_a   7.85028875
_cell_length_b   8.44805420
_cell_length_c   15.97252803
_cell_angle_alpha   89.97516321
_cell_angle_beta   90.05181307
_cell_angle_gamma   89.72803121
_symmetry_Int_Tables_number   1
_chemical_formula_structural   Yb10SmY9Sn16
_chemical_formula_sum   'Yb10 Sm1 Y9 Sn16'
_cell_volume   1059.28023661
_cell_formula_units_Z   1
loop_
 _symmetry_equiv_pos_site_id
 _symmetry_equiv_pos_as_xyz
  1  'x, y, z'
loop_
 _atom_site_type_symbol
 _atom_site_label
 _atom_site_symmetry_multiplicity
 _atom_site_fract_x
 _atom_site_fract_y
 _atom_site_fract_z
 _atom_site_occupancy
  Yb  Yb0  1  0.003903  0.815082  0.907392  1
  Yb  Yb1  1  0.494515  0.311044  0.092467  1
  Yb  Yb2  1  0.996442  0.187848  0.407824  1
  Yb  Yb3  1  0.494147  0.312348  0.407433  1
  Yb  Yb4  1  0.995519  0.188027  0.092169  1
  Yb  Yb5  1  0.504064  0.688294  0.904870  1
  Yb  Yb6  1  0.004775  0.815174  0.592479  1
  Yb  Yb7  1  0.334868  0.989818  0.750557  1
  Yb  Yb8  1  0.163983  0.488405  0.249860  1
  Yb  Yb9  1  0.662775  0.010128  0.249789  1
  Sm  Sm10  1  0.507458  0.688002  0.595879  1
  Y  Y11  1  0.673008  0.164586  0.623021  1
  Y  Y12  1  0.174576  0.333196  0.876310  1
  Y  Y13  1  0.326056  0.832226  0.122269  1
  Y  Y14  1  0.827147  0.665298  0.378281  1
  Y  Y15  1  0.326555  0.831709  0.377192  1
  Y  Y16  1  0.827176  0.664766  0.121645  1
  Y  Y17  1  0.675032  0.163499  0.876988  1
  Y  Y18  1  0.173471  0.332811  0.623385  1
  Y  Y19  1  0.837031  0.511075  0.750940  1
  Sn  Sn20  1  0.671245  0.962119  0.460836  1
  Sn  Sn21  1  0.172185  0.535915  0.039896  1
  Sn  Sn22  1  0.329437  0.035202  0.959091  1
  Sn  Sn23  1  0.826436  0.466441  0.543795  1
  Sn  Sn24  1  0.329701  0.033146  0.541265  1
  Sn  Sn25  1  0.828535  0.466583  0.956386  1
  Sn  Sn26  1  0.671734  0.964298  0.040658  1
  Sn  Sn27  1  0.175520  0.537421  0.461014  1
  Sn  Sn28  1  0.474949  0.383543  0.749032  1
  Sn  Sn29  1  0.970481  0.133104  0.749635  1
  Sn  Sn30  1  0.528231  0.621487  0.249763  1
  Sn  Sn31  1  0.027124  0.876616  0.249762  1
  Sn  Sn32  1  0.716963  0.861126  0.749271  1
  Sn  Sn33  1  0.210946  0.632025  0.748364  1
  Sn  Sn34  1  0.281275  0.127936  0.250162  1
  Sn  Sn35  1  0.782737  0.369705  0.250320  1
