# generated using pymatgen
data_Sc4In2CoHg3
_symmetry_space_group_name_H-M   'P 1'
_cell_length_a   7.83164683
_cell_length_b   7.83164734
_cell_length_c   6.93770900
_cell_angle_alpha   90.00000000
_cell_angle_beta   90.00000000
_cell_angle_gamma   91.61945495
_symmetry_Int_Tables_number   1
_chemical_formula_structural   Sc4In2CoHg3
_chemical_formula_sum   'Sc8 In4 Co2 Hg6'
_cell_volume   425.35230926
_cell_formula_units_Z   2
loop_
 _symmetry_equiv_pos_site_id
 _symmetry_equiv_pos_as_xyz
  1  'x, y, z'
loop_
 _atom_site_type_symbol
 _atom_site_label
 _atom_site_symmetry_multiplicity
 _atom_site_fract_x
 _atom_site_fract_y
 _atom_site_fract_z
 _atom_site_occupancy
  Sc  Sc0  1  0.177735  0.116508  0.000000  1
  Sc  Sc1  1  0.883492  0.822265  0.000000  1
  Sc  Sc2  1  0.656410  0.343590  0.500000  1
  Sc  Sc3  1  0.303711  0.696289  0.500000  1
  Sc  Sc4  1  0.671275  0.328725  0.000000  1
  Sc  Sc5  1  0.295336  0.704664  0.000000  1
  Sc  Sc6  1  0.877760  0.810145  0.500000  1
  Sc  Sc7  1  0.189855  0.122240  0.500000  1
  In  In8  1  0.493603  0.001301  0.251382  1
  In  In9  1  0.493603  0.001301  0.748618  1
  In  In10  1  0.998699  0.506397  0.251382  1
  In  In11  1  0.998699  0.506397  0.748618  1
  Co  Co12  1  0.127987  0.872013  0.256934  1
  Co  Co13  1  0.127987  0.872013  0.743066  1
  Hg  Hg14  1  0.355222  0.377905  0.236675  1
  Hg  Hg15  1  0.622095  0.644778  0.763325  1
  Hg  Hg16  1  0.622095  0.644778  0.236675  1
  Hg  Hg17  1  0.874606  0.125394  0.734901  1
  Hg  Hg18  1  0.874606  0.125394  0.265099  1
  Hg  Hg19  1  0.355222  0.377905  0.763325  1
