# generated using pymatgen
data_Tm3Co8MoAs6
_symmetry_space_group_name_H-M   'P 1'
_cell_length_a   3.80611900
_cell_length_b   10.95220600
_cell_length_c   12.63230500
_cell_angle_alpha   90.00000000
_cell_angle_beta   90.00000000
_cell_angle_gamma   90.00000000
_symmetry_Int_Tables_number   1
_chemical_formula_structural   Tm3Co8MoAs6
_chemical_formula_sum   'Tm6 Co16 Mo2 As12'
_cell_volume   526.58267862
_cell_formula_units_Z   2
loop_
 _symmetry_equiv_pos_site_id
 _symmetry_equiv_pos_as_xyz
  1  'x, y, z'
loop_
 _atom_site_type_symbol
 _atom_site_label
 _atom_site_symmetry_multiplicity
 _atom_site_fract_x
 _atom_site_fract_y
 _atom_site_fract_z
 _atom_site_occupancy
  Tm  Tm0  1  0.000000  0.500000  0.527729  1
  Tm  Tm1  1  0.500000  0.000000  0.472271  1
  Tm  Tm2  1  0.500000  0.819690  0.205407  1
  Tm  Tm3  1  0.500000  0.180310  0.205407  1
  Tm  Tm4  1  0.000000  0.680310  0.794593  1
  Tm  Tm5  1  0.000000  0.319690  0.794593  1
  Co  Co6  1  0.500000  0.500000  0.699483  1
  Co  Co7  1  0.000000  0.000000  0.300517  1
  Co  Co8  1  0.000000  0.500000  0.986832  1
  Co  Co9  1  0.500000  0.000000  0.013168  1
  Co  Co10  1  0.500000  0.333585  0.991920  1
  Co  Co11  1  0.500000  0.666415  0.991920  1
  Co  Co12  1  0.000000  0.166415  0.008080  1
  Co  Co13  1  0.000000  0.833585  0.008080  1
  Co  Co14  1  0.500000  0.297168  0.431098  1
  Co  Co15  1  0.500000  0.702832  0.431098  1
  Co  Co16  1  0.000000  0.202832  0.568902  1
  Co  Co17  1  0.000000  0.797168  0.568902  1
  Co  Co18  1  0.500000  0.878266  0.705986  1
  Co  Co19  1  0.500000  0.121734  0.705986  1
  Co  Co20  1  0.000000  0.621734  0.294014  1
  Co  Co21  1  0.000000  0.378266  0.294014  1
  Mo  Mo22  1  0.500000  0.500000  0.154328  1
  Mo  Mo23  1  0.000000  0.000000  0.845672  1
  As  As24  1  0.500000  0.500000  0.878280  1
  As  As25  1  0.000000  0.000000  0.121720  1
  As  As26  1  0.500000  0.500000  0.353005  1
  As  As27  1  0.000000  0.000000  0.646995  1
  As  As28  1  0.500000  0.313481  0.616715  1
  As  As29  1  0.500000  0.686519  0.616715  1
  As  As30  1  0.000000  0.186519  0.383285  1
  As  As31  1  0.000000  0.813481  0.383285  1
  As  As32  1  0.500000  0.842400  0.889861  1
  As  As33  1  0.500000  0.157600  0.889861  1
  As  As34  1  0.000000  0.657600  0.110139  1
  As  As35  1  0.000000  0.342400  0.110139  1
