# generated using pymatgen
data_RbTiRuRh3Se8
_symmetry_space_group_name_H-M   'P 1'
_cell_length_a   9.52397892
_cell_length_b   9.52397716
_cell_length_c   9.02364935
_cell_angle_alpha   75.96682488
_cell_angle_beta   75.96682873
_cell_angle_gamma   22.39481852
_symmetry_Int_Tables_number   1
_chemical_formula_structural   RbTiRuRh3Se8
_chemical_formula_sum   'Rb1 Ti1 Ru1 Rh3 Se8'
_cell_volume   302.16069270
_cell_formula_units_Z   1
loop_
 _symmetry_equiv_pos_site_id
 _symmetry_equiv_pos_as_xyz
  1  'x, y, z'
loop_
 _atom_site_type_symbol
 _atom_site_label
 _atom_site_symmetry_multiplicity
 _atom_site_fract_x
 _atom_site_fract_y
 _atom_site_fract_z
 _atom_site_occupancy
  Rb  Rb0  1  0.487776  0.487776  0.504196  1
  Ti  Ti1  1  0.637892  0.637892  0.014888  1
  Ru  Ru2  1  0.015322  0.015322  0.998129  1
  Rh  Rh3  1  0.341274  0.341274  0.981565  1
  Rh  Rh4  1  0.300605  0.300605  0.325099  1
  Rh  Rh5  1  0.706964  0.706964  0.680856  1
  Se  Se6  1  0.432610  0.432610  0.136934  1
  Se  Se7  1  0.916742  0.916742  0.842988  1
  Se  Se8  1  0.827982  0.827982  0.485385  1
  Se  Se9  1  0.760586  0.760586  0.150499  1
  Se  Se10  1  0.235278  0.235278  0.851552  1
  Se  Se11  1  0.179743  0.179743  0.514256  1
  Se  Se12  1  0.087786  0.087786  0.200622  1
  Se  Se13  1  0.569441  0.569441  0.813030  1
