# generated using pymatgen
data_Yb4Re2OsRu5
_symmetry_space_group_name_H-M   'P 1'
_cell_length_a   5.41538246
_cell_length_b   5.41538215
_cell_length_c   8.16878400
_cell_angle_alpha   90.00000000
_cell_angle_beta   90.00000000
_cell_angle_gamma   117.26845760
_symmetry_Int_Tables_number   1
_chemical_formula_structural   Yb4Re2OsRu5
_chemical_formula_sum   'Yb4 Re2 Os1 Ru5'
_cell_volume   212.93826230
_cell_formula_units_Z   1
loop_
 _symmetry_equiv_pos_site_id
 _symmetry_equiv_pos_as_xyz
  1  'x, y, z'
loop_
 _atom_site_type_symbol
 _atom_site_label
 _atom_site_symmetry_multiplicity
 _atom_site_fract_x
 _atom_site_fract_y
 _atom_site_fract_z
 _atom_site_occupancy
  Yb  Yb0  1  0.335782  0.664218  0.433458  1
  Yb  Yb1  1  0.661366  0.338634  0.567825  1
  Yb  Yb2  1  0.661366  0.338634  0.932175  1
  Yb  Yb3  1  0.335782  0.664218  0.066542  1
  Re  Re4  1  0.996746  0.003254  0.500594  1
  Re  Re5  1  0.996746  0.003254  0.999406  1
  Os  Os6  1  0.822507  0.177493  0.250000  1
  Ru  Ru7  1  0.842645  0.658182  0.250000  1
  Ru  Ru8  1  0.341818  0.157355  0.250000  1
  Ru  Ru9  1  0.183376  0.816624  0.750000  1
  Ru  Ru10  1  0.158817  0.336953  0.750000  1
  Ru  Ru11  1  0.663047  0.841183  0.750000  1
