# generated using pymatgen
data_KFe2Cl7
_symmetry_space_group_name_H-M   'P 1'
_cell_length_a   10.79984300
_cell_length_b   10.54152901
_cell_length_c   14.15447700
_cell_angle_alpha   55.93051122
_cell_angle_beta   90.00000000
_cell_angle_gamma   90.00000000
_symmetry_Int_Tables_number   1
_chemical_formula_structural   KFe2Cl7
_chemical_formula_sum   'K4 Fe8 Cl28'
_cell_volume   1334.85272297
_cell_formula_units_Z   4
loop_
 _symmetry_equiv_pos_site_id
 _symmetry_equiv_pos_as_xyz
  1  'x, y, z'
loop_
 _atom_site_type_symbol
 _atom_site_label
 _atom_site_symmetry_multiplicity
 _atom_site_fract_x
 _atom_site_fract_y
 _atom_site_fract_z
 _atom_site_occupancy
  K  K0  1  0.382668  0.886099  0.382501  1
  K  K1  1  0.882668  0.113901  0.117499  1
  K  K2  1  0.617332  0.113901  0.617499  1
  K  K3  1  0.117332  0.886099  0.882501  1
  Fe  Fe4  1  0.288606  0.599329  0.797666  1
  Fe  Fe5  1  0.788606  0.400671  0.702334  1
  Fe  Fe6  1  0.711394  0.400671  0.202334  1
  Fe  Fe7  1  0.211394  0.599329  0.297666  1
  Fe  Fe8  1  0.215591  0.173613  0.544629  1
  Fe  Fe9  1  0.715591  0.826387  0.955371  1
  Fe  Fe10  1  0.784409  0.826387  0.455371  1
  Fe  Fe11  1  0.284409  0.173613  0.044629  1
  Cl  Cl12  1  0.408146  0.379445  0.915603  1
  Cl  Cl13  1  0.908146  0.620555  0.584397  1
  Cl  Cl14  1  0.591854  0.620555  0.084397  1
  Cl  Cl15  1  0.091854  0.379445  0.415603  1
  Cl  Cl16  1  0.131686  0.147418  0.953865  1
  Cl  Cl17  1  0.631686  0.852582  0.546135  1
  Cl  Cl18  1  0.868314  0.852582  0.046135  1
  Cl  Cl19  1  0.368314  0.147418  0.453865  1
  Cl  Cl20  1  0.213441  0.202178  0.175994  1
  Cl  Cl21  1  0.713441  0.797822  0.324006  1
  Cl  Cl22  1  0.786559  0.797822  0.824006  1
  Cl  Cl23  1  0.286559  0.202178  0.675994  1
  Cl  Cl24  1  0.414246  0.982420  0.120547  1
  Cl  Cl25  1  0.914246  0.017580  0.379453  1
  Cl  Cl26  1  0.585754  0.017580  0.879453  1
  Cl  Cl27  1  0.085754  0.982420  0.620547  1
  Cl  Cl28  1  0.224484  0.624196  0.134240  1
  Cl  Cl29  1  0.724484  0.375804  0.365760  1
  Cl  Cl30  1  0.775516  0.375804  0.865760  1
  Cl  Cl31  1  0.275516  0.624196  0.634240  1
  Cl  Cl32  1  0.108223  0.782309  0.292024  1
  Cl  Cl33  1  0.608223  0.217691  0.207976  1
  Cl  Cl34  1  0.891777  0.217691  0.707976  1
  Cl  Cl35  1  0.391777  0.782309  0.792024  1
  Cl  Cl36  1  0.390584  0.569347  0.378160  1
  Cl  Cl37  1  0.890584  0.430653  0.121840  1
  Cl  Cl38  1  0.609416  0.430653  0.621840  1
  Cl  Cl39  1  0.109416  0.569347  0.878160  1
