# generated using pymatgen
data_Sr13Yb3(ThPt4)4
_symmetry_space_group_name_H-M   'P 1'
_cell_length_a   7.88959788
_cell_length_b   8.04312463
_cell_length_c   15.33150678
_cell_angle_alpha   90.02824023
_cell_angle_beta   90.01586451
_cell_angle_gamma   89.90692110
_symmetry_Int_Tables_number   1
_chemical_formula_structural   Sr13Yb3(ThPt4)4
_chemical_formula_sum   'Sr13 Yb3 Th4 Pt16'
_cell_volume   972.89027737
_cell_formula_units_Z   1
loop_
 _symmetry_equiv_pos_site_id
 _symmetry_equiv_pos_as_xyz
  1  'x, y, z'
loop_
 _atom_site_type_symbol
 _atom_site_label
 _atom_site_symmetry_multiplicity
 _atom_site_fract_x
 _atom_site_fract_y
 _atom_site_fract_z
 _atom_site_occupancy
  Sr  Sr0  1  0.839727  0.665926  0.880264  1
  Sr  Sr1  1  0.498803  0.321882  0.901159  1
  Sr  Sr2  1  0.992032  0.178488  0.596350  1
  Sr  Sr3  1  0.506988  0.678176  0.407893  1
  Sr  Sr4  1  0.004004  0.821162  0.094124  1
  Sr  Sr5  1  0.503993  0.680216  0.090902  1
  Sr  Sr6  1  0.999462  0.824063  0.409931  1
  Sr  Sr7  1  0.498966  0.324364  0.593902  1
  Sr  Sr8  1  0.996701  0.176496  0.904816  1
  Sr  Sr9  1  0.174875  0.486947  0.750278  1
  Sr  Sr10  1  0.686349  0.010390  0.750473  1
  Sr  Sr11  1  0.810237  0.519111  0.252685  1
  Sr  Sr12  1  0.318480  0.976283  0.253978  1
  Yb  Yb13  1  0.339535  0.836242  0.876190  1
  Yb  Yb14  1  0.839687  0.664115  0.619849  1
  Yb  Yb15  1  0.659446  0.163870  0.379656  1
  Th  Th16  1  0.162831  0.334404  0.122707  1
  Th  Th17  1  0.657754  0.162234  0.124677  1
  Th  Th18  1  0.158028  0.336193  0.379307  1
  Th  Th19  1  0.342103  0.836390  0.621775  1
  Pt  Pt20  1  0.329722  0.054224  0.041912  1
  Pt  Pt21  1  0.846645  0.452712  0.458091  1
  Pt  Pt22  1  0.651918  0.951863  0.540864  1
  Pt  Pt23  1  0.185351  0.535480  0.968771  1
  Pt  Pt24  1  0.661714  0.975900  0.966567  1
  Pt  Pt25  1  0.179809  0.549202  0.535810  1
  Pt  Pt26  1  0.318654  0.050324  0.462733  1
  Pt  Pt27  1  0.835720  0.437227  0.047101  1
  Pt  Pt28  1  0.540269  0.635741  0.739087  1
  Pt  Pt29  1  0.059473  0.865153  0.740983  1
  Pt  Pt30  1  0.449598  0.354403  0.247301  1
  Pt  Pt31  1  0.957720  0.143117  0.250445  1
  Pt  Pt32  1  0.301592  0.114425  0.745251  1
  Pt  Pt33  1  0.783179  0.384519  0.745561  1
  Pt  Pt34  1  0.708480  0.894203  0.246122  1
  Pt  Pt35  1  0.200157  0.604555  0.252485  1
