# generated using pymatgen
data_AuCl3F20
_symmetry_space_group_name_H-M   'P 1'
_cell_length_a   8.54535050
_cell_length_b   7.80660522
_cell_length_c   6.07577418
_cell_angle_alpha   89.51697484
_cell_angle_beta   89.91510582
_cell_angle_gamma   90.50827176
_symmetry_Int_Tables_number   1
_chemical_formula_structural   AuCl3F20
_chemical_formula_sum   'Au1 Cl3 F20'
_cell_volume   405.28513457
_cell_formula_units_Z   1
loop_
 _symmetry_equiv_pos_site_id
 _symmetry_equiv_pos_as_xyz
  1  'x, y, z'
loop_
 _atom_site_type_symbol
 _atom_site_label
 _atom_site_symmetry_multiplicity
 _atom_site_fract_x
 _atom_site_fract_y
 _atom_site_fract_z
 _atom_site_occupancy
  Au  Au0  1  0.740564  0.096462  0.253226  1
  Cl  Cl1  1  0.256278  0.561480  0.249059  1
  Cl  Cl2  1  0.754092  0.421027  0.751102  1
  Cl  Cl3  1  0.255010  0.933229  0.748653  1
  F  F4  1  0.652410  0.249694  0.021104  1
  F  F5  1  0.337267  0.792934  0.944118  1
  F  F6  1  0.179315  0.421432  0.062951  1
  F  F7  1  0.821412  0.949525  0.027881  1
  F  F8  1  0.545689  0.966189  0.256654  1
  F  F9  1  0.933511  0.231356  0.249697  1
  F  F10  1  0.429228  0.452496  0.242673  1
  F  F11  1  0.076214  0.658076  0.276210  1
  F  F12  1  0.200456  0.429906  0.443533  1
  F  F13  1  0.822521  0.948144  0.479098  1
  F  F14  1  0.653406  0.249292  0.483591  1
  F  F15  1  0.333155  0.690482  0.457275  1
  F  F16  1  0.171260  0.079307  0.576421  1
  F  F17  1  0.812644  0.547651  0.555308  1
  F  F18  1  0.930781  0.328489  0.749785  1
  F  F19  1  0.581609  0.523925  0.751706  1
  F  F20  1  0.079475  0.823652  0.769861  1
  F  F21  1  0.423828  0.051743  0.750396  1
  F  F22  1  0.196261  0.047628  0.954586  1
  F  F23  1  0.813617  0.545883  0.945108  1
