# generated using pymatgen
data_ErZr(Co5P3)2
_symmetry_space_group_name_H-M   'P 1'
_cell_length_a   3.62597300
_cell_length_b   10.20971300
_cell_length_c   11.68485600
_cell_angle_alpha   90.00000000
_cell_angle_beta   90.00000000
_cell_angle_gamma   90.00000000
_symmetry_Int_Tables_number   1
_chemical_formula_structural   ErZr(Co5P3)2
_chemical_formula_sum   'Er2 Zr2 Co20 P12'
_cell_volume   432.57504795
_cell_formula_units_Z   2
loop_
 _symmetry_equiv_pos_site_id
 _symmetry_equiv_pos_as_xyz
  1  'x, y, z'
loop_
 _atom_site_type_symbol
 _atom_site_label
 _atom_site_symmetry_multiplicity
 _atom_site_fract_x
 _atom_site_fract_y
 _atom_site_fract_z
 _atom_site_occupancy
  Er  Er0  1  0.750000  0.417542  0.297292  1
  Er  Er1  1  0.750000  0.082458  0.797292  1
  Zr  Zr2  1  0.250000  0.581895  0.701525  1
  Zr  Zr3  1  0.250000  0.918105  0.201525  1
  Co  Co4  1  0.250000  0.718742  0.993154  1
  Co  Co5  1  0.250000  0.781258  0.493154  1
  Co  Co6  1  0.750000  0.281652  0.008524  1
  Co  Co7  1  0.750000  0.218348  0.508524  1
  Co  Co8  1  0.250000  0.409794  0.489709  1
  Co  Co9  1  0.250000  0.090206  0.989709  1
  Co  Co10  1  0.750000  0.593396  0.514879  1
  Co  Co11  1  0.750000  0.906604  0.014879  1
  Co  Co12  1  0.250000  0.221522  0.177829  1
  Co  Co13  1  0.250000  0.278478  0.677829  1
  Co  Co14  1  0.750000  0.776102  0.822481  1
  Co  Co15  1  0.750000  0.723898  0.322481  1
  Co  Co16  1  0.250000  0.881214  0.699026  1
  Co  Co17  1  0.250000  0.618786  0.199026  1
  Co  Co18  1  0.750000  0.113768  0.299369  1
  Co  Co19  1  0.750000  0.386232  0.799369  1
  Co  Co20  1  0.250000  0.469409  0.929398  1
  Co  Co21  1  0.250000  0.030591  0.429398  1
  Co  Co22  1  0.750000  0.534645  0.067417  1
  Co  Co23  1  0.750000  0.965355  0.567417  1
  P  P24  1  0.250000  0.418909  0.111297  1
  P  P25  1  0.250000  0.081091  0.611297  1
  P  P26  1  0.750000  0.581435  0.885158  1
  P  P27  1  0.750000  0.918565  0.385158  1
  P  P28  1  0.250000  0.269665  0.871336  1
  P  P29  1  0.250000  0.230335  0.371336  1
  P  P30  1  0.750000  0.732645  0.131057  1
  P  P31  1  0.750000  0.767355  0.631057  1
  P  P32  1  0.250000  0.601518  0.390499  1
  P  P33  1  0.250000  0.898482  0.890499  1
  P  P34  1  0.750000  0.400629  0.610048  1
  P  P35  1  0.750000  0.099371  0.110048  1
