# generated using pymatgen
data_Yb3Dy(Ga2Ag)4
_symmetry_space_group_name_H-M   'P 1'
_cell_length_a   4.34311500
_cell_length_b   6.98102415
_cell_length_c   10.43037417
_cell_angle_alpha   90.62900686
_cell_angle_beta   90.00000000
_cell_angle_gamma   90.00000000
_symmetry_Int_Tables_number   1
_chemical_formula_structural   Yb3Dy(Ga2Ag)4
_chemical_formula_sum   'Yb3 Dy1 Ga8 Ag4'
_cell_volume   316.22353263
_cell_formula_units_Z   1
loop_
 _symmetry_equiv_pos_site_id
 _symmetry_equiv_pos_as_xyz
  1  'x, y, z'
loop_
 _atom_site_type_symbol
 _atom_site_label
 _atom_site_symmetry_multiplicity
 _atom_site_fract_x
 _atom_site_fract_y
 _atom_site_fract_z
 _atom_site_occupancy
  Yb  Yb0  1  0.750000  0.224963  0.172124  1
  Yb  Yb1  1  0.750000  0.724289  0.327634  1
  Yb  Yb2  1  0.250000  0.275494  0.671363  1
  Dy  Dy3  1  0.250000  0.778930  0.828784  1
  Ga  Ga4  1  0.250000  0.702432  0.535073  1
  Ga  Ga5  1  0.750000  0.298606  0.465369  1
  Ga  Ga6  1  0.750000  0.796559  0.035878  1
  Ga  Ga7  1  0.250000  0.201983  0.964878  1
  Ga  Ga8  1  0.250000  0.925798  0.149312  1
  Ga  Ga9  1  0.750000  0.073670  0.848887  1
  Ga  Ga10  1  0.750000  0.572320  0.651457  1
  Ga  Ga11  1  0.250000  0.427581  0.348908  1
  Ag  Ag12  1  0.250000  0.539218  0.100254  1
  Ag  Ag13  1  0.750000  0.458136  0.900227  1
  Ag  Ag14  1  0.750000  0.959626  0.599435  1
  Ag  Ag15  1  0.250000  0.040393  0.400418  1
