# generated using pymatgen
data_Dy6Er10In4OsRh3
_symmetry_space_group_name_H-M   'P 1'
_cell_length_a   9.60687531
_cell_length_b   9.64217881
_cell_length_c   9.61217688
_cell_angle_alpha   60.09793975
_cell_angle_beta   59.80314508
_cell_angle_gamma   60.03652061
_symmetry_Int_Tables_number   1
_chemical_formula_structural   Dy6Er10In4OsRh3
_chemical_formula_sum   'Dy6 Er10 In4 Os1 Rh3'
_cell_volume   629.29289813
_cell_formula_units_Z   1
loop_
 _symmetry_equiv_pos_site_id
 _symmetry_equiv_pos_as_xyz
  1  'x, y, z'
loop_
 _atom_site_type_symbol
 _atom_site_label
 _atom_site_symmetry_multiplicity
 _atom_site_fract_x
 _atom_site_fract_y
 _atom_site_fract_z
 _atom_site_occupancy
  Dy  Dy0  1  0.188703  0.192957  0.810218  1
  Dy  Dy1  1  0.440196  0.059281  0.061030  1
  Dy  Dy2  1  0.436806  0.062313  0.436301  1
  Dy  Dy3  1  0.058301  0.437194  0.059728  1
  Dy  Dy4  1  0.649480  0.050428  0.647567  1
  Dy  Dy5  1  0.191753  0.808324  0.810670  1
  Er  Er6  1  0.060929  0.060655  0.438271  1
  Er  Er7  1  0.810575  0.191894  0.188551  1
  Er  Er8  1  0.810451  0.807641  0.192585  1
  Er  Er9  1  0.650642  0.648370  0.047851  1
  Er  Er10  1  0.651556  0.651694  0.651594  1
  Er  Er11  1  0.058445  0.437305  0.444736  1
  Er  Er12  1  0.046242  0.650157  0.650801  1
  Er  Er13  1  0.808921  0.193743  0.808773  1
  Er  Er14  1  0.445570  0.437316  0.058538  1
  Er  Er15  1  0.191672  0.807678  0.192646  1
  In  In16  1  0.417429  0.747678  0.418001  1
  In  In17  1  0.417556  0.417348  0.749013  1
  In  In18  1  0.748891  0.416811  0.417997  1
  In  In19  1  0.418678  0.416563  0.415705  1
  Os  Os20  1  0.856702  0.425119  0.857553  1
  Rh  Rh21  1  0.859788  0.858930  0.422982  1
  Rh  Rh22  1  0.424295  0.858878  0.859750  1
  Rh  Rh23  1  0.856415  0.861724  0.859136  1
