# generated using pymatgen
data_K20Hf3TiAs12
_symmetry_space_group_name_H-M   'P 1'
_cell_length_a   8.47685329
_cell_length_b   9.14238499
_cell_length_c   17.79876159
_cell_angle_alpha   60.09845777
_cell_angle_beta   89.98793517
_cell_angle_gamma   90.01791604
_symmetry_Int_Tables_number   1
_chemical_formula_structural   K20Hf3TiAs12
_chemical_formula_sum   'K20 Hf3 Ti1 As12'
_cell_volume   1195.76145674
_cell_formula_units_Z   1
loop_
 _symmetry_equiv_pos_site_id
 _symmetry_equiv_pos_as_xyz
  1  'x, y, z'
loop_
 _atom_site_type_symbol
 _atom_site_label
 _atom_site_symmetry_multiplicity
 _atom_site_fract_x
 _atom_site_fract_y
 _atom_site_fract_z
 _atom_site_occupancy
  K  K0  1  0.168603  0.844775  0.740074  1
  K  K1  1  0.668208  0.157790  0.758121  1
  K  K2  1  0.831688  0.156662  0.260019  1
  K  K3  1  0.330720  0.840784  0.242376  1
  K  K4  1  0.169229  0.159880  0.420490  1
  K  K5  1  0.665113  0.837761  0.081471  1
  K  K6  1  0.832840  0.838918  0.581085  1
  K  K7  1  0.334357  0.163553  0.917492  1
  K  K8  1  0.008260  0.083920  0.091140  1
  K  K9  1  0.506927  0.909747  0.411451  1
  K  K10  1  0.989883  0.915836  0.909218  1
  K  K11  1  0.494149  0.089252  0.591684  1
  K  K12  1  0.517121  0.259634  0.078514  1
  K  K13  1  0.017758  0.736559  0.422720  1
  K  K14  1  0.484911  0.734285  0.922587  1
  K  K15  1  0.984659  0.271707  0.576294  1
  K  K16  1  0.980407  0.544111  0.258552  1
  K  K17  1  0.482903  0.453458  0.242411  1
  K  K18  1  0.019472  0.455111  0.741926  1
  K  K19  1  0.520355  0.545826  0.752942  1
  Hf  Hf20  1  0.868303  0.505302  0.918894  1
  Hf  Hf21  1  0.629830  0.505649  0.420601  1
  Hf  Hf22  1  0.131538  0.494828  0.080449  1
  Ti  Ti23  1  0.367895  0.494161  0.580291  1
  As  As24  1  0.319637  0.485694  0.439364  1
  As  As25  1  0.818540  0.513574  0.064415  1
  As  As26  1  0.671591  0.513947  0.565705  1
  As  As27  1  0.180994  0.486817  0.934785  1
  As  As28  1  0.214700  0.215045  0.218580  1
  As  As29  1  0.714627  0.785482  0.281991  1
  As  As30  1  0.784387  0.785377  0.781027  1
  As  As31  1  0.287794  0.226243  0.712766  1
  As  As32  1  0.252432  0.760912  0.077628  1
  As  As33  1  0.752832  0.239633  0.423341  1
  As  As34  1  0.747596  0.239514  0.921456  1
  As  As35  1  0.249741  0.748253  0.578142  1
