# generated using pymatgen
data_Yb4Pr15ErSn16
_symmetry_space_group_name_H-M   'P 1'
_cell_length_a   8.13457831
_cell_length_b   8.48843788
_cell_length_c   16.20836432
_cell_angle_alpha   90.15517878
_cell_angle_beta   90.10212900
_cell_angle_gamma   89.98292175
_symmetry_Int_Tables_number   1
_chemical_formula_structural   Yb4Pr15ErSn16
_chemical_formula_sum   'Yb4 Pr15 Er1 Sn16'
_cell_volume   1119.17939857
_cell_formula_units_Z   1
loop_
 _symmetry_equiv_pos_site_id
 _symmetry_equiv_pos_as_xyz
  1  'x, y, z'
loop_
 _atom_site_type_symbol
 _atom_site_label
 _atom_site_symmetry_multiplicity
 _atom_site_fract_x
 _atom_site_fract_y
 _atom_site_fract_z
 _atom_site_occupancy
  Yb  Yb0  1  0.824737  0.502916  0.749221  1
  Yb  Yb1  1  0.324810  0.997995  0.749446  1
  Yb  Yb2  1  0.174786  0.497296  0.250171  1
  Yb  Yb3  1  0.674039  0.003082  0.250994  1
  Pr  Pr4  1  0.155264  0.328301  0.875071  1
  Pr  Pr5  1  0.346268  0.828185  0.124449  1
  Pr  Pr6  1  0.845191  0.671017  0.378412  1
  Pr  Pr7  1  0.344663  0.828537  0.376372  1
  Pr  Pr8  1  0.845901  0.671960  0.124109  1
  Pr  Pr9  1  0.653937  0.171760  0.874622  1
  Pr  Pr10  1  0.152866  0.328047  0.623207  1
  Pr  Pr11  1  0.500719  0.679904  0.596087  1
  Pr  Pr12  1  0.000875  0.817566  0.902632  1
  Pr  Pr13  1  0.498253  0.317630  0.096074  1
  Pr  Pr14  1  0.998525  0.185024  0.404313  1
  Pr  Pr15  1  0.500412  0.318976  0.405264  1
  Pr  Pr16  1  0.998491  0.182024  0.096106  1
  Pr  Pr17  1  0.501955  0.682425  0.902765  1
  Pr  Pr18  1  0.001599  0.816172  0.596424  1
  Er  Er19  1  0.655866  0.171205  0.625434  1
  Sn  Sn20  1  0.681674  0.966378  0.466578  1
  Sn  Sn21  1  0.183587  0.537224  0.036702  1
  Sn  Sn22  1  0.315818  0.037100  0.962788  1
  Sn  Sn23  1  0.809666  0.457134  0.539050  1
  Sn  Sn24  1  0.327176  0.038277  0.539165  1
  Sn  Sn25  1  0.816392  0.462760  0.962315  1
  Sn  Sn26  1  0.683096  0.962345  0.036732  1
  Sn  Sn27  1  0.185919  0.538023  0.462688  1
  Sn  Sn28  1  0.457865  0.391687  0.748168  1
  Sn  Sn29  1  0.953146  0.105399  0.746841  1
  Sn  Sn30  1  0.544387  0.604328  0.250008  1
  Sn  Sn31  1  0.042854  0.896794  0.250383  1
  Sn  Sn32  1  0.695013  0.861065  0.748190  1
  Sn  Sn33  1  0.198347  0.641257  0.749020  1
  Sn  Sn34  1  0.302795  0.142335  0.250045  1
  Sn  Sn35  1  0.803107  0.357874  0.250152  1
