# generated using pymatgen
data_Ta3Mn2AsN
_symmetry_space_group_name_H-M   'P 1'
_cell_length_a   8.05280861
_cell_length_b   8.05280771
_cell_length_c   8.05280800
_cell_angle_alpha   59.99999882
_cell_angle_beta   60.00000249
_cell_angle_gamma   60.00000273
_symmetry_Int_Tables_number   1
_chemical_formula_structural   Ta3Mn2AsN
_chemical_formula_sum   'Ta12 Mn8 As4 N4'
_cell_volume   369.25557938
_cell_formula_units_Z   4
loop_
 _symmetry_equiv_pos_site_id
 _symmetry_equiv_pos_as_xyz
  1  'x, y, z'
loop_
 _atom_site_type_symbol
 _atom_site_label
 _atom_site_symmetry_multiplicity
 _atom_site_fract_x
 _atom_site_fract_y
 _atom_site_fract_z
 _atom_site_occupancy
  Ta  Ta0  1  0.805286  0.805286  0.194714  1
  Ta  Ta1  1  0.194714  0.194714  0.805286  1
  Ta  Ta2  1  0.805286  0.194714  0.805286  1
  Ta  Ta3  1  0.194714  0.805286  0.194714  1
  Ta  Ta4  1  0.194714  0.805286  0.805286  1
  Ta  Ta5  1  0.805286  0.194714  0.194714  1
  Ta  Ta6  1  0.444714  0.444714  0.055286  1
  Ta  Ta7  1  0.055286  0.055286  0.444714  1
  Ta  Ta8  1  0.444714  0.055286  0.444714  1
  Ta  Ta9  1  0.055286  0.444714  0.055286  1
  Ta  Ta10  1  0.055286  0.444714  0.444714  1
  Ta  Ta11  1  0.444714  0.055286  0.055286  1
  Mn  Mn12  1  0.745543  0.418152  0.418152  1
  Mn  Mn13  1  0.418152  0.745543  0.418152  1
  Mn  Mn14  1  0.418152  0.418152  0.745543  1
  Mn  Mn15  1  0.418152  0.418152  0.418152  1
  Mn  Mn16  1  0.504457  0.831848  0.831848  1
  Mn  Mn17  1  0.831848  0.504457  0.831848  1
  Mn  Mn18  1  0.831848  0.831848  0.504457  1
  Mn  Mn19  1  0.831848  0.831848  0.831848  1
  As  As20  1  0.125000  0.625000  0.625000  1
  As  As21  1  0.625000  0.125000  0.625000  1
  As  As22  1  0.625000  0.625000  0.125000  1
  As  As23  1  0.625000  0.625000  0.625000  1
  N  N24  1  0.625000  0.125000  0.125000  1
  N  N25  1  0.125000  0.625000  0.125000  1
  N  N26  1  0.125000  0.125000  0.625000  1
  N  N27  1  0.125000  0.125000  0.125000  1
