# generated using pymatgen
data_Ho7CoSn23Os5
_symmetry_space_group_name_H-M   'P 1'
_cell_length_a   9.82364215
_cell_length_b   9.82364204
_cell_length_c   10.09579557
_cell_angle_alpha   89.94409498
_cell_angle_beta   90.05590560
_cell_angle_gamma   119.89715416
_symmetry_Int_Tables_number   1
_chemical_formula_structural   Ho7CoSn23Os5
_chemical_formula_sum   'Ho7 Co1 Sn23 Os5'
_cell_volume   844.62729541
_cell_formula_units_Z   1
loop_
 _symmetry_equiv_pos_site_id
 _symmetry_equiv_pos_as_xyz
  1  'x, y, z'
loop_
 _atom_site_type_symbol
 _atom_site_label
 _atom_site_symmetry_multiplicity
 _atom_site_fract_x
 _atom_site_fract_y
 _atom_site_fract_z
 _atom_site_occupancy
  Ho  Ho0  1  0.005901  0.994099  0.991942  1
  Ho  Ho1  1  0.514791  0.485209  0.698265  1
  Ho  Ho2  1  0.514914  0.030011  0.697670  1
  Ho  Ho3  1  0.969989  0.485086  0.697670  1
  Ho  Ho4  1  0.032032  0.517661  0.303961  1
  Ho  Ho5  1  0.482339  0.967968  0.303961  1
  Ho  Ho6  1  0.483707  0.516293  0.302719  1
  Co  Co7  1  0.828732  0.171268  0.200559  1
  Sn  Sn8  1  0.667945  0.332055  0.179040  1
  Sn  Sn9  1  0.666927  0.333073  0.872099  1
  Sn  Sn10  1  0.333076  0.666924  0.128922  1
  Sn  Sn11  1  0.350053  0.349904  0.000161  1
  Sn  Sn12  1  0.998854  0.647238  0.000352  1
  Sn  Sn13  1  0.655197  0.002446  0.005630  1
  Sn  Sn14  1  0.650096  0.649947  0.000161  1
  Sn  Sn15  1  0.333118  0.666882  0.824591  1
  Sn  Sn16  1  0.439619  0.220295  0.462387  1
  Sn  Sn17  1  0.220028  0.779972  0.539118  1
  Sn  Sn18  1  0.219875  0.439672  0.537965  1
  Sn  Sn19  1  0.560328  0.780125  0.537965  1
  Sn  Sn20  1  0.118024  0.881976  0.275137  1
  Sn  Sn21  1  0.779705  0.560381  0.462387  1
  Sn  Sn22  1  0.781710  0.218290  0.455711  1
  Sn  Sn23  1  0.352762  0.001146  0.000352  1
  Sn  Sn24  1  0.110161  0.232522  0.272854  1
  Sn  Sn25  1  0.767478  0.889839  0.272854  1
  Sn  Sn26  1  0.235531  0.118687  0.721845  1
  Sn  Sn27  1  0.881313  0.764469  0.721845  1
  Sn  Sn28  1  0.881669  0.118331  0.724509  1
  Sn  Sn29  1  0.999610  0.000390  0.498334  1
  Sn  Sn30  1  0.997554  0.344803  0.005630  1
  Os  Os31  1  0.168884  0.831116  0.800336  1
  Os  Os32  1  0.168451  0.339818  0.799390  1
  Os  Os33  1  0.660182  0.831549  0.799390  1
  Os  Os34  1  0.339617  0.170170  0.202143  1
  Os  Os35  1  0.829830  0.660383  0.202143  1
