# generated using pymatgen
data_La4Tb(SnSb)2
_symmetry_space_group_name_H-M   'P 1'
_cell_length_a   8.52535000
_cell_length_b   8.56249300
_cell_length_c   16.33830500
_cell_angle_alpha   90.00000000
_cell_angle_beta   90.00000000
_cell_angle_gamma   90.00000000
_symmetry_Int_Tables_number   1
_chemical_formula_structural   La4Tb(SnSb)2
_chemical_formula_sum   'La16 Tb4 Sn8 Sb8'
_cell_volume   1192.66766802
_cell_formula_units_Z   4
loop_
 _symmetry_equiv_pos_site_id
 _symmetry_equiv_pos_as_xyz
  1  'x, y, z'
loop_
 _atom_site_type_symbol
 _atom_site_label
 _atom_site_symmetry_multiplicity
 _atom_site_fract_x
 _atom_site_fract_y
 _atom_site_fract_z
 _atom_site_occupancy
  La  La0  1  0.403229  0.836228  0.884876  1
  La  La1  1  0.903229  0.663772  0.615124  1
  La  La2  1  0.596771  0.163772  0.384876  1
  La  La3  1  0.096771  0.336228  0.115124  1
  La  La4  1  0.596771  0.163772  0.115124  1
  La  La5  1  0.096771  0.336228  0.384876  1
  La  La6  1  0.403229  0.836228  0.615124  1
  La  La7  1  0.903229  0.663772  0.884876  1
  La  La8  1  0.564899  0.330602  0.890941  1
  La  La9  1  0.064899  0.169398  0.609059  1
  La  La10  1  0.435101  0.669398  0.390941  1
  La  La11  1  0.935101  0.830602  0.109059  1
  La  La12  1  0.435101  0.669398  0.109059  1
  La  La13  1  0.935101  0.830602  0.390941  1
  La  La14  1  0.564899  0.330602  0.609059  1
  La  La15  1  0.064899  0.169398  0.890941  1
  Tb  Tb16  1  0.233454  0.497123  0.750000  1
  Tb  Tb17  1  0.733454  0.002877  0.750000  1
  Tb  Tb18  1  0.766546  0.502877  0.250000  1
  Tb  Tb19  1  0.266546  0.997123  0.250000  1
  Sn  Sn20  1  0.600855  0.629141  0.750000  1
  Sn  Sn21  1  0.100855  0.870859  0.750000  1
  Sn  Sn22  1  0.399145  0.370859  0.250000  1
  Sn  Sn23  1  0.899145  0.129141  0.250000  1
  Sn  Sn24  1  0.368632  0.138061  0.750000  1
  Sn  Sn25  1  0.868632  0.361939  0.750000  1
  Sn  Sn26  1  0.631368  0.861939  0.250000  1
  Sn  Sn27  1  0.131368  0.638061  0.250000  1
  Sb  Sb28  1  0.259771  0.009381  0.051960  1
  Sb  Sb29  1  0.759771  0.490619  0.448040  1
  Sb  Sb30  1  0.740229  0.990619  0.551960  1
  Sb  Sb31  1  0.240229  0.509381  0.948040  1
  Sb  Sb32  1  0.740229  0.990619  0.948040  1
  Sb  Sb33  1  0.240229  0.509381  0.551960  1
  Sb  Sb34  1  0.259771  0.009381  0.448040  1
  Sb  Sb35  1  0.759771  0.490619  0.051960  1
