# generated using pymatgen
data_Tb4Lu16HgBi11
_symmetry_space_group_name_H-M   'P 1'
_cell_length_a   8.12903178
_cell_length_b   9.38391800
_cell_length_c   11.87081200
_cell_angle_alpha   90.00000000
_cell_angle_beta   90.29090535
_cell_angle_gamma   90.00000000
_symmetry_Int_Tables_number   1
_chemical_formula_structural   Tb4Lu16HgBi11
_chemical_formula_sum   'Tb4 Lu16 Hg1 Bi11'
_cell_volume   905.51959910
_cell_formula_units_Z   1
loop_
 _symmetry_equiv_pos_site_id
 _symmetry_equiv_pos_as_xyz
  1  'x, y, z'
loop_
 _atom_site_type_symbol
 _atom_site_label
 _atom_site_symmetry_multiplicity
 _atom_site_fract_x
 _atom_site_fract_y
 _atom_site_fract_z
 _atom_site_occupancy
  Tb  Tb0  1  0.314140  0.250000  0.218193  1
  Tb  Tb1  1  0.811003  0.250000  0.284360  1
  Tb  Tb2  1  0.679896  0.750000  0.786593  1
  Tb  Tb3  1  0.189800  0.750000  0.718411  1
  Lu  Lu4  1  0.352125  0.750000  0.210883  1
  Lu  Lu5  1  0.850900  0.750000  0.283067  1
  Lu  Lu6  1  0.651021  0.250000  0.781256  1
  Lu  Lu7  1  0.150745  0.250000  0.718603  1
  Lu  Lu8  1  0.685737  0.571186  0.057486  1
  Lu  Lu9  1  0.190233  0.932491  0.437499  1
  Lu  Lu10  1  0.309243  0.054451  0.939697  1
  Lu  Lu11  1  0.809594  0.432257  0.560666  1
  Lu  Lu12  1  0.309243  0.445549  0.939697  1
  Lu  Lu13  1  0.809594  0.067743  0.560666  1
  Lu  Lu14  1  0.685737  0.928814  0.057486  1
  Lu  Lu15  1  0.190233  0.567509  0.437499  1
  Lu  Lu16  1  0.479176  0.250000  0.490590  1
  Lu  Lu17  1  0.981588  0.250000  0.009316  1
  Lu  Lu18  1  0.520936  0.750000  0.509287  1
  Lu  Lu19  1  0.032557  0.750000  0.991955  1
  Hg  Hg20  1  0.402042  0.750000  0.962068  1
  Bi  Bi21  1  0.899988  0.750000  0.542879  1
  Bi  Bi22  1  0.598331  0.250000  0.040102  1
  Bi  Bi23  1  0.100159  0.250000  0.459525  1
  Bi  Bi24  1  0.562688  0.994532  0.326313  1
  Bi  Bi25  1  0.060247  0.503546  0.175775  1
  Bi  Bi26  1  0.437242  0.494949  0.673509  1
  Bi  Bi27  1  0.937814  0.004111  0.825510  1
  Bi  Bi28  1  0.437242  0.005051  0.673509  1
  Bi  Bi29  1  0.937814  0.495889  0.825510  1
  Bi  Bi30  1  0.562688  0.505468  0.326313  1
  Bi  Bi31  1  0.060247  0.996454  0.175775  1
