# generated using pymatgen
data_LiNd2Er4Co17P12
_symmetry_space_group_name_H-M   'P 1'
_cell_length_a   3.72796200
_cell_length_b   10.59888400
_cell_length_c   12.23646000
_cell_angle_alpha   90.00000000
_cell_angle_beta   90.00000000
_cell_angle_gamma   90.00000000
_symmetry_Int_Tables_number   1
_chemical_formula_structural   LiNd2Er4Co17P12
_chemical_formula_sum   'Li1 Nd2 Er4 Co17 P12'
_cell_volume   483.48990505
_cell_formula_units_Z   1
loop_
 _symmetry_equiv_pos_site_id
 _symmetry_equiv_pos_as_xyz
  1  'x, y, z'
loop_
 _atom_site_type_symbol
 _atom_site_label
 _atom_site_symmetry_multiplicity
 _atom_site_fract_x
 _atom_site_fract_y
 _atom_site_fract_z
 _atom_site_occupancy
  Li  Li0  1  0.250000  0.250000  0.850639  1
  Nd  Nd1  1  0.750000  0.250000  0.477066  1
  Nd  Nd2  1  0.250000  0.750000  0.521867  1
  Er  Er3  1  0.250000  0.930076  0.794917  1
  Er  Er4  1  0.250000  0.569924  0.794917  1
  Er  Er5  1  0.750000  0.068068  0.204489  1
  Er  Er6  1  0.750000  0.431932  0.204489  1
  Co  Co7  1  0.750000  0.750000  0.157291  1
  Co  Co8  1  0.250000  0.250000  0.291617  1
  Co  Co9  1  0.750000  0.750000  0.707355  1
  Co  Co10  1  0.750000  0.250000  0.013687  1
  Co  Co11  1  0.250000  0.750000  0.988327  1
  Co  Co12  1  0.250000  0.419292  0.004692  1
  Co  Co13  1  0.250000  0.080708  0.004692  1
  Co  Co14  1  0.750000  0.585011  0.997140  1
  Co  Co15  1  0.750000  0.914989  0.997140  1
  Co  Co16  1  0.250000  0.454413  0.569575  1
  Co  Co17  1  0.250000  0.045587  0.569575  1
  Co  Co18  1  0.750000  0.546900  0.427883  1
  Co  Co19  1  0.750000  0.953100  0.427883  1
  Co  Co20  1  0.250000  0.870350  0.287420  1
  Co  Co21  1  0.250000  0.629650  0.287420  1
  Co  Co22  1  0.750000  0.127514  0.710523  1
  Co  Co23  1  0.750000  0.372486  0.710523  1
  P  P24  1  0.250000  0.250000  0.114496  1
  P  P25  1  0.750000  0.750000  0.884425  1
  P  P26  1  0.250000  0.250000  0.659139  1
  P  P27  1  0.750000  0.750000  0.339717  1
  P  P28  1  0.250000  0.442597  0.381041  1
  P  P29  1  0.250000  0.057403  0.381041  1
  P  P30  1  0.750000  0.557534  0.617116  1
  P  P31  1  0.750000  0.942466  0.617116  1
  P  P32  1  0.250000  0.903426  0.107488  1
  P  P33  1  0.250000  0.596574  0.107488  1
  P  P34  1  0.750000  0.091803  0.894903  1
  P  P35  1  0.750000  0.408197  0.894903  1
