# generated using pymatgen
data_Ho7Tm3Si5Sn
_symmetry_space_group_name_H-M   'P 1'
_cell_length_a   8.48217404
_cell_length_b   8.48064683
_cell_length_c   6.32469104
_cell_angle_alpha   90.01020277
_cell_angle_beta   89.98896665
_cell_angle_gamma   120.18639316
_symmetry_Int_Tables_number   1
_chemical_formula_structural   Ho7Tm3Si5Sn
_chemical_formula_sum   'Ho7 Tm3 Si5 Sn1'
_cell_volume   393.26683627
_cell_formula_units_Z   1
loop_
 _symmetry_equiv_pos_site_id
 _symmetry_equiv_pos_as_xyz
  1  'x, y, z'
loop_
 _atom_site_type_symbol
 _atom_site_label
 _atom_site_symmetry_multiplicity
 _atom_site_fract_x
 _atom_site_fract_y
 _atom_site_fract_z
 _atom_site_occupancy
  Ho  Ho0  1  0.673639  0.331526  0.503027  1
  Ho  Ho1  1  0.765226  0.765339  0.249837  1
  Ho  Ho2  1  0.240396  0.989388  0.249858  1
  Ho  Ho3  1  0.989634  0.240514  0.249779  1
  Ho  Ho4  1  0.240941  0.241052  0.750163  1
  Ho  Ho5  1  0.756115  0.998533  0.750207  1
  Ho  Ho6  1  0.998812  0.756243  0.750169  1
  Tm  Tm7  1  0.331488  0.673709  0.502948  1
  Tm  Tm8  1  0.331529  0.673716  0.997041  1
  Tm  Tm9  1  0.673719  0.331486  0.997031  1
  Si  Si10  1  0.603629  0.998134  0.249547  1
  Si  Si11  1  0.999052  0.604114  0.249533  1
  Si  Si12  1  0.605000  0.605418  0.750380  1
  Si  Si13  1  0.393773  0.000916  0.750421  1
  Si  Si14  1  0.001904  0.394292  0.750489  1
  Sn  Sn15  1  0.395144  0.395620  0.249568  1
