# generated using pymatgen
data_HfUCo6B
_symmetry_space_group_name_H-M   'P 1'
_cell_length_a   5.37000993
_cell_length_b   5.37001034
_cell_length_c   5.37001100
_cell_angle_alpha   60.00000212
_cell_angle_beta   59.99999958
_cell_angle_gamma   59.99999515
_symmetry_Int_Tables_number   1
_chemical_formula_structural   HfUCo6B
_chemical_formula_sum   'Hf1 U1 Co6 B1'
_cell_volume   109.49905683
_cell_formula_units_Z   1
loop_
 _symmetry_equiv_pos_site_id
 _symmetry_equiv_pos_as_xyz
  1  'x, y, z'
loop_
 _atom_site_type_symbol
 _atom_site_label
 _atom_site_symmetry_multiplicity
 _atom_site_fract_x
 _atom_site_fract_y
 _atom_site_fract_z
 _atom_site_occupancy
  Hf  Hf0  1  0.750000  0.750000  0.750000  1
  U  U1  1  0.250000  0.250000  0.250000  1
  Co  Co2  1  0.740834  0.259167  0.259167  1
  Co  Co3  1  0.740834  0.740834  0.259167  1
  Co  Co4  1  0.259167  0.740834  0.259167  1
  Co  Co5  1  0.259167  0.740834  0.740834  1
  Co  Co6  1  0.259167  0.259167  0.740834  1
  Co  Co7  1  0.740834  0.259167  0.740834  1
  B  B8  1  0.000000  0.000000  0.000000  1
