# generated using pymatgen
data_Nd6Ho10Cd4Ru3Pt
_symmetry_space_group_name_H-M   'P 1'
_cell_length_a   9.67504731
_cell_length_b   9.76373770
_cell_length_c   9.76373700
_cell_angle_alpha   59.99999897
_cell_angle_beta   59.69629353
_cell_angle_gamma   59.69629558
_symmetry_Int_Tables_number   1
_chemical_formula_structural   Nd6Ho10Cd4Ru3Pt
_chemical_formula_sum   'Nd6 Ho10 Cd4 Ru3 Pt1'
_cell_volume   649.17429115
_cell_formula_units_Z   1
loop_
 _symmetry_equiv_pos_site_id
 _symmetry_equiv_pos_as_xyz
  1  'x, y, z'
loop_
 _atom_site_type_symbol
 _atom_site_label
 _atom_site_symmetry_multiplicity
 _atom_site_fract_x
 _atom_site_fract_y
 _atom_site_fract_z
 _atom_site_occupancy
  Nd  Nd0  1  0.938060  0.560726  0.560726  1
  Nd  Nd1  1  0.556758  0.940452  0.940452  1
  Nd  Nd2  1  0.556758  0.940452  0.562338  1
  Nd  Nd3  1  0.938060  0.560726  0.940487  1
  Nd  Nd4  1  0.556758  0.562338  0.940452  1
  Nd  Nd5  1  0.938060  0.940487  0.560726  1
  Ho  Ho6  1  0.343001  0.348368  0.348368  1
  Ho  Ho7  1  0.343001  0.348368  0.960263  1
  Ho  Ho8  1  0.343001  0.960263  0.348368  1
  Ho  Ho9  1  0.968069  0.343977  0.343977  1
  Ho  Ho10  1  0.816714  0.187302  0.187302  1
  Ho  Ho11  1  0.186184  0.813918  0.813918  1
  Ho  Ho12  1  0.186184  0.813918  0.185980  1
  Ho  Ho13  1  0.816714  0.187302  0.808682  1
  Ho  Ho14  1  0.186184  0.185980  0.813918  1
  Ho  Ho15  1  0.816714  0.808682  0.187302  1
  Cd  Cd16  1  0.579705  0.578498  0.578498  1
  Cd  Cd17  1  0.579705  0.578498  0.263301  1
  Cd  Cd18  1  0.579705  0.263301  0.578498  1
  Cd  Cd19  1  0.261775  0.579409  0.579409  1
  Ru  Ru20  1  0.144160  0.138158  0.138158  1
  Ru  Ru21  1  0.144160  0.138158  0.579525  1
  Ru  Ru22  1  0.144160  0.579525  0.138158  1
  Pt  Pt23  1  0.576411  0.141196  0.141196  1
