# generated using pymatgen
data_LiTb4Y12Cd2AgPt4
_symmetry_space_group_name_H-M   'P 1'
_cell_length_a   9.72210307
_cell_length_b   9.72210315
_cell_length_c   9.72210300
_cell_angle_alpha   59.92502467
_cell_angle_beta   59.92502440
_cell_angle_gamma   59.92502083
_symmetry_Int_Tables_number   1
_chemical_formula_structural   LiTb4Y12Cd2AgPt4
_chemical_formula_sum   'Li1 Tb4 Y12 Cd2 Ag1 Pt4'
_cell_volume   648.67390615
_cell_formula_units_Z   1
loop_
 _symmetry_equiv_pos_site_id
 _symmetry_equiv_pos_as_xyz
  1  'x, y, z'
loop_
 _atom_site_type_symbol
 _atom_site_label
 _atom_site_symmetry_multiplicity
 _atom_site_fract_x
 _atom_site_fract_y
 _atom_site_fract_z
 _atom_site_occupancy
  Li  Li0  1  0.571261  0.571261  0.568716  1
  Tb  Tb1  1  0.352418  0.352418  0.352635  1
  Tb  Tb2  1  0.352201  0.352201  0.945248  1
  Tb  Tb3  1  0.352623  0.943784  0.352008  1
  Tb  Tb4  1  0.943784  0.352623  0.352008  1
  Y  Y5  1  0.810059  0.191589  0.191866  1
  Y  Y6  1  0.187422  0.812433  0.812253  1
  Y  Y7  1  0.191589  0.810059  0.191866  1
  Y  Y8  1  0.812433  0.187422  0.812253  1
  Y  Y9  1  0.191629  0.191629  0.809396  1
  Y  Y10  1  0.812770  0.812770  0.186628  1
  Y  Y11  1  0.936013  0.564899  0.565714  1
  Y  Y12  1  0.564276  0.933345  0.938669  1
  Y  Y13  1  0.564899  0.936013  0.565714  1
  Y  Y14  1  0.933345  0.564276  0.938669  1
  Y  Y15  1  0.564794  0.564794  0.939596  1
  Y  Y16  1  0.935700  0.935700  0.565287  1
  Cd  Cd17  1  0.582611  0.254037  0.581528  1
  Cd  Cd18  1  0.254037  0.582611  0.581528  1
  Ag  Ag19  1  0.584913  0.584913  0.246043  1
  Pt  Pt20  1  0.144436  0.144436  0.144424  1
  Pt  Pt21  1  0.143761  0.143761  0.569536  1
  Pt  Pt22  1  0.143299  0.569726  0.144207  1
  Pt  Pt23  1  0.569726  0.143299  0.144207  1
