# generated using pymatgen
data_Dy3HoAl24Pt8Au
_symmetry_space_group_name_H-M   'P 1'
_cell_length_a   7.54987604
_cell_length_b   7.56794605
_cell_length_c   13.16440905
_cell_angle_alpha   84.55131378
_cell_angle_beta   79.01699404
_cell_angle_gamma   59.89670455
_symmetry_Int_Tables_number   1
_chemical_formula_structural   Dy3HoAl24Pt8Au
_chemical_formula_sum   'Dy3 Ho1 Al24 Pt8 Au1'
_cell_volume   638.80506032
_cell_formula_units_Z   1
loop_
 _symmetry_equiv_pos_site_id
 _symmetry_equiv_pos_as_xyz
  1  'x, y, z'
loop_
 _atom_site_type_symbol
 _atom_site_label
 _atom_site_symmetry_multiplicity
 _atom_site_fract_x
 _atom_site_fract_y
 _atom_site_fract_z
 _atom_site_occupancy
  Dy  Dy0  1  0.606044  0.831811  0.192345  1
  Dy  Dy1  1  0.734024  0.499028  0.808515  1
  Dy  Dy2  1  0.266712  0.501100  0.191733  1
  Ho  Ho3  1  0.392918  0.169062  0.808648  1
  Al  Al4  1  0.683272  0.834088  0.945306  1
  Al  Al5  1  0.315568  0.166151  0.055868  1
  Al  Al6  1  0.146921  0.838701  0.559992  1
  Al  Al7  1  0.854156  0.167297  0.436745  1
  Al  Al8  1  0.487789  0.160012  0.557557  1
  Al  Al9  1  0.520121  0.833525  0.439895  1
  Al  Al10  1  0.217603  0.165218  0.329272  1
  Al  Al11  1  0.777433  0.839252  0.672708  1
  Al  Al12  1  0.440779  0.506827  0.672851  1
  Al  Al13  1  0.562772  0.493525  0.329037  1
  Al  Al14  1  0.109047  0.154592  0.671683  1
  Al  Al15  1  0.890283  0.839882  0.330272  1
  Al  Al16  1  0.353220  0.498874  0.945204  1
  Al  Al17  1  0.647219  0.500590  0.055863  1
  Al  Al18  1  0.015229  0.167698  0.953826  1
  Al  Al19  1  0.984333  0.832469  0.047328  1
  Al  Al20  1  0.188043  0.499551  0.436513  1
  Al  Al21  1  0.807270  0.500229  0.557468  1
  Al  Al22  1  0.734143  0.163897  0.183627  1
  Al  Al23  1  0.266640  0.835580  0.816604  1
  Al  Al24  1  0.060744  0.633283  0.817940  1
  Al  Al25  1  0.938355  0.368853  0.184971  1
  Al  Al26  1  0.854251  0.041979  0.816117  1
  Al  Al27  1  0.144662  0.958300  0.184080  1
  Pt  Pt28  1  0.879457  0.508337  0.361497  1
  Pt  Pt29  1  0.657397  0.171281  0.999439  1
  Pt  Pt30  1  0.342834  0.828537  0.999676  1
  Pt  Pt31  1  0.537485  0.166732  0.361573  1
  Pt  Pt32  1  0.462409  0.833448  0.637961  1
  Pt  Pt33  1  0.779263  0.175070  0.636697  1
  Pt  Pt34  1  0.221015  0.824776  0.362786  1
  Pt  Pt35  1  0.000002  0.499867  0.000188  1
  Au  Au36  1  0.120585  0.490581  0.638218  1
