# generated using pymatgen
data_Er10Co(RuO8)3
_symmetry_space_group_name_H-M   'P 1'
_cell_length_a   5.74142215
_cell_length_b   7.29174384
_cell_length_c   12.24764011
_cell_angle_alpha   107.09428893
_cell_angle_beta   90.00322348
_cell_angle_gamma   89.97244475
_symmetry_Int_Tables_number   1
_chemical_formula_structural   Er10Co(RuO8)3
_chemical_formula_sum   'Er10 Co1 Ru3 O24'
_cell_volume   490.09516267
_cell_formula_units_Z   1
loop_
 _symmetry_equiv_pos_site_id
 _symmetry_equiv_pos_as_xyz
  1  'x, y, z'
loop_
 _atom_site_type_symbol
 _atom_site_label
 _atom_site_symmetry_multiplicity
 _atom_site_fract_x
 _atom_site_fract_y
 _atom_site_fract_z
 _atom_site_occupancy
  Er  Er0  1  0.255487  0.614563  0.444466  1
  Er  Er1  1  0.742797  0.394848  0.565615  1
  Er  Er2  1  0.246210  0.087481  0.449952  1
  Er  Er3  1  0.743829  0.909408  0.554062  1
  Er  Er4  1  0.255418  0.885367  0.055566  1
  Er  Er5  1  0.742757  0.105027  0.934358  1
  Er  Er6  1  0.246233  0.412509  0.049997  1
  Er  Er7  1  0.743838  0.590478  0.945976  1
  Er  Er8  1  0.249394  0.250195  0.750005  1
  Er  Er9  1  0.752733  0.750100  0.250035  1
  Co  Co10  1  0.499181  0.749806  0.750018  1
  Ru  Ru11  1  0.979227  0.250262  0.250049  1
  Ru  Ru12  1  0.521123  0.250157  0.250051  1
  Ru  Ru13  1  0.018634  0.749716  0.749997  1
  O  O14  1  0.256124  0.936294  0.750897  1
  O  O15  1  0.749947  0.049380  0.248169  1
  O  O16  1  0.498480  0.329439  0.902862  1
  O  O17  1  0.001414  0.670700  0.096886  1
  O  O18  1  0.497998  0.669792  0.098569  1
  O  O19  1  0.999018  0.328161  0.901424  1
  O  O20  1  0.256340  0.563748  0.749255  1
  O  O21  1  0.749716  0.450665  0.251741  1
  O  O22  1  0.250017  0.071954  0.249981  1
  O  O23  1  0.748712  0.930380  0.748378  1
  O  O24  1  0.510850  0.831026  0.915145  1
  O  O25  1  0.004489  0.169510  0.084330  1
  O  O26  1  0.493535  0.170577  0.084915  1
  O  O27  1  0.990701  0.831708  0.916103  1
  O  O28  1  0.498448  0.170590  0.597054  1
  O  O29  1  0.001418  0.829377  0.403114  1
  O  O30  1  0.498017  0.830134  0.401484  1
  O  O31  1  0.999041  0.171671  0.598565  1
  O  O32  1  0.510894  0.668942  0.584921  1
  O  O33  1  0.004444  0.330683  0.415541  1
  O  O34  1  0.493584  0.329407  0.414917  1
  O  O35  1  0.990882  0.668204  0.583997  1
  O  O36  1  0.249786  0.428179  0.249979  1
  O  O37  1  0.749284  0.569561  0.751625  1
