# generated using pymatgen
data_ZrTaSiTc2Ge
_symmetry_space_group_name_H-M   'P 1'
_cell_length_a   3.37246600
_cell_length_b   7.00348388
_cell_length_c   12.06987401
_cell_angle_alpha   89.73102595
_cell_angle_beta   90.00000000
_cell_angle_gamma   90.00000000
_symmetry_Int_Tables_number   1
_chemical_formula_structural   ZrTaSiTc2Ge
_chemical_formula_sum   'Zr3 Ta3 Si3 Tc6 Ge3'
_cell_volume   285.07534906
_cell_formula_units_Z   3
loop_
 _symmetry_equiv_pos_site_id
 _symmetry_equiv_pos_as_xyz
  1  'x, y, z'
loop_
 _atom_site_type_symbol
 _atom_site_label
 _atom_site_symmetry_multiplicity
 _atom_site_fract_x
 _atom_site_fract_y
 _atom_site_fract_z
 _atom_site_occupancy
  Zr  Zr0  1  0.500000  0.294753  0.300496  1
  Zr  Zr1  1  0.500000  0.297469  0.699510  1
  Zr  Zr2  1  0.500000  0.804671  0.202690  1
  Ta  Ta3  1  0.500000  0.399481  0.999620  1
  Ta  Ta4  1  0.500000  0.898254  0.497764  1
  Ta  Ta5  1  0.500000  0.799247  0.801862  1
  Si  Si6  1  0.500000  0.002641  0.999067  1
  Si  Si7  1  0.500000  0.501517  0.499581  1
  Si  Si8  1  0.000000  0.997811  0.338523  1
  Tc  Tc9  1  0.000000  0.245927  0.499589  1
  Tc  Tc10  1  0.000000  0.749645  0.996047  1
  Tc  Tc11  1  0.000000  0.628359  0.625374  1
  Tc  Tc12  1  0.000000  0.126971  0.124076  1
  Tc  Tc13  1  0.000000  0.125889  0.874777  1
  Tc  Tc14  1  0.000000  0.631723  0.376967  1
  Ge  Ge15  1  0.000000  0.992723  0.666732  1
  Ge  Ge16  1  0.000000  0.500518  0.162839  1
  Ge  Ge17  1  0.000000  0.502601  0.834486  1
