# generated using pymatgen
data_Sm3Er3FeBr10
_symmetry_space_group_name_H-M   'P 1'
_cell_length_a   7.39071493
_cell_length_b   9.10136259
_cell_length_c   9.41268403
_cell_angle_alpha   107.85996341
_cell_angle_beta   96.15070977
_cell_angle_gamma   103.90525892
_symmetry_Int_Tables_number   1
_chemical_formula_structural   Sm3Er3FeBr10
_chemical_formula_sum   'Sm3 Er3 Fe1 Br10'
_cell_volume   573.66093076
_cell_formula_units_Z   1
loop_
 _symmetry_equiv_pos_site_id
 _symmetry_equiv_pos_as_xyz
  1  'x, y, z'
loop_
 _atom_site_type_symbol
 _atom_site_label
 _atom_site_symmetry_multiplicity
 _atom_site_fract_x
 _atom_site_fract_y
 _atom_site_fract_z
 _atom_site_occupancy
  Sm  Sm0  1  0.036483  0.729037  0.416880  1
  Sm  Sm1  1  0.963405  0.270570  0.579360  1
  Sm  Sm2  1  0.871260  0.949592  0.750512  1
  Er  Er3  1  0.126159  0.048805  0.256697  1
  Er  Er4  1  0.353370  0.129221  0.674424  1
  Er  Er5  1  0.646326  0.871712  0.327084  1
  Fe  Fe6  1  0.000078  0.999451  0.500294  1
  Br  Br7  1  0.450903  0.820717  0.581467  1
  Br  Br8  1  0.544155  0.177890  0.415845  1
  Br  Br9  1  0.911661  0.626819  0.669563  1
  Br  Br10  1  0.091654  0.363600  0.322669  1
  Br  Br11  1  0.249738  0.082253  0.952085  1
  Br  Br12  1  0.758386  0.921645  0.057186  1
  Br  Br13  1  0.339628  0.440943  0.769393  1
  Br  Br14  1  0.658534  0.559382  0.229548  1
  Br  Br15  1  0.766165  0.250571  0.838231  1
  Br  Br16  1  0.232096  0.757795  0.158759  1
