# generated using pymatgen
data_Li12Pr12FeW7O48
_symmetry_space_group_name_H-M   'P 1'
_cell_length_a   10.97640114
_cell_length_b   10.97640159
_cell_length_c   10.97640256
_cell_angle_alpha   109.48952300
_cell_angle_beta   109.48953174
_cell_angle_gamma   109.48952619
_symmetry_Int_Tables_number   1
_chemical_formula_structural   Li12Pr12FeW7O48
_chemical_formula_sum   'Li12 Pr12 Fe1 W7 O48'
_cell_volume   1017.33360514
_cell_formula_units_Z   1
loop_
 _symmetry_equiv_pos_site_id
 _symmetry_equiv_pos_as_xyz
  1  'x, y, z'
loop_
 _atom_site_type_symbol
 _atom_site_label
 _atom_site_symmetry_multiplicity
 _atom_site_fract_x
 _atom_site_fract_y
 _atom_site_fract_z
 _atom_site_occupancy
  Li  Li0  1  0.253091  0.877115  0.125826  1
  Li  Li1  1  0.374174  0.246909  0.122885  1
  Li  Li2  1  0.125204  0.375169  0.250433  1
  Li  Li3  1  0.622886  0.874175  0.246910  1
  Li  Li4  1  0.124832  0.749568  0.374797  1
  Li  Li5  1  0.750433  0.625204  0.375169  1
  Li  Li6  1  0.249568  0.374797  0.624832  1
  Li  Li7  1  0.875169  0.250432  0.625204  1
  Li  Li8  1  0.377115  0.125826  0.753091  1
  Li  Li9  1  0.874797  0.624832  0.749568  1
  Li  Li10  1  0.625825  0.753091  0.877115  1
  Li  Li11  1  0.746908  0.122885  0.874174  1
  Pr  Pr12  1  0.746206  0.370974  0.122734  1
  Pr  Pr13  1  0.875030  0.749311  0.125009  1
  Pr  Pr14  1  0.374991  0.624970  0.250689  1
  Pr  Pr15  1  0.870975  0.122735  0.246206  1
  Pr  Pr16  1  0.249311  0.125009  0.375030  1
  Pr  Pr17  1  0.622735  0.246206  0.370975  1
  Pr  Pr18  1  0.750689  0.874991  0.624970  1
  Pr  Pr19  1  0.377266  0.753794  0.629026  1
  Pr  Pr20  1  0.129025  0.877264  0.753794  1
  Pr  Pr21  1  0.625010  0.375030  0.749312  1
  Pr  Pr22  1  0.253794  0.629025  0.877265  1
  Pr  Pr23  1  0.124970  0.250690  0.874992  1
  Fe  Fe24  1  0.499999  0.000000  0.000000  1
  W  W25  1  0.000000  0.000000  0.000000  1
  W  W26  1  0.499999  0.499999  0.000000  1
  W  W27  1  0.000000  0.500000  0.000000  1
  W  W28  1  0.000000  0.000000  0.500000  1
  W  W29  1  0.499999  0.000000  0.500000  1
  W  W30  1  0.000000  0.500001  0.500001  1
  W  W31  1  0.500001  0.500001  0.500001  1
  O  O32  1  0.828461  0.907616  0.022524  1
  O  O33  1  0.690206  0.112644  0.024426  1
  O  O34  1  0.194826  0.672416  0.079498  1
  O  O35  1  0.385664  0.407449  0.079819  1
  O  O36  1  0.477475  0.671537  0.092383  1
  O  O37  1  0.114983  0.420352  0.092070  1
  O  O38  1  0.524426  0.190205  0.112642  1
  O  O39  1  0.092551  0.920181  0.114337  1
  O  O40  1  0.977921  0.592234  0.171735  1
  O  O41  1  0.694424  0.579450  0.171708  1
  O  O42  1  0.079449  0.171707  0.194423  1
  O  O43  1  0.612643  0.024426  0.190205  1
  O  O44  1  0.827585  0.920503  0.305173  1
  O  O45  1  0.976958  0.384874  0.305192  1
  O  O46  1  0.407617  0.022524  0.328462  1
  O  O47  1  0.420502  0.305174  0.327584  1
  O  O48  1  0.079649  0.907931  0.385017  1
  O  O49  1  0.805192  0.476958  0.384875  1
  O  O50  1  0.328263  0.522080  0.407765  1
  O  O51  1  0.579819  0.885664  0.407449  1
  O  O52  1  0.592070  0.614984  0.420352  1
  O  O53  1  0.328293  0.805577  0.420551  1
  O  O54  1  0.092232  0.171735  0.477920  1
  O  O55  1  0.884875  0.305191  0.476958  1
  O  O56  1  0.115125  0.694808  0.523042  1
  O  O57  1  0.907767  0.828265  0.522080  1
  O  O58  1  0.407929  0.385016  0.579648  1
  O  O59  1  0.671707  0.194424  0.579450  1
  O  O60  1  0.671735  0.477921  0.592233  1
  O  O61  1  0.420180  0.114336  0.592550  1
  O  O62  1  0.194808  0.523042  0.615125  1
  O  O63  1  0.920352  0.092071  0.614984  1
  O  O64  1  0.579498  0.694826  0.672415  1
  O  O65  1  0.592384  0.977475  0.671538  1
  O  O66  1  0.172415  0.079497  0.694826  1
  O  O67  1  0.023042  0.615125  0.694809  1
  O  O68  1  0.387356  0.975574  0.809794  1
  O  O69  1  0.920551  0.828293  0.805576  1
  O  O70  1  0.305577  0.420551  0.828293  1
  O  O71  1  0.022081  0.407767  0.828265  1
  O  O72  1  0.475573  0.809793  0.887356  1
  O  O73  1  0.907449  0.079820  0.885664  1
  O  O74  1  0.522524  0.328462  0.907616  1
  O  O75  1  0.885017  0.579649  0.907930  1
  O  O76  1  0.614337  0.592552  0.920180  1
  O  O77  1  0.805173  0.327584  0.920501  1
  O  O78  1  0.309794  0.887357  0.975573  1
  O  O79  1  0.171537  0.092383  0.977475  1
