# generated using pymatgen
data_Tb9DySn8
_symmetry_space_group_name_H-M   'P 1'
_cell_length_a   8.06405700
_cell_length_b   8.21786500
_cell_length_c   15.53124100
_cell_angle_alpha   90.00000000
_cell_angle_beta   90.00000000
_cell_angle_gamma   90.00000000
_symmetry_Int_Tables_number   1
_chemical_formula_structural   Tb9DySn8
_chemical_formula_sum   'Tb18 Dy2 Sn16'
_cell_volume   1029.24496276
_cell_formula_units_Z   2
loop_
 _symmetry_equiv_pos_site_id
 _symmetry_equiv_pos_as_xyz
  1  'x, y, z'
loop_
 _atom_site_type_symbol
 _atom_site_label
 _atom_site_symmetry_multiplicity
 _atom_site_fract_x
 _atom_site_fract_y
 _atom_site_fract_z
 _atom_site_occupancy
  Tb  Tb0  1  0.367905  0.836440  0.878534  1
  Tb  Tb1  1  0.867905  0.663560  0.621466  1
  Tb  Tb2  1  0.632062  0.163493  0.378356  1
  Tb  Tb3  1  0.132062  0.336507  0.121644  1
  Tb  Tb4  1  0.632062  0.163493  0.121644  1
  Tb  Tb5  1  0.132062  0.336507  0.378356  1
  Tb  Tb6  1  0.367905  0.836440  0.621466  1
  Tb  Tb7  1  0.867905  0.663560  0.878534  1
  Tb  Tb8  1  0.519836  0.319643  0.901879  1
  Tb  Tb9  1  0.019836  0.180357  0.598121  1
  Tb  Tb10  1  0.480137  0.680361  0.401778  1
  Tb  Tb11  1  0.980137  0.819639  0.098222  1
  Tb  Tb12  1  0.480137  0.680361  0.098222  1
  Tb  Tb13  1  0.980137  0.819639  0.401778  1
  Tb  Tb14  1  0.519836  0.319643  0.598121  1
  Tb  Tb15  1  0.019836  0.180357  0.901879  1
  Tb  Tb16  1  0.198674  0.502627  0.750000  1
  Tb  Tb17  1  0.698674  0.997373  0.750000  1
  Dy  Dy18  1  0.801273  0.497436  0.250000  1
  Dy  Dy19  1  0.301273  0.002564  0.250000  1
  Sn  Sn20  1  0.291680  0.035382  0.042167  1
  Sn  Sn21  1  0.791680  0.464618  0.457833  1
  Sn  Sn22  1  0.708264  0.964412  0.541750  1
  Sn  Sn23  1  0.208264  0.535588  0.958250  1
  Sn  Sn24  1  0.708264  0.964412  0.958250  1
  Sn  Sn25  1  0.208264  0.535588  0.541750  1
  Sn  Sn26  1  0.291680  0.035382  0.457833  1
  Sn  Sn27  1  0.791680  0.464618  0.042167  1
  Sn  Sn28  1  0.565823  0.618919  0.750000  1
  Sn  Sn29  1  0.065823  0.881081  0.750000  1
  Sn  Sn30  1  0.434641  0.381094  0.250000  1
  Sn  Sn31  1  0.934641  0.118906  0.250000  1
  Sn  Sn32  1  0.327462  0.146143  0.750000  1
  Sn  Sn33  1  0.827462  0.353857  0.750000  1
  Sn  Sn34  1  0.672359  0.853465  0.250000  1
  Sn  Sn35  1  0.172359  0.646535  0.250000  1
