# generated using pymatgen
data_Ca4Pr2NbRuO12
_symmetry_space_group_name_H-M   'P 1'
_cell_length_a   5.92988270
_cell_length_b   5.65336115
_cell_length_c   9.94810430
_cell_angle_alpha   55.37126507
_cell_angle_beta   88.98274944
_cell_angle_gamma   89.76286957
_symmetry_Int_Tables_number   1
_chemical_formula_structural   Ca4Pr2NbRuO12
_chemical_formula_sum   'Ca4 Pr2 Nb1 Ru1 O12'
_cell_volume   274.36885316
_cell_formula_units_Z   1
loop_
 _symmetry_equiv_pos_site_id
 _symmetry_equiv_pos_as_xyz
  1  'x, y, z'
loop_
 _atom_site_type_symbol
 _atom_site_label
 _atom_site_symmetry_multiplicity
 _atom_site_fract_x
 _atom_site_fract_y
 _atom_site_fract_z
 _atom_site_occupancy
  Ca  Ca0  1  0.551849  0.279054  0.737873  1
  Ca  Ca1  1  0.448151  0.720946  0.262127  1
  Ca  Ca2  1  0.500000  0.500000  0.000000  1
  Ca  Ca3  1  0.000000  0.500000  0.500000  1
  Pr  Pr4  1  0.063728  0.734354  0.750144  1
  Pr  Pr5  1  0.936272  0.265646  0.249856  1
  Nb  Nb6  1  0.000000  0.000000  0.000000  1
  Ru  Ru7  1  0.500000  0.000000  0.500000  1
  O  O8  1  0.449593  0.893978  0.726946  1
  O  O9  1  0.550407  0.106022  0.273054  1
  O  O10  1  0.939933  0.116731  0.769002  1
  O  O11  1  0.060067  0.883269  0.230998  1
  O  O12  1  0.783985  0.766969  0.563644  1
  O  O13  1  0.216015  0.233031  0.436356  1
  O  O14  1  0.278856  0.256684  0.920000  1
  O  O15  1  0.721144  0.743316  0.080000  1
  O  O16  1  0.315146  0.662658  0.558551  1
  O  O17  1  0.684854  0.337342  0.441449  1
  O  O18  1  0.826592  0.344378  0.954742  1
  O  O19  1  0.173408  0.655622  0.045258  1
