# generated using pymatgen
data_Er10IrRuPb6
_symmetry_space_group_name_H-M   'P 1'
_cell_length_a   9.30690500
_cell_length_b   9.30690561
_cell_length_c   6.46680400
_cell_angle_alpha   90.00000000
_cell_angle_beta   90.00000000
_cell_angle_gamma   120.00000849
_symmetry_Int_Tables_number   1
_chemical_formula_structural   Er10IrRuPb6
_chemical_formula_sum   'Er10 Ir1 Ru1 Pb6'
_cell_volume   485.09956266
_cell_formula_units_Z   1
loop_
 _symmetry_equiv_pos_site_id
 _symmetry_equiv_pos_as_xyz
  1  'x, y, z'
loop_
 _atom_site_type_symbol
 _atom_site_label
 _atom_site_symmetry_multiplicity
 _atom_site_fract_x
 _atom_site_fract_y
 _atom_site_fract_z
 _atom_site_occupancy
  Er  Er0  1  0.238523  0.000000  0.252896  1
  Er  Er1  1  0.761477  0.000000  0.747104  1
  Er  Er2  1  0.000000  0.238523  0.252896  1
  Er  Er3  1  0.000000  0.761477  0.747104  1
  Er  Er4  1  0.761477  0.761477  0.252896  1
  Er  Er5  1  0.238523  0.238523  0.747104  1
  Er  Er6  1  0.333333  0.666667  0.000000  1
  Er  Er7  1  0.666667  0.333333  0.000000  1
  Er  Er8  1  0.666667  0.333333  0.500000  1
  Er  Er9  1  0.333333  0.666667  0.500000  1
  Ir  Ir10  1  0.000000  0.000000  0.000000  1
  Ru  Ru11  1  0.000000  0.000000  0.500000  1
  Pb  Pb12  1  0.597505  0.000000  0.250458  1
  Pb  Pb13  1  0.402495  0.000000  0.749542  1
  Pb  Pb14  1  0.000000  0.597505  0.250458  1
  Pb  Pb15  1  0.000000  0.402495  0.749542  1
  Pb  Pb16  1  0.402495  0.402495  0.250458  1
  Pb  Pb17  1  0.597505  0.597505  0.749542  1
