# generated using pymatgen
data_Tm5BiAu2
_symmetry_space_group_name_H-M   'P 1'
_cell_length_a   8.61978603
_cell_length_b   8.61978580
_cell_length_c   8.61978616
_cell_angle_alpha   124.31079976
_cell_angle_beta   124.31080057
_cell_angle_gamma   82.68273324
_symmetry_Int_Tables_number   1
_chemical_formula_structural   Tm5BiAu2
_chemical_formula_sum   'Tm10 Bi2 Au4'
_cell_volume   419.60418398
_cell_formula_units_Z   2
loop_
 _symmetry_equiv_pos_site_id
 _symmetry_equiv_pos_as_xyz
  1  'x, y, z'
loop_
 _atom_site_type_symbol
 _atom_site_label
 _atom_site_symmetry_multiplicity
 _atom_site_fract_x
 _atom_site_fract_y
 _atom_site_fract_z
 _atom_site_occupancy
  Tm  Tm0  1  0.500000  0.500000  0.000000  1
  Tm  Tm1  1  0.000000  0.000000  0.000000  1
  Tm  Tm2  1  0.514717  0.014717  0.810243  1
  Tm  Tm3  1  0.204474  0.704474  0.189757  1
  Tm  Tm4  1  0.014717  0.204474  0.500000  1
  Tm  Tm5  1  0.704474  0.514717  0.500000  1
  Tm  Tm6  1  0.485283  0.985283  0.189757  1
  Tm  Tm7  1  0.795526  0.295526  0.810243  1
  Tm  Tm8  1  0.985283  0.795526  0.500000  1
  Tm  Tm9  1  0.295526  0.485283  0.500000  1
  Bi  Bi10  1  0.250000  0.250000  0.000000  1
  Bi  Bi11  1  0.750000  0.750000  0.000000  1
  Au  Au12  1  0.137700  0.637700  0.775400  1
  Au  Au13  1  0.862300  0.362300  0.224600  1
  Au  Au14  1  0.637700  0.862300  0.500000  1
  Au  Au15  1  0.362300  0.137700  0.500000  1
