# generated using pymatgen
data_HgBiPt3RhSe6
_symmetry_space_group_name_H-M   'P 1'
_cell_length_a   7.53087500
_cell_length_b   7.53087483
_cell_length_c   5.57405800
_cell_angle_alpha   90.00000000
_cell_angle_beta   90.00000000
_cell_angle_gamma   120.00001393
_symmetry_Int_Tables_number   1
_chemical_formula_structural   HgBiPt3RhSe6
_chemical_formula_sum   'Hg1 Bi1 Pt3 Rh1 Se6'
_cell_volume   273.77445463
_cell_formula_units_Z   1
loop_
 _symmetry_equiv_pos_site_id
 _symmetry_equiv_pos_as_xyz
  1  'x, y, z'
loop_
 _atom_site_type_symbol
 _atom_site_label
 _atom_site_symmetry_multiplicity
 _atom_site_fract_x
 _atom_site_fract_y
 _atom_site_fract_z
 _atom_site_occupancy
  Hg  Hg0  1  0.666667  0.333333  0.349540  1
  Bi  Bi1  1  0.333333  0.666667  0.695217  1
  Pt  Pt2  1  0.501958  0.498042  0.996250  1
  Pt  Pt3  1  0.996085  0.498042  0.996250  1
  Pt  Pt4  1  0.501958  0.003915  0.996250  1
  Rh  Rh5  1  0.000000  0.000000  0.996415  1
  Se  Se6  1  0.832848  0.665696  0.767175  1
  Se  Se7  1  0.832848  0.167152  0.767175  1
  Se  Se8  1  0.334304  0.167152  0.767175  1
  Se  Se9  1  0.168614  0.337229  0.222851  1
  Se  Se10  1  0.168614  0.831386  0.222851  1
  Se  Se11  1  0.662771  0.831386  0.222851  1
