# generated using pymatgen
data_Dy5Tc3P12Ir5Ru11
_symmetry_space_group_name_H-M   'P 1'
_cell_length_a   12.53159582
_cell_length_b   12.60511448
_cell_length_c   3.98232400
_cell_angle_alpha   90.00000000
_cell_angle_beta   90.00000000
_cell_angle_gamma   120.04782244
_symmetry_Int_Tables_number   1
_chemical_formula_structural   Dy5Tc3P12Ir5Ru11
_chemical_formula_sum   'Dy5 Tc3 P12 Ir5 Ru11'
_cell_volume   544.51633435
_cell_formula_units_Z   1
loop_
 _symmetry_equiv_pos_site_id
 _symmetry_equiv_pos_as_xyz
  1  'x, y, z'
loop_
 _atom_site_type_symbol
 _atom_site_label
 _atom_site_symmetry_multiplicity
 _atom_site_fract_x
 _atom_site_fract_y
 _atom_site_fract_z
 _atom_site_occupancy
  Dy  Dy0  1  0.333304  0.666492  0.500000  1
  Dy  Dy1  1  0.667100  0.333767  0.500000  1
  Dy  Dy2  1  0.000130  0.812922  0.000000  1
  Dy  Dy3  1  0.186416  0.186249  0.000000  1
  Dy  Dy4  1  0.812690  0.998812  0.000000  1
  Tc  Tc5  1  0.998394  0.443727  0.500000  1
  Tc  Tc6  1  0.555376  0.553269  0.500000  1
  Tc  Tc7  1  0.447211  0.003403  0.500000  1
  P  P8  1  0.003469  0.629376  0.500000  1
  P  P9  1  0.372208  0.372524  0.500000  1
  P  P10  1  0.626940  0.996805  0.500000  1
  P  P11  1  0.521244  0.690945  0.000000  1
  P  P12  1  0.310443  0.832809  0.000000  1
  P  P13  1  0.166647  0.481214  0.000000  1
  P  P14  1  0.481323  0.168185  0.000000  1
  P  P15  1  0.685375  0.518780  0.000000  1
  P  P16  1  0.833599  0.314353  0.000000  1
  P  P17  1  0.000278  0.181497  0.500000  1
  P  P18  1  0.814476  0.816221  0.500000  1
  P  P19  1  0.182508  0.996774  0.500000  1
  Ir  Ir20  1  0.182928  0.374102  0.500000  1
  Ir  Ir21  1  0.374331  0.183576  0.500000  1
  Ir  Ir22  1  0.810222  0.625545  0.500000  1
  Ir  Ir23  1  0.816920  0.189747  0.500000  1
  Ir  Ir24  1  0.999447  0.998770  0.500000  1
  Ru  Ru25  1  0.511808  0.875910  0.000000  1
  Ru  Ru26  1  0.125360  0.638314  0.000000  1
  Ru  Ru27  1  0.361942  0.491470  0.000000  1
  Ru  Ru28  1  0.487496  0.360553  0.000000  1
  Ru  Ru29  1  0.870266  0.509708  0.000000  1
  Ru  Ru30  1  0.640380  0.130592  0.000000  1
  Ru  Ru31  1  0.000407  0.282212  0.000000  1
  Ru  Ru32  1  0.718171  0.716204  0.000000  1
  Ru  Ru33  1  0.283036  0.002237  0.000000  1
  Ru  Ru34  1  0.622364  0.804409  0.500000  1
  Ru  Ru35  1  0.195792  0.818531  0.500000  1
