# generated using pymatgen
data_Na2NdIO6
_symmetry_space_group_name_H-M   'P 1'
_cell_length_a   5.61990301
_cell_length_b   5.75503200
_cell_length_c   8.03074300
_cell_angle_alpha   90.00000000
_cell_angle_beta   90.00383338
_cell_angle_gamma   90.00000000
_symmetry_Int_Tables_number   1
_chemical_formula_structural   Na2NdIO6
_chemical_formula_sum   'Na4 Nd2 I2 O12'
_cell_volume   259.73608511
_cell_formula_units_Z   2
loop_
 _symmetry_equiv_pos_site_id
 _symmetry_equiv_pos_as_xyz
  1  'x, y, z'
loop_
 _atom_site_type_symbol
 _atom_site_label
 _atom_site_symmetry_multiplicity
 _atom_site_fract_x
 _atom_site_fract_y
 _atom_site_fract_z
 _atom_site_occupancy
  Na  Na0  1  0.489791  0.957946  0.752564  1
  Na  Na1  1  0.010209  0.457946  0.747436  1
  Na  Na2  1  0.510209  0.042054  0.247436  1
  Na  Na3  1  0.989791  0.542054  0.252564  1
  Nd  Nd4  1  0.500000  0.500000  0.000000  1
  Nd  Nd5  1  0.000000  0.000000  0.500000  1
  I  I6  1  0.500000  0.500000  0.500000  1
  I  I7  1  0.000000  0.000000  0.000000  1
  O  O8  1  0.334243  0.227404  0.562108  1
  O  O9  1  0.165757  0.727404  0.937892  1
  O  O10  1  0.665757  0.772596  0.437892  1
  O  O11  1  0.834243  0.272596  0.062108  1
  O  O12  1  0.606623  0.544013  0.721225  1
  O  O13  1  0.893377  0.044013  0.778775  1
  O  O14  1  0.393377  0.455987  0.278775  1
  O  O15  1  0.106623  0.955987  0.221225  1
  O  O16  1  0.226884  0.676660  0.550045  1
  O  O17  1  0.273116  0.176660  0.949955  1
  O  O18  1  0.773116  0.323340  0.449955  1
  O  O19  1  0.726884  0.823340  0.050045  1
