# generated using pymatgen
data_Ti4MnCrS8
_symmetry_space_group_name_H-M   'P 1'
_cell_length_a   5.94126128
_cell_length_b   6.71977367
_cell_length_c   6.82450607
_cell_angle_alpha   104.64280081
_cell_angle_beta   90.07324387
_cell_angle_gamma   116.02707281
_symmetry_Int_Tables_number   1
_chemical_formula_structural   Ti4MnCrS8
_chemical_formula_sum   'Ti4 Mn1 Cr1 S8'
_cell_volume   234.89705513
_cell_formula_units_Z   1
loop_
 _symmetry_equiv_pos_site_id
 _symmetry_equiv_pos_as_xyz
  1  'x, y, z'
loop_
 _atom_site_type_symbol
 _atom_site_label
 _atom_site_symmetry_multiplicity
 _atom_site_fract_x
 _atom_site_fract_y
 _atom_site_fract_z
 _atom_site_occupancy
  Ti  Ti0  1  0.728115  0.991208  0.373193  1
  Ti  Ti1  1  0.271885  0.008792  0.626807  1
  Ti  Ti2  1  0.730483  0.994154  0.874047  1
  Ti  Ti3  1  0.269517  0.005846  0.125953  1
  Mn  Mn4  1  0.000000  0.500000  0.000000  1
  Cr  Cr5  1  0.000000  0.500000  0.500000  1
  S  S6  1  0.962129  0.751894  0.317078  1
  S  S7  1  0.452785  0.740780  0.059728  1
  S  S8  1  0.961498  0.753967  0.809411  1
  S  S9  1  0.449424  0.739686  0.560418  1
  S  S10  1  0.038502  0.246033  0.190589  1
  S  S11  1  0.547215  0.259220  0.940272  1
  S  S12  1  0.037871  0.248106  0.682922  1
  S  S13  1  0.550576  0.260314  0.439582  1
