# generated using pymatgen
data_Nd2Ga9PdRu2
_symmetry_space_group_name_H-M   'P 1'
_cell_length_a   7.62975583
_cell_length_b   7.62975610
_cell_length_c   9.76114300
_cell_angle_alpha   90.00000000
_cell_angle_beta   90.00000000
_cell_angle_gamma   119.31775665
_symmetry_Int_Tables_number   1
_chemical_formula_structural   Nd2Ga9PdRu2
_chemical_formula_sum   'Nd4 Ga18 Pd2 Ru4'
_cell_volume   495.44722162
_cell_formula_units_Z   2
loop_
 _symmetry_equiv_pos_site_id
 _symmetry_equiv_pos_as_xyz
  1  'x, y, z'
loop_
 _atom_site_type_symbol
 _atom_site_label
 _atom_site_symmetry_multiplicity
 _atom_site_fract_x
 _atom_site_fract_y
 _atom_site_fract_z
 _atom_site_occupancy
  Nd  Nd0  1  0.997235  0.671639  0.250000  1
  Nd  Nd1  1  0.002765  0.328361  0.750000  1
  Nd  Nd2  1  0.671639  0.997235  0.250000  1
  Nd  Nd3  1  0.328361  0.002765  0.750000  1
  Ga  Ga4  1  0.135303  0.135303  0.250000  1
  Ga  Ga5  1  0.864697  0.864697  0.750000  1
  Ga  Ga6  1  0.005358  0.340833  0.075009  1
  Ga  Ga7  1  0.994642  0.659167  0.924991  1
  Ga  Ga8  1  0.994642  0.659167  0.575009  1
  Ga  Ga9  1  0.340833  0.005358  0.424991  1
  Ga  Ga10  1  0.005358  0.340833  0.424991  1
  Ga  Ga11  1  0.659167  0.994642  0.575009  1
  Ga  Ga12  1  0.659167  0.994642  0.924991  1
  Ga  Ga13  1  0.340833  0.005358  0.075009  1
  Ga  Ga14  1  0.342852  0.342852  0.560218  1
  Ga  Ga15  1  0.657148  0.657148  0.439782  1
  Ga  Ga16  1  0.657148  0.657148  0.060218  1
  Ga  Ga17  1  0.342852  0.342852  0.939782  1
  Ga  Ga18  1  0.335207  0.547324  0.250000  1
  Ga  Ga19  1  0.664793  0.452676  0.750000  1
  Ga  Ga20  1  0.547324  0.335207  0.250000  1
  Ga  Ga21  1  0.452676  0.664793  0.750000  1
  Pd  Pd22  1  0.000000  0.000000  0.000000  1
  Pd  Pd23  1  0.000000  0.000000  0.500000  1
  Ru  Ru24  1  0.672985  0.327015  0.000000  1
  Ru  Ru25  1  0.327015  0.672985  0.000000  1
  Ru  Ru26  1  0.327015  0.672985  0.500000  1
  Ru  Ru27  1  0.672985  0.327015  0.500000  1
