# generated using pymatgen
data_Nd4B4Br5
_symmetry_space_group_name_H-M   'P 1'
_cell_length_a   9.31851719
_cell_length_b   9.31851868
_cell_length_c   19.36113886
_cell_angle_alpha   75.27207797
_cell_angle_beta   75.27207576
_cell_angle_gamma   26.62736897
_symmetry_Int_Tables_number   1
_chemical_formula_structural   Nd4B4Br5
_chemical_formula_sum   'Nd8 B8 Br10'
_cell_volume   727.33129921
_cell_formula_units_Z   2
loop_
 _symmetry_equiv_pos_site_id
 _symmetry_equiv_pos_as_xyz
  1  'x, y, z'
loop_
 _atom_site_type_symbol
 _atom_site_label
 _atom_site_symmetry_multiplicity
 _atom_site_fract_x
 _atom_site_fract_y
 _atom_site_fract_z
 _atom_site_occupancy
  Nd  Nd0  1  0.608661  0.608661  0.722619  1
  Nd  Nd1  1  0.391339  0.391339  0.277381  1
  Nd  Nd2  1  0.973848  0.973848  0.628464  1
  Nd  Nd3  1  0.026152  0.026152  0.371536  1
  Nd  Nd4  1  0.330027  0.330027  0.791492  1
  Nd  Nd5  1  0.669973  0.669973  0.208508  1
  Nd  Nd6  1  0.966427  0.966427  0.886254  1
  Nd  Nd7  1  0.033573  0.033573  0.113746  1
  B  B8  1  0.154780  0.784218  0.757507  1
  B  B9  1  0.215782  0.845220  0.242493  1
  B  B10  1  0.845220  0.215782  0.242493  1
  B  B11  1  0.784218  0.154780  0.757507  1
  B  B12  1  0.468838  0.468838  0.807229  1
  B  B13  1  0.531162  0.531162  0.192771  1
  B  B14  1  0.469079  0.469079  0.707963  1
  B  B15  1  0.530921  0.530921  0.292037  1
  Br  Br16  1  0.144461  0.144461  0.604444  1
  Br  Br17  1  0.855539  0.855539  0.395556  1
  Br  Br18  1  0.143744  0.143744  0.827063  1
  Br  Br19  1  0.856256  0.856256  0.172937  1
  Br  Br20  1  0.795308  0.795308  0.910221  1
  Br  Br21  1  0.204692  0.204692  0.089779  1
  Br  Br22  1  0.795830  0.795830  0.685626  1
  Br  Br23  1  0.204170  0.204170  0.314374  1
  Br  Br24  1  0.500000  0.500000  0.500000  1
  Br  Br25  1  0.500000  0.500000  0.000000  1
