# generated using pymatgen
data_TbYbHo5PtI12
_symmetry_space_group_name_H-M   'P 1'
_cell_length_a   9.77989623
_cell_length_b   9.77719334
_cell_length_c   9.78365051
_cell_angle_alpha   106.98898706
_cell_angle_beta   107.00758682
_cell_angle_gamma   106.96071305
_symmetry_Int_Tables_number   1
_chemical_formula_structural   TbYbHo5PtI12
_chemical_formula_sum   'Tb1 Yb1 Ho5 Pt1 I12'
_cell_volume   779.40567411
_cell_formula_units_Z   1
loop_
 _symmetry_equiv_pos_site_id
 _symmetry_equiv_pos_as_xyz
  1  'x, y, z'
loop_
 _atom_site_type_symbol
 _atom_site_label
 _atom_site_symmetry_multiplicity
 _atom_site_fract_x
 _atom_site_fract_y
 _atom_site_fract_z
 _atom_site_occupancy
  Tb  Tb0  1  0.401046  0.473030  0.197038  1
  Yb  Yb1  1  0.999982  0.999971  0.000028  1
  Ho  Ho2  1  0.199152  0.401751  0.473240  1
  Ho  Ho3  1  0.473015  0.199008  0.402157  1
  Ho  Ho4  1  0.598310  0.527081  0.801028  1
  Ho  Ho5  1  0.801079  0.598252  0.527496  1
  Ho  Ho6  1  0.527278  0.801180  0.598816  1
  Pt  Pt7  1  0.500160  0.500067  0.500450  1
  I  I8  1  0.038961  0.347288  0.117904  1
  I  I9  1  0.117821  0.040260  0.347707  1
  I  I10  1  0.347678  0.116676  0.040143  1
  I  I11  1  0.959785  0.652227  0.882179  1
  I  I12  1  0.882169  0.959744  0.652284  1
  I  I13  1  0.652251  0.882243  0.959774  1
  I  I14  1  0.724799  0.574008  0.178327  1
  I  I15  1  0.178070  0.723253  0.573525  1
  I  I16  1  0.573523  0.177928  0.723218  1
  I  I17  1  0.276334  0.426267  0.820817  1
  I  I18  1  0.821926  0.276747  0.426456  1
  I  I19  1  0.426664  0.823020  0.277414  1
