# generated using pymatgen
data_Pa(TiS2)3
_symmetry_space_group_name_H-M   'P 1'
_cell_length_a   6.03369394
_cell_length_b   6.03369392
_cell_length_c   6.53721533
_cell_angle_alpha   81.22898894
_cell_angle_beta   81.22899394
_cell_angle_gamma   120.25890270
_symmetry_Int_Tables_number   1
_chemical_formula_structural   Pa(TiS2)3
_chemical_formula_sum   'Pa1 Ti3 S6'
_cell_volume   195.69392812
_cell_formula_units_Z   1
loop_
 _symmetry_equiv_pos_site_id
 _symmetry_equiv_pos_as_xyz
  1  'x, y, z'
loop_
 _atom_site_type_symbol
 _atom_site_label
 _atom_site_symmetry_multiplicity
 _atom_site_fract_x
 _atom_site_fract_y
 _atom_site_fract_z
 _atom_site_occupancy
  Pa  Pa0  1  0.500000  0.500000  0.500000  1
  Ti  Ti1  1  0.676931  0.323069  0.000000  1
  Ti  Ti2  1  0.323069  0.676931  0.000000  1
  Ti  Ti3  1  0.000000  0.000000  0.000000  1
  S  S4  1  0.411249  0.069402  0.763799  1
  S  S5  1  0.069402  0.411249  0.763799  1
  S  S6  1  0.746750  0.746750  0.774618  1
  S  S7  1  0.588751  0.930598  0.236201  1
  S  S8  1  0.253250  0.253250  0.225382  1
  S  S9  1  0.930598  0.588751  0.236201  1
