# generated using pymatgen
data_Yb8Cu6PPd18
_symmetry_space_group_name_H-M   'P 1'
_cell_length_a   8.19444239
_cell_length_b   8.19444181
_cell_length_c   8.19444200
_cell_angle_alpha   89.90876097
_cell_angle_beta   89.90876097
_cell_angle_gamma   90.09124046
_symmetry_Int_Tables_number   1
_chemical_formula_structural   Yb8Cu6PPd18
_chemical_formula_sum   'Yb8 Cu6 P1 Pd18'
_cell_volume   550.24551838
_cell_formula_units_Z   1
loop_
 _symmetry_equiv_pos_site_id
 _symmetry_equiv_pos_as_xyz
  1  'x, y, z'
loop_
 _atom_site_type_symbol
 _atom_site_label
 _atom_site_symmetry_multiplicity
 _atom_site_fract_x
 _atom_site_fract_y
 _atom_site_fract_z
 _atom_site_occupancy
  Yb  Yb0  1  0.256643  0.256643  0.743357  1
  Yb  Yb1  1  0.249988  0.746604  0.253396  1
  Yb  Yb2  1  0.746604  0.249988  0.253396  1
  Yb  Yb3  1  0.746604  0.746604  0.750012  1
  Yb  Yb4  1  0.749101  0.749101  0.250899  1
  Yb  Yb5  1  0.744216  0.253522  0.746478  1
  Yb  Yb6  1  0.253522  0.744216  0.746478  1
  Yb  Yb7  1  0.253522  0.253522  0.255784  1
  Cu  Cu8  1  0.997812  0.496021  0.732352  1
  Cu  Cu9  1  0.496021  0.267648  0.002188  1
  Cu  Cu10  1  0.267648  0.997812  0.503979  1
  Cu  Cu11  1  0.997812  0.267648  0.503979  1
  Cu  Cu12  1  0.496021  0.997812  0.732352  1
  Cu  Cu13  1  0.267648  0.496021  0.002188  1
  P  P14  1  0.993176  0.993176  0.006824  1
  Pd  Pd15  1  0.496051  0.496051  0.753759  1
  Pd  Pd16  1  0.496051  0.246241  0.503949  1
  Pd  Pd17  1  0.246241  0.496051  0.503949  1
  Pd  Pd18  1  0.496036  0.496036  0.249910  1
  Pd  Pd19  1  0.496036  0.750090  0.503964  1
  Pd  Pd20  1  0.750090  0.496036  0.503964  1
  Pd  Pd21  1  0.011029  0.011029  0.719374  1
  Pd  Pd22  1  0.011029  0.280626  0.988971  1
  Pd  Pd23  1  0.280626  0.011029  0.988971  1
  Pd  Pd24  1  0.010387  0.010387  0.292900  1
  Pd  Pd25  1  0.010387  0.707100  0.989613  1
  Pd  Pd26  1  0.707100  0.010387  0.989613  1
  Pd  Pd27  1  0.001176  0.493206  0.258083  1
  Pd  Pd28  1  0.493206  0.741917  0.998824  1
  Pd  Pd29  1  0.001176  0.741917  0.506794  1
  Pd  Pd30  1  0.493206  0.001176  0.258083  1
  Pd  Pd31  1  0.741917  0.001176  0.506794  1
  Pd  Pd32  1  0.741917  0.493206  0.998824  1
