# generated using pymatgen
data_TcOsRu6
_symmetry_space_group_name_H-M   'P 1'
_cell_length_a   5.47094800
_cell_length_b   5.47094668
_cell_length_c   4.33211600
_cell_angle_alpha   90.00000000
_cell_angle_beta   90.00000000
_cell_angle_gamma   119.99999591
_symmetry_Int_Tables_number   1
_chemical_formula_structural   TcOsRu6
_chemical_formula_sum   'Tc1 Os1 Ru6'
_cell_volume   112.29380440
_cell_formula_units_Z   1
loop_
 _symmetry_equiv_pos_site_id
 _symmetry_equiv_pos_as_xyz
  1  'x, y, z'
loop_
 _atom_site_type_symbol
 _atom_site_label
 _atom_site_symmetry_multiplicity
 _atom_site_fract_x
 _atom_site_fract_y
 _atom_site_fract_z
 _atom_site_occupancy
  Tc  Tc0  1  0.666667  0.333333  0.250000  1
  Os  Os1  1  0.333333  0.666667  0.750000  1
  Ru  Ru2  1  0.833379  0.166621  0.750000  1
  Ru  Ru3  1  0.333241  0.166621  0.750000  1
  Ru  Ru4  1  0.833379  0.666759  0.750000  1
  Ru  Ru5  1  0.167693  0.832307  0.250000  1
  Ru  Ru6  1  0.664614  0.832307  0.250000  1
  Ru  Ru7  1  0.167693  0.335386  0.250000  1
