# generated using pymatgen
data_PrTmB6Ru
_symmetry_space_group_name_H-M   'P 1'
_cell_length_a   3.70884800
_cell_length_b   9.20926600
_cell_length_c   11.64999200
_cell_angle_alpha   90.00000000
_cell_angle_beta   90.00000000
_cell_angle_gamma   90.00000000
_symmetry_Int_Tables_number   1
_chemical_formula_structural   PrTmB6Ru
_chemical_formula_sum   'Pr4 Tm4 B24 Ru4'
_cell_volume   397.91442146
_cell_formula_units_Z   4
loop_
 _symmetry_equiv_pos_site_id
 _symmetry_equiv_pos_as_xyz
  1  'x, y, z'
loop_
 _atom_site_type_symbol
 _atom_site_label
 _atom_site_symmetry_multiplicity
 _atom_site_fract_x
 _atom_site_fract_y
 _atom_site_fract_z
 _atom_site_occupancy
  Pr  Pr0  1  0.000000  0.322862  0.414590  1
  Pr  Pr1  1  0.000000  0.677138  0.585410  1
  Pr  Pr2  1  0.000000  0.822862  0.085410  1
  Pr  Pr3  1  0.000000  0.177138  0.914590  1
  Tm  Tm4  1  0.000000  0.944304  0.371925  1
  Tm  Tm5  1  0.000000  0.055696  0.628075  1
  Tm  Tm6  1  0.000000  0.444304  0.128075  1
  Tm  Tm7  1  0.000000  0.555696  0.871925  1
  B  B8  1  0.500000  0.557138  0.429596  1
  B  B9  1  0.500000  0.442862  0.570404  1
  B  B10  1  0.500000  0.057138  0.070404  1
  B  B11  1  0.500000  0.942862  0.929596  1
  B  B12  1  0.500000  0.750739  0.416740  1
  B  B13  1  0.500000  0.249261  0.583260  1
  B  B14  1  0.500000  0.250739  0.083260  1
  B  B15  1  0.500000  0.749261  0.916740  1
  B  B16  1  0.500000  0.791142  0.266701  1
  B  B17  1  0.500000  0.208858  0.733299  1
  B  B18  1  0.500000  0.291142  0.233299  1
  B  B19  1  0.500000  0.708858  0.766701  1
  B  B20  1  0.500000  0.630329  0.184773  1
  B  B21  1  0.500000  0.369671  0.815227  1
  B  B22  1  0.500000  0.130329  0.315227  1
  B  B23  1  0.500000  0.869671  0.684773  1
  B  B24  1  0.500000  0.985992  0.214675  1
  B  B25  1  0.500000  0.014008  0.785325  1
  B  B26  1  0.500000  0.485992  0.285325  1
  B  B27  1  0.500000  0.514008  0.714675  1
  B  B28  1  0.500000  0.600851  0.027423  1
  B  B29  1  0.500000  0.399149  0.972577  1
  B  B30  1  0.500000  0.100851  0.472577  1
  B  B31  1  0.500000  0.899149  0.527423  1
  Ru  Ru32  1  0.000000  0.640216  0.318630  1
  Ru  Ru33  1  0.000000  0.359784  0.681370  1
  Ru  Ru34  1  0.000000  0.140216  0.181370  1
  Ru  Ru35  1  0.000000  0.859784  0.818630  1
