# generated using pymatgen
data_Er8Sc12Si15B
_symmetry_space_group_name_H-M   'P 1'
_cell_length_a   7.00197500
_cell_length_b   7.35121658
_cell_length_c   13.89335600
_cell_angle_alpha   90.00000000
_cell_angle_beta   90.00000000
_cell_angle_gamma   89.42157952
_symmetry_Int_Tables_number   1
_chemical_formula_structural   Er8Sc12Si15B
_chemical_formula_sum   'Er8 Sc12 Si15 B1'
_cell_volume   715.09675461
_cell_formula_units_Z   1
loop_
 _symmetry_equiv_pos_site_id
 _symmetry_equiv_pos_as_xyz
  1  'x, y, z'
loop_
 _atom_site_type_symbol
 _atom_site_label
 _atom_site_symmetry_multiplicity
 _atom_site_fract_x
 _atom_site_fract_y
 _atom_site_fract_z
 _atom_site_occupancy
  Er  Er0  1  0.010123  0.178255  0.096679  1
  Er  Er1  1  0.988488  0.828953  0.902727  1
  Er  Er2  1  0.488862  0.678391  0.901959  1
  Er  Er3  1  0.988488  0.828953  0.597273  1
  Er  Er4  1  0.511442  0.324565  0.095255  1
  Er  Er5  1  0.010123  0.178255  0.403321  1
  Er  Er6  1  0.511442  0.324565  0.404745  1
  Er  Er7  1  0.488862  0.678391  0.598041  1
  Sc  Sc8  1  0.167040  0.510270  0.750000  1
  Sc  Sc9  1  0.838502  0.497268  0.250000  1
  Sc  Sc10  1  0.338166  0.003587  0.250000  1
  Sc  Sc11  1  0.673066  0.997388  0.750000  1
  Sc  Sc12  1  0.314715  0.174345  0.629373  1
  Sc  Sc13  1  0.669228  0.823347  0.375680  1
  Sc  Sc14  1  0.168288  0.677058  0.375748  1
  Sc  Sc15  1  0.669228  0.823347  0.124320  1
  Sc  Sc16  1  0.849098  0.310023  0.632065  1
  Sc  Sc17  1  0.314715  0.174345  0.870627  1
  Sc  Sc18  1  0.849098  0.310023  0.867935  1
  Sc  Sc19  1  0.168288  0.677058  0.124252  1
  Si  Si20  1  0.966442  0.883852  0.250000  1
  Si  Si21  1  0.467265  0.615683  0.250000  1
  Si  Si22  1  0.538151  0.380832  0.750000  1
  Si  Si23  1  0.267917  0.884831  0.750000  1
  Si  Si24  1  0.711992  0.129790  0.250000  1
  Si  Si25  1  0.214567  0.371919  0.250000  1
  Si  Si26  1  0.787500  0.623843  0.750000  1
  Si  Si27  1  0.159635  0.467045  0.539979  1
  Si  Si28  1  0.839378  0.534416  0.465004  1
  Si  Si29  1  0.339353  0.964889  0.463057  1
  Si  Si30  1  0.839378  0.534416  0.034996  1
  Si  Si31  1  0.655056  0.037525  0.540819  1
  Si  Si32  1  0.159635  0.467045  0.960021  1
  Si  Si33  1  0.655056  0.037525  0.959181  1
  Si  Si34  1  0.339353  0.964889  0.036943  1
  B  B35  1  0.042058  0.103115  0.750000  1
