# generated using pymatgen
data_Yb3DyCdRu
_symmetry_space_group_name_H-M   'P 1'
_cell_length_a   9.80444933
_cell_length_b   9.80444900
_cell_length_c   9.80444900
_cell_angle_alpha   59.99999661
_cell_angle_beta   59.99999775
_cell_angle_gamma   60.00000126
_symmetry_Int_Tables_number   1
_chemical_formula_structural   Yb3DyCdRu
_chemical_formula_sum   'Yb12 Dy4 Cd4 Ru4'
_cell_volume   666.43005940
_cell_formula_units_Z   4
loop_
 _symmetry_equiv_pos_site_id
 _symmetry_equiv_pos_as_xyz
  1  'x, y, z'
loop_
 _atom_site_type_symbol
 _atom_site_label
 _atom_site_symmetry_multiplicity
 _atom_site_fract_x
 _atom_site_fract_y
 _atom_site_fract_z
 _atom_site_occupancy
  Yb  Yb0  1  0.805582  0.194418  0.194418  1
  Yb  Yb1  1  0.194418  0.805582  0.805582  1
  Yb  Yb2  1  0.194418  0.805582  0.194418  1
  Yb  Yb3  1  0.805582  0.194418  0.805582  1
  Yb  Yb4  1  0.194418  0.194418  0.805582  1
  Yb  Yb5  1  0.805582  0.805582  0.194418  1
  Yb  Yb6  1  0.951607  0.548393  0.548393  1
  Yb  Yb7  1  0.548393  0.951607  0.951607  1
  Yb  Yb8  1  0.548393  0.951607  0.548393  1
  Yb  Yb9  1  0.951607  0.548393  0.951607  1
  Yb  Yb10  1  0.548393  0.548393  0.951607  1
  Yb  Yb11  1  0.951607  0.951607  0.548393  1
  Dy  Dy12  1  0.339457  0.339457  0.339457  1
  Dy  Dy13  1  0.339457  0.339457  0.981631  1
  Dy  Dy14  1  0.339457  0.981631  0.339457  1
  Dy  Dy15  1  0.981631  0.339457  0.339457  1
  Cd  Cd16  1  0.579977  0.579977  0.579977  1
  Cd  Cd17  1  0.579977  0.579977  0.260072  1
  Cd  Cd18  1  0.579977  0.260072  0.579977  1
  Cd  Cd19  1  0.260072  0.579977  0.579977  1
  Ru  Ru20  1  0.138277  0.138277  0.138277  1
  Ru  Ru21  1  0.138277  0.138277  0.585170  1
  Ru  Ru22  1  0.138277  0.585170  0.138277  1
  Ru  Ru23  1  0.585170  0.138277  0.138277  1
