# generated using pymatgen
data_Tb3DyP7Ir8
_symmetry_space_group_name_H-M   'P 1'
_cell_length_a   3.95432100
_cell_length_b   12.68821700
_cell_length_c   13.12649047
_cell_angle_alpha   80.89180617
_cell_angle_beta   90.00000000
_cell_angle_gamma   90.00000000
_symmetry_Int_Tables_number   1
_chemical_formula_structural   Tb3DyP7Ir8
_chemical_formula_sum   'Tb6 Dy2 P14 Ir16'
_cell_volume   650.29496164
_cell_formula_units_Z   2
loop_
 _symmetry_equiv_pos_site_id
 _symmetry_equiv_pos_as_xyz
  1  'x, y, z'
loop_
 _atom_site_type_symbol
 _atom_site_label
 _atom_site_symmetry_multiplicity
 _atom_site_fract_x
 _atom_site_fract_y
 _atom_site_fract_z
 _atom_site_occupancy
  Tb  Tb0  1  0.250000  0.102382  0.789996  1
  Tb  Tb1  1  0.750000  0.897618  0.210004  1
  Tb  Tb2  1  0.250000  0.279405  0.102015  1
  Tb  Tb3  1  0.750000  0.720595  0.897985  1
  Tb  Tb4  1  0.250000  0.520345  0.293787  1
  Tb  Tb5  1  0.750000  0.479655  0.706213  1
  Dy  Dy6  1  0.250000  0.209099  0.437840  1
  Dy  Dy7  1  0.750000  0.790901  0.562160  1
  P  P8  1  0.250000  0.051853  0.100238  1
  P  P9  1  0.750000  0.948147  0.899762  1
  P  P10  1  0.250000  0.312138  0.688784  1
  P  P11  1  0.750000  0.687862  0.311216  1
  P  P12  1  0.250000  0.607886  0.566812  1
  P  P13  1  0.750000  0.392114  0.433188  1
  P  P14  1  0.250000  0.843791  0.717750  1
  P  P15  1  0.750000  0.156209  0.282250  1
  P  P16  1  0.750000  0.258060  0.919810  1
  P  P17  1  0.250000  0.741940  0.080190  1
  P  P18  1  0.750000  0.093345  0.587956  1
  P  P19  1  0.250000  0.906655  0.412044  1
  P  P20  1  0.750000  0.472265  0.129242  1
  P  P21  1  0.250000  0.527735  0.870758  1
  Ir  Ir22  1  0.250000  0.990903  0.576067  1
  Ir  Ir23  1  0.750000  0.009097  0.423933  1
  Ir  Ir24  1  0.250000  0.663103  0.731130  1
  Ir  Ir25  1  0.750000  0.336897  0.268870  1
  Ir  Ir26  1  0.250000  0.555258  0.044631  1
  Ir  Ir27  1  0.750000  0.444742  0.955369  1
  Ir  Ir28  1  0.250000  0.059733  0.272888  1
  Ir  Ir29  1  0.750000  0.940267  0.727112  1
  Ir  Ir30  1  0.250000  0.421743  0.523515  1
  Ir  Ir31  1  0.750000  0.578257  0.476485  1
  Ir  Ir32  1  0.250000  0.914959  0.997606  1
  Ir  Ir33  1  0.750000  0.085041  0.002394  1
  Ir  Ir34  1  0.250000  0.729079  0.395581  1
  Ir  Ir35  1  0.750000  0.270921  0.604419  1
  Ir  Ir36  1  0.250000  0.341720  0.857855  1
  Ir  Ir37  1  0.750000  0.658280  0.142145  1
