# generated using pymatgen
data_Hf4ZnCo2Si4Ir
_symmetry_space_group_name_H-M   'P 1'
_cell_length_a   3.84276100
_cell_length_b   6.48770602
_cell_length_c   7.35827313
_cell_angle_alpha   88.36166641
_cell_angle_beta   90.00000000
_cell_angle_gamma   90.00000000
_symmetry_Int_Tables_number   1
_chemical_formula_structural   Hf4ZnCo2Si4Ir
_chemical_formula_sum   'Hf4 Zn1 Co2 Si4 Ir1'
_cell_volume   183.37193555
_cell_formula_units_Z   1
loop_
 _symmetry_equiv_pos_site_id
 _symmetry_equiv_pos_as_xyz
  1  'x, y, z'
loop_
 _atom_site_type_symbol
 _atom_site_label
 _atom_site_symmetry_multiplicity
 _atom_site_fract_x
 _atom_site_fract_y
 _atom_site_fract_z
 _atom_site_occupancy
  Hf  Hf0  1  0.250000  0.023706  0.324352  1
  Hf  Hf1  1  0.250000  0.521574  0.192691  1
  Hf  Hf2  1  0.750000  0.988978  0.673752  1
  Hf  Hf3  1  0.750000  0.476001  0.809738  1
  Zn  Zn4  1  0.750000  0.843965  0.065296  1
  Co  Co5  1  0.250000  0.639434  0.559980  1
  Co  Co6  1  0.750000  0.359079  0.437349  1
  Si  Si7  1  0.250000  0.282532  0.605762  1
  Si  Si8  1  0.250000  0.763104  0.859356  1
  Si  Si9  1  0.750000  0.719617  0.402837  1
  Si  Si10  1  0.750000  0.243622  0.128802  1
  Ir  Ir11  1  0.250000  0.138389  0.940082  1
