# generated using pymatgen
data_Pr3Nd(Ga5Pt3)4
_symmetry_space_group_name_H-M   'P 1'
_cell_length_a   4.16021800
_cell_length_b   7.39620102
_cell_length_c   21.19630005
_cell_angle_alpha   90.00804237
_cell_angle_beta   90.00000000
_cell_angle_gamma   90.00000000
_symmetry_Int_Tables_number   1
_chemical_formula_structural   Pr3Nd(Ga5Pt3)4
_chemical_formula_sum   'Pr3 Nd1 Ga20 Pt12'
_cell_volume   652.20608937
_cell_formula_units_Z   1
loop_
 _symmetry_equiv_pos_site_id
 _symmetry_equiv_pos_as_xyz
  1  'x, y, z'
loop_
 _atom_site_type_symbol
 _atom_site_label
 _atom_site_symmetry_multiplicity
 _atom_site_fract_x
 _atom_site_fract_y
 _atom_site_fract_z
 _atom_site_occupancy
  Pr  Pr0  1  0.250000  0.117715  0.641574  1
  Pr  Pr1  1  0.750000  0.882273  0.358436  1
  Pr  Pr2  1  0.250000  0.382291  0.141520  1
  Nd  Nd3  1  0.750000  0.617575  0.858467  1
  Ga  Ga4  1  0.750000  0.352756  0.382953  1
  Ga  Ga5  1  0.750000  0.882771  0.982727  1
  Ga  Ga6  1  0.750000  0.682011  0.200000  1
  Ga  Ga7  1  0.250000  0.870554  0.489629  1
  Ga  Ga8  1  0.250000  0.629480  0.989508  1
  Ga  Ga9  1  0.250000  0.318443  0.800128  1
  Ga  Ga10  1  0.750000  0.078004  0.206319  1
  Ga  Ga11  1  0.250000  0.647205  0.617160  1
  Ga  Ga12  1  0.250000  0.578010  0.293647  1
  Ga  Ga13  1  0.250000  0.182069  0.299999  1
  Ga  Ga14  1  0.750000  0.147458  0.882965  1
  Ga  Ga15  1  0.250000  0.921712  0.793720  1
  Ga  Ga16  1  0.750000  0.370665  0.010327  1
  Ga  Ga17  1  0.750000  0.616857  0.482853  1
  Ga  Ga18  1  0.750000  0.129434  0.510386  1
  Ga  Ga19  1  0.250000  0.116930  0.016991  1
  Ga  Ga20  1  0.250000  0.852807  0.117029  1
  Ga  Ga21  1  0.250000  0.383134  0.517163  1
  Ga  Ga22  1  0.750000  0.422093  0.706448  1
  Ga  Ga23  1  0.750000  0.817894  0.700054  1
  Pt  Pt24  1  0.750000  0.383000  0.262838  1
  Pt  Pt25  1  0.250000  0.883015  0.237152  1
  Pt  Pt26  1  0.250000  0.617017  0.737439  1
  Pt  Pt27  1  0.750000  0.116993  0.762877  1
  Pt  Pt28  1  0.250000  0.165139  0.425297  1
  Pt  Pt29  1  0.750000  0.425002  0.585488  1
  Pt  Pt30  1  0.750000  0.074976  0.085382  1
  Pt  Pt31  1  0.250000  0.924202  0.914415  1
  Pt  Pt32  1  0.750000  0.834829  0.574718  1
  Pt  Pt33  1  0.250000  0.335441  0.925142  1
  Pt  Pt34  1  0.750000  0.665192  0.074699  1
  Pt  Pt35  1  0.250000  0.575052  0.414549  1
