# generated using pymatgen
data_DyNi3BPt
_symmetry_space_group_name_H-M   'P 1'
_cell_length_a   5.06749800
_cell_length_b   5.06658264
_cell_length_c   7.16021500
_cell_angle_alpha   90.00000000
_cell_angle_beta   90.00000000
_cell_angle_gamma   120.00597659
_symmetry_Int_Tables_number   1
_chemical_formula_structural   DyNi3BPt
_chemical_formula_sum   'Dy2 Ni6 B2 Pt2'
_cell_volume   159.19860326
_cell_formula_units_Z   2
loop_
 _symmetry_equiv_pos_site_id
 _symmetry_equiv_pos_as_xyz
  1  'x, y, z'
loop_
 _atom_site_type_symbol
 _atom_site_label
 _atom_site_symmetry_multiplicity
 _atom_site_fract_x
 _atom_site_fract_y
 _atom_site_fract_z
 _atom_site_occupancy
  Dy  Dy0  1  0.500000  0.000000  0.000000  1
  Dy  Dy1  1  0.500000  0.000000  0.500000  1
  Ni  Ni2  1  0.000000  0.000000  0.695000  1
  Ni  Ni3  1  0.500000  0.500000  0.695017  1
  Ni  Ni4  1  0.000000  0.500000  0.695017  1
  Ni  Ni5  1  0.000000  0.000000  0.305000  1
  Ni  Ni6  1  0.500000  0.500000  0.304983  1
  Ni  Ni7  1  0.000000  0.500000  0.304983  1
  B  B8  1  0.833325  0.666649  0.500000  1
  B  B9  1  0.166675  0.333351  0.500000  1
  Pt  Pt10  1  0.833376  0.666753  0.000000  1
  Pt  Pt11  1  0.166624  0.333247  0.000000  1
