# generated using pymatgen
data_Ce4YSi2Ir
_symmetry_space_group_name_H-M   'P 1'
_cell_length_a   8.37328764
_cell_length_b   8.37328586
_cell_length_c   8.37328700
_cell_angle_alpha   124.48126785
_cell_angle_beta   124.48994290
_cell_angle_gamma   82.39179668
_symmetry_Int_Tables_number   1
_chemical_formula_structural   Ce4YSi2Ir
_chemical_formula_sum   'Ce8 Y2 Si4 Ir2'
_cell_volume   383.25946024
_cell_formula_units_Z   2
loop_
 _symmetry_equiv_pos_site_id
 _symmetry_equiv_pos_as_xyz
  1  'x, y, z'
loop_
 _atom_site_type_symbol
 _atom_site_label
 _atom_site_symmetry_multiplicity
 _atom_site_fract_x
 _atom_site_fract_y
 _atom_site_fract_z
 _atom_site_occupancy
  Ce  Ce0  1  0.523821  0.667485  0.494161  1
  Ce  Ce1  1  0.826676  0.970340  0.494161  1
  Ce  Ce2  1  0.326676  0.832515  0.856336  1
  Ce  Ce3  1  0.480940  0.323749  0.494926  1
  Ce  Ce4  1  0.171178  0.013986  0.494926  1
  Ce  Ce5  1  0.980940  0.486014  0.157191  1
  Ce  Ce6  1  0.671178  0.176251  0.157191  1
  Ce  Ce7  1  0.023821  0.529660  0.856336  1
  Y  Y8  1  0.496691  0.499555  0.996246  1
  Y  Y9  1  0.996691  0.000445  0.997137  1
  Si  Si10  1  0.620866  0.122051  0.742917  1
  Si  Si11  1  0.120866  0.377949  0.498816  1
  Si  Si12  1  0.243836  0.250000  0.993836  1
  Si  Si13  1  0.743836  0.750000  0.993836  1
  Ir  Ir14  1  0.885990  0.615751  0.501742  1
  Ir  Ir15  1  0.385990  0.884249  0.270239  1
