# generated using pymatgen
data_LaYb(TmSe2)4
_symmetry_space_group_name_H-M   'P 1'
_cell_length_a   4.03349800
_cell_length_b   13.42140200
_cell_length_c   13.72084800
_cell_angle_alpha   90.00000000
_cell_angle_beta   90.00000000
_cell_angle_gamma   90.00000000
_symmetry_Int_Tables_number   1
_chemical_formula_structural   LaYb(TmSe2)4
_chemical_formula_sum   'La2 Yb2 Tm8 Se16'
_cell_volume   742.78082491
_cell_formula_units_Z   2
loop_
 _symmetry_equiv_pos_site_id
 _symmetry_equiv_pos_as_xyz
  1  'x, y, z'
loop_
 _atom_site_type_symbol
 _atom_site_label
 _atom_site_symmetry_multiplicity
 _atom_site_fract_x
 _atom_site_fract_y
 _atom_site_fract_z
 _atom_site_occupancy
  La  La0  1  0.250000  0.369634  0.584537  1
  La  La1  1  0.250000  0.869634  0.915463  1
  Yb  Yb2  1  0.750000  0.631558  0.415362  1
  Yb  Yb3  1  0.750000  0.131558  0.084638  1
  Tm  Tm4  1  0.250000  0.106852  0.417425  1
  Tm  Tm5  1  0.250000  0.606852  0.082575  1
  Tm  Tm6  1  0.750000  0.892704  0.578809  1
  Tm  Tm7  1  0.750000  0.392704  0.921191  1
  Tm  Tm8  1  0.250000  0.148214  0.798375  1
  Tm  Tm9  1  0.250000  0.648214  0.701625  1
  Tm  Tm10  1  0.750000  0.850827  0.203794  1
  Tm  Tm11  1  0.750000  0.350827  0.296206  1
  Se  Se12  1  0.250000  0.213922  0.236450  1
  Se  Se13  1  0.250000  0.713922  0.263550  1
  Se  Se14  1  0.750000  0.785609  0.762263  1
  Se  Se15  1  0.750000  0.285609  0.737737  1
  Se  Se16  1  0.250000  0.256031  0.975063  1
  Se  Se17  1  0.250000  0.756031  0.524937  1
  Se  Se18  1  0.750000  0.741730  0.026940  1
  Se  Se19  1  0.750000  0.241730  0.473060  1
  Se  Se20  1  0.250000  0.470034  0.381823  1
  Se  Se21  1  0.250000  0.970034  0.118177  1
  Se  Se22  1  0.750000  0.534040  0.616834  1
  Se  Se23  1  0.750000  0.034040  0.883166  1
  Se  Se24  1  0.250000  0.035012  0.619054  1
  Se  Se25  1  0.250000  0.535012  0.880946  1
  Se  Se26  1  0.750000  0.963833  0.380845  1
  Se  Se27  1  0.750000  0.463833  0.119155  1
