# generated using pymatgen
data_Hf3Mo(SeO3)8
_symmetry_space_group_name_H-M   'P 1'
_cell_length_a   8.58604542
_cell_length_b   8.58604493
_cell_length_c   8.58604449
_cell_angle_alpha   89.82860612
_cell_angle_beta   90.17138965
_cell_angle_gamma   89.82860404
_symmetry_Int_Tables_number   1
_chemical_formula_structural   Hf3Mo(SeO3)8
_chemical_formula_sum   'Hf3 Mo1 Se8 O24'
_cell_volume   632.95616151
_cell_formula_units_Z   1
loop_
 _symmetry_equiv_pos_site_id
 _symmetry_equiv_pos_as_xyz
  1  'x, y, z'
loop_
 _atom_site_type_symbol
 _atom_site_label
 _atom_site_symmetry_multiplicity
 _atom_site_fract_x
 _atom_site_fract_y
 _atom_site_fract_z
 _atom_site_occupancy
  Hf  Hf0  1  0.500000  0.500000  0.000000  1
  Hf  Hf1  1  0.500000  0.000000  0.500000  1
  Hf  Hf2  1  0.000000  0.000000  0.000000  1
  Mo  Mo3  1  0.000000  0.500000  0.500000  1
  Se  Se4  1  0.822491  0.195915  0.677608  1
  Se  Se5  1  0.177509  0.804085  0.322392  1
  Se  Se6  1  0.695915  0.677608  0.677509  1
  Se  Se7  1  0.177608  0.677509  0.804085  1
  Se  Se8  1  0.315452  0.184548  0.815452  1
  Se  Se9  1  0.822392  0.322491  0.195915  1
  Se  Se10  1  0.684548  0.815452  0.184548  1
  Se  Se11  1  0.304085  0.322392  0.322491  1
  O  O12  1  0.232746  0.452733  0.460969  1
  O  O13  1  0.946607  0.223528  0.074690  1
  O  O14  1  0.039031  0.732746  0.452733  1
  O  O15  1  0.454112  0.273969  0.929284  1
  O  O16  1  0.276472  0.925310  0.446607  1
  O  O17  1  0.574690  0.553393  0.776472  1
  O  O18  1  0.935863  0.061249  0.774620  1
  O  O19  1  0.545888  0.726031  0.070716  1
  O  O20  1  0.570716  0.954112  0.273969  1
  O  O21  1  0.429284  0.045888  0.726031  1
  O  O22  1  0.773969  0.929284  0.045888  1
  O  O23  1  0.274620  0.564137  0.938751  1
  O  O24  1  0.047267  0.539031  0.732746  1
  O  O25  1  0.064137  0.938751  0.225380  1
  O  O26  1  0.226031  0.070716  0.954112  1
  O  O27  1  0.425310  0.446607  0.223528  1
  O  O28  1  0.767254  0.547267  0.539031  1
  O  O29  1  0.952733  0.460969  0.267254  1
  O  O30  1  0.053393  0.776472  0.925310  1
  O  O31  1  0.438751  0.225380  0.435863  1
  O  O32  1  0.561249  0.774620  0.564137  1
  O  O33  1  0.960969  0.267254  0.547267  1
  O  O34  1  0.723528  0.074690  0.553393  1
  O  O35  1  0.725380  0.435863  0.061249  1
