# generated using pymatgen
data_Rb4Mn3TcN8
_symmetry_space_group_name_H-M   'P 1'
_cell_length_a   5.78546604
_cell_length_b   8.22641763
_cell_length_c   11.56549059
_cell_angle_alpha   90.06355218
_cell_angle_beta   90.00784863
_cell_angle_gamma   90.00885367
_symmetry_Int_Tables_number   1
_chemical_formula_structural   Rb4Mn3TcN8
_chemical_formula_sum   'Rb8 Mn6 Tc2 N16'
_cell_volume   550.44367410
_cell_formula_units_Z   2
loop_
 _symmetry_equiv_pos_site_id
 _symmetry_equiv_pos_as_xyz
  1  'x, y, z'
loop_
 _atom_site_type_symbol
 _atom_site_label
 _atom_site_symmetry_multiplicity
 _atom_site_fract_x
 _atom_site_fract_y
 _atom_site_fract_z
 _atom_site_occupancy
  Rb  Rb0  1  0.749814  0.129037  0.000324  1
  Rb  Rb1  1  0.250167  0.870916  0.499678  1
  Rb  Rb2  1  0.249805  0.892973  0.999693  1
  Rb  Rb3  1  0.750207  0.107014  0.500245  1
  Rb  Rb4  1  0.742984  0.369335  0.261229  1
  Rb  Rb5  1  0.242964  0.630686  0.238779  1
  Rb  Rb6  1  0.257061  0.630613  0.760684  1
  Rb  Rb7  1  0.757080  0.369317  0.739282  1
  Mn  Mn8  1  0.249879  0.360053  0.999953  1
  Mn  Mn9  1  0.750119  0.639962  0.500056  1
  Mn  Mn10  1  0.245865  0.118279  0.246086  1
  Mn  Mn11  1  0.745860  0.881738  0.253916  1
  Mn  Mn12  1  0.754116  0.881681  0.746545  1
  Mn  Mn13  1  0.254146  0.118314  0.753469  1
  Tc  Tc14  1  0.749931  0.622006  0.000058  1
  Tc  Tc15  1  0.250065  0.378034  0.499947  1
  N  N16  1  0.993602  0.002371  0.249664  1
  N  N17  1  0.493682  0.997618  0.250306  1
  N  N18  1  0.006316  0.997620  0.749655  1
  N  N19  1  0.506389  0.002382  0.750317  1
  N  N20  1  0.248690  0.250007  0.369248  1
  N  N21  1  0.748840  0.749972  0.130800  1
  N  N22  1  0.751243  0.750336  0.869644  1
  N  N23  1  0.251195  0.249740  0.630371  1
  N  N24  1  0.750436  0.761946  0.622531  1
  N  N25  1  0.250406  0.238024  0.877502  1
  N  N26  1  0.249561  0.237698  0.122083  1
  N  N27  1  0.749559  0.762307  0.377913  1
  N  N28  1  0.507242  0.512110  0.499824  1
  N  N29  1  0.006831  0.487732  0.000144  1
  N  N30  1  0.492827  0.487884  0.999838  1
  N  N31  1  0.993118  0.512296  0.500212  1
