# generated using pymatgen
data_Lu10Ga3SiSb2
_symmetry_space_group_name_H-M   'P 1'
_cell_length_a   8.50151707
_cell_length_b   8.50151685
_cell_length_c   6.31567200
_cell_angle_alpha   90.00000000
_cell_angle_beta   90.00000000
_cell_angle_gamma   120.15790022
_symmetry_Int_Tables_number   1
_chemical_formula_structural   Lu10Ga3SiSb2
_chemical_formula_sum   'Lu10 Ga3 Si1 Sb2'
_cell_volume   394.68428942
_cell_formula_units_Z   1
loop_
 _symmetry_equiv_pos_site_id
 _symmetry_equiv_pos_as_xyz
  1  'x, y, z'
loop_
 _atom_site_type_symbol
 _atom_site_label
 _atom_site_symmetry_multiplicity
 _atom_site_fract_x
 _atom_site_fract_y
 _atom_site_fract_z
 _atom_site_occupancy
  Lu  Lu0  1  0.655943  0.335991  0.007807  1
  Lu  Lu1  1  0.335991  0.655943  0.007807  1
  Lu  Lu2  1  0.335991  0.655943  0.492193  1
  Lu  Lu3  1  0.655943  0.335991  0.492193  1
  Lu  Lu4  1  0.754426  0.754426  0.750000  1
  Lu  Lu5  1  0.241181  0.014039  0.750000  1
  Lu  Lu6  1  0.014039  0.241181  0.750000  1
  Lu  Lu7  1  0.239192  0.239192  0.250000  1
  Lu  Lu8  1  0.761241  0.001379  0.250000  1
  Lu  Lu9  1  0.001379  0.761241  0.250000  1
  Ga  Ga10  1  0.607678  0.607678  0.250000  1
  Ga  Ga11  1  0.393823  0.996820  0.250000  1
  Ga  Ga12  1  0.996820  0.393823  0.250000  1
  Si  Si13  1  0.399548  0.399548  0.750000  1
  Sb  Sb14  1  0.604399  0.002407  0.750000  1
  Sb  Sb15  1  0.002407  0.604399  0.750000  1
