# generated using pymatgen
data_Th3Np(NiB10)2
_symmetry_space_group_name_H-M   'P 1'
_cell_length_a   4.15423100
_cell_length_b   5.60572653
_cell_length_c   11.13258185
_cell_angle_alpha   90.21110417
_cell_angle_beta   90.00000000
_cell_angle_gamma   90.00000000
_symmetry_Int_Tables_number   1
_chemical_formula_structural   Th3Np(NiB10)2
_chemical_formula_sum   'Th3 Np1 Ni2 B20'
_cell_volume   259.24805023
_cell_formula_units_Z   1
loop_
 _symmetry_equiv_pos_site_id
 _symmetry_equiv_pos_as_xyz
  1  'x, y, z'
loop_
 _atom_site_type_symbol
 _atom_site_label
 _atom_site_symmetry_multiplicity
 _atom_site_fract_x
 _atom_site_fract_y
 _atom_site_fract_z
 _atom_site_occupancy
  Th  Th0  1  0.500000  0.690613  0.133286  1
  Th  Th1  1  0.500000  0.810037  0.640312  1
  Th  Th2  1  0.500000  0.192562  0.362660  1
  Np  Np3  1  0.500000  0.316708  0.860021  1
  Ni  Ni4  1  0.000000  0.500524  0.500744  1
  Ni  Ni5  1  0.000000  0.998132  0.999769  1
  B  B6  1  0.000000  0.125856  0.542000  1
  B  B7  1  0.000000  0.875692  0.459726  1
  B  B8  1  0.000000  0.619742  0.958082  1
  B  B9  1  0.000000  0.369030  0.036054  1
  B  B10  1  0.000000  0.155979  0.700656  1
  B  B11  1  0.000000  0.846167  0.302422  1
  B  B12  1  0.301343  0.199493  0.111567  1
  B  B13  1  0.301787  0.797898  0.886768  1
  B  B14  1  0.699266  0.700599  0.386178  1
  B  B15  1  0.698681  0.298909  0.616667  1
  B  B16  1  0.698213  0.797898  0.886768  1
  B  B17  1  0.698657  0.199493  0.111567  1
  B  B18  1  0.301319  0.298909  0.616667  1
  B  B19  1  0.300734  0.700599  0.386178  1
  B  B20  1  0.000000  0.034387  0.187899  1
  B  B21  1  0.000000  0.970218  0.814540  1
  B  B22  1  0.000000  0.534404  0.311033  1
  B  B23  1  0.000000  0.466446  0.689964  1
  B  B24  1  0.000000  0.345686  0.195454  1
  B  B25  1  0.000000  0.654018  0.803020  1
