# generated using pymatgen
data_La3Pr13(DySi4)4
_symmetry_space_group_name_H-M   'P 1'
_cell_length_a   7.85481654
_cell_length_b   7.85360433
_cell_length_c   15.39208852
_cell_angle_alpha   90.00966151
_cell_angle_beta   89.97176868
_cell_angle_gamma   90.03189455
_symmetry_Int_Tables_number   1
_chemical_formula_structural   La3Pr13(DySi4)4
_chemical_formula_sum   'La3 Pr13 Dy4 Si16'
_cell_volume   949.51644287
_cell_formula_units_Z   1
loop_
 _symmetry_equiv_pos_site_id
 _symmetry_equiv_pos_as_xyz
  1  'x, y, z'
loop_
 _atom_site_type_symbol
 _atom_site_label
 _atom_site_symmetry_multiplicity
 _atom_site_fract_x
 _atom_site_fract_y
 _atom_site_fract_z
 _atom_site_occupancy
  La  La0  1  0.377419  0.013811  0.445564  1
  La  La1  1  0.486287  0.877420  0.695664  1
  La  La2  1  0.514052  0.122628  0.195272  1
  Pr  Pr3  1  0.879167  0.487007  0.304948  1
  Pr  Pr4  1  0.120959  0.512712  0.805043  1
  Pr  Pr5  1  0.621528  0.987162  0.945214  1
  Pr  Pr6  1  0.012955  0.379238  0.555050  1
  Pr  Pr7  1  0.986657  0.621075  0.054820  1
  Pr  Pr8  1  0.124728  0.976138  0.878895  1
  Pr  Pr9  1  0.524243  0.625220  0.128536  1
  Pr  Pr10  1  0.476162  0.374928  0.628777  1
  Pr  Pr11  1  0.625402  0.524367  0.871278  1
  Pr  Pr12  1  0.374865  0.475976  0.371140  1
  Pr  Pr13  1  0.875071  0.023838  0.378741  1
  Pr  Pr14  1  0.975797  0.124828  0.120971  1
  Pr  Pr15  1  0.023993  0.874865  0.621194  1
  Dy  Dy16  1  0.309549  0.309825  0.000036  1
  Dy  Dy17  1  0.189794  0.809181  0.250053  1
  Dy  Dy18  1  0.809904  0.190681  0.750144  1
  Dy  Dy19  1  0.690871  0.689756  0.500032  1
  Si  Si20  1  0.187341  0.172435  0.708994  1
  Si  Si21  1  0.327785  0.687453  0.958802  1
  Si  Si22  1  0.672698  0.312755  0.458909  1
  Si  Si23  1  0.687677  0.328156  0.040629  1
  Si  Si24  1  0.311965  0.671145  0.540787  1
  Si  Si25  1  0.813071  0.827213  0.209077  1
  Si  Si26  1  0.171093  0.188052  0.290741  1
  Si  Si27  1  0.828674  0.812387  0.791174  1
  Si  Si28  1  0.286544  0.920497  0.063324  1
  Si  Si29  1  0.579646  0.785983  0.313512  1
  Si  Si30  1  0.420673  0.213747  0.813704  1
  Si  Si31  1  0.787055  0.578657  0.686480  1
  Si  Si32  1  0.212709  0.421385  0.186323  1
  Si  Si33  1  0.713841  0.079814  0.563501  1
  Si  Si34  1  0.921129  0.286888  0.936350  1
  Si  Si35  1  0.078695  0.712778  0.436319  1
