# generated using pymatgen
data_LaSm(SeO3)3
_symmetry_space_group_name_H-M   'P 1'
_cell_length_a   7.18118582
_cell_length_b   8.11121014
_cell_length_c   9.38951300
_cell_angle_alpha   69.77566396
_cell_angle_beta   76.16387007
_cell_angle_gamma   64.61852123
_symmetry_Int_Tables_number   1
_chemical_formula_structural   LaSm(SeO3)3
_chemical_formula_sum   'La2 Sm2 Se6 O18'
_cell_volume   460.98742970
_cell_formula_units_Z   2
loop_
 _symmetry_equiv_pos_site_id
 _symmetry_equiv_pos_as_xyz
  1  'x, y, z'
loop_
 _atom_site_type_symbol
 _atom_site_label
 _atom_site_symmetry_multiplicity
 _atom_site_fract_x
 _atom_site_fract_y
 _atom_site_fract_z
 _atom_site_occupancy
  La  La0  1  0.631067  0.348335  0.323517  1
  La  La1  1  0.368933  0.651665  0.676483  1
  Sm  Sm2  1  0.231420  0.309245  0.125712  1
  Sm  Sm3  1  0.768580  0.690755  0.874288  1
  Se  Se4  1  0.452454  0.172327  0.749589  1
  Se  Se5  1  0.190224  0.761400  0.033408  1
  Se  Se6  1  0.863543  0.778638  0.497267  1
  Se  Se7  1  0.809776  0.238600  0.966592  1
  Se  Se8  1  0.547546  0.827673  0.250411  1
  Se  Se9  1  0.136457  0.221362  0.502733  1
  O  O10  1  0.672726  0.016346  0.835357  1
  O  O11  1  0.327274  0.983654  0.164643  1
  O  O12  1  0.637148  0.791620  0.622436  1
  O  O13  1  0.362852  0.208380  0.377564  1
  O  O14  1  0.392317  0.778459  0.895060  1
  O  O15  1  0.327347  0.328839  0.861691  1
  O  O16  1  0.904900  0.346450  0.052833  1
  O  O17  1  0.534839  0.330737  0.597049  1
  O  O18  1  0.705101  0.439850  0.823898  1
  O  O19  1  0.095100  0.653550  0.947167  1
  O  O20  1  0.167620  0.992581  0.583179  1
  O  O21  1  0.021998  0.686777  0.646173  1
  O  O22  1  0.607683  0.221541  0.104940  1
  O  O23  1  0.672653  0.671161  0.138309  1
  O  O24  1  0.465161  0.669263  0.402951  1
  O  O25  1  0.294899  0.560150  0.176102  1
  O  O26  1  0.832380  0.007419  0.416821  1
  O  O27  1  0.978002  0.313223  0.353827  1
