# generated using pymatgen
data_Dy3YLuRu2
_symmetry_space_group_name_H-M   'P 1'
_cell_length_a   6.33500194
_cell_length_b   7.26493830
_cell_length_c   8.45984823
_cell_angle_alpha   96.82138734
_cell_angle_beta   112.01718517
_cell_angle_gamma   89.78290065
_symmetry_Int_Tables_number   1
_chemical_formula_structural   Dy3YLuRu2
_chemical_formula_sum   'Dy6 Y2 Lu2 Ru4'
_cell_volume   358.04989569
_cell_formula_units_Z   2
loop_
 _symmetry_equiv_pos_site_id
 _symmetry_equiv_pos_as_xyz
  1  'x, y, z'
loop_
 _atom_site_type_symbol
 _atom_site_label
 _atom_site_symmetry_multiplicity
 _atom_site_fract_x
 _atom_site_fract_y
 _atom_site_fract_z
 _atom_site_occupancy
  Dy  Dy0  1  0.707999  0.416483  0.185951  1
  Dy  Dy1  1  0.292001  0.583517  0.814049  1
  Dy  Dy2  1  0.296992  0.312910  0.432152  1
  Dy  Dy3  1  0.703008  0.687090  0.567848  1
  Dy  Dy4  1  0.864893  0.187593  0.567980  1
  Dy  Dy5  1  0.135107  0.812407  0.432020  1
  Y  Y6  1  0.523958  0.082766  0.814477  1
  Y  Y7  1  0.476042  0.917234  0.185523  1
  Lu  Lu8  1  0.077384  0.250482  0.000017  1
  Lu  Lu9  1  0.922616  0.749518  0.999983  1
  Ru  Ru10  1  0.319026  0.574710  0.217796  1
  Ru  Ru11  1  0.680974  0.425290  0.782204  1
  Ru  Ru12  1  0.100141  0.924368  0.781998  1
  Ru  Ru13  1  0.899859  0.075632  0.218002  1
