# generated using pymatgen
data_La3Nd7Ir5Os
_symmetry_space_group_name_H-M   'P 1'
_cell_length_a   11.33034122
_cell_length_b   11.31117900
_cell_length_c   6.61630692
_cell_angle_alpha   90.00000000
_cell_angle_beta   90.24255401
_cell_angle_gamma   90.00000000
_symmetry_Int_Tables_number   1
_chemical_formula_structural   La3Nd7Ir5Os
_chemical_formula_sum   'La6 Nd14 Ir10 Os2'
_cell_volume   847.93510504
_cell_formula_units_Z   2
loop_
 _symmetry_equiv_pos_site_id
 _symmetry_equiv_pos_as_xyz
  1  'x, y, z'
loop_
 _atom_site_type_symbol
 _atom_site_label
 _atom_site_symmetry_multiplicity
 _atom_site_fract_x
 _atom_site_fract_y
 _atom_site_fract_z
 _atom_site_occupancy
  La  La0  1  0.788783  0.407318  0.114982  1
  La  La1  1  0.788783  0.592682  0.614982  1
  La  La2  1  0.909395  0.710648  0.114443  1
  La  La3  1  0.909395  0.289352  0.614443  1
  La  La4  1  0.094232  0.708929  0.614498  1
  La  La5  1  0.094232  0.291071  0.114498  1
  Nd  Nd6  1  0.295181  0.086902  0.387353  1
  Nd  Nd7  1  0.295181  0.913098  0.887353  1
  Nd  Nd8  1  0.704378  0.086516  0.886000  1
  Nd  Nd9  1  0.704378  0.913484  0.386000  1
  Nd  Nd10  1  0.585563  0.795644  0.886290  1
  Nd  Nd11  1  0.585563  0.204356  0.386290  1
  Nd  Nd12  1  0.413083  0.794843  0.385793  1
  Nd  Nd13  1  0.413083  0.205157  0.885793  1
  Nd  Nd14  1  0.210880  0.409458  0.616670  1
  Nd  Nd15  1  0.210880  0.590542  0.116670  1
  Nd  Nd16  1  0.000358  0.999763  0.494545  1
  Nd  Nd17  1  0.000358  0.000237  0.994545  1
  Nd  Nd18  1  0.498637  0.500956  0.993432  1
  Nd  Nd19  1  0.498637  0.499044  0.493432  1
  Ir  Ir20  1  0.848332  0.154380  0.250398  1
  Ir  Ir21  1  0.848332  0.845620  0.750398  1
  Ir  Ir22  1  0.151565  0.154887  0.750666  1
  Ir  Ir23  1  0.151565  0.845113  0.250666  1
  Ir  Ir24  1  0.654097  0.348472  0.750362  1
  Ir  Ir25  1  0.654097  0.651528  0.250362  1
  Ir  Ir26  1  0.345523  0.349187  0.248599  1
  Ir  Ir27  1  0.345523  0.650813  0.748599  1
  Ir  Ir28  1  0.000210  0.500526  0.879683  1
  Ir  Ir29  1  0.000210  0.499474  0.379683  1
  Os  Os30  1  0.499783  0.999754  0.126280  1
  Os  Os31  1  0.499783  0.000246  0.626280  1
