# generated using pymatgen
data_Tm6Mn15V(CoP6)2
_symmetry_space_group_name_H-M   'P 1'
_cell_length_a   3.61205300
_cell_length_b   10.82342100
_cell_length_c   12.58843200
_cell_angle_alpha   90.00000000
_cell_angle_beta   90.00000000
_cell_angle_gamma   90.00000000
_symmetry_Int_Tables_number   1
_chemical_formula_structural   Tm6Mn15V(CoP6)2
_chemical_formula_sum   'Tm6 Mn15 V1 Co2 P12'
_cell_volume   492.14185739
_cell_formula_units_Z   1
loop_
 _symmetry_equiv_pos_site_id
 _symmetry_equiv_pos_as_xyz
  1  'x, y, z'
loop_
 _atom_site_type_symbol
 _atom_site_label
 _atom_site_symmetry_multiplicity
 _atom_site_fract_x
 _atom_site_fract_y
 _atom_site_fract_z
 _atom_site_occupancy
  Tm  Tm0  1  0.000000  0.500000  0.532534  1
  Tm  Tm1  1  0.500000  0.000000  0.467917  1
  Tm  Tm2  1  0.500000  0.822578  0.206776  1
  Tm  Tm3  1  0.500000  0.177422  0.206776  1
  Tm  Tm4  1  0.000000  0.676672  0.793992  1
  Tm  Tm5  1  0.000000  0.323328  0.793992  1
  Mn  Mn6  1  0.000000  0.000000  0.834591  1
  Mn  Mn7  1  0.000000  0.500000  0.991389  1
  Mn  Mn8  1  0.500000  0.000000  0.007118  1
  Mn  Mn9  1  0.500000  0.331666  0.995804  1
  Mn  Mn10  1  0.500000  0.668334  0.995804  1
  Mn  Mn11  1  0.000000  0.166712  0.002678  1
  Mn  Mn12  1  0.000000  0.833288  0.002678  1
  Mn  Mn13  1  0.500000  0.296865  0.434069  1
  Mn  Mn14  1  0.500000  0.703135  0.434069  1
  Mn  Mn15  1  0.000000  0.201461  0.568120  1
  Mn  Mn16  1  0.000000  0.798539  0.568120  1
  Mn  Mn17  1  0.500000  0.880767  0.701956  1
  Mn  Mn18  1  0.500000  0.119233  0.701956  1
  Mn  Mn19  1  0.000000  0.621462  0.299693  1
  Mn  Mn20  1  0.000000  0.378538  0.299693  1
  V  V21  1  0.500000  0.500000  0.161984  1
  Co  Co22  1  0.500000  0.500000  0.704787  1
  Co  Co23  1  0.000000  0.000000  0.294771  1
  P  P24  1  0.500000  0.500000  0.878730  1
  P  P25  1  0.000000  0.000000  0.120157  1
  P  P26  1  0.500000  0.500000  0.359934  1
  P  P27  1  0.000000  0.000000  0.640171  1
  P  P28  1  0.500000  0.319034  0.619567  1
  P  P29  1  0.500000  0.680966  0.619567  1
  P  P30  1  0.000000  0.180141  0.381890  1
  P  P31  1  0.000000  0.819859  0.381890  1
  P  P32  1  0.500000  0.844676  0.883315  1
  P  P33  1  0.500000  0.155324  0.883315  1
  P  P34  1  0.000000  0.656108  0.115098  1
  P  P35  1  0.000000  0.343892  0.115098  1
