# generated using pymatgen
data_Sm4Te7Pd
_symmetry_space_group_name_H-M   'P 1'
_cell_length_a   4.27422408
_cell_length_b   8.75143400
_cell_length_c   9.30196107
_cell_angle_alpha   90.00000000
_cell_angle_beta   89.99110932
_cell_angle_gamma   90.00000000
_symmetry_Int_Tables_number   1
_chemical_formula_structural   Sm4Te7Pd
_chemical_formula_sum   'Sm4 Te7 Pd1'
_cell_volume   347.94533715
_cell_formula_units_Z   1
loop_
 _symmetry_equiv_pos_site_id
 _symmetry_equiv_pos_as_xyz
  1  'x, y, z'
loop_
 _atom_site_type_symbol
 _atom_site_label
 _atom_site_symmetry_multiplicity
 _atom_site_fract_x
 _atom_site_fract_y
 _atom_site_fract_z
 _atom_site_occupancy
  Sm  Sm0  1  0.000612  0.750000  0.712347  1
  Sm  Sm1  1  0.003839  0.250000  0.741973  1
  Sm  Sm2  1  0.499240  0.003238  0.268114  1
  Sm  Sm3  1  0.499240  0.496762  0.268114  1
  Te  Te4  1  0.997069  0.944700  0.000569  1
  Te  Te5  1  0.997069  0.555300  0.000569  1
  Te  Te6  1  0.503857  0.250000  0.000463  1
  Te  Te7  1  0.999538  0.750000  0.369177  1
  Te  Te8  1  0.000207  0.250000  0.374713  1
  Te  Te9  1  0.501607  0.002596  0.628197  1
  Te  Te10  1  0.501607  0.497404  0.628197  1
  Pd  Pd11  1  0.496113  0.750000  0.008494  1
