# generated using pymatgen
data_DyEr5Al6(SiAu)3
_symmetry_space_group_name_H-M   'P 1'
_cell_length_a   6.91382235
_cell_length_b   6.90599635
_cell_length_c   8.43852100
_cell_angle_alpha   89.97941632
_cell_angle_beta   90.03582529
_cell_angle_gamma   119.80634395
_symmetry_Int_Tables_number   1
_chemical_formula_structural   DyEr5Al6(SiAu)3
_chemical_formula_sum   'Dy1 Er5 Al6 Si3 Au3'
_cell_volume   349.61143148
_cell_formula_units_Z   1
loop_
 _symmetry_equiv_pos_site_id
 _symmetry_equiv_pos_as_xyz
  1  'x, y, z'
loop_
 _atom_site_type_symbol
 _atom_site_label
 _atom_site_symmetry_multiplicity
 _atom_site_fract_x
 _atom_site_fract_y
 _atom_site_fract_z
 _atom_site_occupancy
  Dy  Dy0  1  0.420568  0.419625  0.255798  1
  Er  Er1  1  0.580537  0.000002  0.744364  1
  Er  Er2  1  0.998964  0.579833  0.744393  1
  Er  Er3  1  0.419979  0.419418  0.744353  1
  Er  Er4  1  0.999263  0.580138  0.255499  1
  Er  Er5  1  0.580764  0.000302  0.255634  1
  Al  Al6  1  0.748018  0.753460  0.999598  1
  Al  Al7  1  0.246258  0.993889  0.999647  1
  Al  Al8  1  0.006548  0.252655  0.999532  1
  Al  Al9  1  0.758217  0.758317  0.500469  1
  Al  Al10  1  0.242235  0.000621  0.500273  1
  Al  Al11  1  0.998920  0.241725  0.500267  1
  Si  Si12  1  0.667295  0.332968  0.999415  1
  Si  Si13  1  0.667513  0.332953  0.500702  1
  Si  Si14  1  0.332714  0.667500  0.500547  1
  Au  Au15  1  0.999856  0.999856  0.754041  1
  Au  Au16  1  0.999360  0.999428  0.245708  1
  Au  Au17  1  0.332990  0.667307  0.999759  1
