# generated using pymatgen
data_Y9Mg(NiTe)4
_symmetry_space_group_name_H-M   'P 1'
_cell_length_a   7.76502570
_cell_length_b   7.76502566
_cell_length_c   14.94900200
_cell_angle_alpha   90.00000000
_cell_angle_beta   90.00000000
_cell_angle_gamma   150.05507086
_symmetry_Int_Tables_number   1
_chemical_formula_structural   Y9Mg(NiTe)4
_chemical_formula_sum   'Y9 Mg1 Ni4 Te4'
_cell_volume   449.92920476
_cell_formula_units_Z   1
loop_
 _symmetry_equiv_pos_site_id
 _symmetry_equiv_pos_as_xyz
  1  'x, y, z'
loop_
 _atom_site_type_symbol
 _atom_site_label
 _atom_site_symmetry_multiplicity
 _atom_site_fract_x
 _atom_site_fract_y
 _atom_site_fract_z
 _atom_site_occupancy
  Y  Y0  1  0.965633  0.034367  0.131366  1
  Y  Y1  1  0.039984  0.960016  0.877356  1
  Y  Y2  1  0.039984  0.960016  0.622644  1
  Y  Y3  1  0.965633  0.034367  0.368634  1
  Y  Y4  1  0.742096  0.257904  0.627280  1
  Y  Y5  1  0.252858  0.747142  0.367732  1
  Y  Y6  1  0.252858  0.747142  0.132268  1
  Y  Y7  1  0.742096  0.257904  0.872720  1
  Y  Y8  1  0.395554  0.604446  0.750000  1
  Mg  Mg9  1  0.606563  0.393437  0.250000  1
  Ni  Ni10  1  0.412851  0.587149  0.250000  1
  Ni  Ni11  1  0.588771  0.411229  0.750000  1
  Ni  Ni12  1  0.812407  0.187593  0.250000  1
  Ni  Ni13  1  0.184582  0.815418  0.750000  1
  Te  Te14  1  0.616257  0.383743  0.038341  1
  Te  Te15  1  0.382808  0.617192  0.963109  1
  Te  Te16  1  0.382808  0.617192  0.536891  1
  Te  Te17  1  0.616257  0.383743  0.461659  1
