# generated using pymatgen
data_Tb8Sc12Sn13Pb3
_symmetry_space_group_name_H-M   'P 1'
_cell_length_a   7.82544026
_cell_length_b   7.95681855
_cell_length_c   15.03938800
_cell_angle_alpha   90.05471199
_cell_angle_beta   89.94018144
_cell_angle_gamma   89.93015138
_symmetry_Int_Tables_number   1
_chemical_formula_structural   Tb8Sc12Sn13Pb3
_chemical_formula_sum   'Tb8 Sc12 Sn13 Pb3'
_cell_volume   936.43500740
_cell_formula_units_Z   1
loop_
 _symmetry_equiv_pos_site_id
 _symmetry_equiv_pos_as_xyz
  1  'x, y, z'
loop_
 _atom_site_type_symbol
 _atom_site_label
 _atom_site_symmetry_multiplicity
 _atom_site_fract_x
 _atom_site_fract_y
 _atom_site_fract_z
 _atom_site_occupancy
  Tb  Tb0  1  0.521894  0.323939  0.903285  1
  Tb  Tb1  1  0.025372  0.179216  0.597729  1
  Tb  Tb2  1  0.475209  0.678951  0.402610  1
  Tb  Tb3  1  0.976849  0.819198  0.096238  1
  Tb  Tb4  1  0.480477  0.675821  0.095949  1
  Tb  Tb5  1  0.981872  0.822345  0.402335  1
  Tb  Tb6  1  0.517534  0.322381  0.597761  1
  Tb  Tb7  1  0.018049  0.180431  0.903158  1
  Sc  Sc8  1  0.364069  0.836028  0.874167  1
  Sc  Sc9  1  0.866214  0.660794  0.626736  1
  Sc  Sc10  1  0.634211  0.160148  0.372956  1
  Sc  Sc11  1  0.135191  0.340879  0.125250  1
  Sc  Sc12  1  0.638771  0.162043  0.125305  1
  Sc  Sc13  1  0.137944  0.337961  0.374709  1
  Sc  Sc14  1  0.362363  0.837985  0.625581  1
  Sc  Sc15  1  0.864007  0.662036  0.875054  1
  Sc  Sc16  1  0.194549  0.506438  0.750288  1
  Sc  Sc17  1  0.693901  0.993520  0.751812  1
  Sc  Sc18  1  0.806022  0.493461  0.248148  1
  Sc  Sc19  1  0.306147  0.006315  0.251690  1
  Sn  Sn20  1  0.197793  0.542759  0.957398  1
  Sn  Sn21  1  0.697425  0.957801  0.957394  1
  Sn  Sn22  1  0.198218  0.542967  0.542756  1
  Sn  Sn23  1  0.301932  0.042725  0.457645  1
  Sn  Sn24  1  0.802423  0.456811  0.041974  1
  Sn  Sn25  1  0.558884  0.628040  0.749787  1
  Sn  Sn26  1  0.058130  0.872796  0.750372  1
  Sn  Sn27  1  0.441791  0.372087  0.249666  1
  Sn  Sn28  1  0.942476  0.128218  0.249466  1
  Sn  Sn29  1  0.329563  0.145061  0.751248  1
  Sn  Sn30  1  0.828868  0.354658  0.749777  1
  Sn  Sn31  1  0.670435  0.853452  0.249693  1
  Sn  Sn32  1  0.170666  0.645454  0.249279  1
  Pb  Pb33  1  0.300624  0.042517  0.042518  1
  Pb  Pb34  1  0.799471  0.456954  0.457611  1
  Pb  Pb35  1  0.700656  0.957808  0.542656  1
