# generated using pymatgen
data_Lu4HfZr5Si8
_symmetry_space_group_name_H-M   'P 1'
_cell_length_a   7.27248520
_cell_length_b   7.27286422
_cell_length_c   13.38586381
_cell_angle_alpha   90.00604993
_cell_angle_beta   90.05954264
_cell_angle_gamma   89.97238524
_symmetry_Int_Tables_number   1
_chemical_formula_structural   Lu4HfZr5Si8
_chemical_formula_sum   'Lu8 Hf2 Zr10 Si16'
_cell_volume   708.00192849
_cell_formula_units_Z   2
loop_
 _symmetry_equiv_pos_site_id
 _symmetry_equiv_pos_as_xyz
  1  'x, y, z'
loop_
 _atom_site_type_symbol
 _atom_site_label
 _atom_site_symmetry_multiplicity
 _atom_site_fract_x
 _atom_site_fract_y
 _atom_site_fract_z
 _atom_site_occupancy
  Lu  Lu0  1  0.494224  0.151570  0.536556  1
  Lu  Lu1  1  0.506148  0.848210  0.036194  1
  Lu  Lu2  1  0.651485  0.005770  0.286650  1
  Lu  Lu3  1  0.348374  0.994324  0.786008  1
  Lu  Lu4  1  0.848310  0.506045  0.963295  1
  Lu  Lu5  1  0.151693  0.494669  0.463904  1
  Lu  Lu6  1  0.005491  0.651872  0.713932  1
  Lu  Lu7  1  0.994692  0.348660  0.213371  1
  Hf  Hf8  1  0.177325  0.176890  0.999683  1
  Hf  Hf9  1  0.997215  0.144001  0.625704  1
  Zr  Zr10  1  0.676951  0.322566  0.750049  1
  Zr  Zr11  1  0.322834  0.677145  0.249801  1
  Zr  Zr12  1  0.823170  0.822802  0.500209  1
  Zr  Zr13  1  0.498527  0.355639  0.124908  1
  Zr  Zr14  1  0.502258  0.644010  0.624879  1
  Zr  Zr15  1  0.855697  0.001355  0.874803  1
  Zr  Zr16  1  0.144428  0.998669  0.374961  1
  Zr  Zr17  1  0.644410  0.501956  0.375525  1
  Zr  Zr18  1  0.355220  0.497777  0.874661  1
  Zr  Zr19  1  0.001584  0.855514  0.124832  1
  Si  Si20  1  0.797843  0.146461  0.065700  1
  Si  Si21  1  0.203532  0.856299  0.567212  1
  Si  Si22  1  0.644876  0.704183  0.816511  1
  Si  Si23  1  0.354497  0.296356  0.316287  1
  Si  Si24  1  0.855026  0.203460  0.434671  1
  Si  Si25  1  0.146354  0.797271  0.933723  1
  Si  Si26  1  0.703963  0.645508  0.183809  1
  Si  Si27  1  0.294676  0.354021  0.682910  1
  Si  Si28  1  0.550609  0.202145  0.936807  1
  Si  Si29  1  0.447639  0.797501  0.436898  1
  Si  Si30  1  0.703524  0.948155  0.686645  1
  Si  Si31  1  0.296546  0.052795  0.185937  1
  Si  Si32  1  0.798250  0.446853  0.563734  1
  Si  Si33  1  0.202444  0.550640  0.062778  1
  Si  Si34  1  0.947857  0.703031  0.313059  1
  Si  Si35  1  0.052326  0.295879  0.813394  1
