# generated using pymatgen
data_PaNi2GeAs
_symmetry_space_group_name_H-M   'P 1'
_cell_length_a   4.10750200
_cell_length_b   4.10750200
_cell_length_c   9.42789500
_cell_angle_alpha   90.00000000
_cell_angle_beta   90.00000000
_cell_angle_gamma   90.00000000
_symmetry_Int_Tables_number   1
_chemical_formula_structural   PaNi2GeAs
_chemical_formula_sum   'Pa2 Ni4 Ge2 As2'
_cell_volume   159.06341571
_cell_formula_units_Z   2
loop_
 _symmetry_equiv_pos_site_id
 _symmetry_equiv_pos_as_xyz
  1  'x, y, z'
loop_
 _atom_site_type_symbol
 _atom_site_label
 _atom_site_symmetry_multiplicity
 _atom_site_fract_x
 _atom_site_fract_y
 _atom_site_fract_z
 _atom_site_occupancy
  Pa  Pa0  1  0.500000  0.000000  0.254553  1
  Pa  Pa1  1  0.000000  0.500000  0.745447  1
  Ni  Ni2  1  0.500000  0.000000  0.873477  1
  Ni  Ni3  1  0.500000  0.500000  0.500000  1
  Ni  Ni4  1  0.000000  0.500000  0.126523  1
  Ni  Ni5  1  0.000000  0.000000  0.500000  1
  Ge  Ge6  1  0.500000  0.500000  0.000000  1
  Ge  Ge7  1  0.000000  0.000000  0.000000  1
  As  As8  1  0.000000  0.500000  0.369177  1
  As  As9  1  0.500000  0.000000  0.630823  1
