# generated using pymatgen
data_KEu(GdB12)2
_symmetry_space_group_name_H-M   'P 1'
_cell_length_a   7.16214600
_cell_length_b   7.16214664
_cell_length_c   5.87284700
_cell_angle_alpha   90.00000000
_cell_angle_beta   90.00000000
_cell_angle_gamma   109.33851557
_symmetry_Int_Tables_number   1
_chemical_formula_structural   KEu(GdB12)2
_chemical_formula_sum   'K1 Eu1 Gd2 B24'
_cell_volume   284.25828312
_cell_formula_units_Z   1
loop_
 _symmetry_equiv_pos_site_id
 _symmetry_equiv_pos_as_xyz
  1  'x, y, z'
loop_
 _atom_site_type_symbol
 _atom_site_label
 _atom_site_symmetry_multiplicity
 _atom_site_fract_x
 _atom_site_fract_y
 _atom_site_fract_z
 _atom_site_occupancy
  K  K0  1  0.750272  0.249728  0.500000  1
  Eu  Eu1  1  0.997531  0.002469  0.000000  1
  Gd  Gd2  1  0.503300  0.496700  0.000000  1
  Gd  Gd3  1  0.249917  0.750083  0.500000  1
  B  B4  1  0.176738  0.326905  0.649084  1
  B  B5  1  0.926971  0.576694  0.149622  1
  B  B6  1  0.673095  0.823262  0.649084  1
  B  B7  1  0.423306  0.073029  0.149622  1
  B  B8  1  0.176738  0.326905  0.350916  1
  B  B9  1  0.926971  0.576694  0.850378  1
  B  B10  1  0.673095  0.823262  0.350916  1
  B  B11  1  0.423306  0.073029  0.850378  1
  B  B12  1  0.401435  0.398407  0.500000  1
  B  B13  1  0.150368  0.650928  0.000000  1
  B  B14  1  0.897931  0.900822  0.500000  1
  B  B15  1  0.648513  0.148493  0.000000  1
  B  B16  1  0.324098  0.174098  0.649101  1
  B  B17  1  0.077003  0.427419  0.149578  1
  B  B18  1  0.825902  0.675902  0.649101  1
  B  B19  1  0.572581  0.922997  0.149578  1
  B  B20  1  0.099178  0.102069  0.500000  1
  B  B21  1  0.851507  0.351487  0.000000  1
  B  B22  1  0.601593  0.598565  0.500000  1
  B  B23  1  0.349072  0.849632  0.000000  1
  B  B24  1  0.324098  0.174098  0.350899  1
  B  B25  1  0.077003  0.427419  0.850422  1
  B  B26  1  0.825902  0.675902  0.350899  1
  B  B27  1  0.572581  0.922997  0.850422  1
