# generated using pymatgen
data_TbEr9Si16Ag
_symmetry_space_group_name_H-M   'P 1'
_cell_length_a   11.05621126
_cell_length_b   11.05459395
_cell_length_c   11.05590300
_cell_angle_alpha   144.73153337
_cell_angle_beta   136.52221876
_cell_angle_gamma   57.18334081
_symmetry_Int_Tables_number   1
_chemical_formula_structural   TbEr9Si16Ag
_chemical_formula_sum   'Tb1 Er9 Si16 Ag1'
_cell_volume   532.50528010
_cell_formula_units_Z   1
loop_
 _symmetry_equiv_pos_site_id
 _symmetry_equiv_pos_as_xyz
  1  'x, y, z'
loop_
 _atom_site_type_symbol
 _atom_site_label
 _atom_site_symmetry_multiplicity
 _atom_site_fract_x
 _atom_site_fract_y
 _atom_site_fract_z
 _atom_site_occupancy
  Tb  Tb0  1  0.752240  0.765431  0.513885  1
  Er  Er1  1  0.053321  0.566317  0.022224  1
  Er  Er2  1  0.352765  0.370178  0.520982  1
  Er  Er3  1  0.154580  0.165453  0.521768  1
  Er  Er4  1  0.451105  0.963300  0.014453  1
  Er  Er5  1  0.643629  0.165483  0.010918  1
  Er  Er6  1  0.948688  0.963218  0.512045  1
  Er  Er7  1  0.849122  0.370159  0.017287  1
  Er  Er8  1  0.544110  0.566267  0.512753  1
  Er  Er9  1  0.252035  0.765445  0.013555  1
  Si  Si10  1  0.118246  0.078874  0.960885  1
  Si  Si11  1  0.797135  0.168598  0.371495  1
  Si  Si12  1  0.300133  0.899613  0.599180  1
  Si  Si13  1  0.399264  0.501221  0.101053  1
  Si  Si14  1  0.880811  0.854825  0.973982  1
  Si  Si15  1  0.105344  0.710487  0.606228  1
  Si  Si16  1  0.199976  0.581637  0.381872  1
  Si  Si17  1  0.699390  0.295708  0.595943  1
  Si  Si18  1  0.002645  0.432211  0.430740  1
  Si  Si19  1  0.714478  0.668658  0.953936  1
  Si  Si20  1  0.600563  0.702622  0.100945  1
  Si  Si21  1  0.000382  0.082167  0.083661  1
  Si  Si22  1  0.500796  0.390577  0.888966  1
  Si  Si23  1  0.284530  0.241357  0.956518  1
  Si  Si24  1  0.583244  0.041990  0.456846  1
  Si  Si25  1  0.414803  0.873158  0.456723  1
  Ag  Ag26  1  0.896662  0.503967  0.610073  1
