# generated using pymatgen
data_SmTm3Pb4F28
_symmetry_space_group_name_H-M   'P 1'
_cell_length_a   5.83807537
_cell_length_b   9.24004840
_cell_length_c   12.39986500
_cell_angle_alpha   62.36682750
_cell_angle_beta   89.96077282
_cell_angle_gamma   90.01815522
_symmetry_Int_Tables_number   1
_chemical_formula_structural   SmTm3Pb4F28
_chemical_formula_sum   'Sm1 Tm3 Pb4 F28'
_cell_volume   592.60135905
_cell_formula_units_Z   1
loop_
 _symmetry_equiv_pos_site_id
 _symmetry_equiv_pos_as_xyz
  1  'x, y, z'
loop_
 _atom_site_type_symbol
 _atom_site_label
 _atom_site_symmetry_multiplicity
 _atom_site_fract_x
 _atom_site_fract_y
 _atom_site_fract_z
 _atom_site_occupancy
  Sm  Sm0  1  0.757055  0.818268  0.766264  1
  Tm  Tm1  1  0.743549  0.821222  0.265127  1
  Tm  Tm2  1  0.243643  0.180401  0.235218  1
  Tm  Tm3  1  0.258748  0.185145  0.733985  1
  Pb  Pb4  1  0.743085  0.275613  0.453848  1
  Pb  Pb5  1  0.244046  0.727243  0.048431  1
  Pb  Pb6  1  0.255118  0.726357  0.540041  1
  Pb  Pb7  1  0.756429  0.269020  0.957734  1
  F  F8  1  0.467657  0.708700  0.922193  1
  F  F9  1  0.972034  0.291252  0.579613  1
  F  F10  1  0.525678  0.289117  0.081092  1
  F  F11  1  0.025995  0.708245  0.416269  1
  F  F12  1  0.446995  0.280048  0.552795  1
  F  F13  1  0.948758  0.718227  0.953113  1
  F  F14  1  0.553905  0.721148  0.444212  1
  F  F15  1  0.051834  0.276961  0.055782  1
  F  F16  1  0.770832  0.522338  0.857494  1
  F  F17  1  0.268477  0.471471  0.642380  1
  F  F18  1  0.234577  0.472440  0.146117  1
  F  F19  1  0.731853  0.529165  0.353936  1
  F  F20  1  0.758153  0.014428  0.059654  1
  F  F21  1  0.257460  0.982171  0.439028  1
  F  F22  1  0.241650  0.981722  0.943150  1
  F  F23  1  0.740371  0.021040  0.554797  1
  F  F24  1  0.981357  0.732966  0.648267  1
  F  F25  1  0.482282  0.264950  0.847162  1
  F  F26  1  0.013806  0.263353  0.343800  1
  F  F27  1  0.516327  0.737139  0.157279  1
  F  F28  1  0.026859  0.749828  0.177454  1
  F  F29  1  0.524488  0.251913  0.325053  1
  F  F30  1  0.973606  0.248750  0.827062  1
  F  F31  1  0.464689  0.745781  0.671649  1
  F  F32  1  0.445193  0.980837  0.239058  1
  F  F33  1  0.944582  0.020002  0.261122  1
  F  F34  1  0.557357  0.030194  0.762301  1
  F  F35  1  0.071550  0.982538  0.737519  1
