# generated using pymatgen
data_DyTm3B12IrRh
_symmetry_space_group_name_H-M   'P 1'
_cell_length_a   3.62255000
_cell_length_b   9.13015352
_cell_length_c   11.46922900
_cell_angle_alpha   90.10452073
_cell_angle_beta   90.00000000
_cell_angle_gamma   90.00000000
_symmetry_Int_Tables_number   1
_chemical_formula_structural   DyTm3B12IrRh
_chemical_formula_sum   'Dy2 Tm6 B24 Ir2 Rh2'
_cell_volume   379.33766835
_cell_formula_units_Z   2
loop_
 _symmetry_equiv_pos_site_id
 _symmetry_equiv_pos_as_xyz
  1  'x, y, z'
loop_
 _atom_site_type_symbol
 _atom_site_label
 _atom_site_symmetry_multiplicity
 _atom_site_fract_x
 _atom_site_fract_y
 _atom_site_fract_z
 _atom_site_occupancy
  Dy  Dy0  1  0.500000  0.322917  0.413869  1
  Dy  Dy1  1  0.500000  0.677083  0.586131  1
  Tm  Tm2  1  0.500000  0.179523  0.912865  1
  Tm  Tm3  1  0.500000  0.820477  0.087135  1
  Tm  Tm4  1  0.500000  0.445089  0.126113  1
  Tm  Tm5  1  0.500000  0.554911  0.873887  1
  Tm  Tm6  1  0.500000  0.056526  0.626094  1
  Tm  Tm7  1  0.500000  0.943474  0.373906  1
  B  B8  1  0.000000  0.107962  0.470511  1
  B  B9  1  0.000000  0.892038  0.529489  1
  B  B10  1  0.000000  0.390620  0.970346  1
  B  B11  1  0.000000  0.609380  0.029654  1
  B  B12  1  0.000000  0.131857  0.315816  1
  B  B13  1  0.000000  0.868143  0.684184  1
  B  B14  1  0.000000  0.366873  0.816813  1
  B  B15  1  0.000000  0.633127  0.183187  1
  B  B16  1  0.000000  0.053959  0.065200  1
  B  B17  1  0.000000  0.946041  0.934800  1
  B  B18  1  0.000000  0.446212  0.565859  1
  B  B19  1  0.000000  0.553788  0.434141  1
  B  B20  1  0.000000  0.482555  0.286145  1
  B  B21  1  0.000000  0.517445  0.713855  1
  B  B22  1  0.000000  0.018287  0.786702  1
  B  B23  1  0.000000  0.981713  0.213298  1
  B  B24  1  0.000000  0.250186  0.078682  1
  B  B25  1  0.000000  0.749814  0.921318  1
  B  B26  1  0.000000  0.250362  0.579791  1
  B  B27  1  0.000000  0.749638  0.420209  1
  B  B28  1  0.000000  0.293929  0.234523  1
  B  B29  1  0.000000  0.706071  0.765477  1
  B  B30  1  0.000000  0.205577  0.736437  1
  B  B31  1  0.000000  0.794423  0.263563  1
  Ir  Ir32  1  0.500000  0.138192  0.177472  1
  Ir  Ir33  1  0.500000  0.861808  0.822528  1
  Rh  Rh34  1  0.500000  0.359600  0.680980  1
  Rh  Rh35  1  0.500000  0.640400  0.319020  1
