# generated using pymatgen
data_Y4Al17GaRh5Au
_symmetry_space_group_name_H-M   'P 1'
_cell_length_a   7.58173803
_cell_length_b   7.58283085
_cell_length_c   9.50429814
_cell_angle_alpha   89.99295440
_cell_angle_beta   89.97225325
_cell_angle_gamma   119.51068197
_symmetry_Int_Tables_number   1
_chemical_formula_structural   Y4Al17GaRh5Au
_chemical_formula_sum   'Y4 Al17 Ga1 Rh5 Au1'
_cell_volume   475.52249003
_cell_formula_units_Z   1
loop_
 _symmetry_equiv_pos_site_id
 _symmetry_equiv_pos_as_xyz
  1  'x, y, z'
loop_
 _atom_site_type_symbol
 _atom_site_label
 _atom_site_symmetry_multiplicity
 _atom_site_fract_x
 _atom_site_fract_y
 _atom_site_fract_z
 _atom_site_occupancy
  Y  Y0  1  0.991588  0.669478  0.250573  1
  Y  Y1  1  0.001594  0.328053  0.749888  1
  Y  Y2  1  0.674415  0.997776  0.250083  1
  Y  Y3  1  0.332595  0.007905  0.749433  1
  Al  Al4  1  0.874962  0.873035  0.748731  1
  Al  Al5  1  0.012112  0.335484  0.078342  1
  Al  Al6  1  0.008068  0.674306  0.922271  1
  Al  Al7  1  0.002078  0.665679  0.573554  1
  Al  Al8  1  0.334781  0.997762  0.426816  1
  Al  Al9  1  0.000946  0.335221  0.425688  1
  Al  Al10  1  0.665253  0.999040  0.574357  1
  Al  Al11  1  0.664274  0.987903  0.921853  1
  Al  Al12  1  0.325771  0.991882  0.077438  1
  Al  Al13  1  0.331126  0.331670  0.550843  1
  Al  Al14  1  0.667431  0.667915  0.451312  1
  Al  Al15  1  0.665054  0.672008  0.056850  1
  Al  Al16  1  0.327091  0.334256  0.940881  1
  Al  Al17  1  0.340184  0.553531  0.251594  1
  Al  Al18  1  0.660625  0.458429  0.741299  1
  Al  Al19  1  0.541822  0.338750  0.258639  1
  Al  Al20  1  0.447720  0.659527  0.748432  1
  Ga  Ga21  1  0.130466  0.127993  0.251203  1
  Rh  Rh22  1  0.328193  0.670468  0.000162  1
  Rh  Rh23  1  0.328053  0.670654  0.499921  1
  Rh  Rh24  1  0.671712  0.326940  0.499852  1
  Rh  Rh25  1  0.999491  0.999507  0.997696  1
  Rh  Rh26  1  0.999668  0.999041  0.502138  1
  Au  Au27  1  0.672926  0.325788  0.000151  1
