# generated using pymatgen
data_Ca5Bi3H
_symmetry_space_group_name_H-M   'P 1'
_cell_length_a   6.95069300
_cell_length_b   9.22708201
_cell_length_c   9.22708200
_cell_angle_alpha   119.99999281
_cell_angle_beta   90.00000000
_cell_angle_gamma   90.00000000
_symmetry_Int_Tables_number   1
_chemical_formula_structural   Ca5Bi3H
_chemical_formula_sum   'Ca10 Bi6 H2'
_cell_volume   512.49251954
_cell_formula_units_Z   2
loop_
 _symmetry_equiv_pos_site_id
 _symmetry_equiv_pos_as_xyz
  1  'x, y, z'
loop_
 _atom_site_type_symbol
 _atom_site_label
 _atom_site_symmetry_multiplicity
 _atom_site_fract_x
 _atom_site_fract_y
 _atom_site_fract_z
 _atom_site_occupancy
  Ca  Ca0  1  0.500000  0.333333  0.666667  1
  Ca  Ca1  1  0.500000  0.666666  0.333333  1
  Ca  Ca2  1  0.000000  0.666667  0.333333  1
  Ca  Ca3  1  0.000000  0.333334  0.666667  1
  Ca  Ca4  1  0.750000  0.241308  0.000000  1
  Ca  Ca5  1  0.750000  0.758692  0.758692  1
  Ca  Ca6  1  0.750000  0.000000  0.241308  1
  Ca  Ca7  1  0.250000  0.758692  0.000000  1
  Ca  Ca8  1  0.250000  0.241308  0.241308  1
  Ca  Ca9  1  0.250000  0.000000  0.758692  1
  Bi  Bi10  1  0.750000  0.608297  0.000000  1
  Bi  Bi11  1  0.750000  0.391703  0.391703  1
  Bi  Bi12  1  0.750000  0.000000  0.608297  1
  Bi  Bi13  1  0.250000  0.391703  0.000000  1
  Bi  Bi14  1  0.250000  0.608297  0.608297  1
  Bi  Bi15  1  0.250000  0.000000  0.391703  1
  H  H16  1  0.500000  0.000000  0.000000  1
  H  H17  1  0.000000  0.000000  0.000000  1
