# generated using pymatgen
data_Tb3In3CuRhAu
_symmetry_space_group_name_H-M   'P 1'
_cell_length_a   7.67209700
_cell_length_b   7.67209647
_cell_length_c   3.91381400
_cell_angle_alpha   90.00000000
_cell_angle_beta   90.00000000
_cell_angle_gamma   120.00000660
_symmetry_Int_Tables_number   1
_chemical_formula_structural   Tb3In3CuRhAu
_chemical_formula_sum   'Tb3 In3 Cu1 Rh1 Au1'
_cell_volume   199.50736159
_cell_formula_units_Z   1
loop_
 _symmetry_equiv_pos_site_id
 _symmetry_equiv_pos_as_xyz
  1  'x, y, z'
loop_
 _atom_site_type_symbol
 _atom_site_label
 _atom_site_symmetry_multiplicity
 _atom_site_fract_x
 _atom_site_fract_y
 _atom_site_fract_z
 _atom_site_occupancy
  Tb  Tb0  1  0.018468  0.598662  0.500000  1
  Tb  Tb1  1  0.401338  0.419806  0.500000  1
  Tb  Tb2  1  0.580194  0.981532  0.500000  1
  In  In3  1  0.750875  0.753196  0.000000  1
  In  In4  1  0.002321  0.249125  0.000000  1
  In  In5  1  0.246804  0.997679  0.000000  1
  Cu  Cu6  1  0.000000  0.000000  0.500000  1
  Rh  Rh7  1  0.333333  0.666667  0.000000  1
  Au  Au8  1  0.666667  0.333333  0.000000  1
