# generated using pymatgen
data_HoSc3Sb2
_symmetry_space_group_name_H-M   'P 1'
_cell_length_a   4.29133600
_cell_length_b   4.29133600
_cell_length_c   7.99032000
_cell_angle_alpha   90.00000000
_cell_angle_beta   90.00000000
_cell_angle_gamma   90.00000000
_symmetry_Int_Tables_number   1
_chemical_formula_structural   HoSc3Sb2
_chemical_formula_sum   'Ho1 Sc3 Sb2'
_cell_volume   147.14625465
_cell_formula_units_Z   1
loop_
 _symmetry_equiv_pos_site_id
 _symmetry_equiv_pos_as_xyz
  1  'x, y, z'
loop_
 _atom_site_type_symbol
 _atom_site_label
 _atom_site_symmetry_multiplicity
 _atom_site_fract_x
 _atom_site_fract_y
 _atom_site_fract_z
 _atom_site_occupancy
  Ho  Ho0  1  0.500000  0.000000  0.347527  1
  Sc  Sc1  1  0.000000  0.000000  0.996429  1
  Sc  Sc2  1  0.500000  0.500000  0.996429  1
  Sc  Sc3  1  0.000000  0.500000  0.657964  1
  Sb  Sb4  1  0.500000  0.000000  0.727365  1
  Sb  Sb5  1  0.000000  0.500000  0.274287  1
