# generated using pymatgen
data_Y6Tm10MgAg2HgIr4
_symmetry_space_group_name_H-M   'P 1'
_cell_length_a   9.55677606
_cell_length_b   9.53462928
_cell_length_c   9.53463000
_cell_angle_alpha   59.99999751
_cell_angle_beta   60.07662662
_cell_angle_gamma   60.07662510
_symmetry_Int_Tables_number   1
_chemical_formula_structural   Y6Tm10MgAg2HgIr4
_chemical_formula_sum   'Y6 Tm10 Mg1 Ag2 Hg1 Ir4'
_cell_volume   615.04386377
_cell_formula_units_Z   1
loop_
 _symmetry_equiv_pos_site_id
 _symmetry_equiv_pos_as_xyz
  1  'x, y, z'
loop_
 _atom_site_type_symbol
 _atom_site_label
 _atom_site_symmetry_multiplicity
 _atom_site_fract_x
 _atom_site_fract_y
 _atom_site_fract_z
 _atom_site_occupancy
  Y  Y0  1  0.187110  0.811760  0.811609  1
  Y  Y1  1  0.811861  0.186533  0.188820  1
  Y  Y2  1  0.811861  0.186533  0.812786  1
  Y  Y3  1  0.187110  0.811760  0.189523  1
  Y  Y4  1  0.811779  0.812794  0.187713  1
  Y  Y5  1  0.187690  0.188939  0.811686  1
  Tm  Tm6  1  0.600273  0.597888  0.598675  1
  Tm  Tm7  1  0.600273  0.597888  0.203162  1
  Tm  Tm8  1  0.599350  0.204595  0.598026  1
  Tm  Tm9  1  0.191593  0.602254  0.603075  1
  Tm  Tm10  1  0.060528  0.438860  0.439261  1
  Tm  Tm11  1  0.435792  0.064087  0.063570  1
  Tm  Tm12  1  0.435792  0.064087  0.436550  1
  Tm  Tm13  1  0.060528  0.438860  0.061352  1
  Tm  Tm14  1  0.435930  0.436702  0.063684  1
  Tm  Tm15  1  0.060463  0.061932  0.438802  1
  Mg  Mg16  1  0.537614  0.821437  0.820474  1
  Ag  Ag17  1  0.831043  0.834973  0.834266  1
  Ag  Ag18  1  0.831043  0.834973  0.499718  1
  Hg  Hg19  1  0.831519  0.499780  0.834351  1
  Ir  Ir20  1  0.389020  0.394201  0.394056  1
  Ir  Ir21  1  0.389020  0.394201  0.822722  1
  Ir  Ir22  1  0.388814  0.822913  0.394136  1
  Ir  Ir23  1  0.823995  0.392047  0.391979  1
