# generated using pymatgen
data_YbMn5P3
_symmetry_space_group_name_H-M   'P 1'
_cell_length_a   3.57317000
_cell_length_b   10.77256600
_cell_length_c   12.25538500
_cell_angle_alpha   90.00000000
_cell_angle_beta   90.00000000
_cell_angle_gamma   90.00000000
_symmetry_Int_Tables_number   1
_chemical_formula_structural   YbMn5P3
_chemical_formula_sum   'Yb4 Mn20 P12'
_cell_volume   471.73684881
_cell_formula_units_Z   4
loop_
 _symmetry_equiv_pos_site_id
 _symmetry_equiv_pos_as_xyz
  1  'x, y, z'
loop_
 _atom_site_type_symbol
 _atom_site_label
 _atom_site_symmetry_multiplicity
 _atom_site_fract_x
 _atom_site_fract_y
 _atom_site_fract_z
 _atom_site_occupancy
  Yb  Yb0  1  0.250000  0.588099  0.707017  1
  Yb  Yb1  1  0.750000  0.411901  0.292983  1
  Yb  Yb2  1  0.750000  0.088099  0.792983  1
  Yb  Yb3  1  0.250000  0.911901  0.207017  1
  Mn  Mn4  1  0.250000  0.407672  0.493358  1
  Mn  Mn5  1  0.750000  0.711387  0.321456  1
  Mn  Mn6  1  0.750000  0.788613  0.821456  1
  Mn  Mn7  1  0.250000  0.288613  0.678544  1
  Mn  Mn8  1  0.250000  0.616421  0.193475  1
  Mn  Mn9  1  0.750000  0.383579  0.806525  1
  Mn  Mn10  1  0.750000  0.116421  0.306525  1
  Mn  Mn11  1  0.250000  0.883579  0.693475  1
  Mn  Mn12  1  0.250000  0.033919  0.434542  1
  Mn  Mn13  1  0.750000  0.966081  0.565458  1
  Mn  Mn14  1  0.750000  0.533919  0.065458  1
  Mn  Mn15  1  0.250000  0.466081  0.934542  1
  Mn  Mn16  1  0.750000  0.907672  0.006642  1
  Mn  Mn17  1  0.250000  0.092328  0.993358  1
  Mn  Mn18  1  0.250000  0.718032  0.983886  1
  Mn  Mn19  1  0.750000  0.281968  0.016114  1
  Mn  Mn20  1  0.750000  0.218032  0.516114  1
  Mn  Mn21  1  0.250000  0.781968  0.483886  1
  Mn  Mn22  1  0.250000  0.211387  0.178544  1
  Mn  Mn23  1  0.750000  0.592328  0.506642  1
  P  P24  1  0.250000  0.588262  0.382955  1
  P  P25  1  0.750000  0.411738  0.617045  1
  P  P26  1  0.750000  0.088262  0.117045  1
  P  P27  1  0.250000  0.911738  0.882955  1
  P  P28  1  0.750000  0.765111  0.627665  1
  P  P29  1  0.250000  0.234889  0.372335  1
  P  P30  1  0.250000  0.410929  0.115609  1
  P  P31  1  0.750000  0.589071  0.884391  1
  P  P32  1  0.750000  0.910929  0.384391  1
  P  P33  1  0.250000  0.089071  0.615609  1
  P  P34  1  0.250000  0.265111  0.872335  1
  P  P35  1  0.750000  0.734889  0.127665  1
