# generated using pymatgen
data_Sc8Re3B24Rh
_symmetry_space_group_name_H-M   'P 1'
_cell_length_a   3.51544300
_cell_length_b   8.90077510
_cell_length_c   11.20427986
_cell_angle_alpha   90.09541928
_cell_angle_beta   90.00000000
_cell_angle_gamma   90.00000000
_symmetry_Int_Tables_number   1
_chemical_formula_structural   Sc8Re3B24Rh
_chemical_formula_sum   'Sc8 Re3 B24 Rh1'
_cell_volume   350.58330779
_cell_formula_units_Z   1
loop_
 _symmetry_equiv_pos_site_id
 _symmetry_equiv_pos_as_xyz
  1  'x, y, z'
loop_
 _atom_site_type_symbol
 _atom_site_label
 _atom_site_symmetry_multiplicity
 _atom_site_fract_x
 _atom_site_fract_y
 _atom_site_fract_z
 _atom_site_occupancy
  Sc  Sc0  1  0.000000  0.945268  0.372040  1
  Sc  Sc1  1  0.000000  0.054973  0.627918  1
  Sc  Sc2  1  0.000000  0.555797  0.871822  1
  Sc  Sc3  1  0.000000  0.178654  0.911613  1
  Sc  Sc4  1  0.000000  0.825376  0.080303  1
  Sc  Sc5  1  0.000000  0.681824  0.591894  1
  Sc  Sc6  1  0.000000  0.313843  0.415110  1
  Sc  Sc7  1  0.000000  0.442341  0.127441  1
  Re  Re8  1  0.000000  0.139374  0.180397  1
  Re  Re9  1  0.000000  0.360912  0.678588  1
  Re  Re10  1  0.000000  0.860760  0.820348  1
  B  B11  1  0.500000  0.370357  0.817508  1
  B  B12  1  0.500000  0.979154  0.212512  1
  B  B13  1  0.500000  0.554601  0.435403  1
  B  B14  1  0.500000  0.295830  0.237416  1
  B  B15  1  0.500000  0.204947  0.735773  1
  B  B16  1  0.500000  0.098284  0.472607  1
  B  B17  1  0.500000  0.794202  0.263906  1
  B  B18  1  0.500000  0.446879  0.564255  1
  B  B19  1  0.500000  0.246411  0.578715  1
  B  B20  1  0.500000  0.480779  0.287556  1
  B  B21  1  0.500000  0.704821  0.764270  1
  B  B22  1  0.500000  0.752927  0.422266  1
  B  B23  1  0.500000  0.520789  0.712491  1
  B  B24  1  0.500000  0.898831  0.527208  1
  B  B25  1  0.500000  0.052909  0.065037  1
  B  B26  1  0.500000  0.600009  0.027906  1
  B  B27  1  0.500000  0.747023  0.921342  1
  B  B28  1  0.500000  0.020485  0.787091  1
  B  B29  1  0.500000  0.401387  0.973276  1
  B  B30  1  0.500000  0.946810  0.934805  1
  B  B31  1  0.500000  0.630910  0.181339  1
  B  B32  1  0.500000  0.253243  0.078813  1
  B  B33  1  0.500000  0.869559  0.682336  1
  B  B34  1  0.500000  0.130274  0.318437  1
  Rh  Rh35  1  0.000000  0.639458  0.320256  1
