# generated using pymatgen
data_Tb16Cd2Hg2IrRu2Pt
_symmetry_space_group_name_H-M   'P 1'
_cell_length_a   9.70514722
_cell_length_b   9.69521219
_cell_length_c   9.69521200
_cell_angle_alpha   59.86771233
_cell_angle_beta   59.87872466
_cell_angle_gamma   59.87872874
_symmetry_Int_Tables_number   1
_chemical_formula_structural   Tb16Cd2Hg2IrRu2Pt
_chemical_formula_sum   'Tb16 Cd2 Hg2 Ir1 Ru2 Pt1'
_cell_volume   643.23365871
_cell_formula_units_Z   1
loop_
 _symmetry_equiv_pos_site_id
 _symmetry_equiv_pos_as_xyz
  1  'x, y, z'
loop_
 _atom_site_type_symbol
 _atom_site_label
 _atom_site_symmetry_multiplicity
 _atom_site_fract_x
 _atom_site_fract_y
 _atom_site_fract_z
 _atom_site_occupancy
  Tb  Tb0  1  0.596740  0.597725  0.597767  1
  Tb  Tb1  1  0.602512  0.603503  0.200508  1
  Tb  Tb2  1  0.603075  0.199053  0.603720  1
  Tb  Tb3  1  0.199964  0.602379  0.601711  1
  Tb  Tb4  1  0.054513  0.441319  0.441721  1
  Tb  Tb5  1  0.437085  0.060398  0.060077  1
  Tb  Tb6  1  0.440521  0.054382  0.440214  1
  Tb  Tb7  1  0.060590  0.438099  0.058293  1
  Tb  Tb8  1  0.439714  0.439463  0.055320  1
  Tb  Tb9  1  0.060091  0.057695  0.439145  1
  Tb  Tb10  1  0.187820  0.811088  0.811578  1
  Tb  Tb11  1  0.812763  0.186606  0.189341  1
  Tb  Tb12  1  0.810484  0.188282  0.813139  1
  Tb  Tb13  1  0.186690  0.814215  0.189757  1
  Tb  Tb14  1  0.810006  0.812798  0.190145  1
  Tb  Tb15  1  0.187669  0.188611  0.813943  1
  Cd  Cd16  1  0.829906  0.507700  0.830261  1
  Cd  Cd17  1  0.507152  0.829772  0.830436  1
  Hg  Hg18  1  0.833944  0.833188  0.835249  1
  Hg  Hg19  1  0.833867  0.833408  0.496279  1
  Ir  Ir20  1  0.826932  0.391242  0.391392  1
  Ru  Ru21  1  0.392144  0.389849  0.828710  1
  Ru  Ru22  1  0.392148  0.828345  0.390311  1
  Pt  Pt23  1  0.393672  0.390883  0.390987  1
