# generated using pymatgen
data_Ho7Er(Nb3Si4)4
_symmetry_space_group_name_H-M   'P 1'
_cell_length_a   7.05733739
_cell_length_b   7.05733304
_cell_length_c   13.01150525
_cell_angle_alpha   90.01119735
_cell_angle_beta   90.00712807
_cell_angle_gamma   89.96999361
_symmetry_Int_Tables_number   1
_chemical_formula_structural   Ho7Er(Nb3Si4)4
_chemical_formula_sum   'Ho7 Er1 Nb12 Si16'
_cell_volume   648.05066858
_cell_formula_units_Z   1
loop_
 _symmetry_equiv_pos_site_id
 _symmetry_equiv_pos_as_xyz
  1  'x, y, z'
loop_
 _atom_site_type_symbol
 _atom_site_label
 _atom_site_symmetry_multiplicity
 _atom_site_fract_x
 _atom_site_fract_y
 _atom_site_fract_z
 _atom_site_occupancy
  Ho  Ho0  1  0.998427  0.341252  0.217865  1
  Ho  Ho1  1  0.001478  0.658501  0.717748  1
  Ho  Ho2  1  0.158521  0.498731  0.467716  1
  Ho  Ho3  1  0.501646  0.841684  0.032241  1
  Ho  Ho4  1  0.841971  0.501379  0.967911  1
  Ho  Ho5  1  0.498723  0.158428  0.532166  1
  Ho  Ho6  1  0.341648  0.998410  0.782167  1
  Er  Er7  1  0.657985  0.000892  0.282145  1
  Nb  Nb8  1  0.171179  0.171363  0.000057  1
  Nb  Nb9  1  0.828659  0.829116  0.499772  1
  Nb  Nb10  1  0.328955  0.671060  0.250145  1
  Nb  Nb11  1  0.671294  0.328920  0.749914  1
  Nb  Nb12  1  0.152821  0.992749  0.375904  1
  Nb  Nb13  1  0.846893  0.007200  0.876062  1
  Nb  Nb14  1  0.506815  0.653347  0.626286  1
  Nb  Nb15  1  0.346751  0.493077  0.873800  1
  Nb  Nb16  1  0.493306  0.346367  0.126624  1
  Nb  Nb17  1  0.652862  0.506813  0.373480  1
  Nb  Nb18  1  0.992658  0.153641  0.623777  1
  Nb  Nb19  1  0.006933  0.846970  0.124161  1
  Si  Si20  1  0.294120  0.045532  0.186540  1
  Si  Si21  1  0.706420  0.954241  0.686389  1
  Si  Si22  1  0.454443  0.794113  0.436302  1
  Si  Si23  1  0.206393  0.545607  0.063811  1
  Si  Si24  1  0.545728  0.206265  0.936433  1
  Si  Si25  1  0.793721  0.454596  0.563399  1
  Si  Si26  1  0.045883  0.293713  0.813546  1
  Si  Si27  1  0.953883  0.706259  0.313562  1
  Si  Si28  1  0.366836  0.294648  0.318349  1
  Si  Si29  1  0.633414  0.704683  0.818272  1
  Si  Si30  1  0.204550  0.866967  0.568219  1
  Si  Si31  1  0.133391  0.795470  0.931860  1
  Si  Si32  1  0.795337  0.133222  0.068467  1
  Si  Si33  1  0.866258  0.204558  0.431340  1
  Si  Si34  1  0.295369  0.366773  0.681772  1
  Si  Si35  1  0.704733  0.633451  0.181800  1
