# generated using pymatgen
data_La13PrPt5Rh
_symmetry_space_group_name_H-M   'P 1'
_cell_length_a   6.59637253
_cell_length_b   10.31341020
_cell_length_c   10.31696749
_cell_angle_alpha   119.99210038
_cell_angle_beta   90.02554877
_cell_angle_gamma   90.00254289
_symmetry_Int_Tables_number   1
_chemical_formula_structural   La13PrPt5Rh
_chemical_formula_sum   'La13 Pr1 Pt5 Rh1'
_cell_volume   607.88952611
_cell_formula_units_Z   1
loop_
 _symmetry_equiv_pos_site_id
 _symmetry_equiv_pos_as_xyz
  1  'x, y, z'
loop_
 _atom_site_type_symbol
 _atom_site_label
 _atom_site_symmetry_multiplicity
 _atom_site_fract_x
 _atom_site_fract_y
 _atom_site_fract_z
 _atom_site_occupancy
  La  La0  1  0.468579  0.332697  0.665446  1
  La  La1  1  0.964209  0.666340  0.332605  1
  La  La2  1  0.239390  0.126738  0.872479  1
  La  La3  1  0.239415  0.745757  0.872491  1
  La  La4  1  0.241395  0.126836  0.253707  1
  La  La5  1  0.738552  0.877015  0.129869  1
  La  La6  1  0.738618  0.252853  0.129872  1
  La  La7  1  0.739785  0.873471  0.746932  1
  La  La8  1  0.439851  0.537009  0.463344  1
  La  La9  1  0.439862  0.926355  0.463351  1
  La  La10  1  0.442861  0.537175  0.074304  1
  La  La11  1  0.937633  0.457649  0.535603  1
  La  La12  1  0.937733  0.077929  0.535583  1
  Pr  Pr13  1  0.943915  0.462119  0.924290  1
  Pt  Pt14  1  0.196679  0.811939  0.187437  1
  Pt  Pt15  1  0.196699  0.375498  0.187462  1
  Pt  Pt16  1  0.192942  0.811804  0.623606  1
  Pt  Pt17  1  0.693090  0.187219  0.812579  1
  Pt  Pt18  1  0.693139  0.625345  0.812556  1
  Rh  Rh19  1  0.701653  0.188249  0.376484  1
