# generated using pymatgen
data_La7Pr9Mg3HgIr4
_symmetry_space_group_name_H-M   'P 1'
_cell_length_a   10.07755838
_cell_length_b   10.09587556
_cell_length_c   10.11905898
_cell_angle_alpha   60.06564094
_cell_angle_beta   60.37215706
_cell_angle_gamma   60.53940603
_symmetry_Int_Tables_number   1
_chemical_formula_structural   La7Pr9Mg3HgIr4
_chemical_formula_sum   'La7 Pr9 Mg3 Hg1 Ir4'
_cell_volume   733.32806382
_cell_formula_units_Z   1
loop_
 _symmetry_equiv_pos_site_id
 _symmetry_equiv_pos_as_xyz
  1  'x, y, z'
loop_
 _atom_site_type_symbol
 _atom_site_label
 _atom_site_symmetry_multiplicity
 _atom_site_fract_x
 _atom_site_fract_y
 _atom_site_fract_z
 _atom_site_occupancy
  La  La0  1  0.344949  0.345590  0.347026  1
  La  La1  1  0.347627  0.345250  0.959998  1
  La  La2  1  0.349138  0.958575  0.345783  1
  La  La3  1  0.960248  0.347532  0.347233  1
  La  La4  1  0.811848  0.187607  0.186144  1
  La  La5  1  0.186767  0.811453  0.809639  1
  La  La6  1  0.187363  0.812282  0.187569  1
  Pr  Pr7  1  0.807535  0.190775  0.808063  1
  Pr  Pr8  1  0.189377  0.190757  0.808591  1
  Pr  Pr9  1  0.805465  0.807743  0.191037  1
  Pr  Pr10  1  0.936042  0.562394  0.563046  1
  Pr  Pr11  1  0.561565  0.936613  0.935951  1
  Pr  Pr12  1  0.561537  0.936672  0.562084  1
  Pr  Pr13  1  0.936872  0.560888  0.937186  1
  Pr  Pr14  1  0.561951  0.561166  0.936755  1
  Pr  Pr15  1  0.937031  0.938167  0.561513  1
  Mg  Mg16  1  0.579862  0.579726  0.266038  1
  Mg  Mg17  1  0.578754  0.266261  0.580541  1
  Mg  Mg18  1  0.266184  0.577959  0.579937  1
  Hg  Hg19  1  0.583668  0.581708  0.581796  1
  Ir  Ir20  1  0.138537  0.139416  0.145631  1
  Ir  Ir21  1  0.145599  0.138648  0.574313  1
  Ir  Ir22  1  0.146794  0.577147  0.139280  1
  Ir  Ir23  1  0.575290  0.145672  0.144847  1
