# generated using pymatgen
data_ErPa2(GePd)4
_symmetry_space_group_name_H-M   'P 1'
_cell_length_a   8.15331399
_cell_length_b   8.15331422
_cell_length_c   8.15331449
_cell_angle_alpha   149.89678889
_cell_angle_beta   129.28049714
_cell_angle_gamma   60.11632308
_symmetry_Int_Tables_number   1
_chemical_formula_structural   ErPa2(GePd)4
_chemical_formula_sum   'Er1 Pa2 Ge4 Pd4'
_cell_volume   208.70859204
_cell_formula_units_Z   1
loop_
 _symmetry_equiv_pos_site_id
 _symmetry_equiv_pos_as_xyz
  1  'x, y, z'
loop_
 _atom_site_type_symbol
 _atom_site_label
 _atom_site_symmetry_multiplicity
 _atom_site_fract_x
 _atom_site_fract_y
 _atom_site_fract_z
 _atom_site_occupancy
  Er  Er0  1  0.371997  0.871997  0.500000  1
  Pa  Pa1  1  0.627730  0.127730  0.500000  1
  Pa  Pa2  1  0.000416  0.000416  0.000000  1
  Ge  Ge3  1  0.789658  0.789658  0.000000  1
  Ge  Ge4  1  0.214596  0.214596  0.000000  1
  Ge  Ge5  1  0.306481  0.499278  0.807204  1
  Ge  Ge6  1  0.692074  0.499278  0.192796  1
  Pd  Pd7  1  0.376793  0.672753  0.704040  1
  Pd  Pd8  1  0.027521  0.325771  0.701751  1
  Pd  Pd9  1  0.968713  0.672753  0.295960  1
  Pd  Pd10  1  0.624020  0.325771  0.298249  1
