# generated using pymatgen
data_Cs4CdCl6
_symmetry_space_group_name_H-M   'P 1'
_cell_length_a   9.45401639
_cell_length_b   9.45401816
_cell_length_c   9.45401741
_cell_angle_alpha   88.97599204
_cell_angle_beta   91.02400825
_cell_angle_gamma   91.02401242
_symmetry_Int_Tables_number   1
_chemical_formula_structural   Cs4CdCl6
_chemical_formula_sum   'Cs8 Cd2 Cl12'
_cell_volume   844.58526582
_cell_formula_units_Z   2
loop_
 _symmetry_equiv_pos_site_id
 _symmetry_equiv_pos_as_xyz
  1  'x, y, z'
loop_
 _atom_site_type_symbol
 _atom_site_label
 _atom_site_symmetry_multiplicity
 _atom_site_fract_x
 _atom_site_fract_y
 _atom_site_fract_z
 _atom_site_occupancy
  Cs  Cs0  1  0.623983  0.749999  0.123983  1
  Cs  Cs1  1  0.123982  0.623983  0.249999  1
  Cs  Cs2  1  0.750000  0.250000  0.250000  1
  Cs  Cs3  1  0.250000  0.123982  0.376018  1
  Cs  Cs4  1  0.750000  0.876017  0.623982  1
  Cs  Cs5  1  0.876018  0.376017  0.750000  1
  Cs  Cs6  1  0.250000  0.750000  0.750000  1
  Cs  Cs7  1  0.376017  0.250000  0.876017  1
  Cd  Cd8  1  0.000000  0.000000  0.000000  1
  Cd  Cd9  1  0.500000  0.500000  0.500000  1
  Cl  Cl10  1  0.273855  0.932191  0.059752  1
  Cl  Cl11  1  0.059751  0.273854  0.067809  1
  Cl  Cl12  1  0.440248  0.432191  0.226145  1
  Cl  Cl13  1  0.932190  0.940248  0.273854  1
  Cl  Cl14  1  0.773854  0.559752  0.432191  1
  Cl  Cl15  1  0.432191  0.773854  0.440249  1
  Cl  Cl16  1  0.567809  0.226145  0.559752  1
  Cl  Cl17  1  0.226146  0.440249  0.567810  1
  Cl  Cl18  1  0.067810  0.059751  0.726146  1
  Cl  Cl19  1  0.559752  0.567810  0.773855  1
  Cl  Cl20  1  0.940249  0.726145  0.932191  1
  Cl  Cl21  1  0.726146  0.067810  0.940249  1
