# generated using pymatgen
data_Pr4DyPb4
_symmetry_space_group_name_H-M   'P 1'
_cell_length_a   8.42724600
_cell_length_b   16.24796400
_cell_length_c   8.53726200
_cell_angle_alpha   90.00000000
_cell_angle_beta   90.00000000
_cell_angle_gamma   90.00000000
_symmetry_Int_Tables_number   1
_chemical_formula_structural   Pr4DyPb4
_chemical_formula_sum   'Pr16 Dy4 Pb16'
_cell_volume   1168.96963315
_cell_formula_units_Z   4
loop_
 _symmetry_equiv_pos_site_id
 _symmetry_equiv_pos_as_xyz
  1  'x, y, z'
loop_
 _atom_site_type_symbol
 _atom_site_label
 _atom_site_symmetry_multiplicity
 _atom_site_fract_x
 _atom_site_fract_y
 _atom_site_fract_z
 _atom_site_occupancy
  Pr  Pr0  1  0.623329  0.619223  0.157381  1
  Pr  Pr1  1  0.123329  0.880777  0.342619  1
  Pr  Pr2  1  0.376671  0.119223  0.842619  1
  Pr  Pr3  1  0.876671  0.380777  0.657381  1
  Pr  Pr4  1  0.376671  0.380777  0.842619  1
  Pr  Pr5  1  0.876671  0.119223  0.657381  1
  Pr  Pr6  1  0.623329  0.880777  0.157381  1
  Pr  Pr7  1  0.123329  0.619223  0.342619  1
  Pr  Pr8  1  0.466722  0.600433  0.678067  1
  Pr  Pr9  1  0.966722  0.899567  0.821933  1
  Pr  Pr10  1  0.533278  0.100433  0.321933  1
  Pr  Pr11  1  0.033278  0.399567  0.178067  1
  Pr  Pr12  1  0.533278  0.399567  0.321933  1
  Pr  Pr13  1  0.033278  0.100433  0.178067  1
  Pr  Pr14  1  0.466722  0.899567  0.678067  1
  Pr  Pr15  1  0.966722  0.600433  0.821933  1
  Dy  Dy16  1  0.789900  0.750000  0.496954  1
  Dy  Dy17  1  0.289900  0.750000  0.003046  1
  Dy  Dy18  1  0.210100  0.250000  0.503046  1
  Dy  Dy19  1  0.710100  0.250000  0.996954  1
  Pb  Pb20  1  0.718584  0.453461  0.969614  1
  Pb  Pb21  1  0.218584  0.046539  0.530386  1
  Pb  Pb22  1  0.281416  0.953461  0.030386  1
  Pb  Pb23  1  0.781416  0.546539  0.469614  1
  Pb  Pb24  1  0.281416  0.546539  0.030386  1
  Pb  Pb25  1  0.781416  0.953461  0.469614  1
  Pb  Pb26  1  0.718584  0.046539  0.969614  1
  Pb  Pb27  1  0.218584  0.453461  0.530386  1
  Pb  Pb28  1  0.428332  0.750000  0.375102  1
  Pb  Pb29  1  0.928332  0.750000  0.124898  1
  Pb  Pb30  1  0.571668  0.250000  0.624898  1
  Pb  Pb31  1  0.071668  0.250000  0.875102  1
  Pb  Pb32  1  0.657403  0.750000  0.847455  1
  Pb  Pb33  1  0.157403  0.750000  0.652545  1
  Pb  Pb34  1  0.342597  0.250000  0.152545  1
  Pb  Pb35  1  0.842597  0.250000  0.347455  1
