# generated using pymatgen
data_CaZn2SiAu
_symmetry_space_group_name_H-M   'P 1'
_cell_length_a   6.32061505
_cell_length_b   6.32061504
_cell_length_c   6.32061552
_cell_angle_alpha   141.66185305
_cell_angle_beta   141.66185774
_cell_angle_gamma   55.33849125
_symmetry_Int_Tables_number   1
_chemical_formula_structural   CaZn2SiAu
_chemical_formula_sum   'Ca1 Zn2 Si1 Au1'
_cell_volume   96.44703105
_cell_formula_units_Z   1
loop_
 _symmetry_equiv_pos_site_id
 _symmetry_equiv_pos_as_xyz
  1  'x, y, z'
loop_
 _atom_site_type_symbol
 _atom_site_label
 _atom_site_symmetry_multiplicity
 _atom_site_fract_x
 _atom_site_fract_y
 _atom_site_fract_z
 _atom_site_occupancy
  Ca  Ca0  1  0.995678  0.995678  0.000000  1
  Zn  Zn1  1  0.258268  0.758268  0.500000  1
  Zn  Zn2  1  0.758268  0.258268  0.500000  1
  Si  Si3  1  0.383737  0.383737  0.000000  1
  Au  Au4  1  0.604049  0.604049  0.000000  1
