# generated using pymatgen
data_Dy11Ho9(CoSb2)4
_symmetry_space_group_name_H-M   'P 1'
_cell_length_a   7.89706403
_cell_length_b   8.76174500
_cell_length_c   12.20520845
_cell_angle_alpha   90.00000000
_cell_angle_beta   89.94289354
_cell_angle_gamma   90.00000000
_symmetry_Int_Tables_number   1
_chemical_formula_structural   Dy11Ho9(CoSb2)4
_chemical_formula_sum   'Dy11 Ho9 Co4 Sb8'
_cell_volume   844.50311091
_cell_formula_units_Z   1
loop_
 _symmetry_equiv_pos_site_id
 _symmetry_equiv_pos_as_xyz
  1  'x, y, z'
loop_
 _atom_site_type_symbol
 _atom_site_label
 _atom_site_symmetry_multiplicity
 _atom_site_fract_x
 _atom_site_fract_y
 _atom_site_fract_z
 _atom_site_occupancy
  Dy  Dy0  1  0.345226  0.750000  0.703220  1
  Dy  Dy1  1  0.845769  0.250000  0.796974  1
  Dy  Dy2  1  0.654814  0.250000  0.296795  1
  Dy  Dy3  1  0.453743  0.750000  0.998219  1
  Dy  Dy4  1  0.046208  0.750000  0.498192  1
  Dy  Dy5  1  0.546031  0.250000  0.001893  1
  Dy  Dy6  1  0.953892  0.250000  0.501658  1
  Dy  Dy7  1  0.620765  0.750000  0.306951  1
  Dy  Dy8  1  0.878891  0.750000  0.806891  1
  Dy  Dy9  1  0.379057  0.250000  0.692946  1
  Dy  Dy10  1  0.121035  0.250000  0.193126  1
  Ho  Ho11  1  0.154231  0.750000  0.202677  1
  Ho  Ho12  1  0.822566  0.535759  0.065351  1
  Ho  Ho13  1  0.677542  0.964504  0.564874  1
  Ho  Ho14  1  0.177580  0.035441  0.934940  1
  Ho  Ho15  1  0.322473  0.464439  0.435063  1
  Ho  Ho16  1  0.177580  0.464559  0.934940  1
  Ho  Ho17  1  0.322473  0.035561  0.435063  1
  Ho  Ho18  1  0.822566  0.964241  0.065351  1
  Ho  Ho19  1  0.677542  0.535496  0.564874  1
  Co  Co20  1  0.434477  0.750000  0.490917  1
  Co  Co21  1  0.065616  0.750000  0.990827  1
  Co  Co22  1  0.565511  0.250000  0.509034  1
  Co  Co23  1  0.934330  0.250000  0.009386  1
  Sb  Sb24  1  0.928668  0.509001  0.326969  1
  Sb  Sb25  1  0.571649  0.991530  0.826790  1
  Sb  Sb26  1  0.071677  0.008653  0.672853  1
  Sb  Sb27  1  0.428049  0.491721  0.173308  1
  Sb  Sb28  1  0.071677  0.491347  0.672853  1
  Sb  Sb29  1  0.428049  0.008279  0.173308  1
  Sb  Sb30  1  0.928668  0.990999  0.326969  1
  Sb  Sb31  1  0.571649  0.508470  0.826790  1
