# generated using pymatgen
data_Ce3Ho7(GePb3)2
_symmetry_space_group_name_H-M   'P 1'
_cell_length_a   6.38647301
_cell_length_b   9.47540655
_cell_length_c   9.47540814
_cell_angle_alpha   119.96238659
_cell_angle_beta   90.00265534
_cell_angle_gamma   90.00265548
_symmetry_Int_Tables_number   1
_chemical_formula_structural   Ce3Ho7(GePb3)2
_chemical_formula_sum   'Ce3 Ho7 Ge2 Pb6'
_cell_volume   496.76612087
_cell_formula_units_Z   1
loop_
 _symmetry_equiv_pos_site_id
 _symmetry_equiv_pos_as_xyz
  1  'x, y, z'
loop_
 _atom_site_type_symbol
 _atom_site_label
 _atom_site_symmetry_multiplicity
 _atom_site_fract_x
 _atom_site_fract_y
 _atom_site_fract_z
 _atom_site_occupancy
  Ce  Ce0  1  0.000000  0.333374  0.666626  1
  Ce  Ce1  1  0.500000  0.333422  0.666578  1
  Ce  Ce2  1  0.500000  0.666600  0.333400  1
  Ho  Ho3  1  0.749977  0.748062  0.748899  1
  Ho  Ho4  1  0.750003  0.251067  0.999145  1
  Ho  Ho5  1  0.749957  0.000810  0.251936  1
  Ho  Ho6  1  0.250023  0.251101  0.251938  1
  Ho  Ho7  1  0.250043  0.748064  0.999190  1
  Ho  Ho8  1  0.249997  0.000855  0.748933  1
  Ho  Ho9  1  0.000000  0.666667  0.333333  1
  Ge  Ge10  1  0.000000  0.999980  0.000020  1
  Ge  Ge11  1  0.500000  0.999996  0.000004  1
  Pb  Pb12  1  0.750920  0.388922  0.386101  1
  Pb  Pb13  1  0.750898  0.613830  0.002816  1
  Pb  Pb14  1  0.750811  0.997285  0.611119  1
  Pb  Pb15  1  0.249080  0.613899  0.611078  1
  Pb  Pb16  1  0.249189  0.388881  0.002715  1
  Pb  Pb17  1  0.249102  0.997184  0.386170  1
