# generated using pymatgen
data_Y2Al4CoGe2
_symmetry_space_group_name_H-M   'P 1'
_cell_length_a   4.13134017
_cell_length_b   4.13135169
_cell_length_c   10.20518639
_cell_angle_alpha   101.78253388
_cell_angle_beta   101.78447941
_cell_angle_gamma   89.93658013
_symmetry_Int_Tables_number   1
_chemical_formula_structural   Y2Al4CoGe2
_chemical_formula_sum   'Y2 Al4 Co1 Ge2'
_cell_volume   166.76846381
_cell_formula_units_Z   1
loop_
 _symmetry_equiv_pos_site_id
 _symmetry_equiv_pos_as_xyz
  1  'x, y, z'
loop_
 _atom_site_type_symbol
 _atom_site_label
 _atom_site_symmetry_multiplicity
 _atom_site_fract_x
 _atom_site_fract_y
 _atom_site_fract_z
 _atom_site_occupancy
  Y  Y0  1  0.184139  0.184154  0.367902  1
  Y  Y1  1  0.815868  0.815874  0.632091  1
  Al  Al2  1  0.566118  0.065101  0.130945  1
  Al  Al3  1  0.065097  0.566108  0.130947  1
  Al  Al4  1  0.934921  0.433882  0.869058  1
  Al  Al5  1  0.433887  0.934900  0.869055  1
  Co  Co6  1  0.000002  0.999996  0.000000  1
  Ge  Ge7  1  0.663337  0.663332  0.326905  1
  Ge  Ge8  1  0.336636  0.336659  0.673098  1
