# generated using pymatgen
data_Ho5Sn4
_symmetry_space_group_name_H-M   'P 1'
_cell_length_a   8.00268700
_cell_length_b   8.14886400
_cell_length_c   15.38404700
_cell_angle_alpha   90.00000000
_cell_angle_beta   90.00000000
_cell_angle_gamma   90.00000000
_symmetry_Int_Tables_number   1
_chemical_formula_structural   Ho5Sn4
_chemical_formula_sum   'Ho20 Sn16'
_cell_volume   1003.23690324
_cell_formula_units_Z   4
loop_
 _symmetry_equiv_pos_site_id
 _symmetry_equiv_pos_as_xyz
  1  'x, y, z'
loop_
 _atom_site_type_symbol
 _atom_site_label
 _atom_site_symmetry_multiplicity
 _atom_site_fract_x
 _atom_site_fract_y
 _atom_site_fract_z
 _atom_site_occupancy
  Ho  Ho0  1  0.368376  0.835760  0.878764  1
  Ho  Ho1  1  0.868376  0.664240  0.621236  1
  Ho  Ho2  1  0.631624  0.164240  0.378764  1
  Ho  Ho3  1  0.131624  0.335760  0.121236  1
  Ho  Ho4  1  0.631624  0.164240  0.121236  1
  Ho  Ho5  1  0.131624  0.335760  0.378764  1
  Ho  Ho6  1  0.368376  0.835760  0.621236  1
  Ho  Ho7  1  0.868376  0.664240  0.878764  1
  Ho  Ho8  1  0.519766  0.318659  0.901459  1
  Ho  Ho9  1  0.019766  0.181341  0.598541  1
  Ho  Ho10  1  0.480234  0.681341  0.401459  1
  Ho  Ho11  1  0.980234  0.818659  0.098541  1
  Ho  Ho12  1  0.480234  0.681341  0.098541  1
  Ho  Ho13  1  0.980234  0.818659  0.401459  1
  Ho  Ho14  1  0.519766  0.318659  0.598541  1
  Ho  Ho15  1  0.019766  0.181341  0.901459  1
  Ho  Ho16  1  0.198063  0.502639  0.750000  1
  Ho  Ho17  1  0.698063  0.997361  0.750000  1
  Ho  Ho18  1  0.801937  0.497361  0.250000  1
  Ho  Ho19  1  0.301937  0.002639  0.250000  1
  Sn  Sn20  1  0.290820  0.034320  0.042123  1
  Sn  Sn21  1  0.790820  0.465680  0.457877  1
  Sn  Sn22  1  0.709180  0.965680  0.542123  1
  Sn  Sn23  1  0.209180  0.534320  0.957877  1
  Sn  Sn24  1  0.709180  0.965680  0.957877  1
  Sn  Sn25  1  0.209180  0.534320  0.542123  1
  Sn  Sn26  1  0.290820  0.034320  0.457877  1
  Sn  Sn27  1  0.790820  0.465680  0.042123  1
  Sn  Sn28  1  0.565129  0.619966  0.750000  1
  Sn  Sn29  1  0.065129  0.880034  0.750000  1
  Sn  Sn30  1  0.434871  0.380034  0.250000  1
  Sn  Sn31  1  0.934871  0.119966  0.250000  1
  Sn  Sn32  1  0.326492  0.145539  0.750000  1
  Sn  Sn33  1  0.826492  0.354461  0.750000  1
  Sn  Sn34  1  0.673508  0.854461  0.250000  1
  Sn  Sn35  1  0.173508  0.645539  0.250000  1
