# generated using pymatgen
data_Y4GeSb5Rh7
_symmetry_space_group_name_H-M   'P 1'
_cell_length_a   7.57373107
_cell_length_b   7.57383018
_cell_length_c   7.57382926
_cell_angle_alpha   108.32616109
_cell_angle_beta   110.04626529
_cell_angle_gamma   110.04627066
_symmetry_Int_Tables_number   1
_chemical_formula_structural   Y4GeSb5Rh7
_chemical_formula_sum   'Y4 Ge1 Sb5 Rh7'
_cell_volume   334.34487265
_cell_formula_units_Z   1
loop_
 _symmetry_equiv_pos_site_id
 _symmetry_equiv_pos_as_xyz
  1  'x, y, z'
loop_
 _atom_site_type_symbol
 _atom_site_label
 _atom_site_symmetry_multiplicity
 _atom_site_fract_x
 _atom_site_fract_y
 _atom_site_fract_z
 _atom_site_occupancy
  Y  Y0  1  0.999999  0.992381  0.517040  1
  Y  Y1  1  0.999999  0.517040  0.992381  1
  Y  Y2  1  0.475341  0.992381  0.992381  1
  Y  Y3  1  0.524660  0.517045  0.517045  1
  Ge  Ge4  1  0.000003  0.662890  0.662890  1
  Sb  Sb5  1  0.683694  0.690463  0.006769  1
  Sb  Sb6  1  0.316305  0.006771  0.323077  1
  Sb  Sb7  1  0.999996  0.314356  0.314356  1
  Sb  Sb8  1  0.316305  0.323077  0.006771  1
  Sb  Sb9  1  0.683694  0.006769  0.690463  1
  Rh  Rh10  1  0.752665  0.254799  0.502140  1
  Rh  Rh11  1  0.752665  0.502140  0.254799  1
  Rh  Rh12  1  0.499998  0.254553  0.754555  1
  Rh  Rh13  1  0.247341  0.502144  0.749480  1
  Rh  Rh14  1  0.247341  0.749480  0.502144  1
  Rh  Rh15  1  0.499998  0.754555  0.254553  1
  Rh  Rh16  1  0.999996  0.959155  0.959155  1
