# generated using pymatgen
data_Ta8Nb2Si5Au
_symmetry_space_group_name_H-M   'P 1'
_cell_length_a   7.57469976
_cell_length_b   7.57469911
_cell_length_c   7.57959654
_cell_angle_alpha   127.93432418
_cell_angle_beta   127.95874001
_cell_angle_gamma   76.66484433
_symmetry_Int_Tables_number   1
_chemical_formula_structural   Ta8Nb2Si5Au
_chemical_formula_sum   'Ta8 Nb2 Si5 Au1'
_cell_volume   262.72571625
_cell_formula_units_Z   1
loop_
 _symmetry_equiv_pos_site_id
 _symmetry_equiv_pos_as_xyz
  1  'x, y, z'
loop_
 _atom_site_type_symbol
 _atom_site_label
 _atom_site_symmetry_multiplicity
 _atom_site_fract_x
 _atom_site_fract_y
 _atom_site_fract_z
 _atom_site_occupancy
  Ta  Ta0  1  0.506641  0.020365  0.825426  1
  Ta  Ta1  1  0.194939  0.681214  0.174574  1
  Ta  Ta2  1  0.993741  0.819101  0.514025  1
  Ta  Ta3  1  0.305077  0.479717  0.485975  1
  Ta  Ta4  1  0.478874  0.992867  0.174332  1
  Ta  Ta5  1  0.818536  0.304542  0.825668  1
  Ta  Ta6  1  0.998274  0.998274  0.000000  1
  Ta  Ta7  1  0.501879  0.501879  0.000000  1
  Nb  Nb8  1  0.021802  0.195908  0.515123  1
  Nb  Nb9  1  0.680785  0.506679  0.484877  1
  Si  Si10  1  0.249842  0.249842  0.000000  1
  Si  Si11  1  0.369417  0.130597  0.500099  1
  Si  Si12  1  0.630498  0.869318  0.499901  1
  Si  Si13  1  0.869345  0.369401  0.238717  1
  Si  Si14  1  0.130684  0.630628  0.761283  1
  Au  Au15  1  0.749668  0.749668  0.000000  1
