# generated using pymatgen
data_TbNp(Si7Ir3)2
_symmetry_space_group_name_H-M   'P 1'
_cell_length_a   8.07061205
_cell_length_b   8.07061323
_cell_length_c   8.07061263
_cell_angle_alpha   56.77996799
_cell_angle_beta   56.77996925
_cell_angle_gamma   56.77995990
_symmetry_Int_Tables_number   1
_chemical_formula_structural   TbNp(Si7Ir3)2
_chemical_formula_sum   'Tb1 Np1 Si14 Ir6'
_cell_volume   344.08223436
_cell_formula_units_Z   1
loop_
 _symmetry_equiv_pos_site_id
 _symmetry_equiv_pos_as_xyz
  1  'x, y, z'
loop_
 _atom_site_type_symbol
 _atom_site_label
 _atom_site_symmetry_multiplicity
 _atom_site_fract_x
 _atom_site_fract_y
 _atom_site_fract_z
 _atom_site_occupancy
  Tb  Tb0  1  0.500000  0.500000  0.500000  1
  Np  Np1  1  0.000000  0.000000  0.000000  1
  Si  Si2  1  0.850524  0.063845  0.673489  1
  Si  Si3  1  0.673489  0.850524  0.063845  1
  Si  Si4  1  0.063845  0.673489  0.850524  1
  Si  Si5  1  0.649028  0.827292  0.435138  1
  Si  Si6  1  0.249614  0.249614  0.249614  1
  Si  Si7  1  0.750386  0.750386  0.750386  1
  Si  Si8  1  0.172708  0.564862  0.350972  1
  Si  Si9  1  0.564862  0.350972  0.172708  1
  Si  Si10  1  0.350972  0.172708  0.564862  1
  Si  Si11  1  0.936155  0.326511  0.149476  1
  Si  Si12  1  0.326511  0.149476  0.936155  1
  Si  Si13  1  0.149476  0.936155  0.326511  1
  Si  Si14  1  0.827292  0.435138  0.649028  1
  Si  Si15  1  0.435138  0.649028  0.827292  1
  Ir  Ir16  1  0.749613  0.069377  0.431059  1
  Ir  Ir17  1  0.431059  0.749613  0.069377  1
  Ir  Ir18  1  0.069377  0.431059  0.749613  1
  Ir  Ir19  1  0.250387  0.930623  0.568941  1
  Ir  Ir20  1  0.568941  0.250387  0.930623  1
  Ir  Ir21  1  0.930623  0.568941  0.250387  1
