# generated using pymatgen
data_Cs10Fe5CoS14
_symmetry_space_group_name_H-M   'P 1'
_cell_length_a   10.66668595
_cell_length_b   10.66668445
_cell_length_c   9.03559774
_cell_angle_alpha   79.04947373
_cell_angle_beta   79.04947275
_cell_angle_gamma   74.64364085
_symmetry_Int_Tables_number   1
_chemical_formula_structural   Cs10Fe5CoS14
_chemical_formula_sum   'Cs10 Fe5 Co1 S14'
_cell_volume   962.65104957
_cell_formula_units_Z   1
loop_
 _symmetry_equiv_pos_site_id
 _symmetry_equiv_pos_as_xyz
  1  'x, y, z'
loop_
 _atom_site_type_symbol
 _atom_site_label
 _atom_site_symmetry_multiplicity
 _atom_site_fract_x
 _atom_site_fract_y
 _atom_site_fract_z
 _atom_site_occupancy
  Cs  Cs0  1  0.040850  0.426162  0.727371  1
  Cs  Cs1  1  0.426162  0.040850  0.727371  1
  Cs  Cs2  1  0.962163  0.570373  0.271623  1
  Cs  Cs3  1  0.570373  0.962163  0.271623  1
  Cs  Cs4  1  0.293390  0.704940  0.001606  1
  Cs  Cs5  1  0.704940  0.293390  0.001606  1
  Cs  Cs6  1  0.847525  0.153918  0.498274  1
  Cs  Cs7  1  0.153918  0.847525  0.498274  1
  Cs  Cs8  1  0.428930  0.428930  0.692181  1
  Cs  Cs9  1  0.569406  0.569406  0.308944  1
  Fe  Fe10  1  0.794727  0.794727  0.812794  1
  Fe  Fe11  1  0.071957  0.071957  0.062804  1
  Fe  Fe12  1  0.931281  0.931281  0.942448  1
  Fe  Fe13  1  0.332580  0.332580  0.321885  1
  Fe  Fe14  1  0.665637  0.665637  0.674830  1
  Co  Co15  1  0.204521  0.204521  0.185586  1
  S  S16  1  0.004216  0.271558  0.119804  1
  S  S17  1  0.271558  0.004216  0.119804  1
  S  S18  1  0.991807  0.731318  0.879724  1
  S  S19  1  0.731318  0.991807  0.879724  1
  S  S20  1  0.200364  0.200364  0.430830  1
  S  S21  1  0.801257  0.801257  0.567831  1
  S  S22  1  0.060500  0.060500  0.821369  1
  S  S23  1  0.939370  0.939370  0.182298  1
  S  S24  1  0.336005  0.336005  0.072401  1
  S  S25  1  0.664975  0.664975  0.926877  1
  S  S26  1  0.252003  0.535065  0.388967  1
  S  S27  1  0.535065  0.252003  0.388967  1
  S  S28  1  0.748320  0.464882  0.611090  1
  S  S29  1  0.464882  0.748320  0.611090  1
