# generated using pymatgen
data_Ce2Dy2Ga12Ru
_symmetry_space_group_name_H-M   'P 1'
_cell_length_a   7.60885410
_cell_length_b   7.60885378
_cell_length_c   7.53770600
_cell_angle_alpha   109.33766550
_cell_angle_beta   109.33766468
_cell_angle_gamma   110.11607504
_symmetry_Int_Tables_number   1
_chemical_formula_structural   Ce2Dy2Ga12Ru
_chemical_formula_sum   'Ce2 Dy2 Ga12 Ru1'
_cell_volume   334.34473189
_cell_formula_units_Z   1
loop_
 _symmetry_equiv_pos_site_id
 _symmetry_equiv_pos_as_xyz
  1  'x, y, z'
loop_
 _atom_site_type_symbol
 _atom_site_label
 _atom_site_symmetry_multiplicity
 _atom_site_fract_x
 _atom_site_fract_y
 _atom_site_fract_z
 _atom_site_occupancy
  Ce  Ce0  1  0.000000  0.000000  0.500000  1
  Ce  Ce1  1  0.500000  0.500000  0.500000  1
  Dy  Dy2  1  0.000000  0.500000  0.000000  1
  Dy  Dy3  1  0.500000  0.000000  0.000000  1
  Ga  Ga4  1  0.750000  0.250000  0.500000  1
  Ga  Ga5  1  0.750247  0.497730  0.247975  1
  Ga  Ga6  1  0.502270  0.249753  0.752025  1
  Ga  Ga7  1  0.249753  0.502270  0.752025  1
  Ga  Ga8  1  0.250000  0.750000  0.500000  1
  Ga  Ga9  1  0.497730  0.750247  0.247975  1
  Ga  Ga10  1  0.710306  0.710306  0.000000  1
  Ga  Ga11  1  0.289268  0.999186  0.288455  1
  Ga  Ga12  1  0.999186  0.289268  0.288455  1
  Ga  Ga13  1  0.289694  0.289694  0.000000  1
  Ga  Ga14  1  0.710732  0.000814  0.711545  1
  Ga  Ga15  1  0.000814  0.710732  0.711545  1
  Ru  Ru16  1  0.000000  0.000000  0.000000  1
