# generated using pymatgen
data_ErTm4CoSb2
_symmetry_space_group_name_H-M   'P 1'
_cell_length_a   7.74977900
_cell_length_b   8.69328200
_cell_length_c   12.01573000
_cell_angle_alpha   90.00000000
_cell_angle_beta   90.00000000
_cell_angle_gamma   90.00000000
_symmetry_Int_Tables_number   1
_chemical_formula_structural   ErTm4CoSb2
_chemical_formula_sum   'Er4 Tm16 Co4 Sb8'
_cell_volume   809.51191747
_cell_formula_units_Z   4
loop_
 _symmetry_equiv_pos_site_id
 _symmetry_equiv_pos_as_xyz
  1  'x, y, z'
loop_
 _atom_site_type_symbol
 _atom_site_label
 _atom_site_symmetry_multiplicity
 _atom_site_fract_x
 _atom_site_fract_y
 _atom_site_fract_z
 _atom_site_occupancy
  Er  Er0  1  0.622671  0.750000  0.308073  1
  Er  Er1  1  0.122671  0.250000  0.191927  1
  Er  Er2  1  0.377329  0.250000  0.691927  1
  Er  Er3  1  0.877329  0.750000  0.808073  1
  Tm  Tm4  1  0.158182  0.750000  0.204760  1
  Tm  Tm5  1  0.658182  0.250000  0.295240  1
  Tm  Tm6  1  0.841818  0.250000  0.795240  1
  Tm  Tm7  1  0.341818  0.750000  0.704760  1
  Tm  Tm8  1  0.449914  0.750000  0.998065  1
  Tm  Tm9  1  0.949914  0.250000  0.501935  1
  Tm  Tm10  1  0.550086  0.250000  0.001935  1
  Tm  Tm11  1  0.050086  0.750000  0.498065  1
  Tm  Tm12  1  0.823925  0.961895  0.065712  1
  Tm  Tm13  1  0.323925  0.038105  0.434288  1
  Tm  Tm14  1  0.176075  0.461895  0.934288  1
  Tm  Tm15  1  0.676075  0.538105  0.565712  1
  Tm  Tm16  1  0.176075  0.038105  0.934288  1
  Tm  Tm17  1  0.676075  0.961895  0.565712  1
  Tm  Tm18  1  0.823925  0.538105  0.065712  1
  Tm  Tm19  1  0.323925  0.461895  0.434288  1
  Co  Co20  1  0.429703  0.750000  0.490429  1
  Co  Co21  1  0.929703  0.250000  0.009571  1
  Co  Co22  1  0.570297  0.250000  0.509571  1
  Co  Co23  1  0.070297  0.750000  0.990429  1
  Sb  Sb24  1  0.931444  0.991473  0.327474  1
  Sb  Sb25  1  0.431444  0.008527  0.172526  1
  Sb  Sb26  1  0.068556  0.491473  0.672526  1
  Sb  Sb27  1  0.568556  0.508527  0.827474  1
  Sb  Sb28  1  0.068556  0.008527  0.672526  1
  Sb  Sb29  1  0.568556  0.991473  0.827474  1
  Sb  Sb30  1  0.931444  0.508527  0.327474  1
  Sb  Sb31  1  0.431444  0.491473  0.172526  1
