# generated using pymatgen
data_KFe(PtO3)2
_symmetry_space_group_name_H-M   'P 1'
_cell_length_a   5.27690212
_cell_length_b   5.27650961
_cell_length_c   13.97501300
_cell_angle_alpha   79.54944370
_cell_angle_beta   100.42933408
_cell_angle_gamma   120.03106287
_symmetry_Int_Tables_number   1
_chemical_formula_structural   KFe(PtO3)2
_chemical_formula_sum   'K2 Fe2 Pt4 O12'
_cell_volume   329.42346910
_cell_formula_units_Z   2
loop_
 _symmetry_equiv_pos_site_id
 _symmetry_equiv_pos_as_xyz
  1  'x, y, z'
loop_
 _atom_site_type_symbol
 _atom_site_label
 _atom_site_symmetry_multiplicity
 _atom_site_fract_x
 _atom_site_fract_y
 _atom_site_fract_z
 _atom_site_occupancy
  K  K0  1  0.406659  0.906770  0.250004  1
  K  K1  1  0.593436  0.093309  0.750003  1
  Fe  Fe2  1  0.499824  0.500026  0.499942  1
  Fe  Fe3  1  0.000168  0.999960  0.000083  1
  Pt  Pt4  1  0.165699  0.832994  0.500028  1
  Pt  Pt5  1  0.333112  0.665754  0.999971  1
  Pt  Pt6  1  0.667131  0.334169  0.000095  1
  Pt  Pt7  1  0.834029  0.167068  0.499892  1
  O  O8  1  0.524599  0.812116  0.577187  1
  O  O9  1  0.687904  0.975071  0.077260  1
  O  O10  1  0.312343  0.024838  0.922806  1
  O  O11  1  0.856897  0.473838  0.577004  1
  O  O12  1  0.475144  0.187952  0.422734  1
  O  O13  1  0.808112  0.858676  0.422830  1
  O  O14  1  0.026169  0.642754  0.077086  1
  O  O15  1  0.974076  0.357155  0.922985  1
  O  O16  1  0.641602  0.691886  0.922907  1
  O  O17  1  0.191619  0.141373  0.577096  1
  O  O18  1  0.358672  0.308057  0.077172  1
  O  O19  1  0.142802  0.526231  0.422912  1
