# generated using pymatgen
data_TaTi5Re5Si6Ru
_symmetry_space_group_name_H-M   'P 1'
_cell_length_a   7.54869989
_cell_length_b   7.54510136
_cell_length_c   7.54771602
_cell_angle_alpha   126.02493326
_cell_angle_beta   129.21156361
_cell_angle_gamma   77.28248228
_symmetry_Int_Tables_number   1
_chemical_formula_structural   TaTi5Re5Si6Ru
_chemical_formula_sum   'Ta1 Ti5 Re5 Si6 Ru1'
_cell_volume   261.37494804
_cell_formula_units_Z   1
loop_
 _symmetry_equiv_pos_site_id
 _symmetry_equiv_pos_as_xyz
  1  'x, y, z'
loop_
 _atom_site_type_symbol
 _atom_site_label
 _atom_site_symmetry_multiplicity
 _atom_site_fract_x
 _atom_site_fract_y
 _atom_site_fract_z
 _atom_site_occupancy
  Ta  Ta0  1  0.249036  0.897788  0.152917  1
  Ti  Ti1  1  0.949575  0.490444  0.039250  1
  Ti  Ti2  1  0.050655  0.100623  0.545565  1
  Ti  Ti3  1  0.452043  0.488385  0.539498  1
  Ti  Ti4  1  0.745192  0.897203  0.648667  1
  Ti  Ti5  1  0.553928  0.102578  0.051014  1
  Re  Re6  1  0.499855  0.235934  0.737354  1
  Re  Re7  1  0.999131  0.237390  0.236227  1
  Re  Re8  1  0.870697  0.497701  0.627519  1
  Re  Re9  1  0.630391  0.759685  0.128710  1
  Re  Re10  1  0.369947  0.496183  0.126947  1
  Si  Si11  1  0.753476  0.502611  0.251040  1
  Si  Si12  1  0.164305  0.160200  0.990007  1
  Si  Si13  1  0.670689  0.162481  0.498311  1
  Si  Si14  1  0.332447  0.827728  0.502135  1
  Si  Si15  1  0.251644  0.499255  0.745585  1
  Si  Si16  1  0.827247  0.828526  0.994540  1
  Ru  Ru17  1  0.129744  0.757495  0.626926  1
