# generated using pymatgen
data_KFeSb12Os2Ru
_symmetry_space_group_name_H-M   'P 1'
_cell_length_a   8.16745161
_cell_length_b   8.14659967
_cell_length_c   8.15755631
_cell_angle_alpha   109.38996221
_cell_angle_beta   109.54839910
_cell_angle_gamma   109.47169235
_symmetry_Int_Tables_number   1
_chemical_formula_structural   KFeSb12Os2Ru
_chemical_formula_sum   'K1 Fe1 Sb12 Os2 Ru1'
_cell_volume   417.84946465
_cell_formula_units_Z   1
loop_
 _symmetry_equiv_pos_site_id
 _symmetry_equiv_pos_as_xyz
  1  'x, y, z'
loop_
 _atom_site_type_symbol
 _atom_site_label
 _atom_site_symmetry_multiplicity
 _atom_site_fract_x
 _atom_site_fract_y
 _atom_site_fract_z
 _atom_site_occupancy
  K  K0  1  0.000000  0.000000  0.000000  1
  Fe  Fe1  1  0.500000  0.000000  0.000000  1
  Sb  Sb2  1  0.842379  0.660313  0.501815  1
  Sb  Sb3  1  0.157621  0.339687  0.498185  1
  Sb  Sb4  1  0.159971  0.661147  0.817424  1
  Sb  Sb5  1  0.840029  0.338853  0.182576  1
  Sb  Sb6  1  0.659010  0.501611  0.842327  1
  Sb  Sb7  1  0.340990  0.498389  0.157673  1
  Sb  Sb8  1  0.659002  0.819138  0.157189  1
  Sb  Sb9  1  0.340998  0.180862  0.842811  1
  Sb  Sb10  1  0.500622  0.843538  0.660636  1
  Sb  Sb11  1  0.499378  0.156462  0.339364  1
  Sb  Sb12  1  0.181812  0.841989  0.340335  1
  Sb  Sb13  1  0.818188  0.158011  0.659665  1
  Os  Os14  1  0.500000  0.500000  0.500000  1
  Os  Os15  1  0.000000  0.500000  0.000000  1
  Ru  Ru16  1  0.000000  0.000000  0.500000  1
