# generated using pymatgen
data_U(GaI3)2
_symmetry_space_group_name_H-M   'P 1'
_cell_length_a   8.62401596
_cell_length_b   8.62401537
_cell_length_c   8.62401575
_cell_angle_alpha   55.90248459
_cell_angle_beta   55.90248806
_cell_angle_gamma   55.90248302
_symmetry_Int_Tables_number   1
_chemical_formula_structural   U(GaI3)2
_chemical_formula_sum   'U1 Ga2 I6'
_cell_volume   410.46588244
_cell_formula_units_Z   1
loop_
 _symmetry_equiv_pos_site_id
 _symmetry_equiv_pos_as_xyz
  1  'x, y, z'
loop_
 _atom_site_type_symbol
 _atom_site_label
 _atom_site_symmetry_multiplicity
 _atom_site_fract_x
 _atom_site_fract_y
 _atom_site_fract_z
 _atom_site_occupancy
  U  U0  1  0.000000  0.000000  0.000000  1
  Ga  Ga1  1  0.330241  0.330241  0.330241  1
  Ga  Ga2  1  0.669759  0.669759  0.669759  1
  I  I3  1  0.233235  0.617198  0.911825  1
  I  I4  1  0.617198  0.911825  0.233235  1
  I  I5  1  0.911825  0.233235  0.617198  1
  I  I6  1  0.766765  0.382802  0.088175  1
  I  I7  1  0.382802  0.088175  0.766765  1
  I  I8  1  0.088175  0.766765  0.382802  1
