# generated using pymatgen
data_Eu2Al3Rh
_symmetry_space_group_name_H-M   'P 1'
_cell_length_a   5.72031200
_cell_length_b   5.72025607
_cell_length_c   8.85395100
_cell_angle_alpha   89.99861729
_cell_angle_beta   90.00056519
_cell_angle_gamma   120.00060245
_symmetry_Int_Tables_number   1
_chemical_formula_structural   Eu2Al3Rh
_chemical_formula_sum   'Eu4 Al6 Rh2'
_cell_volume   250.89978949
_cell_formula_units_Z   2
loop_
 _symmetry_equiv_pos_site_id
 _symmetry_equiv_pos_as_xyz
  1  'x, y, z'
loop_
 _atom_site_type_symbol
 _atom_site_label
 _atom_site_symmetry_multiplicity
 _atom_site_fract_x
 _atom_site_fract_y
 _atom_site_fract_z
 _atom_site_occupancy
  Eu  Eu0  1  0.666628  0.333356  0.054492  1
  Eu  Eu1  1  0.666690  0.333343  0.444255  1
  Eu  Eu2  1  0.333311  0.666658  0.555746  1
  Eu  Eu3  1  0.333373  0.666645  0.945507  1
  Al  Al4  1  0.159003  0.318015  0.250059  1
  Al  Al5  1  0.159007  0.840991  0.250055  1
  Al  Al6  1  0.681985  0.840997  0.250061  1
  Al  Al7  1  0.318014  0.159002  0.749939  1
  Al  Al8  1  0.840992  0.159008  0.749945  1
  Al  Al9  1  0.840996  0.681984  0.749941  1
  Rh  Rh10  1  0.000000  0.000000  0.000000  1
  Rh  Rh11  1  0.000000  0.000000  0.500000  1
