# generated using pymatgen
data_CaSc2(NiIr2)3
_symmetry_space_group_name_H-M   'P 1'
_cell_length_a   5.24864707
_cell_length_b   5.24864765
_cell_length_c   8.64387217
_cell_angle_alpha   72.32574852
_cell_angle_beta   72.32574363
_cell_angle_gamma   60.00000327
_symmetry_Int_Tables_number   1
_chemical_formula_structural   CaSc2(NiIr2)3
_chemical_formula_sum   'Ca1 Sc2 Ni3 Ir6'
_cell_volume   193.13367652
_cell_formula_units_Z   1
loop_
 _symmetry_equiv_pos_site_id
 _symmetry_equiv_pos_as_xyz
  1  'x, y, z'
loop_
 _atom_site_type_symbol
 _atom_site_label
 _atom_site_symmetry_multiplicity
 _atom_site_fract_x
 _atom_site_fract_y
 _atom_site_fract_z
 _atom_site_occupancy
  Ca  Ca0  1  0.000000  0.000000  0.000000  1
  Sc  Sc1  1  0.140279  0.140279  0.579163  1
  Sc  Sc2  1  0.859721  0.859721  0.420837  1
  Ni  Ni3  1  0.332939  0.332939  0.001184  1
  Ni  Ni4  1  0.667061  0.667061  0.998816  1
  Ni  Ni5  1  0.500000  0.500000  0.500000  1
  Ir  Ir6  1  0.081853  0.585569  0.747010  1
  Ir  Ir7  1  0.585569  0.585569  0.747010  1
  Ir  Ir8  1  0.585569  0.081853  0.747010  1
  Ir  Ir9  1  0.918147  0.414431  0.252990  1
  Ir  Ir10  1  0.414431  0.414431  0.252990  1
  Ir  Ir11  1  0.414431  0.918147  0.252990  1
