# generated using pymatgen
data_Yb2DyTmB16
_symmetry_space_group_name_H-M   'P 1'
_cell_length_a   7.10239000
_cell_length_b   7.10996322
_cell_length_c   4.02437500
_cell_angle_alpha   90.00000000
_cell_angle_beta   90.00000000
_cell_angle_gamma   90.19271181
_symmetry_Int_Tables_number   1
_chemical_formula_structural   Yb2DyTmB16
_chemical_formula_sum   'Yb2 Dy1 Tm1 B16'
_cell_volume   203.22065931
_cell_formula_units_Z   1
loop_
 _symmetry_equiv_pos_site_id
 _symmetry_equiv_pos_as_xyz
  1  'x, y, z'
loop_
 _atom_site_type_symbol
 _atom_site_label
 _atom_site_symmetry_multiplicity
 _atom_site_fract_x
 _atom_site_fract_y
 _atom_site_fract_z
 _atom_site_occupancy
  Yb  Yb0  1  0.184030  0.683871  0.000000  1
  Yb  Yb1  1  0.683668  0.816466  0.000000  1
  Dy  Dy2  1  0.816808  0.316227  0.000000  1
  Tm  Tm3  1  0.317220  0.183142  0.000000  1
  B  B4  1  0.323687  0.461230  0.500000  1
  B  B5  1  0.675850  0.537215  0.500000  1
  B  B6  1  0.536724  0.323636  0.500000  1
  B  B7  1  0.461787  0.675363  0.500000  1
  B  B8  1  0.000281  0.998754  0.203071  1
  B  B9  1  0.498771  0.501108  0.796948  1
  B  B10  1  0.000281  0.998754  0.796929  1
  B  B11  1  0.498771  0.501108  0.203052  1
  B  B12  1  0.586379  0.087177  0.500000  1
  B  B13  1  0.086094  0.413266  0.500000  1
  B  B14  1  0.913376  0.586036  0.500000  1
  B  B15  1  0.413336  0.914049  0.500000  1
  B  B16  1  0.038566  0.176294  0.500000  1
  B  B17  1  0.177046  0.963509  0.500000  1
  B  B18  1  0.824921  0.038279  0.500000  1
  B  B19  1  0.962406  0.824515  0.500000  1
