# generated using pymatgen
data_Ho10GaBiPb4
_symmetry_space_group_name_H-M   'P 1'
_cell_length_a   8.94671365
_cell_length_b   8.95570425
_cell_length_c   6.59392700
_cell_angle_alpha   90.00000000
_cell_angle_beta   90.00000000
_cell_angle_gamma   120.01021000
_symmetry_Int_Tables_number   1
_chemical_formula_structural   Ho10GaBiPb4
_chemical_formula_sum   'Ho10 Ga1 Bi1 Pb4'
_cell_volume   457.50237894
_cell_formula_units_Z   1
loop_
 _symmetry_equiv_pos_site_id
 _symmetry_equiv_pos_as_xyz
  1  'x, y, z'
loop_
 _atom_site_type_symbol
 _atom_site_label
 _atom_site_symmetry_multiplicity
 _atom_site_fract_x
 _atom_site_fract_y
 _atom_site_fract_z
 _atom_site_occupancy
  Ho  Ho0  1  0.340349  0.663096  0.994892  1
  Ho  Ho1  1  0.665827  0.345312  0.505092  1
  Ho  Ho2  1  0.665827  0.345312  0.994908  1
  Ho  Ho3  1  0.340349  0.663096  0.505108  1
  Ho  Ho4  1  0.234879  0.000056  0.250000  1
  Ho  Ho5  1  0.242894  0.243517  0.750000  1
  Ho  Ho6  1  0.985361  0.757896  0.750000  1
  Ho  Ho7  1  0.004031  0.238352  0.250000  1
  Ho  Ho8  1  0.763528  0.759185  0.250000  1
  Ho  Ho9  1  0.758053  0.986170  0.750000  1
  Ga  Ga10  1  0.602909  0.604326  0.750000  1
  Bi  Bi11  1  0.607332  0.004638  0.250000  1
  Pb  Pb12  1  0.996772  0.390627  0.750000  1
  Pb  Pb13  1  0.004541  0.604830  0.250000  1
  Pb  Pb14  1  0.395906  0.395505  0.250000  1
  Pb  Pb15  1  0.391441  0.998083  0.750000  1
