# generated using pymatgen
data_Mn2AlV9Si3Os
_symmetry_space_group_name_H-M   'P 1'
_cell_length_a   4.64059600
_cell_length_b   4.66500951
_cell_length_c   9.42403716
_cell_angle_alpha   90.11939744
_cell_angle_beta   90.00000000
_cell_angle_gamma   90.00000000
_symmetry_Int_Tables_number   1
_chemical_formula_structural   Mn2AlV9Si3Os
_chemical_formula_sum   'Mn2 Al1 V9 Si3 Os1'
_cell_volume   204.01511372
_cell_formula_units_Z   1
loop_
 _symmetry_equiv_pos_site_id
 _symmetry_equiv_pos_as_xyz
  1  'x, y, z'
loop_
 _atom_site_type_symbol
 _atom_site_label
 _atom_site_symmetry_multiplicity
 _atom_site_fract_x
 _atom_site_fract_y
 _atom_site_fract_z
 _atom_site_occupancy
  Mn  Mn0  1  0.000000  0.500748  0.625260  1
  Mn  Mn1  1  0.500000  0.245377  0.745483  1
  Al  Al2  1  0.500000  0.497955  0.995010  1
  V  V3  1  0.500000  0.248908  0.254656  1
  V  V4  1  0.752528  0.998097  0.997678  1
  V  V5  1  0.749839  0.001257  0.502337  1
  V  V6  1  0.000000  0.500742  0.863309  1
  V  V7  1  0.000000  0.501200  0.384407  1
  V  V8  1  0.500000  0.749732  0.746384  1
  V  V9  1  0.500000  0.752245  0.254563  1
  V  V10  1  0.247472  0.998097  0.997678  1
  V  V11  1  0.250161  0.001257  0.502337  1
  Si  Si12  1  0.500000  0.500160  0.502180  1
  Si  Si13  1  0.000000  0.003633  0.749175  1
  Si  Si14  1  0.000000  0.999954  0.254238  1
  Os  Os15  1  0.000000  0.500638  0.125307  1
