# generated using pymatgen
data_Hf18Cu2ReW7
_symmetry_space_group_name_H-M   'P 1'
_cell_length_a   8.70574163
_cell_length_b   8.70574099
_cell_length_c   8.50238600
_cell_angle_alpha   90.00000000
_cell_angle_beta   90.00000000
_cell_angle_gamma   119.92990759
_symmetry_Int_Tables_number   1
_chemical_formula_structural   Hf18Cu2ReW7
_chemical_formula_sum   'Hf18 Cu2 Re1 W7'
_cell_volume   558.45640115
_cell_formula_units_Z   1
loop_
 _symmetry_equiv_pos_site_id
 _symmetry_equiv_pos_as_xyz
  1  'x, y, z'
loop_
 _atom_site_type_symbol
 _atom_site_label
 _atom_site_symmetry_multiplicity
 _atom_site_fract_x
 _atom_site_fract_y
 _atom_site_fract_z
 _atom_site_occupancy
  Hf  Hf0  1  0.197600  0.802400  0.444895  1
  Hf  Hf1  1  0.197448  0.394849  0.444386  1
  Hf  Hf2  1  0.605151  0.802552  0.444386  1
  Hf  Hf3  1  0.802829  0.197171  0.554648  1
  Hf  Hf4  1  0.802477  0.604898  0.555029  1
  Hf  Hf5  1  0.395102  0.197523  0.555029  1
  Hf  Hf6  1  0.802829  0.197171  0.945352  1
  Hf  Hf7  1  0.802477  0.604898  0.944971  1
  Hf  Hf8  1  0.395102  0.197523  0.944971  1
  Hf  Hf9  1  0.197600  0.802400  0.055105  1
  Hf  Hf10  1  0.197448  0.394849  0.055614  1
  Hf  Hf11  1  0.605151  0.802552  0.055614  1
  Hf  Hf12  1  0.541587  0.458413  0.250000  1
  Hf  Hf13  1  0.542361  0.083617  0.250000  1
  Hf  Hf14  1  0.916383  0.457639  0.250000  1
  Hf  Hf15  1  0.458388  0.541612  0.750000  1
  Hf  Hf16  1  0.458599  0.916840  0.750000  1
  Hf  Hf17  1  0.083160  0.541401  0.750000  1
  Cu  Cu18  1  0.333446  0.666554  0.250000  1
  Cu  Cu19  1  0.666847  0.333153  0.750000  1
  Re  Re20  1  0.888111  0.111889  0.250000  1
  W  W21  1  0.887682  0.776611  0.250000  1
  W  W22  1  0.223389  0.112318  0.250000  1
  W  W23  1  0.111602  0.888398  0.750000  1
  W  W24  1  0.111152  0.223322  0.750000  1
  W  W25  1  0.776678  0.888848  0.750000  1
  W  W26  1  0.999699  0.000301  0.499154  1
  W  W27  1  0.999699  0.000301  0.000846  1
