# generated using pymatgen
data_MoIr3Ru3W
_symmetry_space_group_name_H-M   'P 1'
_cell_length_a   5.52410000
_cell_length_b   5.52410056
_cell_length_c   4.40261600
_cell_angle_alpha   90.00000000
_cell_angle_beta   90.00000000
_cell_angle_gamma   120.00000864
_symmetry_Int_Tables_number   1
_chemical_formula_structural   MoIr3Ru3W
_chemical_formula_sum   'Mo1 Ir3 Ru3 W1'
_cell_volume   116.34949669
_cell_formula_units_Z   1
loop_
 _symmetry_equiv_pos_site_id
 _symmetry_equiv_pos_as_xyz
  1  'x, y, z'
loop_
 _atom_site_type_symbol
 _atom_site_label
 _atom_site_symmetry_multiplicity
 _atom_site_fract_x
 _atom_site_fract_y
 _atom_site_fract_z
 _atom_site_occupancy
  Mo  Mo0  1  0.333333  0.666667  0.750000  1
  Ir  Ir1  1  0.835031  0.164969  0.750000  1
  Ir  Ir2  1  0.329938  0.164969  0.750000  1
  Ir  Ir3  1  0.835031  0.670062  0.750000  1
  Ru  Ru4  1  0.165883  0.834117  0.250000  1
  Ru  Ru5  1  0.668233  0.834117  0.250000  1
  Ru  Ru6  1  0.165883  0.331767  0.250000  1
  W  W7  1  0.666667  0.333333  0.250000  1
