# generated using pymatgen
data_Tm4Sc4Tc2B24IrRh
_symmetry_space_group_name_H-M   'P 1'
_cell_length_a   3.53196500
_cell_length_b   8.98602656
_cell_length_c   11.33027600
_cell_angle_alpha   89.96625132
_cell_angle_beta   90.00000000
_cell_angle_gamma   90.00000000
_symmetry_Int_Tables_number   1
_chemical_formula_structural   Tm4Sc4Tc2B24IrRh
_chemical_formula_sum   'Tm4 Sc4 Tc2 B24 Ir1 Rh1'
_cell_volume   359.60399097
_cell_formula_units_Z   1
loop_
 _symmetry_equiv_pos_site_id
 _symmetry_equiv_pos_as_xyz
  1  'x, y, z'
loop_
 _atom_site_type_symbol
 _atom_site_label
 _atom_site_symmetry_multiplicity
 _atom_site_fract_x
 _atom_site_fract_y
 _atom_site_fract_z
 _atom_site_occupancy
  Tm  Tm0  1  0.500000  0.316669  0.411808  1
  Tm  Tm1  1  0.500000  0.683155  0.588814  1
  Tm  Tm2  1  0.500000  0.176543  0.916375  1
  Tm  Tm3  1  0.500000  0.823491  0.083082  1
  Sc  Sc4  1  0.500000  0.441952  0.124754  1
  Sc  Sc5  1  0.500000  0.557980  0.874749  1
  Sc  Sc6  1  0.500000  0.051654  0.627217  1
  Sc  Sc7  1  0.500000  0.948730  0.373034  1
  Tc  Tc8  1  0.500000  0.141036  0.182271  1
  Tc  Tc9  1  0.500000  0.858963  0.817877  1
  B  B10  1  0.000000  0.101230  0.473367  1
  B  B11  1  0.000000  0.898963  0.526852  1
  B  B12  1  0.000000  0.399116  0.972222  1
  B  B13  1  0.000000  0.600552  0.027582  1
  B  B14  1  0.000000  0.130022  0.317721  1
  B  B15  1  0.000000  0.869978  0.682414  1
  B  B16  1  0.000000  0.370508  0.818877  1
  B  B17  1  0.000000  0.629707  0.181169  1
  B  B18  1  0.000000  0.054186  0.066930  1
  B  B19  1  0.000000  0.945831  0.933040  1
  B  B20  1  0.000000  0.445086  0.565924  1
  B  B21  1  0.000000  0.554789  0.434344  1
  B  B22  1  0.000000  0.481485  0.286009  1
  B  B23  1  0.000000  0.518184  0.714086  1
  B  B24  1  0.000000  0.018511  0.785660  1
  B  B25  1  0.000000  0.981609  0.214354  1
  B  B26  1  0.000000  0.252628  0.080549  1
  B  B27  1  0.000000  0.747400  0.919359  1
  B  B28  1  0.000000  0.245778  0.579812  1
  B  B29  1  0.000000  0.754044  0.420356  1
  B  B30  1  0.000000  0.295270  0.235212  1
  B  B31  1  0.000000  0.704599  0.764646  1
  B  B32  1  0.000000  0.205992  0.735284  1
  B  B33  1  0.000000  0.794217  0.264578  1
  Ir  Ir34  1  0.500000  0.640031  0.319519  1
  Rh  Rh35  1  0.500000  0.360114  0.680149  1
