# generated using pymatgen
data_Hf4Fe2CoSi4Os
_symmetry_space_group_name_H-M   'P 1'
_cell_length_a   3.95336000
_cell_length_b   6.36720185
_cell_length_c   7.11392751
_cell_angle_alpha   89.35480678
_cell_angle_beta   90.00000000
_cell_angle_gamma   90.00000000
_symmetry_Int_Tables_number   1
_chemical_formula_structural   Hf4Fe2CoSi4Os
_chemical_formula_sum   'Hf4 Fe2 Co1 Si4 Os1'
_cell_volume   179.05929951
_cell_formula_units_Z   1
loop_
 _symmetry_equiv_pos_site_id
 _symmetry_equiv_pos_as_xyz
  1  'x, y, z'
loop_
 _atom_site_type_symbol
 _atom_site_label
 _atom_site_symmetry_multiplicity
 _atom_site_fract_x
 _atom_site_fract_y
 _atom_site_fract_z
 _atom_site_occupancy
  Hf  Hf0  1  0.250000  0.998776  0.311025  1
  Hf  Hf1  1  0.250000  0.501328  0.202229  1
  Hf  Hf2  1  0.750000  0.995556  0.688094  1
  Hf  Hf3  1  0.750000  0.491444  0.801462  1
  Fe  Fe4  1  0.250000  0.660706  0.559758  1
  Fe  Fe5  1  0.750000  0.348108  0.432723  1
  Co  Co6  1  0.750000  0.847056  0.066238  1
  Si  Si7  1  0.250000  0.291918  0.600209  1
  Si  Si8  1  0.250000  0.779302  0.889575  1
  Si  Si9  1  0.750000  0.712188  0.391665  1
  Si  Si10  1  0.750000  0.213780  0.122943  1
  Os  Os11  1  0.250000  0.159840  0.934076  1
