# generated using pymatgen
data_BaLa2Y(AsPt)4
_symmetry_space_group_name_H-M   'P 1'
_cell_length_a   4.37287800
_cell_length_b   4.37287712
_cell_length_c   16.88811600
_cell_angle_alpha   90.00000000
_cell_angle_beta   90.00000000
_cell_angle_gamma   119.99999151
_symmetry_Int_Tables_number   1
_chemical_formula_structural   BaLa2Y(AsPt)4
_chemical_formula_sum   'Ba1 La2 Y1 As4 Pt4'
_cell_volume   279.67040231
_cell_formula_units_Z   1
loop_
 _symmetry_equiv_pos_site_id
 _symmetry_equiv_pos_as_xyz
  1  'x, y, z'
loop_
 _atom_site_type_symbol
 _atom_site_label
 _atom_site_symmetry_multiplicity
 _atom_site_fract_x
 _atom_site_fract_y
 _atom_site_fract_z
 _atom_site_occupancy
  Ba  Ba0  1  0.000000  0.000000  0.250000  1
  La  La1  1  0.000000  0.000000  0.985915  1
  La  La2  1  0.000000  0.000000  0.514085  1
  Y  Y3  1  0.000000  0.000000  0.750000  1
  As  As4  1  0.333333  0.666667  0.869463  1
  As  As5  1  0.666667  0.333333  0.392329  1
  As  As6  1  0.666667  0.333333  0.107671  1
  As  As7  1  0.333333  0.666667  0.630537  1
  Pt  Pt8  1  0.333333  0.666667  0.396729  1
  Pt  Pt9  1  0.666667  0.333333  0.851897  1
  Pt  Pt10  1  0.666667  0.333333  0.648103  1
  Pt  Pt11  1  0.333333  0.666667  0.103271  1
