# generated using pymatgen
data_CeY4(MnB3)2
_symmetry_space_group_name_H-M   'P 1'
_cell_length_a   5.45603362
_cell_length_b   5.45603286
_cell_length_c   8.07948467
_cell_angle_alpha   70.26640359
_cell_angle_beta   70.26639281
_cell_angle_gamma   60.00000400
_symmetry_Int_Tables_number   1
_chemical_formula_structural   CeY4(MnB3)2
_chemical_formula_sum   'Ce1 Y4 Mn2 B6'
_cell_volume   191.80693039
_cell_formula_units_Z   1
loop_
 _symmetry_equiv_pos_site_id
 _symmetry_equiv_pos_as_xyz
  1  'x, y, z'
loop_
 _atom_site_type_symbol
 _atom_site_label
 _atom_site_symmetry_multiplicity
 _atom_site_fract_x
 _atom_site_fract_y
 _atom_site_fract_z
 _atom_site_occupancy
  Ce  Ce0  1  0.000000  0.000000  0.000000  1
  Y  Y1  1  0.747895  0.747895  0.756316  1
  Y  Y2  1  0.252105  0.252105  0.243684  1
  Y  Y3  1  0.584717  0.584717  0.245852  1
  Y  Y4  1  0.415283  0.415283  0.754148  1
  Mn  Mn5  1  0.889665  0.889665  0.331005  1
  Mn  Mn6  1  0.110335  0.110335  0.668995  1
  B  B7  1  0.500000  0.165913  0.500000  1
  B  B8  1  0.834087  0.500000  0.500000  1
  B  B9  1  0.165913  0.834087  0.500000  1
  B  B10  1  0.165913  0.500000  0.500000  1
  B  B11  1  0.834087  0.165913  0.500000  1
  B  B12  1  0.500000  0.834087  0.500000  1
