# generated using pymatgen
data_Pa12Al9Re13Os2
_symmetry_space_group_name_H-M   'P 1'
_cell_length_a   9.48394600
_cell_length_b   9.48394486
_cell_length_c   8.55991800
_cell_angle_alpha   90.00000000
_cell_angle_beta   90.00000000
_cell_angle_gamma   119.99999003
_symmetry_Int_Tables_number   1
_chemical_formula_structural   Pa12Al9Re13Os2
_chemical_formula_sum   'Pa12 Al9 Re13 Os2'
_cell_volume   666.77356348
_cell_formula_units_Z   1
loop_
 _symmetry_equiv_pos_site_id
 _symmetry_equiv_pos_as_xyz
  1  'x, y, z'
loop_
 _atom_site_type_symbol
 _atom_site_label
 _atom_site_symmetry_multiplicity
 _atom_site_fract_x
 _atom_site_fract_y
 _atom_site_fract_z
 _atom_site_occupancy
  Pa  Pa0  1  0.330930  0.996821  0.064366  1
  Pa  Pa1  1  0.665891  0.996821  0.935634  1
  Pa  Pa2  1  0.003179  0.334109  0.064366  1
  Pa  Pa3  1  0.668357  0.000619  0.564370  1
  Pa  Pa4  1  0.999381  0.331643  0.435630  1
  Pa  Pa5  1  0.003179  0.669070  0.935634  1
  Pa  Pa6  1  0.332262  0.000619  0.435630  1
  Pa  Pa7  1  0.999381  0.667738  0.564370  1
  Pa  Pa8  1  0.665891  0.669070  0.064366  1
  Pa  Pa9  1  0.330930  0.334109  0.935634  1
  Pa  Pa10  1  0.332262  0.331643  0.564370  1
  Pa  Pa11  1  0.668357  0.667738  0.435630  1
  Al  Al12  1  0.666667  0.333333  0.500000  1
  Al  Al13  1  0.666667  0.333333  0.000000  1
  Al  Al14  1  0.333333  0.666667  0.000000  1
  Al  Al15  1  0.166488  0.002631  0.750253  1
  Al  Al16  1  0.836143  0.002631  0.249747  1
  Al  Al17  1  0.997369  0.163857  0.750253  1
  Al  Al18  1  0.997369  0.833512  0.249747  1
  Al  Al19  1  0.836143  0.833512  0.750253  1
  Al  Al20  1  0.166488  0.163857  0.249747  1
  Re  Re21  1  0.166414  0.489530  0.752986  1
  Re  Re22  1  0.850996  0.504890  0.251020  1
  Re  Re23  1  0.510470  0.676885  0.752986  1
  Re  Re24  1  0.495110  0.149004  0.748980  1
  Re  Re25  1  0.495110  0.346105  0.251020  1
  Re  Re26  1  0.510470  0.833586  0.247014  1
  Re  Re27  1  0.323115  0.833586  0.752986  1
  Re  Re28  1  0.653895  0.504890  0.748980  1
  Re  Re29  1  0.653895  0.149004  0.251020  1
  Re  Re30  1  0.323115  0.489530  0.247014  1
  Re  Re31  1  0.850996  0.346105  0.748980  1
  Re  Re32  1  0.166414  0.676885  0.247014  1
  Re  Re33  1  0.333333  0.666667  0.500000  1
  Os  Os34  1  0.000000  0.000000  0.500000  1
  Os  Os35  1  0.000000  0.000000  0.000000  1
