# generated using pymatgen
data_TmNb9Se16
_symmetry_space_group_name_H-M   'P 1'
_cell_length_a   7.00593000
_cell_length_b   7.00593056
_cell_length_c   13.75080500
_cell_angle_alpha   90.00000000
_cell_angle_beta   90.00000000
_cell_angle_gamma   119.99999737
_symmetry_Int_Tables_number   1
_chemical_formula_structural   TmNb9Se16
_chemical_formula_sum   'Tm1 Nb9 Se16'
_cell_volume   584.50790439
_cell_formula_units_Z   1
loop_
 _symmetry_equiv_pos_site_id
 _symmetry_equiv_pos_as_xyz
  1  'x, y, z'
loop_
 _atom_site_type_symbol
 _atom_site_label
 _atom_site_symmetry_multiplicity
 _atom_site_fract_x
 _atom_site_fract_y
 _atom_site_fract_z
 _atom_site_occupancy
  Tm  Tm0  1  0.000000  0.000000  0.500000  1
  Nb  Nb1  1  0.000000  0.000000  0.238860  1
  Nb  Nb2  1  0.000000  0.000000  0.761140  1
  Nb  Nb3  1  0.506917  0.013834  0.238381  1
  Nb  Nb4  1  0.986166  0.493083  0.238381  1
  Nb  Nb5  1  0.506917  0.493083  0.238381  1
  Nb  Nb6  1  0.493083  0.986166  0.761619  1
  Nb  Nb7  1  0.013834  0.506917  0.761619  1
  Nb  Nb8  1  0.493083  0.506917  0.761619  1
  Nb  Nb9  1  0.000000  0.000000  0.000000  1
  Se  Se10  1  0.333333  0.666667  0.887160  1
  Se  Se11  1  0.666667  0.333333  0.112840  1
  Se  Se12  1  0.666667  0.333333  0.364128  1
  Se  Se13  1  0.333333  0.666667  0.635872  1
  Se  Se14  1  0.169076  0.830924  0.360326  1
  Se  Se15  1  0.169076  0.338153  0.360326  1
  Se  Se16  1  0.661847  0.830924  0.360326  1
  Se  Se17  1  0.830924  0.169076  0.639674  1
  Se  Se18  1  0.830924  0.661847  0.639674  1
  Se  Se19  1  0.338153  0.169076  0.639674  1
  Se  Se20  1  0.831118  0.168882  0.882098  1
  Se  Se21  1  0.831118  0.662236  0.882098  1
  Se  Se22  1  0.337764  0.168882  0.882098  1
  Se  Se23  1  0.168882  0.831118  0.117902  1
  Se  Se24  1  0.168882  0.337764  0.117902  1
  Se  Se25  1  0.662236  0.831118  0.117902  1
