# generated using pymatgen
data_Hf16Co4Ir3W
_symmetry_space_group_name_H-M   'P 1'
_cell_length_a   8.62366794
_cell_length_b   8.62366823
_cell_length_c   8.62366816
_cell_angle_alpha   59.71946798
_cell_angle_beta   59.71947185
_cell_angle_gamma   59.71946882
_symmetry_Int_Tables_number   1
_chemical_formula_structural   Hf16Co4Ir3W
_chemical_formula_sum   'Hf16 Co4 Ir3 W1'
_cell_volume   450.59374913
_cell_formula_units_Z   1
loop_
 _symmetry_equiv_pos_site_id
 _symmetry_equiv_pos_as_xyz
  1  'x, y, z'
loop_
 _atom_site_type_symbol
 _atom_site_label
 _atom_site_symmetry_multiplicity
 _atom_site_fract_x
 _atom_site_fract_y
 _atom_site_fract_z
 _atom_site_occupancy
  Hf  Hf0  1  0.052385  0.648949  0.648949  1
  Hf  Hf1  1  0.648949  0.052385  0.648949  1
  Hf  Hf2  1  0.648949  0.648949  0.052385  1
  Hf  Hf3  1  0.646574  0.646574  0.646574  1
  Hf  Hf4  1  0.798592  0.798592  0.201149  1
  Hf  Hf5  1  0.199501  0.199501  0.798488  1
  Hf  Hf6  1  0.798592  0.201149  0.798592  1
  Hf  Hf7  1  0.199501  0.798488  0.199501  1
  Hf  Hf8  1  0.201149  0.798592  0.798592  1
  Hf  Hf9  1  0.798488  0.199501  0.199501  1
  Hf  Hf10  1  0.435881  0.435881  0.069742  1
  Hf  Hf11  1  0.064109  0.064109  0.436409  1
  Hf  Hf12  1  0.435881  0.069742  0.435881  1
  Hf  Hf13  1  0.064109  0.436409  0.064109  1
  Hf  Hf14  1  0.069742  0.435881  0.435881  1
  Hf  Hf15  1  0.436409  0.064109  0.064109  1
  Co  Co16  1  0.421912  0.858421  0.858421  1
  Co  Co17  1  0.858421  0.421912  0.858421  1
  Co  Co18  1  0.858421  0.858421  0.421912  1
  Co  Co19  1  0.859684  0.859684  0.859684  1
  Ir  Ir20  1  0.754187  0.414558  0.414558  1
  Ir  Ir21  1  0.414558  0.754187  0.414558  1
  Ir  Ir22  1  0.414558  0.414558  0.754187  1
  W  W23  1  0.419448  0.419448  0.419448  1
