# generated using pymatgen
data_Lu8Sc12GaSi15
_symmetry_space_group_name_H-M   'P 1'
_cell_length_a   7.03347641
_cell_length_b   7.32954409
_cell_length_c   13.89995722
_cell_angle_alpha   90.07762061
_cell_angle_beta   90.00630817
_cell_angle_gamma   90.03859844
_symmetry_Int_Tables_number   1
_chemical_formula_structural   Lu8Sc12GaSi15
_chemical_formula_sum   'Lu8 Sc12 Ga1 Si15'
_cell_volume   716.57220900
_cell_formula_units_Z   1
loop_
 _symmetry_equiv_pos_site_id
 _symmetry_equiv_pos_as_xyz
  1  'x, y, z'
loop_
 _atom_site_type_symbol
 _atom_site_label
 _atom_site_symmetry_multiplicity
 _atom_site_fract_x
 _atom_site_fract_y
 _atom_site_fract_z
 _atom_site_occupancy
  Lu  Lu0  1  0.990672  0.674003  0.596813  1
  Lu  Lu1  1  0.007747  0.325563  0.401748  1
  Lu  Lu2  1  0.510544  0.178457  0.401716  1
  Lu  Lu3  1  0.008941  0.323696  0.096213  1
  Lu  Lu4  1  0.492155  0.819361  0.597032  1
  Lu  Lu5  1  0.990809  0.675971  0.904907  1
  Lu  Lu6  1  0.490080  0.822140  0.904672  1
  Lu  Lu7  1  0.509490  0.177554  0.095925  1
  Sc  Sc8  1  0.164969  0.995740  0.752068  1
  Sc  Sc9  1  0.835117  0.003836  0.249569  1
  Sc  Sc10  1  0.334442  0.496012  0.249239  1
  Sc  Sc11  1  0.666082  0.505070  0.750616  1
  Sc  Sc12  1  0.336661  0.326380  0.626332  1
  Sc  Sc13  1  0.664613  0.676487  0.374179  1
  Sc  Sc14  1  0.166892  0.822257  0.372950  1
  Sc  Sc15  1  0.665733  0.676939  0.125116  1
  Sc  Sc16  1  0.831699  0.176859  0.625881  1
  Sc  Sc17  1  0.334152  0.323330  0.875099  1
  Sc  Sc18  1  0.834101  0.177425  0.874989  1
  Sc  Sc19  1  0.165344  0.822529  0.125588  1
  Ga  Ga20  1  0.163497  0.037600  0.539091  1
  Si  Si21  1  0.037392  0.385607  0.750851  1
  Si  Si22  1  0.962525  0.612982  0.249488  1
  Si  Si23  1  0.464849  0.888989  0.249689  1
  Si  Si24  1  0.534815  0.110354  0.749850  1
  Si  Si25  1  0.287988  0.630445  0.750883  1
  Si  Si26  1  0.711103  0.369555  0.249029  1
  Si  Si27  1  0.211218  0.131456  0.248938  1
  Si  Si28  1  0.788972  0.868717  0.751229  1
  Si  Si29  1  0.838793  0.965232  0.460437  1
  Si  Si30  1  0.336493  0.535244  0.460344  1
  Si  Si31  1  0.837538  0.964757  0.038028  1
  Si  Si32  1  0.662910  0.464197  0.538481  1
  Si  Si33  1  0.162226  0.035782  0.962605  1
  Si  Si34  1  0.662136  0.464850  0.960993  1
  Si  Si35  1  0.337302  0.534625  0.039411  1
