# generated using pymatgen
data_YTmPa2(Al3Rh)6
_symmetry_space_group_name_H-M   'P 1'
_cell_length_a   7.59107105
_cell_length_b   7.59812209
_cell_length_c   9.37114200
_cell_angle_alpha   90.00000000
_cell_angle_beta   90.00000000
_cell_angle_gamma   119.61823338
_symmetry_Int_Tables_number   1
_chemical_formula_structural   YTmPa2(Al3Rh)6
_chemical_formula_sum   'Y1 Tm1 Pa2 Al18 Rh6'
_cell_volume   469.88367315
_cell_formula_units_Z   1
loop_
 _symmetry_equiv_pos_site_id
 _symmetry_equiv_pos_as_xyz
  1  'x, y, z'
loop_
 _atom_site_type_symbol
 _atom_site_label
 _atom_site_symmetry_multiplicity
 _atom_site_fract_x
 _atom_site_fract_y
 _atom_site_fract_z
 _atom_site_occupancy
  Y  Y0  1  0.670177  0.993054  0.250000  1
  Tm  Tm1  1  0.329609  0.007011  0.750000  1
  Pa  Pa2  1  0.997694  0.671173  0.250000  1
  Pa  Pa3  1  0.002418  0.328877  0.750000  1
  Al  Al4  1  0.130664  0.126356  0.250000  1
  Al  Al5  1  0.870009  0.874169  0.750000  1
  Al  Al6  1  0.000212  0.331700  0.077912  1
  Al  Al7  1  0.000326  0.668785  0.921358  1
  Al  Al8  1  0.000326  0.668785  0.578642  1
  Al  Al9  1  0.338263  0.002817  0.425606  1
  Al  Al10  1  0.000212  0.331700  0.422088  1
  Al  Al11  1  0.661251  0.997156  0.575568  1
  Al  Al12  1  0.661251  0.997156  0.924432  1
  Al  Al13  1  0.338263  0.002817  0.074394  1
  Al  Al14  1  0.334671  0.332770  0.553212  1
  Al  Al15  1  0.665316  0.666829  0.447530  1
  Al  Al16  1  0.665316  0.666829  0.052470  1
  Al  Al17  1  0.334671  0.332770  0.946788  1
  Al  Al18  1  0.340491  0.548659  0.250000  1
  Al  Al19  1  0.659129  0.450525  0.750000  1
  Al  Al20  1  0.550106  0.341613  0.250000  1
  Al  Al21  1  0.449312  0.658349  0.750000  1
  Rh  Rh22  1  0.675338  0.329235  0.999277  1
  Rh  Rh23  1  0.324420  0.670598  0.000201  1
  Rh  Rh24  1  0.324420  0.670598  0.499799  1
  Rh  Rh25  1  0.675338  0.329235  0.500723  1
  Rh  Rh26  1  0.000396  0.000218  0.999648  1
  Rh  Rh27  1  0.000396  0.000218  0.500352  1
