# generated using pymatgen
data_CsRu3(SeO6)2
_symmetry_space_group_name_H-M   'P 1'
_cell_length_a   7.19133200
_cell_length_b   7.19133269
_cell_length_c   12.86902500
_cell_angle_alpha   90.00000000
_cell_angle_beta   90.00000000
_cell_angle_gamma   119.99999681
_symmetry_Int_Tables_number   1
_chemical_formula_structural   CsRu3(SeO6)2
_chemical_formula_sum   'Cs2 Ru6 Se4 O24'
_cell_volume   576.36156299
_cell_formula_units_Z   2
loop_
 _symmetry_equiv_pos_site_id
 _symmetry_equiv_pos_as_xyz
  1  'x, y, z'
loop_
 _atom_site_type_symbol
 _atom_site_label
 _atom_site_symmetry_multiplicity
 _atom_site_fract_x
 _atom_site_fract_y
 _atom_site_fract_z
 _atom_site_occupancy
  Cs  Cs0  1  0.666667  0.333333  0.471367  1
  Cs  Cs1  1  0.333333  0.666667  0.971367  1
  Ru  Ru2  1  0.833869  0.666599  0.794840  1
  Ru  Ru3  1  0.832730  0.166131  0.794840  1
  Ru  Ru4  1  0.666599  0.832730  0.294840  1
  Ru  Ru5  1  0.166131  0.333401  0.294840  1
  Ru  Ru6  1  0.333401  0.167270  0.794840  1
  Ru  Ru7  1  0.167270  0.833869  0.294840  1
  Se  Se8  1  0.000000  0.000000  0.585922  1
  Se  Se9  1  0.666667  0.333333  0.007112  1
  Se  Se10  1  0.333333  0.666667  0.507112  1
  Se  Se11  1  0.000000  0.000000  0.085922  1
  O  O12  1  0.252284  0.126370  0.317033  1
  O  O13  1  0.125914  0.252284  0.817033  1
  O  O14  1  0.126370  0.874086  0.817033  1
  O  O15  1  0.873630  0.125914  0.317033  1
  O  O16  1  0.874086  0.747716  0.317033  1
  O  O17  1  0.747716  0.873630  0.817033  1
  O  O18  1  0.458969  0.916781  0.275919  1
  O  O19  1  0.542189  0.458969  0.775919  1
  O  O20  1  0.916781  0.457811  0.775919  1
  O  O21  1  0.083219  0.542189  0.275919  1
  O  O22  1  0.457811  0.541031  0.275919  1
  O  O23  1  0.541031  0.083219  0.775919  1
  O  O24  1  0.794341  0.203858  0.954442  1
  O  O25  1  0.590483  0.794341  0.454442  1
  O  O26  1  0.203858  0.409517  0.454442  1
  O  O27  1  0.796142  0.590483  0.954442  1
  O  O28  1  0.409517  0.205659  0.954442  1
  O  O29  1  0.205659  0.796142  0.454442  1
  O  O30  1  0.870563  0.128244  0.638826  1
  O  O31  1  0.742319  0.870563  0.138826  1
  O  O32  1  0.128244  0.257681  0.138826  1
  O  O33  1  0.871756  0.742319  0.638826  1
  O  O34  1  0.257681  0.129437  0.638826  1
  O  O35  1  0.129437  0.871756  0.138826  1
