# generated using pymatgen
data_Nd5ScReO12
_symmetry_space_group_name_H-M   'P 1'
_cell_length_a   7.12521908
_cell_length_b   7.12521868
_cell_length_c   7.64591900
_cell_angle_alpha   74.48372599
_cell_angle_beta   74.48372687
_cell_angle_gamma   50.61755436
_symmetry_Int_Tables_number   1
_chemical_formula_structural   Nd5ScReO12
_chemical_formula_sum   'Nd5 Sc1 Re1 O12'
_cell_volume   286.59326786
_cell_formula_units_Z   1
loop_
 _symmetry_equiv_pos_site_id
 _symmetry_equiv_pos_as_xyz
  1  'x, y, z'
loop_
 _atom_site_type_symbol
 _atom_site_label
 _atom_site_symmetry_multiplicity
 _atom_site_fract_x
 _atom_site_fract_y
 _atom_site_fract_z
 _atom_site_occupancy
  Nd  Nd0  1  0.010250  0.989750  0.500000  1
  Nd  Nd1  1  0.313435  0.294256  0.359457  1
  Nd  Nd2  1  0.705744  0.686565  0.640543  1
  Nd  Nd3  1  0.688647  0.695188  0.169093  1
  Nd  Nd4  1  0.304812  0.311353  0.830907  1
  Sc  Sc5  1  0.754659  0.245341  0.000000  1
  Re  Re6  1  0.239071  0.760929  0.000000  1
  O  O7  1  0.099523  0.595677  0.571346  1
  O  O8  1  0.017427  0.982519  0.181931  1
  O  O9  1  0.404323  0.900477  0.428654  1
  O  O10  1  0.483910  0.518454  0.180172  1
  O  O11  1  0.103090  0.591684  0.079373  1
  O  O12  1  0.910415  0.403237  0.419163  1
  O  O13  1  0.017481  0.982573  0.818069  1
  O  O14  1  0.596763  0.089584  0.580837  1
  O  O15  1  0.481546  0.516090  0.819828  1
  O  O16  1  0.561527  0.100940  0.081659  1
  O  O17  1  0.408316  0.896910  0.920627  1
  O  O18  1  0.899060  0.438473  0.918341  1
