# generated using pymatgen
data_Sm8GePd7Pt17
_symmetry_space_group_name_H-M   'P 1'
_cell_length_a   8.41497500
_cell_length_b   8.45922700
_cell_length_c   8.49322900
_cell_angle_alpha   90.00000000
_cell_angle_beta   90.00000000
_cell_angle_gamma   90.00000000
_symmetry_Int_Tables_number   1
_chemical_formula_structural   Sm8GePd7Pt17
_chemical_formula_sum   'Sm8 Ge1 Pd7 Pt17'
_cell_volume   604.58357355
_cell_formula_units_Z   1
loop_
 _symmetry_equiv_pos_site_id
 _symmetry_equiv_pos_as_xyz
  1  'x, y, z'
loop_
 _atom_site_type_symbol
 _atom_site_label
 _atom_site_symmetry_multiplicity
 _atom_site_fract_x
 _atom_site_fract_y
 _atom_site_fract_z
 _atom_site_occupancy
  Sm  Sm0  1  0.252268  0.252789  0.253245  1
  Sm  Sm1  1  0.747375  0.746947  0.746470  1
  Sm  Sm2  1  0.747375  0.746947  0.253530  1
  Sm  Sm3  1  0.747732  0.252789  0.746755  1
  Sm  Sm4  1  0.252268  0.252789  0.746755  1
  Sm  Sm5  1  0.252625  0.746947  0.253530  1
  Sm  Sm6  1  0.252625  0.746947  0.746470  1
  Sm  Sm7  1  0.747732  0.252789  0.253245  1
  Ge  Ge8  1  0.000000  0.002222  0.000000  1
  Pd  Pd9  1  0.500000  0.253134  0.500000  1
  Pd  Pd10  1  0.500000  0.747069  0.500000  1
  Pd  Pd11  1  0.500000  0.500062  0.253186  1
  Pd  Pd12  1  0.500000  0.500062  0.746814  1
  Pd  Pd13  1  0.000000  0.710428  0.000000  1
  Pd  Pd14  1  0.000000  0.999713  0.291338  1
  Pd  Pd15  1  0.000000  0.999713  0.708662  1
  Pt  Pt16  1  0.260239  0.499772  0.000000  1
  Pt  Pt17  1  0.739761  0.499772  0.000000  1
  Pt  Pt18  1  0.000000  0.258957  0.500000  1
  Pt  Pt19  1  0.500000  0.259648  0.000000  1
  Pt  Pt20  1  0.000000  0.740306  0.500000  1
  Pt  Pt21  1  0.500000  0.739422  0.000000  1
  Pt  Pt22  1  0.500000  0.999877  0.260276  1
  Pt  Pt23  1  0.259987  0.999888  0.500000  1
  Pt  Pt24  1  0.500000  0.999877  0.739724  1
  Pt  Pt25  1  0.740013  0.999888  0.500000  1
  Pt  Pt26  1  0.000000  0.499940  0.259687  1
  Pt  Pt27  1  0.000000  0.499940  0.740313  1
  Pt  Pt28  1  0.252322  0.500102  0.500000  1
  Pt  Pt29  1  0.747678  0.500102  0.500000  1
  Pt  Pt30  1  0.290389  0.999456  0.000000  1
  Pt  Pt31  1  0.709611  0.999456  0.000000  1
  Pt  Pt32  1  0.000000  0.292243  0.000000  1
