# generated using pymatgen
data_Tb2TmLu2Si3
_symmetry_space_group_name_H-M   'P 1'
_cell_length_a   8.36674625
_cell_length_b   8.39529051
_cell_length_c   6.24423400
_cell_angle_alpha   90.00000000
_cell_angle_beta   90.00000000
_cell_angle_gamma   120.11291533
_symmetry_Int_Tables_number   1
_chemical_formula_structural   Tb2TmLu2Si3
_chemical_formula_sum   'Tb4 Tm2 Lu4 Si6'
_cell_volume   379.40832691
_cell_formula_units_Z   2
loop_
 _symmetry_equiv_pos_site_id
 _symmetry_equiv_pos_as_xyz
  1  'x, y, z'
loop_
 _atom_site_type_symbol
 _atom_site_label
 _atom_site_symmetry_multiplicity
 _atom_site_fract_x
 _atom_site_fract_y
 _atom_site_fract_z
 _atom_site_occupancy
  Tb  Tb0  1  0.756695  0.756463  0.250000  1
  Tb  Tb1  1  0.756695  0.000231  0.750000  1
  Tb  Tb2  1  0.243305  0.243537  0.750000  1
  Tb  Tb3  1  0.243305  0.999769  0.250000  1
  Tm  Tm4  1  0.000000  0.754644  0.750000  1
  Tm  Tm5  1  0.000000  0.245356  0.250000  1
  Lu  Lu6  1  0.332523  0.666262  0.500000  1
  Lu  Lu7  1  0.667477  0.333738  0.000000  1
  Lu  Lu8  1  0.667477  0.333738  0.500000  1
  Lu  Lu9  1  0.332523  0.666262  0.000000  1
  Si  Si10  1  0.394205  0.999005  0.750000  1
  Si  Si11  1  0.394205  0.395200  0.250000  1
  Si  Si12  1  0.000000  0.602628  0.250000  1
  Si  Si13  1  0.000000  0.397372  0.750000  1
  Si  Si14  1  0.605795  0.604800  0.750000  1
  Si  Si15  1  0.605795  0.000995  0.250000  1
