# generated using pymatgen
data_Ho16Tm4Ir5Au7
_symmetry_space_group_name_H-M   'P 1'
_cell_length_a   11.24112612
_cell_length_b   11.24112612
_cell_length_c   6.27705743
_cell_angle_alpha   89.88643915
_cell_angle_beta   89.88643915
_cell_angle_gamma   90.27677303
_symmetry_Int_Tables_number   1
_chemical_formula_structural   Ho16Tm4Ir5Au7
_chemical_formula_sum   'Ho16 Tm4 Ir5 Au7'
_cell_volume   793.17489749
_cell_formula_units_Z   1
loop_
 _symmetry_equiv_pos_site_id
 _symmetry_equiv_pos_as_xyz
  1  'x, y, z'
loop_
 _atom_site_type_symbol
 _atom_site_label
 _atom_site_symmetry_multiplicity
 _atom_site_fract_x
 _atom_site_fract_y
 _atom_site_fract_z
 _atom_site_occupancy
  Ho  Ho0  1  0.298152  0.080439  0.360185  1
  Ho  Ho1  1  0.298022  0.906098  0.861773  1
  Ho  Ho2  1  0.701175  0.082680  0.857807  1
  Ho  Ho3  1  0.699519  0.914561  0.356978  1
  Ho  Ho4  1  0.575916  0.792093  0.858929  1
  Ho  Ho5  1  0.583433  0.202942  0.360369  1
  Ho  Ho6  1  0.410847  0.791097  0.372083  1
  Ho  Ho7  1  0.414877  0.199642  0.858842  1
  Ho  Ho8  1  0.207907  0.424084  0.641071  1
  Ho  Ho9  1  0.208903  0.589153  0.127917  1
  Ho  Ho10  1  0.797058  0.416567  0.139631  1
  Ho  Ho11  1  0.800358  0.585123  0.641158  1
  Ho  Ho12  1  0.919561  0.701848  0.139815  1
  Ho  Ho13  1  0.917320  0.298825  0.642193  1
  Ho  Ho14  1  0.093902  0.701978  0.638227  1
  Ho  Ho15  1  0.085439  0.300481  0.143022  1
  Tm  Tm16  1  0.998745  0.000023  0.501016  1
  Tm  Tm17  1  0.999977  0.001255  0.998984  1
  Tm  Tm18  1  0.494109  0.503201  0.998723  1
  Tm  Tm19  1  0.496799  0.505891  0.501277  1
  Ir  Ir20  1  0.348848  0.651152  0.750000  1
  Ir  Ir21  1  0.499485  0.999406  0.108302  1
  Ir  Ir22  1  0.499132  0.999741  0.606911  1
  Ir  Ir23  1  0.000259  0.500868  0.893089  1
  Ir  Ir24  1  0.000594  0.500515  0.391698  1
  Au  Au25  1  0.845423  0.154577  0.250000  1
  Au  Au26  1  0.842770  0.845599  0.751660  1
  Au  Au27  1  0.154401  0.157230  0.748340  1
  Au  Au28  1  0.152895  0.847105  0.250000  1
  Au  Au29  1  0.652330  0.347670  0.750000  1
  Au  Au30  1  0.656401  0.654558  0.247769  1
  Au  Au31  1  0.345442  0.343599  0.252231  1
