# generated using pymatgen
data_Tb3Dy(MnSb3)4
_symmetry_space_group_name_H-M   'P 1'
_cell_length_a   6.03494600
_cell_length_b   6.20517400
_cell_length_c   12.81995500
_cell_angle_alpha   90.00177134
_cell_angle_beta   90.00000000
_cell_angle_gamma   90.00000000
_symmetry_Int_Tables_number   1
_chemical_formula_structural   Tb3Dy(MnSb3)4
_chemical_formula_sum   'Tb3 Dy1 Mn4 Sb12'
_cell_volume   480.08026467
_cell_formula_units_Z   1
loop_
 _symmetry_equiv_pos_site_id
 _symmetry_equiv_pos_as_xyz
  1  'x, y, z'
loop_
 _atom_site_type_symbol
 _atom_site_label
 _atom_site_symmetry_multiplicity
 _atom_site_fract_x
 _atom_site_fract_y
 _atom_site_fract_z
 _atom_site_occupancy
  Tb  Tb0  1  0.250000  0.504819  0.309167  1
  Tb  Tb1  1  0.750000  0.495222  0.690860  1
  Tb  Tb2  1  0.250000  0.004783  0.690864  1
  Dy  Dy3  1  0.750000  0.995227  0.309124  1
  Mn  Mn4  1  0.999995  0.749993  0.903981  1
  Mn  Mn5  1  0.999945  0.249938  0.095992  1
  Mn  Mn6  1  0.500055  0.249938  0.095992  1
  Mn  Mn7  1  0.500005  0.749993  0.903981  1
  Sb  Sb8  1  0.999864  0.750282  0.502482  1
  Sb  Sb9  1  0.999829  0.249708  0.497271  1
  Sb  Sb10  1  0.500171  0.249708  0.497271  1
  Sb  Sb11  1  0.500136  0.750282  0.502482  1
  Sb  Sb12  1  0.250000  0.602919  0.063660  1
  Sb  Sb13  1  0.750000  0.397088  0.936387  1
  Sb  Sb14  1  0.250000  0.102895  0.936383  1
  Sb  Sb15  1  0.750000  0.897177  0.063822  1
  Sb  Sb16  1  0.250000  0.000184  0.229011  1
  Sb  Sb17  1  0.750000  0.999737  0.771169  1
  Sb  Sb18  1  0.250000  0.500277  0.771156  1
  Sb  Sb19  1  0.750000  0.499829  0.228946  1
