# generated using pymatgen
data_CaDyRe2Si2C
_symmetry_space_group_name_H-M   'P 1'
_cell_length_a   3.97785912
_cell_length_b   5.82681150
_cell_length_c   6.05397613
_cell_angle_alpha   72.92646873
_cell_angle_beta   70.82025861
_cell_angle_gamma   70.04140421
_symmetry_Int_Tables_number   1
_chemical_formula_structural   CaDyRe2Si2C
_chemical_formula_sum   'Ca1 Dy1 Re2 Si2 C1'
_cell_volume   121.94178338
_cell_formula_units_Z   1
loop_
 _symmetry_equiv_pos_site_id
 _symmetry_equiv_pos_as_xyz
  1  'x, y, z'
loop_
 _atom_site_type_symbol
 _atom_site_label
 _atom_site_symmetry_multiplicity
 _atom_site_fract_x
 _atom_site_fract_y
 _atom_site_fract_z
 _atom_site_occupancy
  Ca  Ca0  1  0.424416  0.848237  0.302931  1
  Dy  Dy1  1  0.573926  0.149865  0.702283  1
  Re  Re2  1  0.794314  0.325681  0.085691  1
  Re  Re3  1  0.206971  0.673045  0.913013  1
  Si  Si4  1  0.859439  0.598148  0.682974  1
  Si  Si5  1  0.139346  0.401990  0.319318  1
  C  C6  1  0.001588  0.003034  0.993789  1
