# generated using pymatgen
data_Nd3TiOsC6
_symmetry_space_group_name_H-M   'P 1'
_cell_length_a   8.37979000
_cell_length_b   8.37978985
_cell_length_c   5.22280500
_cell_angle_alpha   90.00000000
_cell_angle_beta   90.00000000
_cell_angle_gamma   119.99998480
_symmetry_Int_Tables_number   1
_chemical_formula_structural   Nd3TiOsC6
_chemical_formula_sum   'Nd6 Ti2 Os2 C12'
_cell_volume   317.61482991
_cell_formula_units_Z   2
loop_
 _symmetry_equiv_pos_site_id
 _symmetry_equiv_pos_as_xyz
  1  'x, y, z'
loop_
 _atom_site_type_symbol
 _atom_site_label
 _atom_site_symmetry_multiplicity
 _atom_site_fract_x
 _atom_site_fract_y
 _atom_site_fract_z
 _atom_site_occupancy
  Nd  Nd0  1  0.613694  0.683158  0.750000  1
  Nd  Nd1  1  0.930538  0.613694  0.250000  1
  Nd  Nd2  1  0.683158  0.069462  0.250000  1
  Nd  Nd3  1  0.316842  0.930538  0.750000  1
  Nd  Nd4  1  0.069462  0.386306  0.750000  1
  Nd  Nd5  1  0.386306  0.316842  0.250000  1
  Ti  Ti6  1  0.000000  0.000000  0.500000  1
  Ti  Ti7  1  0.000000  0.000000  0.000000  1
  Os  Os8  1  0.666667  0.333333  0.750000  1
  Os  Os9  1  0.333333  0.666667  0.250000  1
  C  C10  1  0.958115  0.768486  0.750000  1
  C  C11  1  0.189629  0.958115  0.250000  1
  C  C12  1  0.768486  0.810371  0.250000  1
  C  C13  1  0.231514  0.189629  0.750000  1
  C  C14  1  0.810371  0.041885  0.750000  1
  C  C15  1  0.041885  0.231514  0.250000  1
  C  C16  1  0.868846  0.582173  0.750000  1
  C  C17  1  0.286671  0.868846  0.250000  1
  C  C18  1  0.582173  0.713329  0.250000  1
  C  C19  1  0.417827  0.286671  0.750000  1
  C  C20  1  0.131154  0.417827  0.250000  1
  C  C21  1  0.713329  0.131154  0.750000  1
