# generated using pymatgen
data_Ta6Co6W
_symmetry_space_group_name_H-M   'P 1'
_cell_length_a   4.92855213
_cell_length_b   4.92855115
_cell_length_c   9.24821178
_cell_angle_alpha   74.54628789
_cell_angle_beta   74.54628860
_cell_angle_gamma   59.99999878
_symmetry_Int_Tables_number   1
_chemical_formula_structural   Ta6Co6W
_chemical_formula_sum   'Ta6 Co6 W1'
_cell_volume   185.11048071
_cell_formula_units_Z   1
loop_
 _symmetry_equiv_pos_site_id
 _symmetry_equiv_pos_as_xyz
  1  'x, y, z'
loop_
 _atom_site_type_symbol
 _atom_site_label
 _atom_site_symmetry_multiplicity
 _atom_site_fract_x
 _atom_site_fract_y
 _atom_site_fract_z
 _atom_site_occupancy
  Ta  Ta0  1  0.165669  0.165669  0.502993  1
  Ta  Ta1  1  0.834331  0.834331  0.497007  1
  Ta  Ta2  1  0.346437  0.346437  0.960689  1
  Ta  Ta3  1  0.653563  0.653563  0.039311  1
  Ta  Ta4  1  0.450253  0.450253  0.649241  1
  Ta  Ta5  1  0.549747  0.549747  0.350759  1
  Co  Co6  1  0.583033  0.092554  0.231857  1
  Co  Co7  1  0.092554  0.092554  0.231857  1
  Co  Co8  1  0.092554  0.583033  0.231857  1
  Co  Co9  1  0.416967  0.907446  0.768143  1
  Co  Co10  1  0.907446  0.907446  0.768143  1
  Co  Co11  1  0.907446  0.416967  0.768143  1
  W  W12  1  0.000000  0.000000  0.000000  1
