# generated using pymatgen
data_Dy9Er(PPb3)2
_symmetry_space_group_name_H-M   'P 1'
_cell_length_a   9.14996600
_cell_length_b   9.14996463
_cell_length_c   6.82052700
_cell_angle_alpha   90.00000000
_cell_angle_beta   90.00000000
_cell_angle_gamma   119.99999771
_symmetry_Int_Tables_number   1
_chemical_formula_structural   Dy9Er(PPb3)2
_chemical_formula_sum   'Dy9 Er1 P2 Pb6'
_cell_volume   494.52410994
_cell_formula_units_Z   1
loop_
 _symmetry_equiv_pos_site_id
 _symmetry_equiv_pos_as_xyz
  1  'x, y, z'
loop_
 _atom_site_type_symbol
 _atom_site_label
 _atom_site_symmetry_multiplicity
 _atom_site_fract_x
 _atom_site_fract_y
 _atom_site_fract_z
 _atom_site_occupancy
  Dy  Dy0  1  0.762647  0.762527  0.249926  1
  Dy  Dy1  1  0.237473  0.000121  0.249926  1
  Dy  Dy2  1  0.999879  0.237353  0.249926  1
  Dy  Dy3  1  0.237473  0.237353  0.750074  1
  Dy  Dy4  1  0.762647  0.000121  0.750074  1
  Dy  Dy5  1  0.999879  0.762527  0.750074  1
  Dy  Dy6  1  0.666667  0.333333  0.500000  1
  Dy  Dy7  1  0.333333  0.666667  0.500000  1
  Dy  Dy8  1  0.333333  0.666667  0.000000  1
  Er  Er9  1  0.666667  0.333333  0.000000  1
  P  P10  1  0.000000  0.000000  0.500000  1
  P  P11  1  0.000000  0.000000  0.000000  1
  Pb  Pb12  1  0.401249  0.400995  0.249816  1
  Pb  Pb13  1  0.599005  0.000255  0.249816  1
  Pb  Pb14  1  0.999745  0.598751  0.249816  1
  Pb  Pb15  1  0.599005  0.598751  0.750184  1
  Pb  Pb16  1  0.401249  0.000255  0.750184  1
  Pb  Pb17  1  0.999745  0.400995  0.750184  1
