# generated using pymatgen
data_Na(FeBr3)2
_symmetry_space_group_name_H-M   'P 1'
_cell_length_a   7.24491606
_cell_length_b   7.06967210
_cell_length_c   8.24219134
_cell_angle_alpha   77.83170231
_cell_angle_beta   79.82166195
_cell_angle_gamma   56.64553782
_symmetry_Int_Tables_number   1
_chemical_formula_structural   Na(FeBr3)2
_chemical_formula_sum   'Na1 Fe2 Br6'
_cell_volume   343.74246643
_cell_formula_units_Z   1
loop_
 _symmetry_equiv_pos_site_id
 _symmetry_equiv_pos_as_xyz
  1  'x, y, z'
loop_
 _atom_site_type_symbol
 _atom_site_label
 _atom_site_symmetry_multiplicity
 _atom_site_fract_x
 _atom_site_fract_y
 _atom_site_fract_z
 _atom_site_occupancy
  Na  Na0  1  0.168933  0.958390  0.545559  1
  Fe  Fe1  1  0.873938  0.617070  0.276412  1
  Fe  Fe2  1  0.989633  0.815625  0.956560  1
  Br  Br3  1  0.536250  0.633891  0.345377  1
  Br  Br4  1  0.041235  0.436871  0.023854  1
  Br  Br5  1  0.125449  0.403803  0.485906  1
  Br  Br6  1  0.758236  0.025610  0.735321  1
  Br  Br7  1  0.334745  0.777456  0.880729  1
  Br  Br8  1  0.815582  0.999649  0.208605  1
