# generated using pymatgen
data_Er4Tm2Bi2Mo
_symmetry_space_group_name_H-M   'P 1'
_cell_length_a   8.22616219
_cell_length_b   8.22616116
_cell_length_c   4.34510300
_cell_angle_alpha   90.00000000
_cell_angle_beta   90.00000000
_cell_angle_gamma   120.03515242
_symmetry_Int_Tables_number   1
_chemical_formula_structural   Er4Tm2Bi2Mo
_chemical_formula_sum   'Er4 Tm2 Bi2 Mo1'
_cell_volume   254.54891179
_cell_formula_units_Z   1
loop_
 _symmetry_equiv_pos_site_id
 _symmetry_equiv_pos_as_xyz
  1  'x, y, z'
loop_
 _atom_site_type_symbol
 _atom_site_label
 _atom_site_symmetry_multiplicity
 _atom_site_fract_x
 _atom_site_fract_y
 _atom_site_fract_z
 _atom_site_occupancy
  Er  Er0  1  0.764787  0.764787  0.500000  1
  Er  Er1  1  0.610766  0.000320  0.000000  1
  Er  Er2  1  0.000320  0.610766  0.000000  1
  Er  Er3  1  0.388726  0.388726  0.000000  1
  Tm  Tm4  1  0.235001  0.000170  0.500000  1
  Tm  Tm5  1  0.000170  0.235001  0.500000  1
  Bi  Bi6  1  0.333022  0.666750  0.500000  1
  Bi  Bi7  1  0.666750  0.333022  0.500000  1
  Mo  Mo8  1  0.000455  0.000455  0.000000  1
