# generated using pymatgen
data_Tm5Sc(P2Ir3)6
_symmetry_space_group_name_H-M   'P 1'
_cell_length_a   12.67813671
_cell_length_b   12.88056043
_cell_length_c   3.95332900
_cell_angle_alpha   90.00000000
_cell_angle_beta   90.00000000
_cell_angle_gamma   120.52958787
_symmetry_Int_Tables_number   1
_chemical_formula_structural   Tm5Sc(P2Ir3)6
_chemical_formula_sum   'Tm5 Sc1 P12 Ir18'
_cell_volume   556.08521983
_cell_formula_units_Z   1
loop_
 _symmetry_equiv_pos_site_id
 _symmetry_equiv_pos_as_xyz
  1  'x, y, z'
loop_
 _atom_site_type_symbol
 _atom_site_label
 _atom_site_symmetry_multiplicity
 _atom_site_fract_x
 _atom_site_fract_y
 _atom_site_fract_z
 _atom_site_occupancy
  Tm  Tm0  1  0.329627  0.664281  0.500000  1
  Tm  Tm1  1  0.670373  0.334653  0.500000  1
  Tm  Tm2  1  0.000000  0.814850  0.000000  1
  Tm  Tm3  1  0.184486  0.187472  0.000000  1
  Tm  Tm4  1  0.815514  0.002985  0.000000  1
  Sc  Sc5  1  0.000000  0.444800  0.500000  1
  P  P6  1  0.000000  0.646218  0.500000  1
  P  P7  1  0.356829  0.352435  0.500000  1
  P  P8  1  0.643171  0.995607  0.500000  1
  P  P9  1  0.514337  0.688742  0.000000  1
  P  P10  1  0.311848  0.830109  0.000000  1
  P  P11  1  0.168366  0.484566  0.000000  1
  P  P12  1  0.485663  0.174405  0.000000  1
  P  P13  1  0.688152  0.518261  0.000000  1
  P  P14  1  0.831634  0.316200  0.000000  1
  P  P15  1  0.000000  0.175316  0.500000  1
  P  P16  1  0.820568  0.822259  0.500000  1
  P  P17  1  0.179432  0.001692  0.500000  1
  Ir  Ir18  1  0.507110  0.867950  0.000000  1
  Ir  Ir19  1  0.132705  0.643570  0.000000  1
  Ir  Ir20  1  0.359621  0.495897  0.000000  1
  Ir  Ir21  1  0.492890  0.360840  0.000000  1
  Ir  Ir22  1  0.867295  0.510864  0.000000  1
  Ir  Ir23  1  0.640379  0.136275  0.000000  1
  Ir  Ir24  1  0.535931  0.534547  0.500000  1
  Ir  Ir25  1  0.464069  0.998616  0.500000  1
  Ir  Ir26  1  0.000000  0.279130  0.000000  1
  Ir  Ir27  1  0.714945  0.716977  0.000000  1
  Ir  Ir28  1  0.285055  0.002032  0.000000  1
  Ir  Ir29  1  0.620367  0.801672  0.500000  1
  Ir  Ir30  1  0.197820  0.826005  0.500000  1
  Ir  Ir31  1  0.184090  0.373427  0.500000  1
  Ir  Ir32  1  0.379633  0.181305  0.500000  1
  Ir  Ir33  1  0.802180  0.628186  0.500000  1
  Ir  Ir34  1  0.815910  0.189336  0.500000  1
  Ir  Ir35  1  0.000000  0.998518  0.500000  1
