# generated using pymatgen
data_YHoGe2(BRh3)2
_symmetry_space_group_name_H-M   'P 1'
_cell_length_a   5.53248300
_cell_length_b   5.53248254
_cell_length_c   6.90699000
_cell_angle_alpha   90.00000000
_cell_angle_beta   90.00000000
_cell_angle_gamma   120.00000875
_symmetry_Int_Tables_number   1
_chemical_formula_structural   YHoGe2(BRh3)2
_chemical_formula_sum   'Y1 Ho1 Ge2 B2 Rh6'
_cell_volume   183.08786504
_cell_formula_units_Z   1
loop_
 _symmetry_equiv_pos_site_id
 _symmetry_equiv_pos_as_xyz
  1  'x, y, z'
loop_
 _atom_site_type_symbol
 _atom_site_label
 _atom_site_symmetry_multiplicity
 _atom_site_fract_x
 _atom_site_fract_y
 _atom_site_fract_z
 _atom_site_occupancy
  Y  Y0  1  0.000000  0.000000  0.500000  1
  Ho  Ho1  1  0.000000  0.000000  0.000000  1
  Ge  Ge2  1  0.666667  0.333333  0.500000  1
  Ge  Ge3  1  0.333333  0.666667  0.500000  1
  B  B4  1  0.666667  0.333333  0.000000  1
  B  B5  1  0.333333  0.666667  0.000000  1
  Rh  Rh6  1  0.500000  0.500000  0.788044  1
  Rh  Rh7  1  0.500000  0.000000  0.788044  1
  Rh  Rh8  1  0.000000  0.500000  0.788044  1
  Rh  Rh9  1  0.500000  0.500000  0.211956  1
  Rh  Rh10  1  0.500000  0.000000  0.211956  1
  Rh  Rh11  1  0.000000  0.500000  0.211956  1
