# generated using pymatgen
data_Dy6Y2CdHgIr2
_symmetry_space_group_name_H-M   'P 1'
_cell_length_a   9.62559132
_cell_length_b   9.62526808
_cell_length_c   9.63260601
_cell_angle_alpha   59.97699411
_cell_angle_beta   59.97366393
_cell_angle_gamma   59.96824473
_symmetry_Int_Tables_number   1
_chemical_formula_structural   Dy6Y2CdHgIr2
_chemical_formula_sum   'Dy12 Y4 Cd2 Hg2 Ir4'
_cell_volume   630.67083018
_cell_formula_units_Z   2
loop_
 _symmetry_equiv_pos_site_id
 _symmetry_equiv_pos_as_xyz
  1  'x, y, z'
loop_
 _atom_site_type_symbol
 _atom_site_label
 _atom_site_symmetry_multiplicity
 _atom_site_fract_x
 _atom_site_fract_y
 _atom_site_fract_z
 _atom_site_occupancy
  Dy  Dy0  1  0.349548  0.349726  0.348209  1
  Dy  Dy1  1  0.349726  0.349548  0.952518  1
  Dy  Dy2  1  0.351324  0.949385  0.349555  1
  Dy  Dy3  1  0.949385  0.351324  0.349737  1
  Dy  Dy4  1  0.809327  0.189012  0.191516  1
  Dy  Dy5  1  0.189012  0.809327  0.810145  1
  Dy  Dy6  1  0.189009  0.809305  0.191539  1
  Dy  Dy7  1  0.809305  0.189009  0.810146  1
  Dy  Dy8  1  0.189726  0.189726  0.810274  1
  Dy  Dy9  1  0.808991  0.808991  0.191009  1
  Dy  Dy10  1  0.937889  0.561109  0.562027  1
  Dy  Dy11  1  0.561109  0.937889  0.938974  1
  Y  Y12  1  0.561346  0.937718  0.562236  1
  Y  Y13  1  0.937718  0.561346  0.938701  1
  Y  Y14  1  0.561508  0.561508  0.938492  1
  Y  Y15  1  0.938055  0.938055  0.561945  1
  Cd  Cd16  1  0.580210  0.257760  0.581011  1
  Cd  Cd17  1  0.257760  0.580210  0.581020  1
  Hg  Hg18  1  0.583730  0.583662  0.585649  1
  Hg  Hg19  1  0.583662  0.583730  0.246960  1
  Ir  Ir20  1  0.142167  0.142030  0.141077  1
  Ir  Ir21  1  0.142030  0.142167  0.574727  1
  Ir  Ir22  1  0.142149  0.575317  0.141325  1
  Ir  Ir23  1  0.575317  0.142149  0.141208  1
