# generated using pymatgen
data_LaSiPd3
_symmetry_space_group_name_H-M   'P 1'
_cell_length_a   4.20348100
_cell_length_b   4.20348100
_cell_length_c   5.42296800
_cell_angle_alpha   90.00000000
_cell_angle_beta   90.00000000
_cell_angle_gamma   90.00000000
_symmetry_Int_Tables_number   1
_chemical_formula_structural   LaSiPd3
_chemical_formula_sum   'La1 Si1 Pd3'
_cell_volume   95.81979099
_cell_formula_units_Z   1
loop_
 _symmetry_equiv_pos_site_id
 _symmetry_equiv_pos_as_xyz
  1  'x, y, z'
loop_
 _atom_site_type_symbol
 _atom_site_label
 _atom_site_symmetry_multiplicity
 _atom_site_fract_x
 _atom_site_fract_y
 _atom_site_fract_z
 _atom_site_occupancy
  La  La0  1  0.500000  0.500000  0.688843  1
  Si  Si1  1  0.000000  0.000000  0.979934  1
  Pd  Pd2  1  0.500000  0.000000  0.197717  1
  Pd  Pd3  1  0.000000  0.500000  0.197717  1
  Pd  Pd4  1  0.000000  0.000000  0.543990  1
