# generated using pymatgen
data_HoTm3Os7W
_symmetry_space_group_name_H-M   'P 1'
_cell_length_a   5.45890014
_cell_length_b   5.26533136
_cell_length_c   8.84341104
_cell_angle_alpha   90.00887189
_cell_angle_beta   90.00102566
_cell_angle_gamma   121.14257280
_symmetry_Int_Tables_number   1
_chemical_formula_structural   HoTm3Os7W
_chemical_formula_sum   'Ho1 Tm3 Os7 W1'
_cell_volume   217.55300375
_cell_formula_units_Z   1
loop_
 _symmetry_equiv_pos_site_id
 _symmetry_equiv_pos_as_xyz
  1  'x, y, z'
loop_
 _atom_site_type_symbol
 _atom_site_label
 _atom_site_symmetry_multiplicity
 _atom_site_fract_x
 _atom_site_fract_y
 _atom_site_fract_z
 _atom_site_occupancy
  Ho  Ho0  1  0.670823  0.341433  0.562814  1
  Tm  Tm1  1  0.334219  0.668633  0.433550  1
  Tm  Tm2  1  0.334223  0.668644  0.066250  1
  Tm  Tm3  1  0.671038  0.341925  0.937199  1
  Os  Os4  1  0.006835  0.014117  0.496826  1
  Os  Os5  1  0.006706  0.013855  0.002976  1
  Os  Os6  1  0.173253  0.823516  0.750655  1
  Os  Os7  1  0.649902  0.823680  0.750630  1
  Os  Os8  1  0.822715  0.645385  0.249433  1
  Os  Os9  1  0.827839  0.166088  0.249611  1
  Os  Os10  1  0.339179  0.166535  0.249582  1
  W  W11  1  0.163267  0.326191  0.750475  1
