# generated using pymatgen
data_Zr10BeAlSiSb5
_symmetry_space_group_name_H-M   'P 1'
_cell_length_a   8.58310879
_cell_length_b   8.60451383
_cell_length_c   5.81911569
_cell_angle_alpha   89.98286371
_cell_angle_beta   90.03437138
_cell_angle_gamma   119.91773549
_symmetry_Int_Tables_number   1
_chemical_formula_structural   Zr10BeAlSiSb5
_chemical_formula_sum   'Zr10 Be1 Al1 Si1 Sb5'
_cell_volume   372.49282486
_cell_formula_units_Z   1
loop_
 _symmetry_equiv_pos_site_id
 _symmetry_equiv_pos_as_xyz
  1  'x, y, z'
loop_
 _atom_site_type_symbol
 _atom_site_label
 _atom_site_symmetry_multiplicity
 _atom_site_fract_x
 _atom_site_fract_y
 _atom_site_fract_z
 _atom_site_occupancy
  Zr  Zr0  1  0.263644  0.000000  0.245938  1
  Zr  Zr1  1  0.252393  0.250695  0.754331  1
  Zr  Zr2  1  0.001697  0.749305  0.754331  1
  Zr  Zr3  1  0.992105  0.256528  0.244333  1
  Zr  Zr4  1  0.735576  0.743472  0.244333  1
  Zr  Zr5  1  0.748751  0.000000  0.756760  1
  Zr  Zr6  1  0.335125  0.668304  0.002685  1
  Zr  Zr7  1  0.666753  0.331341  0.497251  1
  Zr  Zr8  1  0.666823  0.331696  0.002685  1
  Zr  Zr9  1  0.335411  0.668659  0.497251  1
  Be  Be10  1  0.999648  0.000000  0.014589  1
  Al  Al11  1  0.608760  0.000000  0.248743  1
  Si  Si12  1  0.999354  0.000000  0.486982  1
  Sb  Sb13  1  0.606381  0.605949  0.749815  1
  Sb  Sb14  1  0.000430  0.394051  0.749815  1
  Sb  Sb15  1  0.998869  0.611009  0.249340  1
  Sb  Sb16  1  0.387860  0.388991  0.249340  1
  Sb  Sb17  1  0.400420  0.000000  0.751477  1
