# generated using pymatgen
data_Er8Al2RuPt
_symmetry_space_group_name_H-M   'P 1'
_cell_length_a   9.47968036
_cell_length_b   9.47967993
_cell_length_c   9.50723600
_cell_angle_alpha   59.90379528
_cell_angle_beta   59.90379678
_cell_angle_gamma   59.71554798
_symmetry_Int_Tables_number   1
_chemical_formula_structural   Er8Al2RuPt
_chemical_formula_sum   'Er16 Al4 Ru2 Pt2'
_cell_volume   601.94107156
_cell_formula_units_Z   2
loop_
 _symmetry_equiv_pos_site_id
 _symmetry_equiv_pos_as_xyz
  1  'x, y, z'
loop_
 _atom_site_type_symbol
 _atom_site_label
 _atom_site_symmetry_multiplicity
 _atom_site_fract_x
 _atom_site_fract_y
 _atom_site_fract_z
 _atom_site_occupancy
  Er  Er0  1  0.352436  0.352436  0.355957  1
  Er  Er1  1  0.352436  0.352436  0.939173  1
  Er  Er2  1  0.350344  0.944058  0.352799  1
  Er  Er3  1  0.944058  0.350344  0.352799  1
  Er  Er4  1  0.811041  0.191870  0.194625  1
  Er  Er5  1  0.191870  0.811041  0.802464  1
  Er  Er6  1  0.191870  0.811041  0.194625  1
  Er  Er7  1  0.811041  0.191870  0.802464  1
  Er  Er8  1  0.192288  0.192288  0.807712  1
  Er  Er9  1  0.804258  0.804258  0.195742  1
  Er  Er10  1  0.936197  0.559999  0.565790  1
  Er  Er11  1  0.559999  0.936197  0.938014  1
  Er  Er12  1  0.559999  0.936197  0.565790  1
  Er  Er13  1  0.936197  0.559999  0.938014  1
  Er  Er14  1  0.562804  0.562804  0.937196  1
  Er  Er15  1  0.938222  0.938222  0.561778  1
  Al  Al16  1  0.578133  0.578133  0.578272  1
  Al  Al17  1  0.578133  0.578133  0.265464  1
  Al  Al18  1  0.578446  0.265348  0.578103  1
  Al  Al19  1  0.265348  0.578446  0.578103  1
  Ru  Ru20  1  0.143462  0.143462  0.140119  1
  Ru  Ru21  1  0.143462  0.143462  0.572956  1
  Pt  Pt22  1  0.144147  0.573811  0.141020  1
  Pt  Pt23  1  0.573811  0.144147  0.141020  1
