# generated using pymatgen
data_Ce4SiPdPt5Rh6
_symmetry_space_group_name_H-M   'P 1'
_cell_length_a   7.29382647
_cell_length_b   7.29382684
_cell_length_c   7.29382666
_cell_angle_alpha   109.49567948
_cell_angle_beta   109.49568596
_cell_angle_gamma   109.42230756
_symmetry_Int_Tables_number   1
_chemical_formula_structural   Ce4SiPdPt5Rh6
_chemical_formula_sum   'Ce4 Si1 Pd1 Pt5 Rh6'
_cell_volume   298.70616470
_cell_formula_units_Z   1
loop_
 _symmetry_equiv_pos_site_id
 _symmetry_equiv_pos_as_xyz
  1  'x, y, z'
loop_
 _atom_site_type_symbol
 _atom_site_label
 _atom_site_symmetry_multiplicity
 _atom_site_fract_x
 _atom_site_fract_y
 _atom_site_fract_z
 _atom_site_occupancy
  Ce  Ce0  1  0.000004  0.999996  0.500000  1
  Ce  Ce1  1  0.000004  0.500004  0.000008  1
  Ce  Ce2  1  0.499996  0.999996  0.999992  1
  Ce  Ce3  1  0.499996  0.500004  0.500000  1
  Si  Si4  1  0.000000  0.000000  0.000000  1
  Pd  Pd5  1  0.750000  0.250000  0.500000  1
  Pt  Pt6  1  0.750033  0.499954  0.250079  1
  Pt  Pt7  1  0.500046  0.249967  0.749921  1
  Pt  Pt8  1  0.249875  0.499954  0.749921  1
  Pt  Pt9  1  0.250000  0.750000  0.500000  1
  Pt  Pt10  1  0.500046  0.750125  0.250079  1
  Rh  Rh11  1  0.724421  0.724421  0.000000  1
  Rh  Rh12  1  0.275597  0.000036  0.275561  1
  Rh  Rh13  1  0.999964  0.275525  0.275561  1
  Rh  Rh14  1  0.275579  0.275579  0.000000  1
  Rh  Rh15  1  0.724475  0.000036  0.724439  1
  Rh  Rh16  1  0.999964  0.724403  0.724439  1
