# generated using pymatgen
data_La11Pr9Si15P
_symmetry_space_group_name_H-M   'P 1'
_cell_length_a   7.97311338
_cell_length_b   7.97744995
_cell_length_c   15.45014318
_cell_angle_alpha   89.89956518
_cell_angle_beta   89.82062825
_cell_angle_gamma   90.11512814
_symmetry_Int_Tables_number   1
_chemical_formula_structural   La11Pr9Si15P
_chemical_formula_sum   'La11 Pr9 Si15 P1'
_cell_volume   982.69978218
_cell_formula_units_Z   1
loop_
 _symmetry_equiv_pos_site_id
 _symmetry_equiv_pos_as_xyz
  1  'x, y, z'
loop_
 _atom_site_type_symbol
 _atom_site_label
 _atom_site_symmetry_multiplicity
 _atom_site_fract_x
 _atom_site_fract_y
 _atom_site_fract_z
 _atom_site_occupancy
  La  La0  1  0.310881  0.309775  0.000103  1
  La  La1  1  0.189472  0.808729  0.250005  1
  La  La2  1  0.807598  0.191313  0.750095  1
  La  La3  1  0.689456  0.689405  0.499386  1
  La  La4  1  0.380585  0.009085  0.444612  1
  La  La5  1  0.487612  0.879114  0.697615  1
  La  La6  1  0.511740  0.122448  0.196944  1
  La  La7  1  0.877465  0.488040  0.302306  1
  La  La8  1  0.123380  0.508686  0.802734  1
  La  La9  1  0.623438  0.987986  0.946863  1
  La  La10  1  0.010575  0.376173  0.553612  1
  Pr  Pr11  1  0.989267  0.620330  0.052733  1
  Pr  Pr12  1  0.128628  0.985685  0.875054  1
  Pr  Pr13  1  0.518126  0.627623  0.125613  1
  Pr  Pr14  1  0.477939  0.368322  0.627604  1
  Pr  Pr15  1  0.627423  0.517461  0.873032  1
  Pr  Pr16  1  0.371805  0.481349  0.374648  1
  Pr  Pr17  1  0.873530  0.017588  0.377028  1
  Pr  Pr18  1  0.982930  0.127395  0.123324  1
  Pr  Pr19  1  0.021350  0.878241  0.624590  1
  Si  Si20  1  0.330606  0.697346  0.951381  1
  Si  Si21  1  0.668245  0.303239  0.453501  1
  Si  Si22  1  0.698767  0.333443  0.047657  1
  Si  Si23  1  0.301935  0.667397  0.549106  1
  Si  Si24  1  0.803243  0.832469  0.201726  1
  Si  Si25  1  0.167920  0.197391  0.297181  1
  Si  Si26  1  0.834174  0.802845  0.797067  1
  Si  Si27  1  0.287072  0.919673  0.058423  1
  Si  Si28  1  0.579416  0.787684  0.308678  1
  Si  Si29  1  0.424056  0.210841  0.810947  1
  Si  Si30  1  0.788962  0.580379  0.689707  1
  Si  Si31  1  0.211448  0.422069  0.190756  1
  Si  Si32  1  0.709680  0.077660  0.559612  1
  Si  Si33  1  0.922217  0.289081  0.940659  1
  Si  Si34  1  0.078875  0.710912  0.442026  1
  P  P35  1  0.190186  0.172819  0.703678  1
