# generated using pymatgen
data_Sm3U2P12Ru19
_symmetry_space_group_name_H-M   'P 1'
_cell_length_a   12.61467482
_cell_length_b   12.61467400
_cell_length_c   3.95318100
_cell_angle_alpha   90.00000000
_cell_angle_beta   90.00000000
_cell_angle_gamma   120.00292826
_symmetry_Int_Tables_number   1
_chemical_formula_structural   Sm3U2P12Ru19
_chemical_formula_sum   'Sm3 U2 P12 Ru19'
_cell_volume   544.77429431
_cell_formula_units_Z   1
loop_
 _symmetry_equiv_pos_site_id
 _symmetry_equiv_pos_as_xyz
  1  'x, y, z'
loop_
 _atom_site_type_symbol
 _atom_site_label
 _atom_site_symmetry_multiplicity
 _atom_site_fract_x
 _atom_site_fract_y
 _atom_site_fract_z
 _atom_site_occupancy
  Sm  Sm0  1  0.189998  0.189998  0.500000  1
  Sm  Sm1  1  0.334104  0.668609  0.000000  1
  Sm  Sm2  1  0.668609  0.334104  0.000000  1
  U  U3  1  0.817306  0.002200  0.500000  1
  U  U4  1  0.002200  0.817306  0.500000  1
  P  P5  1  0.184822  0.003815  0.000000  1
  P  P6  1  0.003815  0.184822  0.000000  1
  P  P7  1  0.815558  0.815558  0.000000  1
  P  P8  1  0.522432  0.691685  0.500000  1
  P  P9  1  0.307552  0.829240  0.500000  1
  P  P10  1  0.170800  0.477899  0.500000  1
  P  P11  1  0.477899  0.170800  0.500000  1
  P  P12  1  0.691685  0.522432  0.500000  1
  P  P13  1  0.829240  0.307552  0.500000  1
  P  P14  1  0.623788  0.998456  0.000000  1
  P  P15  1  0.998456  0.623788  0.000000  1
  P  P16  1  0.375202  0.375202  0.000000  1
  Ru  Ru17  1  0.440354  0.994035  0.000000  1
  Ru  Ru18  1  0.994035  0.440354  0.000000  1
  Ru  Ru19  1  0.557575  0.557575  0.000000  1
  Ru  Ru20  1  0.280266  0.996903  0.500000  1
  Ru  Ru21  1  0.996903  0.280266  0.500000  1
  Ru  Ru22  1  0.719159  0.719159  0.500000  1
  Ru  Ru23  1  0.631011  0.814059  0.000000  1
  Ru  Ru24  1  0.182679  0.815429  0.000000  1
  Ru  Ru25  1  0.182801  0.378505  0.000000  1
  Ru  Ru26  1  0.378505  0.182801  0.000000  1
  Ru  Ru27  1  0.814059  0.631011  0.000000  1
  Ru  Ru28  1  0.815429  0.182679  0.000000  1
  Ru  Ru29  1  0.510165  0.873066  0.500000  1
  Ru  Ru30  1  0.124199  0.634479  0.500000  1
  Ru  Ru31  1  0.366034  0.490900  0.500000  1
  Ru  Ru32  1  0.490900  0.366034  0.500000  1
  Ru  Ru33  1  0.873066  0.510165  0.500000  1
  Ru  Ru34  1  0.634479  0.124199  0.500000  1
  Ru  Ru35  1  0.994914  0.994914  0.000000  1
