# generated using pymatgen
data_Y8Sc12Si15Ge
_symmetry_space_group_name_H-M   'P 1'
_cell_length_a   7.10484174
_cell_length_b   7.39478708
_cell_length_c   14.00532620
_cell_angle_alpha   90.01628868
_cell_angle_beta   89.81633948
_cell_angle_gamma   90.02192330
_symmetry_Int_Tables_number   1
_chemical_formula_structural   Y8Sc12Si15Ge
_chemical_formula_sum   'Y8 Sc12 Si15 Ge1'
_cell_volume   735.81905624
_cell_formula_units_Z   1
loop_
 _symmetry_equiv_pos_site_id
 _symmetry_equiv_pos_as_xyz
  1  'x, y, z'
loop_
 _atom_site_type_symbol
 _atom_site_label
 _atom_site_symmetry_multiplicity
 _atom_site_fract_x
 _atom_site_fract_y
 _atom_site_fract_z
 _atom_site_occupancy
  Y  Y0  1  0.011221  0.175445  0.096630  1
  Y  Y1  1  0.988850  0.824795  0.903441  1
  Y  Y2  1  0.489321  0.675435  0.903414  1
  Y  Y3  1  0.989078  0.824993  0.596809  1
  Y  Y4  1  0.510823  0.324770  0.096790  1
  Y  Y5  1  0.009515  0.175031  0.402733  1
  Y  Y6  1  0.510949  0.323367  0.402375  1
  Y  Y7  1  0.492288  0.676955  0.597158  1
  Sc  Sc8  1  0.162236  0.502116  0.751298  1
  Sc  Sc9  1  0.837600  0.498004  0.250112  1
  Sc  Sc10  1  0.337879  0.002024  0.249988  1
  Sc  Sc11  1  0.662215  0.997904  0.750049  1
  Sc  Sc12  1  0.334738  0.173952  0.626557  1
  Sc  Sc13  1  0.666496  0.823991  0.373913  1
  Sc  Sc14  1  0.165930  0.677264  0.374098  1
  Sc  Sc15  1  0.667691  0.822866  0.125304  1
  Sc  Sc16  1  0.831645  0.323956  0.625303  1
  Sc  Sc17  1  0.332021  0.176646  0.874668  1
  Sc  Sc18  1  0.831941  0.323114  0.874781  1
  Sc  Sc19  1  0.167806  0.677117  0.125322  1
  Si  Si20  1  0.035013  0.117245  0.750145  1
  Si  Si21  1  0.964912  0.883536  0.249485  1
  Si  Si22  1  0.464241  0.617120  0.249596  1
  Si  Si23  1  0.535139  0.383261  0.750416  1
  Si  Si24  1  0.286549  0.873312  0.750398  1
  Si  Si25  1  0.713292  0.126022  0.249471  1
  Si  Si26  1  0.212736  0.374046  0.249878  1
  Si  Si27  1  0.787389  0.626030  0.750204  1
  Si  Si28  1  0.835596  0.537420  0.459585  1
  Si  Si29  1  0.340691  0.963808  0.460533  1
  Si  Si30  1  0.842014  0.535589  0.039577  1
  Si  Si31  1  0.659379  0.036433  0.539179  1
  Si  Si32  1  0.157847  0.464350  0.960698  1
  Si  Si33  1  0.657739  0.035816  0.960660  1
  Si  Si34  1  0.342086  0.964287  0.039527  1
  Ge  Ge35  1  0.165131  0.461977  0.539907  1
