# generated using pymatgen
data_Dy7Sc(Ta3Ge4)4
_symmetry_space_group_name_H-M   'P 1'
_cell_length_a   6.98111930
_cell_length_b   7.14041494
_cell_length_c   13.51742021
_cell_angle_alpha   90.04232455
_cell_angle_beta   90.01269681
_cell_angle_gamma   90.01560668
_symmetry_Int_Tables_number   1
_chemical_formula_structural   Dy7Sc(Ta3Ge4)4
_chemical_formula_sum   'Dy7 Sc1 Ta12 Ge16'
_cell_volume   673.81733423
_cell_formula_units_Z   1
loop_
 _symmetry_equiv_pos_site_id
 _symmetry_equiv_pos_as_xyz
  1  'x, y, z'
loop_
 _atom_site_type_symbol
 _atom_site_label
 _atom_site_symmetry_multiplicity
 _atom_site_fract_x
 _atom_site_fract_y
 _atom_site_fract_z
 _atom_site_occupancy
  Dy  Dy0  1  0.495449  0.673682  0.594078  1
  Dy  Dy1  1  0.996008  0.826648  0.905853  1
  Dy  Dy2  1  0.505101  0.326665  0.094143  1
  Dy  Dy3  1  0.004410  0.172781  0.407345  1
  Dy  Dy4  1  0.503855  0.326244  0.407135  1
  Dy  Dy5  1  0.004553  0.173746  0.094097  1
  Dy  Dy6  1  0.495136  0.674451  0.904449  1
  Sc  Sc7  1  0.992527  0.823401  0.594993  1
  Ta  Ta8  1  0.659739  0.168946  0.625547  1
  Ta  Ta9  1  0.158438  0.330610  0.872557  1
  Ta  Ta10  1  0.340501  0.830707  0.126105  1
  Ta  Ta11  1  0.841491  0.671313  0.374991  1
  Ta  Ta12  1  0.340583  0.830404  0.374023  1
  Ta  Ta13  1  0.840920  0.669395  0.126573  1
  Ta  Ta14  1  0.661741  0.168162  0.873136  1
  Ta  Ta15  1  0.161051  0.330226  0.625691  1
  Ta  Ta16  1  0.836490  0.485546  0.749454  1
  Ta  Ta17  1  0.335840  0.013689  0.749015  1
  Ta  Ta18  1  0.164355  0.515012  0.250438  1
  Ta  Ta19  1  0.664479  0.985742  0.250733  1
  Ge  Ge20  1  0.678080  0.960361  0.460167  1
  Ge  Ge21  1  0.176739  0.538691  0.041297  1
  Ge  Ge22  1  0.324302  0.039961  0.957779  1
  Ge  Ge23  1  0.826400  0.465258  0.542934  1
  Ge  Ge24  1  0.315467  0.033276  0.542903  1
  Ge  Ge25  1  0.822966  0.461257  0.958055  1
  Ge  Ge26  1  0.676329  0.960776  0.041694  1
  Ge  Ge27  1  0.175194  0.541425  0.459846  1
  Ge  Ge28  1  0.460143  0.379231  0.749965  1
  Ge  Ge29  1  0.960849  0.118057  0.747773  1
  Ge  Ge30  1  0.540460  0.620757  0.250425  1
  Ge  Ge31  1  0.040193  0.879990  0.250295  1
  Ge  Ge32  1  0.698245  0.858434  0.748230  1
  Ge  Ge33  1  0.191721  0.644462  0.746928  1
  Ge  Ge34  1  0.305005  0.141514  0.250400  1
  Ge  Ge35  1  0.805239  0.359180  0.250951  1
