# generated using pymatgen
data_Y2Sc3(SnSb)2
_symmetry_space_group_name_H-M   'P 1'
_cell_length_a   7.85038300
_cell_length_b   7.83138500
_cell_length_c   14.76023400
_cell_angle_alpha   90.00000000
_cell_angle_beta   90.00000000
_cell_angle_gamma   90.00000000
_symmetry_Int_Tables_number   1
_chemical_formula_structural   Y2Sc3(SnSb)2
_chemical_formula_sum   'Y8 Sc12 Sn8 Sb8'
_cell_volume   907.44991203
_cell_formula_units_Z   4
loop_
 _symmetry_equiv_pos_site_id
 _symmetry_equiv_pos_as_xyz
  1  'x, y, z'
loop_
 _atom_site_type_symbol
 _atom_site_label
 _atom_site_symmetry_multiplicity
 _atom_site_fract_x
 _atom_site_fract_y
 _atom_site_fract_z
 _atom_site_occupancy
  Y  Y0  1  0.523587  0.320865  0.903495  1
  Y  Y1  1  0.023587  0.179135  0.596505  1
  Y  Y2  1  0.476413  0.679135  0.403495  1
  Y  Y3  1  0.976413  0.820865  0.096505  1
  Y  Y4  1  0.476413  0.679135  0.096505  1
  Y  Y5  1  0.976413  0.820865  0.403495  1
  Y  Y6  1  0.523587  0.320865  0.596505  1
  Y  Y7  1  0.023587  0.179135  0.903495  1
  Sc  Sc8  1  0.361569  0.841655  0.874007  1
  Sc  Sc9  1  0.861569  0.658345  0.625993  1
  Sc  Sc10  1  0.638431  0.158345  0.374007  1
  Sc  Sc11  1  0.138431  0.341655  0.125993  1
  Sc  Sc12  1  0.638431  0.158345  0.125993  1
  Sc  Sc13  1  0.138431  0.341655  0.374007  1
  Sc  Sc14  1  0.361569  0.841655  0.625993  1
  Sc  Sc15  1  0.861569  0.658345  0.874007  1
  Sc  Sc16  1  0.188387  0.502411  0.750000  1
  Sc  Sc17  1  0.688387  0.997589  0.750000  1
  Sc  Sc18  1  0.811613  0.497589  0.250000  1
  Sc  Sc19  1  0.311613  0.002411  0.250000  1
  Sn  Sn20  1  0.554312  0.625988  0.750000  1
  Sn  Sn21  1  0.054312  0.874012  0.750000  1
  Sn  Sn22  1  0.445688  0.374012  0.250000  1
  Sn  Sn23  1  0.945688  0.125988  0.250000  1
  Sn  Sn24  1  0.329472  0.148558  0.750000  1
  Sn  Sn25  1  0.829472  0.351442  0.750000  1
  Sn  Sn26  1  0.670528  0.851442  0.250000  1
  Sn  Sn27  1  0.170528  0.648558  0.250000  1
  Sb  Sb28  1  0.295475  0.043287  0.043595  1
  Sb  Sb29  1  0.795475  0.456713  0.456405  1
  Sb  Sb30  1  0.704525  0.956713  0.543595  1
  Sb  Sb31  1  0.204525  0.543287  0.956405  1
  Sb  Sb32  1  0.704525  0.956713  0.956405  1
  Sb  Sb33  1  0.204525  0.543287  0.543595  1
  Sb  Sb34  1  0.295475  0.043287  0.456405  1
  Sb  Sb35  1  0.795475  0.456713  0.043595  1
