# generated using pymatgen
data_Ho5Pt9
_symmetry_space_group_name_H-M   'P 1'
_cell_length_a   9.76316200
_cell_length_b   9.76316200
_cell_length_c   5.77012000
_cell_angle_alpha   90.00000000
_cell_angle_beta   90.00000000
_cell_angle_gamma   90.00000000
_symmetry_Int_Tables_number   1
_chemical_formula_structural   Ho5Pt9
_chemical_formula_sum   'Ho10 Pt18'
_cell_volume   550.00398533
_cell_formula_units_Z   2
loop_
 _symmetry_equiv_pos_site_id
 _symmetry_equiv_pos_as_xyz
  1  'x, y, z'
loop_
 _atom_site_type_symbol
 _atom_site_label
 _atom_site_symmetry_multiplicity
 _atom_site_fract_x
 _atom_site_fract_y
 _atom_site_fract_z
 _atom_site_occupancy
  Ho  Ho0  1  0.452127  0.809667  0.000000  1
  Ho  Ho1  1  0.547873  0.190333  0.000000  1
  Ho  Ho2  1  0.190333  0.547873  0.000000  1
  Ho  Ho3  1  0.809667  0.452127  0.000000  1
  Ho  Ho4  1  0.500000  0.500000  0.500000  1
  Ho  Ho5  1  0.309667  0.047873  0.500000  1
  Ho  Ho6  1  0.690333  0.952127  0.500000  1
  Ho  Ho7  1  0.952127  0.690333  0.500000  1
  Ho  Ho8  1  0.047873  0.309667  0.500000  1
  Ho  Ho9  1  0.000000  0.000000  0.000000  1
  Pt  Pt10  1  0.191246  0.808754  0.250543  1
  Pt  Pt11  1  0.808754  0.191246  0.749457  1
  Pt  Pt12  1  0.808754  0.191246  0.250543  1
  Pt  Pt13  1  0.191246  0.808754  0.749457  1
  Pt  Pt14  1  0.440004  0.781436  0.500000  1
  Pt  Pt15  1  0.559996  0.218564  0.500000  1
  Pt  Pt16  1  0.218564  0.559996  0.500000  1
  Pt  Pt17  1  0.781436  0.440004  0.500000  1
  Pt  Pt18  1  0.308754  0.308754  0.249457  1
  Pt  Pt19  1  0.691246  0.691246  0.750543  1
  Pt  Pt20  1  0.691246  0.691246  0.249457  1
  Pt  Pt21  1  0.308754  0.308754  0.750543  1
  Pt  Pt22  1  0.281436  0.059996  0.000000  1
  Pt  Pt23  1  0.718564  0.940004  0.000000  1
  Pt  Pt24  1  0.940004  0.718564  0.000000  1
  Pt  Pt25  1  0.059996  0.281436  0.000000  1
  Pt  Pt26  1  0.000000  0.000000  0.500000  1
  Pt  Pt27  1  0.500000  0.500000  0.000000  1
