# generated using pymatgen
data_Pr3Th(CdSi2)2
_symmetry_space_group_name_H-M   'P 1'
_cell_length_a   7.44610490
_cell_length_b   7.44610490
_cell_length_c   4.33263100
_cell_angle_alpha   90.00000000
_cell_angle_beta   90.00000000
_cell_angle_gamma   89.66455539
_symmetry_Int_Tables_number   1
_chemical_formula_structural   Pr3Th(CdSi2)2
_chemical_formula_sum   'Pr3 Th1 Cd2 Si4'
_cell_volume   240.21634821
_cell_formula_units_Z   1
loop_
 _symmetry_equiv_pos_site_id
 _symmetry_equiv_pos_as_xyz
  1  'x, y, z'
loop_
 _atom_site_type_symbol
 _atom_site_label
 _atom_site_symmetry_multiplicity
 _atom_site_fract_x
 _atom_site_fract_y
 _atom_site_fract_z
 _atom_site_occupancy
  Pr  Pr0  1  0.819060  0.319049  0.500000  1
  Pr  Pr1  1  0.180950  0.680939  0.500000  1
  Pr  Pr2  1  0.681600  0.818399  0.500000  1
  Th  Th3  1  0.320827  0.179172  0.500000  1
  Cd  Cd4  1  0.998628  0.998704  0.000000  1
  Cd  Cd5  1  0.501296  0.501372  0.000000  1
  Si  Si6  1  0.610532  0.115498  0.000000  1
  Si  Si7  1  0.115740  0.384260  0.000000  1
  Si  Si8  1  0.886860  0.613139  0.000000  1
  Si  Si9  1  0.384502  0.889467  0.000000  1
