# generated using pymatgen
data_Tb8ZrSi16W11
_symmetry_space_group_name_H-M   'P 1'
_cell_length_a   6.92026837
_cell_length_b   6.92026862
_cell_length_c   12.88463191
_cell_angle_alpha   90.01554409
_cell_angle_beta   90.01554301
_cell_angle_gamma   89.86755415
_symmetry_Int_Tables_number   1
_chemical_formula_structural   Tb8ZrSi16W11
_chemical_formula_sum   'Tb8 Zr1 Si16 W11'
_cell_volume   617.04482323
_cell_formula_units_Z   1
loop_
 _symmetry_equiv_pos_site_id
 _symmetry_equiv_pos_as_xyz
  1  'x, y, z'
loop_
 _atom_site_type_symbol
 _atom_site_label
 _atom_site_symmetry_multiplicity
 _atom_site_fract_x
 _atom_site_fract_y
 _atom_site_fract_z
 _atom_site_occupancy
  Tb  Tb0  1  0.001880  0.336379  0.219234  1
  Tb  Tb1  1  0.000989  0.665721  0.718983  1
  Tb  Tb2  1  0.163689  0.503135  0.467700  1
  Tb  Tb3  1  0.496865  0.836311  0.032300  1
  Tb  Tb4  1  0.838457  0.500764  0.970485  1
  Tb  Tb5  1  0.499236  0.161543  0.529515  1
  Tb  Tb6  1  0.334279  0.999011  0.781017  1
  Tb  Tb7  1  0.663621  0.998120  0.280766  1
  Zr  Zr8  1  0.668117  0.331883  0.750000  1
  Si  Si9  1  0.375910  0.299360  0.315722  1
  Si  Si10  1  0.626509  0.708545  0.817138  1
  Si  Si11  1  0.199534  0.875598  0.565596  1
  Si  Si12  1  0.124402  0.800466  0.934404  1
  Si  Si13  1  0.798408  0.124428  0.065713  1
  Si  Si14  1  0.875572  0.201592  0.434287  1
  Si  Si15  1  0.291455  0.373491  0.682862  1
  Si  Si16  1  0.700640  0.624090  0.184278  1
  Si  Si17  1  0.286869  0.034083  0.187451  1
  Si  Si18  1  0.709983  0.955804  0.682791  1
  Si  Si19  1  0.465049  0.787695  0.436372  1
  Si  Si20  1  0.212305  0.534951  0.063628  1
  Si  Si21  1  0.530811  0.209373  0.940788  1
  Si  Si22  1  0.790627  0.469189  0.559212  1
  Si  Si23  1  0.044196  0.290017  0.817209  1
  Si  Si24  1  0.965917  0.713131  0.312549  1
  W  W25  1  0.166011  0.164343  0.003265  1
  W  W26  1  0.835657  0.833989  0.496735  1
  W  W27  1  0.332615  0.667385  0.250000  1
  W  W28  1  0.166177  0.001286  0.376905  1
  W  W29  1  0.834405  0.002437  0.875570  1
  W  W30  1  0.499459  0.661431  0.625605  1
  W  W31  1  0.338569  0.500541  0.874395  1
  W  W32  1  0.498557  0.333043  0.127368  1
  W  W33  1  0.666957  0.501443  0.372632  1
  W  W34  1  0.997563  0.165595  0.624430  1
  W  W35  1  0.998714  0.833823  0.123095  1
