# generated using pymatgen
data_Ba8HoIn3(CoO5)4
_symmetry_space_group_name_H-M   'P 1'
_cell_length_a   6.05126759
_cell_length_b   7.96709607
_cell_length_c   12.35584327
_cell_angle_alpha   91.49972275
_cell_angle_beta   89.95023962
_cell_angle_gamma   90.01130783
_symmetry_Int_Tables_number   1
_chemical_formula_structural   Ba8HoIn3(CoO5)4
_chemical_formula_sum   'Ba8 Ho1 In3 Co4 O20'
_cell_volume   595.48364766
_cell_formula_units_Z   1
loop_
 _symmetry_equiv_pos_site_id
 _symmetry_equiv_pos_as_xyz
  1  'x, y, z'
loop_
 _atom_site_type_symbol
 _atom_site_label
 _atom_site_symmetry_multiplicity
 _atom_site_fract_x
 _atom_site_fract_y
 _atom_site_fract_z
 _atom_site_occupancy
  Ba  Ba0  1  0.758950  0.495257  0.359514  1
  Ba  Ba1  1  0.740949  0.994238  0.864069  1
  Ba  Ba2  1  0.242228  0.506898  0.638394  1
  Ba  Ba3  1  0.258575  0.004497  0.138924  1
  Ba  Ba4  1  0.756089  0.990917  0.380728  1
  Ba  Ba5  1  0.744132  0.493467  0.885508  1
  Ba  Ba6  1  0.244870  0.006511  0.616167  1
  Ba  Ba7  1  0.255757  0.508064  0.117315  1
  Ho  Ho8  1  0.747784  0.262076  0.630084  1
  In  In9  1  0.752424  0.762477  0.129494  1
  In  In10  1  0.252364  0.737642  0.370148  1
  In  In11  1  0.246309  0.237281  0.871515  1
  Co  Co12  1  0.741844  0.746339  0.590201  1
  Co  Co13  1  0.758257  0.245672  0.090446  1
  Co  Co14  1  0.258518  0.254259  0.406988  1
  Co  Co15  1  0.242122  0.754105  0.910034  1
  O  O16  1  0.754359  0.969420  0.633166  1
  O  O17  1  0.744451  0.467833  0.134040  1
  O  O18  1  0.244188  0.030140  0.364840  1
  O  O19  1  0.255219  0.533750  0.865411  1
  O  O20  1  0.739519  0.054845  0.168392  1
  O  O21  1  0.759382  0.554808  0.667903  1
  O  O22  1  0.260162  0.942770  0.830838  1
  O  O23  1  0.239360  0.446970  0.329817  1
  O  O24  1  0.533708  0.747384  0.266220  1
  O  O25  1  0.967998  0.247134  0.769139  1
  O  O26  1  0.463693  0.252065  0.736870  1
  O  O27  1  0.032029  0.752509  0.233943  1
  O  O28  1  0.522159  0.230555  0.985347  1
  O  O29  1  0.978827  0.730431  0.485578  1
  O  O30  1  0.479203  0.769611  0.015370  1
  O  O31  1  0.028123  0.269615  0.512880  1
  O  O32  1  0.034300  0.233824  0.014901  1
  O  O33  1  0.466866  0.734031  0.513192  1
  O  O34  1  0.966385  0.766253  0.987751  1
  O  O35  1  0.528897  0.266354  0.484872  1
