# generated using pymatgen
data_Dy4Ho4Re(B8Os)3
_symmetry_space_group_name_H-M   'P 1'
_cell_length_a   3.65957500
_cell_length_b   9.14605719
_cell_length_c   11.53112300
_cell_angle_alpha   90.08460551
_cell_angle_beta   90.00000000
_cell_angle_gamma   90.00000000
_symmetry_Int_Tables_number   1
_chemical_formula_structural   Dy4Ho4Re(B8Os)3
_chemical_formula_sum   'Dy4 Ho4 Re1 B24 Os3'
_cell_volume   385.95413310
_cell_formula_units_Z   1
loop_
 _symmetry_equiv_pos_site_id
 _symmetry_equiv_pos_as_xyz
  1  'x, y, z'
loop_
 _atom_site_type_symbol
 _atom_site_label
 _atom_site_symmetry_multiplicity
 _atom_site_fract_x
 _atom_site_fract_y
 _atom_site_fract_z
 _atom_site_occupancy
  Dy  Dy0  1  0.000000  0.322492  0.414858  1
  Dy  Dy1  1  0.000000  0.679950  0.588077  1
  Dy  Dy2  1  0.000000  0.822640  0.083741  1
  Dy  Dy3  1  0.000000  0.176418  0.913185  1
  Ho  Ho4  1  0.000000  0.943277  0.371970  1
  Ho  Ho5  1  0.000000  0.055922  0.627634  1
  Ho  Ho6  1  0.000000  0.442939  0.127712  1
  Ho  Ho7  1  0.000000  0.556533  0.872866  1
  Re  Re8  1  0.000000  0.862449  0.821440  1
  B  B9  1  0.500000  0.553852  0.433076  1
  B  B10  1  0.500000  0.446279  0.567218  1
  B  B11  1  0.500000  0.053664  0.067438  1
  B  B12  1  0.500000  0.947081  0.933003  1
  B  B13  1  0.500000  0.748336  0.419329  1
  B  B14  1  0.500000  0.251767  0.580523  1
  B  B15  1  0.500000  0.248091  0.080808  1
  B  B16  1  0.500000  0.751573  0.919207  1
  B  B17  1  0.500000  0.790388  0.266223  1
  B  B18  1  0.500000  0.209169  0.733043  1
  B  B19  1  0.500000  0.290838  0.233808  1
  B  B20  1  0.500000  0.708566  0.766201  1
  B  B21  1  0.500000  0.631013  0.185517  1
  B  B22  1  0.500000  0.368532  0.814107  1
  B  B23  1  0.500000  0.131628  0.314643  1
  B  B24  1  0.500000  0.868708  0.685661  1
  B  B25  1  0.500000  0.983376  0.212777  1
  B  B26  1  0.500000  0.017669  0.787124  1
  B  B27  1  0.500000  0.483095  0.287665  1
  B  B28  1  0.500000  0.516881  0.712854  1
  B  B29  1  0.500000  0.605626  0.029947  1
  B  B30  1  0.500000  0.392853  0.970700  1
  B  B31  1  0.500000  0.106996  0.470010  1
  B  B32  1  0.500000  0.893570  0.528943  1
  Os  Os33  1  0.000000  0.637358  0.321463  1
  Os  Os34  1  0.000000  0.362633  0.678045  1
  Os  Os35  1  0.000000  0.137839  0.179184  1
