# generated using pymatgen
data_LiErHf(Co3P2)3
_symmetry_space_group_name_H-M   'P 1'
_cell_length_a   3.63290900
_cell_length_b   10.17593500
_cell_length_c   11.73897200
_cell_angle_alpha   90.00000000
_cell_angle_beta   90.00000000
_cell_angle_gamma   90.00000000
_symmetry_Int_Tables_number   1
_chemical_formula_structural   LiErHf(Co3P2)3
_chemical_formula_sum   'Li2 Er2 Hf2 Co18 P12'
_cell_volume   433.96920286
_cell_formula_units_Z   2
loop_
 _symmetry_equiv_pos_site_id
 _symmetry_equiv_pos_as_xyz
  1  'x, y, z'
loop_
 _atom_site_type_symbol
 _atom_site_label
 _atom_site_symmetry_multiplicity
 _atom_site_fract_x
 _atom_site_fract_y
 _atom_site_fract_z
 _atom_site_occupancy
  Li  Li0  1  0.250000  0.704176  0.991450  1
  Li  Li1  1  0.250000  0.795824  0.491450  1
  Er  Er2  1  0.750000  0.420471  0.296745  1
  Er  Er3  1  0.750000  0.079529  0.796745  1
  Hf  Hf4  1  0.250000  0.580126  0.702891  1
  Hf  Hf5  1  0.250000  0.919874  0.202891  1
  Co  Co6  1  0.750000  0.286354  0.008370  1
  Co  Co7  1  0.750000  0.213646  0.508370  1
  Co  Co8  1  0.250000  0.407565  0.489709  1
  Co  Co9  1  0.250000  0.092435  0.989709  1
  Co  Co10  1  0.750000  0.592518  0.520553  1
  Co  Co11  1  0.750000  0.907482  0.020553  1
  Co  Co12  1  0.250000  0.224079  0.176564  1
  Co  Co13  1  0.250000  0.275921  0.676564  1
  Co  Co14  1  0.750000  0.778939  0.825123  1
  Co  Co15  1  0.750000  0.721061  0.325123  1
  Co  Co16  1  0.250000  0.878975  0.698137  1
  Co  Co17  1  0.250000  0.621025  0.198137  1
  Co  Co18  1  0.750000  0.116467  0.297707  1
  Co  Co19  1  0.750000  0.383533  0.797707  1
  Co  Co20  1  0.250000  0.466099  0.928183  1
  Co  Co21  1  0.250000  0.033901  0.428183  1
  Co  Co22  1  0.750000  0.535547  0.064480  1
  Co  Co23  1  0.750000  0.964453  0.564480  1
  P  P24  1  0.250000  0.422649  0.110912  1
  P  P25  1  0.250000  0.077351  0.610912  1
  P  P26  1  0.750000  0.579047  0.880045  1
  P  P27  1  0.750000  0.920953  0.380045  1
  P  P28  1  0.250000  0.266672  0.869219  1
  P  P29  1  0.250000  0.233328  0.369219  1
  P  P30  1  0.750000  0.734050  0.138052  1
  P  P31  1  0.750000  0.765950  0.638052  1
  P  P32  1  0.250000  0.601198  0.392386  1
  P  P33  1  0.250000  0.898802  0.892386  1
  P  P34  1  0.750000  0.398989  0.609474  1
  P  P35  1  0.750000  0.101011  0.109474  1
