# generated using pymatgen
data_Tm8Tc(B8Os)3
_symmetry_space_group_name_H-M   'P 1'
_cell_length_a   3.62535900
_cell_length_b   9.08000888
_cell_length_c   11.45864711
_cell_angle_alpha   89.94953347
_cell_angle_beta   90.00000000
_cell_angle_gamma   90.00000000
_symmetry_Int_Tables_number   1
_chemical_formula_structural   Tm8Tc(B8Os)3
_chemical_formula_sum   'Tm8 Tc1 B24 Os3'
_cell_volume   377.19894424
_cell_formula_units_Z   1
loop_
 _symmetry_equiv_pos_site_id
 _symmetry_equiv_pos_as_xyz
  1  'x, y, z'
loop_
 _atom_site_type_symbol
 _atom_site_label
 _atom_site_symmetry_multiplicity
 _atom_site_fract_x
 _atom_site_fract_y
 _atom_site_fract_z
 _atom_site_occupancy
  Tm  Tm0  1  0.000000  0.323757  0.412917  1
  Tm  Tm1  1  0.000000  0.677456  0.583481  1
  Tm  Tm2  1  0.000000  0.819878  0.088339  1
  Tm  Tm3  1  0.000000  0.178072  0.914796  1
  Tm  Tm4  1  0.000000  0.942862  0.372810  1
  Tm  Tm5  1  0.000000  0.056576  0.627204  1
  Tm  Tm6  1  0.000000  0.444884  0.127983  1
  Tm  Tm7  1  0.000000  0.556389  0.872515  1
  Tc  Tc8  1  0.000000  0.637668  0.321266  1
  B  B9  1  0.500000  0.552716  0.433535  1
  B  B10  1  0.500000  0.446722  0.566804  1
  B  B11  1  0.500000  0.053388  0.066571  1
  B  B12  1  0.500000  0.946632  0.933597  1
  B  B13  1  0.500000  0.748599  0.419984  1
  B  B14  1  0.500000  0.251509  0.579881  1
  B  B15  1  0.500000  0.248891  0.079851  1
  B  B16  1  0.500000  0.751237  0.920124  1
  B  B17  1  0.500000  0.792157  0.266051  1
  B  B18  1  0.500000  0.208143  0.733889  1
  B  B19  1  0.500000  0.291761  0.233427  1
  B  B20  1  0.500000  0.708527  0.766048  1
  B  B21  1  0.500000  0.631529  0.185276  1
  B  B22  1  0.500000  0.368321  0.815172  1
  B  B23  1  0.500000  0.131460  0.314562  1
  B  B24  1  0.500000  0.868746  0.684996  1
  B  B25  1  0.500000  0.982134  0.212871  1
  B  B26  1  0.500000  0.017837  0.787389  1
  B  B27  1  0.500000  0.481703  0.287147  1
  B  B28  1  0.500000  0.517575  0.712955  1
  B  B29  1  0.500000  0.606589  0.029157  1
  B  B30  1  0.500000  0.393263  0.970254  1
  B  B31  1  0.500000  0.106970  0.470426  1
  B  B32  1  0.500000  0.893975  0.529902  1
  Os  Os33  1  0.000000  0.361986  0.679334  1
  Os  Os34  1  0.000000  0.137455  0.178109  1
  Os  Os35  1  0.000000  0.862632  0.821377  1
