# generated using pymatgen
data_Li8Dy7Er(Sn3Bi)2
_symmetry_space_group_name_H-M   'P 1'
_cell_length_a   9.42894004
_cell_length_b   9.42666356
_cell_length_c   7.26413801
_cell_angle_alpha   90.00384202
_cell_angle_beta   90.10562635
_cell_angle_gamma   119.99629084
_symmetry_Int_Tables_number   1
_chemical_formula_structural   Li8Dy7Er(Sn3Bi)2
_chemical_formula_sum   'Li8 Dy7 Er1 Sn6 Bi2'
_cell_volume   559.17894395
_cell_formula_units_Z   1
loop_
 _symmetry_equiv_pos_site_id
 _symmetry_equiv_pos_as_xyz
  1  'x, y, z'
loop_
 _atom_site_type_symbol
 _atom_site_label
 _atom_site_symmetry_multiplicity
 _atom_site_fract_x
 _atom_site_fract_y
 _atom_site_fract_z
 _atom_site_occupancy
  Li  Li0  1  0.167889  0.334139  0.283331  1
  Li  Li1  1  0.168161  0.833875  0.283451  1
  Li  Li2  1  0.664665  0.832552  0.286834  1
  Li  Li3  1  0.828981  0.664350  0.787355  1
  Li  Li4  1  0.828880  0.164545  0.787299  1
  Li  Li5  1  0.337936  0.168856  0.791484  1
  Li  Li6  1  0.338064  0.669253  0.668502  1
  Li  Li7  1  0.665446  0.332631  0.173114  1
  Dy  Dy8  1  0.516914  0.490105  0.491012  1
  Dy  Dy9  1  0.971773  0.485855  0.488917  1
  Dy  Dy10  1  0.493053  0.978350  0.997148  1
  Dy  Dy11  1  0.493028  0.514745  0.997083  1
  Dy  Dy12  1  0.017655  0.508821  0.999662  1
  Dy  Dy13  1  0.994818  0.997404  0.494783  1
  Dy  Dy14  1  0.995378  0.997682  0.004986  1
  Er  Er15  1  0.517279  0.027027  0.490774  1
  Sn  Sn16  1  0.666783  0.833712  0.731694  1
  Sn  Sn17  1  0.833859  0.666763  0.232420  1
  Sn  Sn18  1  0.833449  0.166826  0.232973  1
  Sn  Sn19  1  0.333359  0.166342  0.232289  1
  Sn  Sn20  1  0.332586  0.666600  0.260242  1
  Sn  Sn21  1  0.667294  0.333259  0.760065  1
  Bi  Bi22  1  0.166168  0.333414  0.733520  1
  Bi  Bi23  1  0.166577  0.832895  0.733056  1
