# generated using pymatgen
data_Tb4YbHo2FeI12
_symmetry_space_group_name_H-M   'P 1'
_cell_length_a   9.77403968
_cell_length_b   9.75439379
_cell_length_c   9.80971482
_cell_angle_alpha   106.65275452
_cell_angle_beta   107.12748804
_cell_angle_gamma   106.81190635
_symmetry_Int_Tables_number   1
_chemical_formula_structural   Tb4YbHo2FeI12
_chemical_formula_sum   'Tb4 Yb1 Ho2 Fe1 I12'
_cell_volume   781.75041824
_cell_formula_units_Z   1
loop_
 _symmetry_equiv_pos_site_id
 _symmetry_equiv_pos_as_xyz
  1  'x, y, z'
loop_
 _atom_site_type_symbol
 _atom_site_label
 _atom_site_symmetry_multiplicity
 _atom_site_fract_x
 _atom_site_fract_y
 _atom_site_fract_z
 _atom_site_occupancy
  Tb  Tb0  1  0.286751  0.023916  0.093465  1
  Tb  Tb1  1  0.907073  0.713268  0.975937  1
  Tb  Tb2  1  0.975394  0.904124  0.697838  1
  Tb  Tb3  1  0.713526  0.976031  0.907804  1
  Yb  Yb4  1  0.499350  0.500295  0.499914  1
  Ho  Ho5  1  0.092174  0.282891  0.022882  1
  Ho  Ho6  1  0.024702  0.095475  0.298235  1
  Fe  Fe7  1  0.999788  0.998591  0.999598  1
  I  I8  1  0.453187  0.378558  0.150665  1
  I  I9  1  0.148304  0.453199  0.373072  1
  I  I10  1  0.376993  0.149971  0.455220  1
  I  I11  1  0.544173  0.621658  0.848571  1
  I  I12  1  0.849157  0.543745  0.622934  1
  I  I13  1  0.620363  0.851001  0.545796  1
  I  I14  1  0.779156  0.317296  0.927314  1
  I  I15  1  0.925970  0.774610  0.318611  1
  I  I16  1  0.318630  0.927508  0.778163  1
  I  I17  1  0.224263  0.683112  0.074610  1
  I  I18  1  0.075773  0.230063  0.684025  1
  I  I19  1  0.685274  0.074689  0.225345  1
