# generated using pymatgen
data_Tm10SiAgPb6
_symmetry_space_group_name_H-M   'P 1'
_cell_length_a   9.13028100
_cell_length_b   9.13028100
_cell_length_c   6.69337900
_cell_angle_alpha   90.00000000
_cell_angle_beta   90.00000000
_cell_angle_gamma   120.00000363
_symmetry_Int_Tables_number   1
_chemical_formula_structural   Tm10SiAgPb6
_chemical_formula_sum   'Tm10 Si1 Ag1 Pb6'
_cell_volume   483.21935397
_cell_formula_units_Z   1
loop_
 _symmetry_equiv_pos_site_id
 _symmetry_equiv_pos_as_xyz
  1  'x, y, z'
loop_
 _atom_site_type_symbol
 _atom_site_label
 _atom_site_symmetry_multiplicity
 _atom_site_fract_x
 _atom_site_fract_y
 _atom_site_fract_z
 _atom_site_occupancy
  Tm  Tm0  1  0.666667  0.333333  0.500000  1
  Tm  Tm1  1  0.333333  0.666667  0.500000  1
  Tm  Tm2  1  0.333333  0.666667  0.000000  1
  Tm  Tm3  1  0.666667  0.333333  0.000000  1
  Tm  Tm4  1  0.745439  0.745439  0.228577  1
  Tm  Tm5  1  0.254561  0.000000  0.228577  1
  Tm  Tm6  1  0.000000  0.254561  0.228577  1
  Tm  Tm7  1  0.254561  0.254561  0.771423  1
  Tm  Tm8  1  0.745439  0.000000  0.771423  1
  Tm  Tm9  1  0.000000  0.745439  0.771423  1
  Si  Si10  1  0.000000  0.000000  0.000000  1
  Ag  Ag11  1  0.000000  0.000000  0.500000  1
  Pb  Pb12  1  0.392569  0.392569  0.252858  1
  Pb  Pb13  1  0.607431  0.000000  0.252858  1
  Pb  Pb14  1  0.000000  0.607431  0.252858  1
  Pb  Pb15  1  0.607431  0.607431  0.747142  1
  Pb  Pb16  1  0.392569  0.000000  0.747142  1
  Pb  Pb17  1  0.000000  0.392569  0.747142  1
