# generated using pymatgen
data_DyY3Co12(Ni2P3)4
_symmetry_space_group_name_H-M   'P 1'
_cell_length_a   3.68617000
_cell_length_b   10.27687300
_cell_length_c   11.84637700
_cell_angle_alpha   90.00153987
_cell_angle_beta   90.00000000
_cell_angle_gamma   90.00000000
_symmetry_Int_Tables_number   1
_chemical_formula_structural   DyY3Co12(Ni2P3)4
_chemical_formula_sum   'Dy1 Y3 Co12 Ni8 P12'
_cell_volume   448.76801856
_cell_formula_units_Z   1
loop_
 _symmetry_equiv_pos_site_id
 _symmetry_equiv_pos_as_xyz
  1  'x, y, z'
loop_
 _atom_site_type_symbol
 _atom_site_label
 _atom_site_symmetry_multiplicity
 _atom_site_fract_x
 _atom_site_fract_y
 _atom_site_fract_z
 _atom_site_occupancy
  Dy  Dy0  1  0.250000  0.917972  0.203238  1
  Y  Y1  1  0.750000  0.082073  0.796638  1
  Y  Y2  1  0.750000  0.417974  0.296603  1
  Y  Y3  1  0.250000  0.582079  0.703377  1
  Co  Co4  1  0.250000  0.278397  0.676124  1
  Co  Co5  1  0.750000  0.721696  0.323848  1
  Co  Co6  1  0.750000  0.778461  0.823972  1
  Co  Co7  1  0.250000  0.221536  0.176082  1
  Co  Co8  1  0.250000  0.618985  0.197556  1
  Co  Co9  1  0.750000  0.381180  0.802407  1
  Co  Co10  1  0.750000  0.118621  0.302317  1
  Co  Co11  1  0.250000  0.881165  0.697592  1
  Co  Co12  1  0.250000  0.032441  0.432582  1
  Co  Co13  1  0.750000  0.967436  0.567137  1
  Co  Co14  1  0.750000  0.532617  0.067259  1
  Co  Co15  1  0.250000  0.467511  0.932760  1
  Ni  Ni16  1  0.250000  0.786886  0.489671  1
  Ni  Ni17  1  0.750000  0.213177  0.510196  1
  Ni  Ni18  1  0.750000  0.286766  0.010316  1
  Ni  Ni19  1  0.250000  0.713271  0.989890  1
  Ni  Ni20  1  0.250000  0.091713  0.985718  1
  Ni  Ni21  1  0.750000  0.908047  0.014800  1
  Ni  Ni22  1  0.750000  0.591908  0.514355  1
  Ni  Ni23  1  0.250000  0.408081  0.485633  1
  P  P24  1  0.250000  0.080222  0.612430  1
  P  P25  1  0.750000  0.919811  0.387208  1
  P  P26  1  0.750000  0.580271  0.887514  1
  P  P27  1  0.250000  0.419805  0.112492  1
  P  P28  1  0.250000  0.227365  0.365656  1
  P  P29  1  0.750000  0.772672  0.634396  1
  P  P30  1  0.750000  0.727551  0.134471  1
  P  P31  1  0.250000  0.272592  0.865665  1
  P  P32  1  0.250000  0.894418  0.887750  1
  P  P33  1  0.750000  0.105339  0.112373  1
  P  P34  1  0.750000  0.394418  0.612274  1
  P  P35  1  0.250000  0.605543  0.387698  1
