# generated using pymatgen
data_Er3B6(IrRu)4
_symmetry_space_group_name_H-M   'P 1'
_cell_length_a   9.98760917
_cell_length_b   9.19208725
_cell_length_c   5.53482777
_cell_angle_alpha   81.30844007
_cell_angle_beta   65.47496258
_cell_angle_gamma   33.03447256
_symmetry_Int_Tables_number   1
_chemical_formula_structural   Er3B6(IrRu)4
_chemical_formula_sum   'Er3 B6 Ir4 Ru4'
_cell_volume   231.30949197
_cell_formula_units_Z   1
loop_
 _symmetry_equiv_pos_site_id
 _symmetry_equiv_pos_as_xyz
  1  'x, y, z'
loop_
 _atom_site_type_symbol
 _atom_site_label
 _atom_site_symmetry_multiplicity
 _atom_site_fract_x
 _atom_site_fract_y
 _atom_site_fract_z
 _atom_site_occupancy
  Er  Er0  1  0.000013  0.000013  0.999987  1
  Er  Er1  1  0.821316  0.821316  0.178684  1
  Er  Er2  1  0.179211  0.179211  0.820789  1
  B  B3  1  0.671088  0.329153  0.678346  1
  B  B4  1  0.329153  0.671088  0.321413  1
  B  B5  1  0.170787  0.482103  0.518007  1
  B  B6  1  0.482103  0.170787  0.829103  1
  B  B7  1  0.824845  0.521417  0.487320  1
  B  B8  1  0.521417  0.824845  0.166418  1
  Ir  Ir9  1  0.914085  0.914085  0.585915  1
  Ir  Ir10  1  0.414371  0.414371  0.585629  1
  Ir  Ir11  1  0.585255  0.585255  0.414745  1
  Ir  Ir12  1  0.249625  0.249625  0.250375  1
  Ru  Ru13  1  0.750439  0.750439  0.749561  1
  Ru  Ru14  1  0.086544  0.086544  0.413456  1
  Ru  Ru15  1  0.586599  0.586599  0.913401  1
  Ru  Ru16  1  0.413146  0.413146  0.086854  1
