# generated using pymatgen
data_Nb6Al3ZnN2
_symmetry_space_group_name_H-M   'P 1'
_cell_length_a   7.06441137
_cell_length_b   7.06092037
_cell_length_c   7.06299200
_cell_angle_alpha   90.00000000
_cell_angle_beta   90.00000000
_cell_angle_gamma   90.03713897
_symmetry_Int_Tables_number   1
_chemical_formula_structural   Nb6Al3ZnN2
_chemical_formula_sum   'Nb12 Al6 Zn2 N4'
_cell_volume   352.31076855
_cell_formula_units_Z   2
loop_
 _symmetry_equiv_pos_site_id
 _symmetry_equiv_pos_as_xyz
  1  'x, y, z'
loop_
 _atom_site_type_symbol
 _atom_site_label
 _atom_site_symmetry_multiplicity
 _atom_site_fract_x
 _atom_site_fract_y
 _atom_site_fract_z
 _atom_site_occupancy
  Nb  Nb0  1  0.791386  0.956301  0.375798  1
  Nb  Nb1  1  0.708614  0.043699  0.875798  1
  Nb  Nb2  1  0.204053  0.456116  0.126685  1
  Nb  Nb3  1  0.295947  0.543884  0.626685  1
  Nb  Nb4  1  0.954982  0.376953  0.793242  1
  Nb  Nb5  1  0.042344  0.871858  0.706353  1
  Nb  Nb6  1  0.457656  0.128142  0.206353  1
  Nb  Nb7  1  0.545018  0.623047  0.293242  1
  Nb  Nb8  1  0.376552  0.792631  0.955081  1
  Nb  Nb9  1  0.872952  0.705743  0.042720  1
  Nb  Nb10  1  0.123448  0.207369  0.455081  1
  Nb  Nb11  1  0.627048  0.294257  0.542720  1
  Al  Al12  1  0.822059  0.321252  0.177633  1
  Al  Al13  1  0.677941  0.678748  0.677633  1
  Al  Al14  1  0.567914  0.424935  0.927258  1
  Al  Al15  1  0.423626  0.930611  0.571757  1
  Al  Al16  1  0.932086  0.575065  0.427258  1
  Al  Al17  1  0.076374  0.069389  0.071757  1
  Zn  Zn18  1  0.180305  0.820476  0.319821  1
  Zn  Zn19  1  0.319695  0.179524  0.819821  1
  N  N20  1  0.877071  0.124649  0.626270  1
  N  N21  1  0.622929  0.875351  0.126270  1
  N  N22  1  0.125788  0.624144  0.877382  1
  N  N23  1  0.374212  0.375856  0.377382  1
