# generated using pymatgen
data_TbEr2Sn3RuPt2
_symmetry_space_group_name_H-M   'P 1'
_cell_length_a   7.70236396
_cell_length_b   7.70236456
_cell_length_c   3.77070500
_cell_angle_alpha   90.00000000
_cell_angle_beta   90.00000000
_cell_angle_gamma   120.31961168
_symmetry_Int_Tables_number   1
_chemical_formula_structural   TbEr2Sn3RuPt2
_chemical_formula_sum   'Tb1 Er2 Sn3 Ru1 Pt2'
_cell_volume   193.10502234
_cell_formula_units_Z   1
loop_
 _symmetry_equiv_pos_site_id
 _symmetry_equiv_pos_as_xyz
  1  'x, y, z'
loop_
 _atom_site_type_symbol
 _atom_site_label
 _atom_site_symmetry_multiplicity
 _atom_site_fract_x
 _atom_site_fract_y
 _atom_site_fract_z
 _atom_site_occupancy
  Tb  Tb0  1  0.402409  0.402409  0.500000  1
  Er  Er1  1  0.598611  0.999672  0.500000  1
  Er  Er2  1  0.999672  0.598611  0.500000  1
  Sn  Sn3  1  0.740511  0.740511  0.000000  1
  Sn  Sn4  1  0.259485  0.998300  0.000000  1
  Sn  Sn5  1  0.998300  0.259485  0.000000  1
  Ru  Ru6  1  0.999099  0.999099  0.500000  1
  Pt  Pt7  1  0.669145  0.332768  0.000000  1
  Pt  Pt8  1  0.332768  0.669145  0.000000  1
