# generated using pymatgen
data_La4Cd2PtAu3
_symmetry_space_group_name_H-M   'P 1'
_cell_length_a   8.20730335
_cell_length_b   8.20730335
_cell_length_c   3.95755000
_cell_angle_alpha   90.00000000
_cell_angle_beta   90.00000000
_cell_angle_gamma   90.31671770
_symmetry_Int_Tables_number   1
_chemical_formula_structural   La4Cd2PtAu3
_chemical_formula_sum   'La4 Cd2 Pt1 Au3'
_cell_volume   266.57581545
_cell_formula_units_Z   1
loop_
 _symmetry_equiv_pos_site_id
 _symmetry_equiv_pos_as_xyz
  1  'x, y, z'
loop_
 _atom_site_type_symbol
 _atom_site_label
 _atom_site_symmetry_multiplicity
 _atom_site_fract_x
 _atom_site_fract_y
 _atom_site_fract_z
 _atom_site_occupancy
  La  La0  1  0.672443  0.172443  0.500000  1
  La  La1  1  0.316630  0.816630  0.500000  1
  La  La2  1  0.176021  0.337728  0.500000  1
  La  La3  1  0.837728  0.676021  0.500000  1
  Cd  Cd4  1  0.000566  0.999576  0.000000  1
  Cd  Cd5  1  0.499576  0.500566  0.000000  1
  Pt  Pt6  1  0.125426  0.625426  0.000000  1
  Au  Au7  1  0.873535  0.373535  0.000000  1
  Au  Au8  1  0.625604  0.872472  0.000000  1
  Au  Au9  1  0.372472  0.125604  0.000000  1
