# generated using pymatgen
data_TbYMn2I
_symmetry_space_group_name_H-M   'P 1'
_cell_length_a   3.87639600
_cell_length_b   3.87639514
_cell_length_c   17.69432900
_cell_angle_alpha   90.00000000
_cell_angle_beta   90.00000000
_cell_angle_gamma   119.99999024
_symmetry_Int_Tables_number   1
_chemical_formula_structural   TbYMn2I
_chemical_formula_sum   'Tb2 Y2 Mn4 I2'
_cell_volume   230.26129886
_cell_formula_units_Z   2
loop_
 _symmetry_equiv_pos_site_id
 _symmetry_equiv_pos_as_xyz
  1  'x, y, z'
loop_
 _atom_site_type_symbol
 _atom_site_label
 _atom_site_symmetry_multiplicity
 _atom_site_fract_x
 _atom_site_fract_y
 _atom_site_fract_z
 _atom_site_occupancy
  Tb  Tb0  1  0.000000  0.000000  0.609966  1
  Tb  Tb1  1  0.000000  0.000000  0.390034  1
  Y  Y2  1  0.000000  0.000000  0.110248  1
  Y  Y3  1  0.000000  0.000000  0.889752  1
  Mn  Mn4  1  0.333333  0.666667  0.509215  1
  Mn  Mn5  1  0.666667  0.333333  0.490785  1
  Mn  Mn6  1  0.666667  0.333333  0.008803  1
  Mn  Mn7  1  0.333333  0.666667  0.991197  1
  I  I8  1  0.333333  0.666667  0.248406  1
  I  I9  1  0.666667  0.333333  0.751594  1
