# generated using pymatgen
data_Tm10Cd2InRu
_symmetry_space_group_name_H-M   'P 1'
_cell_length_a   9.50599867
_cell_length_b   9.49623547
_cell_length_c   9.69261100
_cell_angle_alpha   90.00000000
_cell_angle_beta   90.00000000
_cell_angle_gamma   119.96603183
_symmetry_Int_Tables_number   1
_chemical_formula_structural   Tm10Cd2InRu
_chemical_formula_sum   'Tm20 Cd4 In2 Ru2'
_cell_volume   757.99997273
_cell_formula_units_Z   2
loop_
 _symmetry_equiv_pos_site_id
 _symmetry_equiv_pos_as_xyz
  1  'x, y, z'
loop_
 _atom_site_type_symbol
 _atom_site_label
 _atom_site_symmetry_multiplicity
 _atom_site_fract_x
 _atom_site_fract_y
 _atom_site_fract_z
 _atom_site_occupancy
  Tm  Tm0  1  0.003404  0.001702  0.503682  1
  Tm  Tm1  1  0.003404  0.001702  0.996318  1
  Tm  Tm2  1  0.209578  0.790000  0.439492  1
  Tm  Tm3  1  0.209578  0.419579  0.439492  1
  Tm  Tm4  1  0.581048  0.790524  0.438887  1
  Tm  Tm5  1  0.789558  0.209645  0.559139  1
  Tm  Tm6  1  0.789558  0.579912  0.559139  1
  Tm  Tm7  1  0.420592  0.210295  0.560467  1
  Tm  Tm8  1  0.789558  0.209645  0.940861  1
  Tm  Tm9  1  0.789558  0.579912  0.940861  1
  Tm  Tm10  1  0.420592  0.210295  0.939533  1
  Tm  Tm11  1  0.209578  0.790000  0.060508  1
  Tm  Tm12  1  0.209578  0.419579  0.060508  1
  Tm  Tm13  1  0.581048  0.790524  0.061113  1
  Tm  Tm14  1  0.535359  0.457598  0.250000  1
  Tm  Tm15  1  0.535359  0.077759  0.250000  1
  Tm  Tm16  1  0.919484  0.459742  0.250000  1
  Tm  Tm17  1  0.459844  0.541148  0.750000  1
  Tm  Tm18  1  0.459844  0.918697  0.750000  1
  Tm  Tm19  1  0.080213  0.540107  0.750000  1
  Cd  Cd20  1  0.229271  0.114636  0.250000  1
  Cd  Cd21  1  0.114874  0.885494  0.750000  1
  Cd  Cd22  1  0.114874  0.229378  0.750000  1
  Cd  Cd23  1  0.771729  0.885864  0.750000  1
  In  In24  1  0.885437  0.114377  0.250000  1
  In  In25  1  0.885437  0.771061  0.250000  1
  Ru  Ru26  1  0.334030  0.667016  0.250000  1
  Ru  Ru27  1  0.667614  0.333807  0.750000  1
