# generated using pymatgen
data_Th6Cu3Ni3Sn8
_symmetry_space_group_name_H-M   'P 1'
_cell_length_a   8.42714569
_cell_length_b   8.42421347
_cell_length_c   8.42421345
_cell_angle_alpha   109.46083704
_cell_angle_beta   109.75729640
_cell_angle_gamma   109.18192901
_symmetry_Int_Tables_number   1
_chemical_formula_structural   Th6Cu3Ni3Sn8
_chemical_formula_sum   'Th6 Cu3 Ni3 Sn8'
_cell_volume   460.44948406
_cell_formula_units_Z   1
loop_
 _symmetry_equiv_pos_site_id
 _symmetry_equiv_pos_as_xyz
  1  'x, y, z'
loop_
 _atom_site_type_symbol
 _atom_site_label
 _atom_site_symmetry_multiplicity
 _atom_site_fract_x
 _atom_site_fract_y
 _atom_site_fract_z
 _atom_site_occupancy
  Th  Th0  1  0.870793  0.245816  0.121920  1
  Th  Th1  1  0.629207  0.751127  0.375024  1
  Th  Th2  1  0.250000  0.128835  0.878835  1
  Th  Th3  1  0.750000  0.371265  0.621265  1
  Th  Th4  1  0.119288  0.875125  0.248382  1
  Th  Th5  1  0.380712  0.629094  0.755838  1
  Cu  Cu6  1  0.374647  0.249944  0.625417  1
  Cu  Cu7  1  0.125353  0.750769  0.875297  1
  Cu  Cu8  1  0.250000  0.625109  0.375109  1
  Ni  Ni9  1  0.750000  0.874205  0.124205  1
  Ni  Ni10  1  0.624177  0.374105  0.249380  1
  Ni  Ni11  1  0.875823  0.125202  0.749928  1
  Sn  Sn12  1  0.662163  0.501527  0.002622  1
  Sn  Sn13  1  0.502318  0.000058  0.660074  1
  Sn  Sn14  1  0.997682  0.657756  0.497740  1
  Sn  Sn15  1  0.837837  0.840459  0.839364  1
  Sn  Sn16  1  0.502439  0.002230  0.161950  1
  Sn  Sn17  1  0.157589  0.497393  0.998056  1
  Sn  Sn18  1  0.997561  0.159512  0.499791  1
  Sn  Sn19  1  0.342411  0.340467  0.339803  1
