# generated using pymatgen
data_Si8MoPt6W
_symmetry_space_group_name_H-M   'P 1'
_cell_length_a   3.52999300
_cell_length_b   5.56923100
_cell_length_c   24.57883400
_cell_angle_alpha   90.00000000
_cell_angle_beta   90.00000000
_cell_angle_gamma   90.00000000
_symmetry_Int_Tables_number   1
_chemical_formula_structural   Si8MoPt6W
_chemical_formula_sum   'Si16 Mo2 Pt12 W2'
_cell_volume   483.20381283
_cell_formula_units_Z   2
loop_
 _symmetry_equiv_pos_site_id
 _symmetry_equiv_pos_as_xyz
  1  'x, y, z'
loop_
 _atom_site_type_symbol
 _atom_site_label
 _atom_site_symmetry_multiplicity
 _atom_site_fract_x
 _atom_site_fract_y
 _atom_site_fract_z
 _atom_site_occupancy
  Si  Si0  1  0.250000  0.179260  0.519573  1
  Si  Si1  1  0.750000  0.320740  0.019573  1
  Si  Si2  1  0.250000  0.679298  0.980377  1
  Si  Si3  1  0.750000  0.820702  0.480377  1
  Si  Si4  1  0.750000  0.319984  0.645484  1
  Si  Si5  1  0.250000  0.180016  0.145484  1
  Si  Si6  1  0.750000  0.819294  0.854368  1
  Si  Si7  1  0.250000  0.680706  0.354368  1
  Si  Si8  1  0.250000  0.660706  0.609411  1
  Si  Si9  1  0.750000  0.839294  0.109411  1
  Si  Si10  1  0.250000  0.161149  0.890443  1
  Si  Si11  1  0.750000  0.338851  0.390443  1
  Si  Si12  1  0.750000  0.831466  0.726120  1
  Si  Si13  1  0.250000  0.668534  0.226120  1
  Si  Si14  1  0.750000  0.329205  0.774233  1
  Si  Si15  1  0.250000  0.170795  0.274233  1
  Mo  Mo16  1  0.250000  0.003669  0.789634  1
  Mo  Mo17  1  0.750000  0.496331  0.289634  1
  Pt  Pt18  1  0.750000  0.001300  0.574687  1
  Pt  Pt19  1  0.250000  0.498700  0.074687  1
  Pt  Pt20  1  0.750000  0.501393  0.925341  1
  Pt  Pt21  1  0.250000  0.998607  0.425341  1
  Pt  Pt22  1  0.250000  0.004049  0.669929  1
  Pt  Pt23  1  0.750000  0.495951  0.169929  1
  Pt  Pt24  1  0.250000  0.503896  0.830106  1
  Pt  Pt25  1  0.750000  0.996104  0.330106  1
  Pt  Pt26  1  0.750000  0.502179  0.548406  1
  Pt  Pt27  1  0.250000  0.997821  0.048406  1
  Pt  Pt28  1  0.750000  0.002058  0.951603  1
  Pt  Pt29  1  0.250000  0.497942  0.451603  1
  W  W30  1  0.250000  0.504440  0.710285  1
  W  W31  1  0.750000  0.995560  0.210285  1
