# generated using pymatgen
data_Ho4AlCo
_symmetry_space_group_name_H-M   'P 1'
_cell_length_a   9.35477852
_cell_length_b   9.35477867
_cell_length_c   9.35478000
_cell_angle_alpha   60.00000236
_cell_angle_beta   60.00000185
_cell_angle_gamma   60.00000175
_symmetry_Int_Tables_number   1
_chemical_formula_structural   Ho4AlCo
_chemical_formula_sum   'Ho16 Al4 Co4'
_cell_volume   578.87611015
_cell_formula_units_Z   4
loop_
 _symmetry_equiv_pos_site_id
 _symmetry_equiv_pos_as_xyz
  1  'x, y, z'
loop_
 _atom_site_type_symbol
 _atom_site_label
 _atom_site_symmetry_multiplicity
 _atom_site_fract_x
 _atom_site_fract_y
 _atom_site_fract_z
 _atom_site_occupancy
  Ho  Ho0  1  0.349245  0.349245  0.349245  1
  Ho  Ho1  1  0.349245  0.349245  0.952267  1
  Ho  Ho2  1  0.349245  0.952267  0.349245  1
  Ho  Ho3  1  0.952267  0.349245  0.349245  1
  Ho  Ho4  1  0.807703  0.192297  0.192297  1
  Ho  Ho5  1  0.192297  0.807703  0.807703  1
  Ho  Ho6  1  0.192297  0.807703  0.192297  1
  Ho  Ho7  1  0.807703  0.192297  0.807703  1
  Ho  Ho8  1  0.192297  0.192297  0.807703  1
  Ho  Ho9  1  0.807703  0.807703  0.192297  1
  Ho  Ho10  1  0.938018  0.561982  0.561982  1
  Ho  Ho11  1  0.561982  0.938018  0.938018  1
  Ho  Ho12  1  0.561982  0.938018  0.561982  1
  Ho  Ho13  1  0.938018  0.561982  0.938018  1
  Ho  Ho14  1  0.561982  0.561982  0.938018  1
  Ho  Ho15  1  0.938018  0.938018  0.561982  1
  Al  Al16  1  0.577287  0.577287  0.577287  1
  Al  Al17  1  0.577287  0.577287  0.268138  1
  Al  Al18  1  0.577287  0.268138  0.577287  1
  Al  Al19  1  0.268138  0.577287  0.577287  1
  Co  Co20  1  0.140400  0.140400  0.140400  1
  Co  Co21  1  0.140400  0.140400  0.578799  1
  Co  Co22  1  0.140400  0.578799  0.140400  1
  Co  Co23  1  0.578799  0.140400  0.140400  1
