# generated using pymatgen
data_K16HfZrSb8
_symmetry_space_group_name_H-M   'P 1'
_cell_length_a   11.64578175
_cell_length_b   11.64584100
_cell_length_c   11.64478700
_cell_angle_alpha   60.00273744
_cell_angle_beta   60.00280712
_cell_angle_gamma   60.00547236
_symmetry_Int_Tables_number   1
_chemical_formula_structural   K16HfZrSb8
_chemical_formula_sum   'K16 Hf1 Zr1 Sb8'
_cell_volume   1116.84321730
_cell_formula_units_Z   1
loop_
 _symmetry_equiv_pos_site_id
 _symmetry_equiv_pos_as_xyz
  1  'x, y, z'
loop_
 _atom_site_type_symbol
 _atom_site_label
 _atom_site_symmetry_multiplicity
 _atom_site_fract_x
 _atom_site_fract_y
 _atom_site_fract_z
 _atom_site_occupancy
  K  K0  1  0.624390  0.126757  0.624427  1
  K  K1  1  0.624419  0.624417  0.126735  1
  K  K2  1  0.126757  0.624393  0.624428  1
  K  K3  1  0.624416  0.624417  0.624430  1
  K  K4  1  0.024649  0.024650  0.475345  1
  K  K5  1  0.777397  0.222589  0.222548  1
  K  K6  1  0.222590  0.777397  0.777462  1
  K  K7  1  0.777428  0.777436  0.222566  1
  K  K8  1  0.777401  0.222588  0.777465  1
  K  K9  1  0.222589  0.777401  0.222551  1
  K  K10  1  0.475336  0.024714  0.475229  1
  K  K11  1  0.475332  0.024718  0.024721  1
  K  K12  1  0.024713  0.475328  0.475236  1
  K  K13  1  0.024718  0.475331  0.024723  1
  K  K14  1  0.222556  0.222554  0.777443  1
  K  K15  1  0.475279  0.475278  0.024720  1
  Hf  Hf16  1  0.499997  0.499996  0.500004  1
  Zr  Zr17  1  0.750015  0.750010  0.749990  1
  Sb  Sb18  1  0.399176  0.802376  0.399224  1
  Sb  Sb19  1  0.851463  0.851465  0.445652  1
  Sb  Sb20  1  0.445796  0.851434  0.851387  1
  Sb  Sb21  1  0.851464  0.851466  0.851420  1
  Sb  Sb22  1  0.802376  0.399176  0.399223  1
  Sb  Sb23  1  0.399155  0.399156  0.399220  1
  Sb  Sb24  1  0.399154  0.399160  0.802464  1
  Sb  Sb25  1  0.851434  0.445794  0.851387  1
