# generated using pymatgen
data_Y2Ho6Cd2OsPt
_symmetry_space_group_name_H-M   'P 1'
_cell_length_a   9.64573018
_cell_length_b   9.63875563
_cell_length_c   9.71649965
_cell_angle_alpha   59.77673066
_cell_angle_beta   59.70433521
_cell_angle_gamma   59.57616608
_symmetry_Int_Tables_number   1
_chemical_formula_structural   Y2Ho6Cd2OsPt
_chemical_formula_sum   'Y4 Ho12 Cd4 Os2 Pt2'
_cell_volume   634.21521073
_cell_formula_units_Z   2
loop_
 _symmetry_equiv_pos_site_id
 _symmetry_equiv_pos_as_xyz
  1  'x, y, z'
loop_
 _atom_site_type_symbol
 _atom_site_label
 _atom_site_symmetry_multiplicity
 _atom_site_fract_x
 _atom_site_fract_y
 _atom_site_fract_z
 _atom_site_occupancy
  Y  Y0  1  0.557201  0.938038  0.566568  1
  Y  Y1  1  0.938026  0.557227  0.938183  1
  Y  Y2  1  0.563255  0.563252  0.936742  1
  Y  Y3  1  0.939797  0.939797  0.560213  1
  Ho  Ho4  1  0.349266  0.349619  0.352415  1
  Ho  Ho5  1  0.349601  0.349245  0.948733  1
  Ho  Ho6  1  0.346516  0.954938  0.349192  1
  Ho  Ho7  1  0.954938  0.346515  0.349342  1
  Ho  Ho8  1  0.814476  0.187958  0.190613  1
  Ho  Ho9  1  0.187948  0.814466  0.806955  1
  Ho  Ho10  1  0.188035  0.814380  0.190647  1
  Ho  Ho11  1  0.814370  0.188023  0.806940  1
  Ho  Ho12  1  0.188191  0.188192  0.811803  1
  Ho  Ho13  1  0.808755  0.808757  0.191229  1
  Ho  Ho14  1  0.938883  0.555966  0.565924  1
  Ho  Ho15  1  0.555976  0.938869  0.939229  1
  Cd  Cd16  1  0.580211  0.580099  0.580535  1
  Cd  Cd17  1  0.580098  0.580209  0.259151  1
  Cd  Cd18  1  0.580837  0.256120  0.581590  1
  Cd  Cd19  1  0.256124  0.580833  0.581458  1
  Os  Os20  1  0.144823  0.143764  0.137139  1
  Os  Os21  1  0.143765  0.144827  0.574304  1
  Pt  Pt22  1  0.144654  0.574254  0.140649  1
  Pt  Pt23  1  0.574257  0.144653  0.140449  1
