# generated using pymatgen
data_YbY4Si12Ir19
_symmetry_space_group_name_H-M   'P 1'
_cell_length_a   12.84068458
_cell_length_b   12.83399551
_cell_length_c   3.99966800
_cell_angle_alpha   90.00000000
_cell_angle_beta   90.00000000
_cell_angle_gamma   119.98276883
_symmetry_Int_Tables_number   1
_chemical_formula_structural   YbY4Si12Ir19
_chemical_formula_sum   'Yb1 Y4 Si12 Ir19'
_cell_volume   570.92625818
_cell_formula_units_Z   1
loop_
 _symmetry_equiv_pos_site_id
 _symmetry_equiv_pos_as_xyz
  1  'x, y, z'
loop_
 _atom_site_type_symbol
 _atom_site_label
 _atom_site_symmetry_multiplicity
 _atom_site_fract_x
 _atom_site_fract_y
 _atom_site_fract_z
 _atom_site_occupancy
  Yb  Yb0  1  0.000000  0.815307  0.500000  1
  Y  Y1  1  0.333689  0.666766  0.000000  1
  Y  Y2  1  0.666311  0.333076  0.000000  1
  Y  Y3  1  0.183953  0.183543  0.500000  1
  Y  Y4  1  0.816047  0.999590  0.500000  1
  Si  Si5  1  0.818405  0.817489  0.000000  1
  Si  Si6  1  0.181595  0.999084  0.000000  1
  Si  Si7  1  0.000000  0.181935  0.000000  1
  Si  Si8  1  0.311265  0.831369  0.500000  1
  Si  Si9  1  0.168529  0.480665  0.500000  1
  Si  Si10  1  0.519486  0.687788  0.500000  1
  Si  Si11  1  0.831471  0.312136  0.500000  1
  Si  Si12  1  0.480514  0.168303  0.500000  1
  Si  Si13  1  0.688735  0.520104  0.500000  1
  Si  Si14  1  0.367717  0.367599  0.000000  1
  Si  Si15  1  0.632283  0.999882  0.000000  1
  Si  Si16  1  0.000000  0.632716  0.000000  1
  Ir  Ir17  1  0.195039  0.816768  0.000000  1
  Ir  Ir18  1  0.182363  0.376576  0.000000  1
  Ir  Ir19  1  0.623141  0.805892  0.000000  1
  Ir  Ir20  1  0.817637  0.194214  0.000000  1
  Ir  Ir21  1  0.376859  0.182752  0.000000  1
  Ir  Ir22  1  0.804961  0.621730  0.000000  1
  Ir  Ir23  1  0.716540  0.717295  0.500000  1
  Ir  Ir24  1  0.283460  0.000755  0.500000  1
  Ir  Ir25  1  0.000000  0.283458  0.500000  1
  Ir  Ir26  1  0.126184  0.638286  0.500000  1
  Ir  Ir27  1  0.361008  0.487803  0.500000  1
  Ir  Ir28  1  0.511399  0.873292  0.500000  1
  Ir  Ir29  1  0.638992  0.126795  0.500000  1
  Ir  Ir30  1  0.488601  0.361894  0.500000  1
  Ir  Ir31  1  0.873816  0.512103  0.500000  1
  Ir  Ir32  1  0.551166  0.552860  0.000000  1
  Ir  Ir33  1  0.448834  0.001694  0.000000  1
  Ir  Ir34  1  0.000000  0.447599  0.000000  1
  Ir  Ir35  1  0.000000  0.000880  0.000000  1
