# generated using pymatgen
data_Sr6GdTm(BO3)6
_symmetry_space_group_name_H-M   'P 1'
_cell_length_a   7.91939583
_cell_length_b   7.91939689
_cell_length_c   7.91939608
_cell_angle_alpha   105.02422232
_cell_angle_beta   105.02422424
_cell_angle_gamma   105.02423250
_symmetry_Int_Tables_number   1
_chemical_formula_structural   Sr6GdTm(BO3)6
_chemical_formula_sum   'Sr6 Gd1 Tm1 B6 O18'
_cell_volume   434.00915772
_cell_formula_units_Z   1
loop_
 _symmetry_equiv_pos_site_id
 _symmetry_equiv_pos_as_xyz
  1  'x, y, z'
loop_
 _atom_site_type_symbol
 _atom_site_label
 _atom_site_symmetry_multiplicity
 _atom_site_fract_x
 _atom_site_fract_y
 _atom_site_fract_z
 _atom_site_occupancy
  Sr  Sr0  1  0.360470  0.734935  0.859279  1
  Sr  Sr1  1  0.859279  0.360470  0.734935  1
  Sr  Sr2  1  0.734935  0.859279  0.360470  1
  Sr  Sr3  1  0.639530  0.265065  0.140721  1
  Sr  Sr4  1  0.140721  0.639530  0.265065  1
  Sr  Sr5  1  0.265065  0.140721  0.639530  1
  Gd  Gd6  1  0.000000  0.000000  0.000000  1
  Tm  Tm7  1  0.500000  0.500000  0.500000  1
  B  B8  1  0.706125  0.610483  0.958268  1
  B  B9  1  0.958268  0.706125  0.610483  1
  B  B10  1  0.610483  0.958268  0.706125  1
  B  B11  1  0.041732  0.293875  0.389517  1
  B  B12  1  0.389517  0.041732  0.293875  1
  B  B13  1  0.293875  0.389517  0.041732  1
  O  O14  1  0.045092  0.810801  0.522723  1
  O  O15  1  0.522723  0.045092  0.810801  1
  O  O16  1  0.443365  0.493057  0.209634  1
  O  O17  1  0.493057  0.209634  0.443365  1
  O  O18  1  0.209634  0.443365  0.493057  1
  O  O19  1  0.790366  0.556635  0.506943  1
  O  O20  1  0.556635  0.506943  0.790366  1
  O  O21  1  0.506943  0.790366  0.556635  1
  O  O22  1  0.256652  0.198070  0.967871  1
  O  O23  1  0.198070  0.967871  0.256652  1
  O  O24  1  0.967871  0.256652  0.198070  1
  O  O25  1  0.743348  0.801930  0.032129  1
  O  O26  1  0.801930  0.032129  0.743348  1
  O  O27  1  0.032129  0.743348  0.801930  1
  O  O28  1  0.189199  0.477277  0.954908  1
  O  O29  1  0.477277  0.954908  0.189199  1
  O  O30  1  0.954908  0.189199  0.477277  1
  O  O31  1  0.810801  0.522723  0.045092  1
