# generated using pymatgen
data_ZrU(VBr9)2
_symmetry_space_group_name_H-M   'P 1'
_cell_length_a   8.22892597
_cell_length_b   10.26255052
_cell_length_c   10.81912200
_cell_angle_alpha   101.72784239
_cell_angle_beta   96.95557036
_cell_angle_gamma   96.10556546
_symmetry_Int_Tables_number   1
_chemical_formula_structural   ZrU(VBr9)2
_chemical_formula_sum   'Zr1 U1 V2 Br18'
_cell_volume   879.91449596
_cell_formula_units_Z   1
loop_
 _symmetry_equiv_pos_site_id
 _symmetry_equiv_pos_as_xyz
  1  'x, y, z'
loop_
 _atom_site_type_symbol
 _atom_site_label
 _atom_site_symmetry_multiplicity
 _atom_site_fract_x
 _atom_site_fract_y
 _atom_site_fract_z
 _atom_site_occupancy
  Zr  Zr0  1  0.879279  0.357035  0.311961  1
  U  U1  1  0.107388  0.627609  0.666963  1
  V  V2  1  0.546922  0.189680  0.780057  1
  V  V3  1  0.454219  0.811479  0.221350  1
  Br  Br4  1  0.656972  0.894921  0.123257  1
  Br  Br5  1  0.344045  0.106914  0.878599  1
  Br  Br6  1  0.206623  0.480811  0.450737  1
  Br  Br7  1  0.790973  0.519329  0.548377  1
  Br  Br8  1  0.088111  0.835103  0.556393  1
  Br  Br9  1  0.918022  0.178975  0.447172  1
  Br  Br10  1  0.991319  0.761614  0.868014  1
  Br  Br11  1  0.009677  0.235720  0.128545  1
  Br  Br12  1  0.120639  0.418726  0.776367  1
  Br  Br13  1  0.886620  0.579205  0.233354  1
  Br  Br14  1  0.423455  0.714278  0.760258  1
  Br  Br15  1  0.572046  0.286493  0.241433  1
  Br  Br16  1  0.441380  0.191854  0.577625  1
  Br  Br17  1  0.561918  0.810132  0.423798  1
  Br  Br18  1  0.749684  0.055918  0.773784  1
  Br  Br19  1  0.250538  0.944329  0.226676  1
  Br  Br20  1  0.656307  0.398619  0.889706  1
  Br  Br21  1  0.343865  0.601256  0.115573  1
