# generated using pymatgen
data_Tm3MnCrC6
_symmetry_space_group_name_H-M   'P 1'
_cell_length_a   8.05013900
_cell_length_b   8.05013886
_cell_length_c   4.91928700
_cell_angle_alpha   90.00000000
_cell_angle_beta   90.00000000
_cell_angle_gamma   119.99999648
_symmetry_Int_Tables_number   1
_chemical_formula_structural   Tm3MnCrC6
_chemical_formula_sum   'Tm6 Mn2 Cr2 C12'
_cell_volume   276.08293213
_cell_formula_units_Z   2
loop_
 _symmetry_equiv_pos_site_id
 _symmetry_equiv_pos_as_xyz
  1  'x, y, z'
loop_
 _atom_site_type_symbol
 _atom_site_label
 _atom_site_symmetry_multiplicity
 _atom_site_fract_x
 _atom_site_fract_y
 _atom_site_fract_z
 _atom_site_occupancy
  Tm  Tm0  1  0.625078  0.684155  0.750000  1
  Tm  Tm1  1  0.940922  0.625078  0.250000  1
  Tm  Tm2  1  0.684155  0.059078  0.250000  1
  Tm  Tm3  1  0.315845  0.940922  0.750000  1
  Tm  Tm4  1  0.059078  0.374922  0.750000  1
  Tm  Tm5  1  0.374922  0.315845  0.250000  1
  Mn  Mn6  1  0.666667  0.333333  0.750000  1
  Mn  Mn7  1  0.333333  0.666667  0.250000  1
  Cr  Cr8  1  0.000000  0.000000  0.500000  1
  Cr  Cr9  1  0.000000  0.000000  0.000000  1
  C  C10  1  0.966235  0.771890  0.750000  1
  C  C11  1  0.194346  0.966235  0.250000  1
  C  C12  1  0.771890  0.805654  0.250000  1
  C  C13  1  0.228110  0.194346  0.750000  1
  C  C14  1  0.805654  0.033765  0.750000  1
  C  C15  1  0.033765  0.228110  0.250000  1
  C  C16  1  0.867158  0.575691  0.750000  1
  C  C17  1  0.291467  0.867158  0.250000  1
  C  C18  1  0.575691  0.708533  0.250000  1
  C  C19  1  0.424309  0.291467  0.750000  1
  C  C20  1  0.132842  0.424309  0.250000  1
  C  C21  1  0.708533  0.132842  0.750000  1
