# generated using pymatgen
data_LuSc4As2Ru
_symmetry_space_group_name_H-M   'P 1'
_cell_length_a   5.87142600
_cell_length_b   7.90866633
_cell_length_c   8.08182751
_cell_angle_alpha   119.80298855
_cell_angle_beta   90.00000000
_cell_angle_gamma   90.00000000
_symmetry_Int_Tables_number   1
_chemical_formula_structural   LuSc4As2Ru
_chemical_formula_sum   'Lu2 Sc8 As4 Ru2'
_cell_volume   325.64604176
_cell_formula_units_Z   2
loop_
 _symmetry_equiv_pos_site_id
 _symmetry_equiv_pos_as_xyz
  1  'x, y, z'
loop_
 _atom_site_type_symbol
 _atom_site_label
 _atom_site_symmetry_multiplicity
 _atom_site_fract_x
 _atom_site_fract_y
 _atom_site_fract_z
 _atom_site_occupancy
  Lu  Lu0  1  0.750000  0.746458  0.768536  1
  Lu  Lu1  1  0.250000  0.253542  0.231464  1
  Sc  Sc2  1  0.999281  0.663923  0.324133  1
  Sc  Sc3  1  0.000719  0.336077  0.675867  1
  Sc  Sc4  1  0.499281  0.336077  0.675867  1
  Sc  Sc5  1  0.500719  0.663923  0.324133  1
  Sc  Sc6  1  0.750000  0.976055  0.235721  1
  Sc  Sc7  1  0.250000  0.023945  0.764279  1
  Sc  Sc8  1  0.750000  0.252369  0.998752  1
  Sc  Sc9  1  0.250000  0.747631  0.001248  1
  As  As10  1  0.750000  0.376821  0.386220  1
  As  As11  1  0.250000  0.623179  0.613780  1
  As  As12  1  0.750000  0.993642  0.609179  1
  As  As13  1  0.250000  0.006358  0.390821  1
  Ru  Ru14  1  0.750000  0.588623  0.003725  1
  Ru  Ru15  1  0.250000  0.411377  0.996275  1
