# generated using pymatgen
data_Nd2Y4Al24Os5Pt3
_symmetry_space_group_name_H-M   'P 1'
_cell_length_a   8.87265463
_cell_length_b   8.87529096
_cell_length_c   9.56727205
_cell_angle_alpha   89.93411877
_cell_angle_beta   89.75507348
_cell_angle_gamma   119.72225167
_symmetry_Int_Tables_number   1
_chemical_formula_structural   Nd2Y4Al24Os5Pt3
_chemical_formula_sum   'Nd2 Y4 Al24 Os5 Pt3'
_cell_volume   654.26936849
_cell_formula_units_Z   1
loop_
 _symmetry_equiv_pos_site_id
 _symmetry_equiv_pos_as_xyz
  1  'x, y, z'
loop_
 _atom_site_type_symbol
 _atom_site_label
 _atom_site_symmetry_multiplicity
 _atom_site_fract_x
 _atom_site_fract_y
 _atom_site_fract_z
 _atom_site_occupancy
  Nd  Nd0  1  0.186760  0.378422  0.250644  1
  Nd  Nd1  1  0.813240  0.621578  0.749356  1
  Y  Y2  1  0.615228  0.814552  0.252024  1
  Y  Y3  1  0.384772  0.185448  0.747976  1
  Y  Y4  1  0.194305  0.810171  0.250684  1
  Y  Y5  1  0.805695  0.189829  0.749316  1
  Al  Al6  1  0.336230  0.671819  0.027274  1
  Al  Al7  1  0.663770  0.328181  0.972726  1
  Al  Al8  1  0.669054  0.330617  0.524938  1
  Al  Al9  1  0.330946  0.669383  0.475062  1
  Al  Al10  1  0.158288  0.324864  0.576226  1
  Al  Al11  1  0.841712  0.675136  0.423774  1
  Al  Al12  1  0.673774  0.841782  0.574397  1
  Al  Al13  1  0.837211  0.676690  0.078743  1
  Al  Al14  1  0.326226  0.158218  0.425603  1
  Al  Al15  1  0.162789  0.323310  0.921257  1
  Al  Al16  1  0.165617  0.836476  0.573538  1
  Al  Al17  1  0.326081  0.158033  0.074194  1
  Al  Al18  1  0.834383  0.163524  0.426462  1
  Al  Al19  1  0.673919  0.841967  0.925806  1
  Al  Al20  1  0.831127  0.158493  0.075073  1
  Al  Al21  1  0.168873  0.841507  0.924927  1
  Al  Al22  1  0.560278  0.123216  0.249310  1
  Al  Al23  1  0.439722  0.876784  0.750690  1
  Al  Al24  1  0.873368  0.438837  0.253180  1
  Al  Al25  1  0.126632  0.561163  0.746820  1
  Al  Al26  1  0.564594  0.437961  0.249341  1
  Al  Al27  1  0.435406  0.562039  0.750659  1
  Al  Al28  1  0.996624  0.998140  0.250436  1
  Al  Al29  1  0.003376  0.001860  0.749564  1
  Os  Os30  1  0.500000  0.000000  0.000000  1
  Os  Os31  1  0.500000  0.000000  0.500000  1
  Os  Os32  1  0.000000  0.500000  0.500000  1
  Os  Os33  1  0.000000  0.000000  0.000000  1
  Os  Os34  1  0.000000  0.000000  0.500000  1
  Pt  Pt35  1  0.000000  0.500000  0.000000  1
  Pt  Pt36  1  0.500000  0.500000  0.000000  1
  Pt  Pt37  1  0.500000  0.500000  0.500000  1
