# generated using pymatgen
data_Pr4Tm6Si7Au
_symmetry_space_group_name_H-M   'P 1'
_cell_length_a   7.53662169
_cell_length_b   7.74428083
_cell_length_c   14.77158100
_cell_angle_alpha   90.00000000
_cell_angle_beta   90.00000000
_cell_angle_gamma   90.40087998
_symmetry_Int_Tables_number   1
_chemical_formula_structural   Pr4Tm6Si7Au
_chemical_formula_sum   'Pr8 Tm12 Si14 Au2'
_cell_volume   862.13278234
_cell_formula_units_Z   2
loop_
 _symmetry_equiv_pos_site_id
 _symmetry_equiv_pos_as_xyz
  1  'x, y, z'
loop_
 _atom_site_type_symbol
 _atom_site_label
 _atom_site_symmetry_multiplicity
 _atom_site_fract_x
 _atom_site_fract_y
 _atom_site_fract_z
 _atom_site_occupancy
  Pr  Pr0  1  0.018133  0.175203  0.400962  1
  Pr  Pr1  1  0.521083  0.323465  0.400304  1
  Pr  Pr2  1  0.478917  0.676535  0.900304  1
  Pr  Pr3  1  0.482195  0.677129  0.599416  1
  Pr  Pr4  1  0.978845  0.827136  0.598697  1
  Pr  Pr5  1  0.981867  0.824797  0.900962  1
  Pr  Pr6  1  0.517805  0.322871  0.099416  1
  Pr  Pr7  1  0.021155  0.172864  0.098697  1
  Tm  Tm8  1  0.328001  0.176995  0.623536  1
  Tm  Tm9  1  0.675824  0.822627  0.376374  1
  Tm  Tm10  1  0.656609  0.993282  0.750351  1
  Tm  Tm11  1  0.175001  0.674598  0.376826  1
  Tm  Tm12  1  0.824999  0.325402  0.876826  1
  Tm  Tm13  1  0.822117  0.324783  0.622350  1
  Tm  Tm14  1  0.842506  0.494074  0.250245  1
  Tm  Tm15  1  0.343391  0.006718  0.250351  1
  Tm  Tm16  1  0.324176  0.177373  0.876374  1
  Tm  Tm17  1  0.177883  0.675217  0.122350  1
  Tm  Tm18  1  0.671999  0.823005  0.123536  1
  Tm  Tm19  1  0.157494  0.505926  0.750245  1
  Si  Si20  1  0.275816  0.880433  0.749603  1
  Si  Si21  1  0.468033  0.615313  0.250782  1
  Si  Si22  1  0.027905  0.116206  0.751000  1
  Si  Si23  1  0.531967  0.384687  0.750782  1
  Si  Si24  1  0.972095  0.883794  0.251000  1
  Si  Si25  1  0.724184  0.119567  0.249603  1
  Si  Si26  1  0.353304  0.966793  0.038673  1
  Si  Si27  1  0.154735  0.465816  0.957728  1
  Si  Si28  1  0.646696  0.033207  0.538673  1
  Si  Si29  1  0.352047  0.966814  0.460103  1
  Si  Si30  1  0.845265  0.534184  0.457728  1
  Si  Si31  1  0.776481  0.620719  0.750566  1
  Si  Si32  1  0.223519  0.379281  0.250566  1
  Si  Si33  1  0.647953  0.033186  0.960103  1
  Au  Au34  1  0.152003  0.465634  0.542485  1
  Au  Au35  1  0.847997  0.534366  0.042485  1
