# generated using pymatgen
data_CeDy9(Sn3Ge)2
_symmetry_space_group_name_H-M   'P 1'
_cell_length_a   6.53270300
_cell_length_b   9.25586907
_cell_length_c   9.22595205
_cell_angle_alpha   119.89271294
_cell_angle_beta   89.99998759
_cell_angle_gamma   89.99990344
_symmetry_Int_Tables_number   1
_chemical_formula_structural   CeDy9(Sn3Ge)2
_chemical_formula_sum   'Ce1 Dy9 Sn6 Ge2'
_cell_volume   483.63802711
_cell_formula_units_Z   1
loop_
 _symmetry_equiv_pos_site_id
 _symmetry_equiv_pos_as_xyz
  1  'x, y, z'
loop_
 _atom_site_type_symbol
 _atom_site_label
 _atom_site_symmetry_multiplicity
 _atom_site_fract_x
 _atom_site_fract_y
 _atom_site_fract_z
 _atom_site_occupancy
  Ce  Ce0  1  0.249999  0.000010  0.746627  1
  Dy  Dy1  1  0.749984  0.255912  0.000990  1
  Dy  Dy2  1  0.749999  0.744085  0.745086  1
  Dy  Dy3  1  0.749999  0.999991  0.255357  1
  Dy  Dy4  1  0.249984  0.745738  0.999760  1
  Dy  Dy5  1  0.249997  0.254266  0.254017  1
  Dy  Dy6  1  0.500538  0.333961  0.666588  1
  Dy  Dy7  1  0.500538  0.666043  0.332641  1
  Dy  Dy8  1  0.999479  0.666041  0.332643  1
  Dy  Dy9  1  0.999478  0.333959  0.666583  1
  Sn  Sn10  1  0.750015  0.609106  0.000720  1
  Sn  Sn11  1  0.750002  0.390879  0.391584  1
  Sn  Sn12  1  0.750002  0.000000  0.610793  1
  Sn  Sn13  1  0.250000  0.394167  0.001478  1
  Sn  Sn14  1  0.250003  0.605838  0.607315  1
  Sn  Sn15  1  0.250001  0.000003  0.388285  1
  Ge  Ge16  1  0.503005  0.999997  0.999766  1
  Ge  Ge17  1  0.996980  0.000005  0.999768  1
