# generated using pymatgen
data_Y6IO12
_symmetry_space_group_name_H-M   'P 1'
_cell_length_a   6.55813465
_cell_length_b   6.55813519
_cell_length_c   6.55813488
_cell_angle_alpha   98.72523012
_cell_angle_beta   98.72523324
_cell_angle_gamma   98.72525480
_symmetry_Int_Tables_number   1
_chemical_formula_structural   Y6IO12
_chemical_formula_sum   'Y6 I1 O12'
_cell_volume   271.12718502
_cell_formula_units_Z   1
loop_
 _symmetry_equiv_pos_site_id
 _symmetry_equiv_pos_as_xyz
  1  'x, y, z'
loop_
 _atom_site_type_symbol
 _atom_site_label
 _atom_site_symmetry_multiplicity
 _atom_site_fract_x
 _atom_site_fract_y
 _atom_site_fract_z
 _atom_site_occupancy
  Y  Y0  1  0.318264  0.145217  0.609537  1
  Y  Y1  1  0.390463  0.681736  0.854783  1
  Y  Y2  1  0.854783  0.390463  0.681736  1
  Y  Y3  1  0.681736  0.854783  0.390463  1
  Y  Y4  1  0.609537  0.318264  0.145217  1
  Y  Y5  1  0.145217  0.609537  0.318264  1
  I  I6  1  0.000000  0.000000  0.000000  1
  O  O7  1  0.177327  0.430888  0.591930  1
  O  O8  1  0.591930  0.177327  0.430888  1
  O  O9  1  0.430888  0.591930  0.177327  1
  O  O10  1  0.822673  0.569112  0.408070  1
  O  O11  1  0.408070  0.822673  0.569112  1
  O  O12  1  0.569112  0.408070  0.822673  1
  O  O13  1  0.925956  0.039768  0.696914  1
  O  O14  1  0.960232  0.303086  0.074044  1
  O  O15  1  0.303086  0.074044  0.960232  1
  O  O16  1  0.074044  0.960232  0.303086  1
  O  O17  1  0.039768  0.696914  0.925956  1
  O  O18  1  0.696914  0.925956  0.039768  1
