# generated using pymatgen
data_NaPr6PtCl12
_symmetry_space_group_name_H-M   'P 1'
_cell_length_a   9.42404195
_cell_length_b   9.40430226
_cell_length_c   9.26977454
_cell_angle_alpha   107.14261238
_cell_angle_beta   107.94001090
_cell_angle_gamma   107.73912428
_symmetry_Int_Tables_number   1
_chemical_formula_structural   NaPr6PtCl12
_chemical_formula_sum   'Na1 Pr6 Pt1 Cl12'
_cell_volume   672.51052065
_cell_formula_units_Z   1
loop_
 _symmetry_equiv_pos_site_id
 _symmetry_equiv_pos_as_xyz
  1  'x, y, z'
loop_
 _atom_site_type_symbol
 _atom_site_label
 _atom_site_symmetry_multiplicity
 _atom_site_fract_x
 _atom_site_fract_y
 _atom_site_fract_z
 _atom_site_occupancy
  Na  Na0  1  0.500000  0.500000  0.500000  1
  Pr  Pr1  1  0.126919  0.334851  0.029318  1
  Pr  Pr2  1  0.333647  0.029035  0.125605  1
  Pr  Pr3  1  0.027732  0.120230  0.326506  1
  Pr  Pr4  1  0.972269  0.879770  0.673495  1
  Pr  Pr5  1  0.666353  0.970966  0.874395  1
  Pr  Pr6  1  0.873081  0.665149  0.970682  1
  Pt  Pt7  1  0.000000  0.000000  0.000000  1
  Cl  Cl8  1  0.205505  0.685841  0.070522  1
  Cl  Cl9  1  0.452739  0.364596  0.165716  1
  Cl  Cl10  1  0.686831  0.073694  0.208385  1
  Cl  Cl11  1  0.928993  0.793295  0.316514  1
  Cl  Cl12  1  0.165414  0.451483  0.365030  1
  Cl  Cl13  1  0.364929  0.166802  0.454030  1
  Cl  Cl14  1  0.635071  0.833198  0.545971  1
  Cl  Cl15  1  0.834587  0.548517  0.634970  1
  Cl  Cl16  1  0.071008  0.206705  0.683487  1
  Cl  Cl17  1  0.313170  0.926307  0.791615  1
  Cl  Cl18  1  0.547261  0.635404  0.834285  1
  Cl  Cl19  1  0.794495  0.314159  0.929478  1
