# generated using pymatgen
data_LiEr19(Cd3Ru)2
_symmetry_space_group_name_H-M   'P 1'
_cell_length_a   9.45167200
_cell_length_b   9.45167331
_cell_length_c   9.68099900
_cell_angle_alpha   90.00000000
_cell_angle_beta   90.00000000
_cell_angle_gamma   120.00000240
_symmetry_Int_Tables_number   1
_chemical_formula_structural   LiEr19(Cd3Ru)2
_chemical_formula_sum   'Li1 Er19 Cd6 Ru2'
_cell_volume   748.97641260
_cell_formula_units_Z   1
loop_
 _symmetry_equiv_pos_site_id
 _symmetry_equiv_pos_as_xyz
  1  'x, y, z'
loop_
 _atom_site_type_symbol
 _atom_site_label
 _atom_site_symmetry_multiplicity
 _atom_site_fract_x
 _atom_site_fract_y
 _atom_site_fract_z
 _atom_site_occupancy
  Li  Li0  1  0.000000  0.000000  0.500000  1
  Er  Er1  1  0.000000  0.000000  0.000000  1
  Er  Er2  1  0.208693  0.791307  0.441685  1
  Er  Er3  1  0.208693  0.417388  0.441685  1
  Er  Er4  1  0.582612  0.791307  0.441685  1
  Er  Er5  1  0.791307  0.208693  0.558315  1
  Er  Er6  1  0.791307  0.582612  0.558315  1
  Er  Er7  1  0.417388  0.208693  0.558315  1
  Er  Er8  1  0.789395  0.210605  0.942054  1
  Er  Er9  1  0.789395  0.578789  0.942054  1
  Er  Er10  1  0.421211  0.210605  0.942054  1
  Er  Er11  1  0.210605  0.789395  0.057946  1
  Er  Er12  1  0.210605  0.421211  0.057946  1
  Er  Er13  1  0.578789  0.789395  0.057946  1
  Er  Er14  1  0.541375  0.458625  0.251234  1
  Er  Er15  1  0.541375  0.082751  0.251234  1
  Er  Er16  1  0.917249  0.458625  0.251234  1
  Er  Er17  1  0.458625  0.541375  0.748766  1
  Er  Er18  1  0.458625  0.917249  0.748766  1
  Er  Er19  1  0.082751  0.541375  0.748766  1
  Cd  Cd20  1  0.887671  0.112329  0.255951  1
  Cd  Cd21  1  0.887671  0.775343  0.255951  1
  Cd  Cd22  1  0.224657  0.112329  0.255951  1
  Cd  Cd23  1  0.112329  0.887671  0.744049  1
  Cd  Cd24  1  0.112329  0.224657  0.744049  1
  Cd  Cd25  1  0.775343  0.887671  0.744049  1
  Ru  Ru26  1  0.333333  0.666667  0.250447  1
  Ru  Ru27  1  0.666667  0.333333  0.749553  1
