# generated using pymatgen
data_Nd2LuGa3(Ni3Sn)3
_symmetry_space_group_name_H-M   'P 1'
_cell_length_a   9.17544400
_cell_length_b   9.17544435
_cell_length_c   4.11061400
_cell_angle_alpha   90.00000000
_cell_angle_beta   90.00000000
_cell_angle_gamma   119.99999874
_symmetry_Int_Tables_number   1
_chemical_formula_structural   Nd2LuGa3(Ni3Sn)3
_chemical_formula_sum   'Nd2 Lu1 Ga3 Ni9 Sn3'
_cell_volume   299.70330265
_cell_formula_units_Z   1
loop_
 _symmetry_equiv_pos_site_id
 _symmetry_equiv_pos_as_xyz
  1  'x, y, z'
loop_
 _atom_site_type_symbol
 _atom_site_label
 _atom_site_symmetry_multiplicity
 _atom_site_fract_x
 _atom_site_fract_y
 _atom_site_fract_z
 _atom_site_occupancy
  Nd  Nd0  1  0.333333  0.666667  0.500000  1
  Nd  Nd1  1  0.666667  0.333333  0.500000  1
  Lu  Lu2  1  0.000000  0.000000  0.000000  1
  Ga  Ga3  1  0.746390  0.000000  0.500000  1
  Ga  Ga4  1  0.000000  0.746390  0.500000  1
  Ga  Ga5  1  0.253610  0.253610  0.500000  1
  Ni  Ni6  1  0.200255  0.358914  0.000000  1
  Ni  Ni7  1  0.641086  0.841341  0.000000  1
  Ni  Ni8  1  0.158659  0.799745  0.000000  1
  Ni  Ni9  1  0.841341  0.641086  0.000000  1
  Ni  Ni10  1  0.799745  0.158659  0.000000  1
  Ni  Ni11  1  0.358914  0.200255  0.000000  1
  Ni  Ni12  1  0.278162  0.000000  0.500000  1
  Ni  Ni13  1  0.000000  0.278162  0.500000  1
  Ni  Ni14  1  0.721838  0.721838  0.500000  1
  Sn  Sn15  1  0.471674  0.000000  0.000000  1
  Sn  Sn16  1  0.000000  0.471674  0.000000  1
  Sn  Sn17  1  0.528326  0.528326  0.000000  1
