# generated using pymatgen
data_Dy2Ga2IrPd
_symmetry_space_group_name_H-M   'P 1'
_cell_length_a   4.42122600
_cell_length_b   6.89604500
_cell_length_c   7.67725300
_cell_angle_alpha   90.00000000
_cell_angle_beta   90.00000000
_cell_angle_gamma   90.00000000
_symmetry_Int_Tables_number   1
_chemical_formula_structural   Dy2Ga2IrPd
_chemical_formula_sum   'Dy4 Ga4 Ir2 Pd2'
_cell_volume   234.07156289
_cell_formula_units_Z   2
loop_
 _symmetry_equiv_pos_site_id
 _symmetry_equiv_pos_as_xyz
  1  'x, y, z'
loop_
 _atom_site_type_symbol
 _atom_site_label
 _atom_site_symmetry_multiplicity
 _atom_site_fract_x
 _atom_site_fract_y
 _atom_site_fract_z
 _atom_site_occupancy
  Dy  Dy0  1  0.750000  0.011592  0.692856  1
  Dy  Dy1  1  0.750000  0.524286  0.806847  1
  Dy  Dy2  1  0.250000  0.975714  0.306847  1
  Dy  Dy3  1  0.250000  0.488408  0.192856  1
  Ga  Ga4  1  0.250000  0.828429  0.925879  1
  Ga  Ga5  1  0.250000  0.339332  0.572630  1
  Ga  Ga6  1  0.750000  0.160668  0.072630  1
  Ga  Ga7  1  0.750000  0.671571  0.425879  1
  Ir  Ir8  1  0.750000  0.772797  0.103030  1
  Ir  Ir9  1  0.250000  0.727203  0.603030  1
  Pd  Pd10  1  0.250000  0.219577  0.898758  1
  Pd  Pd11  1  0.750000  0.280423  0.398758  1
