# generated using pymatgen
data_TbPa(VB4)2
_symmetry_space_group_name_H-M   'P 1'
_cell_length_a   3.53907200
_cell_length_b   5.98049760
_cell_length_c   11.58315594
_cell_angle_alpha   89.84038589
_cell_angle_beta   90.00000000
_cell_angle_gamma   90.00000000
_symmetry_Int_Tables_number   1
_chemical_formula_structural   TbPa(VB4)2
_chemical_formula_sum   'Tb2 Pa2 V4 B16'
_cell_volume   245.16131169
_cell_formula_units_Z   2
loop_
 _symmetry_equiv_pos_site_id
 _symmetry_equiv_pos_as_xyz
  1  'x, y, z'
loop_
 _atom_site_type_symbol
 _atom_site_label
 _atom_site_symmetry_multiplicity
 _atom_site_fract_x
 _atom_site_fract_y
 _atom_site_fract_z
 _atom_site_occupancy
  Tb  Tb0  1  0.500000  0.622827  0.649112  1
  Tb  Tb1  1  0.500000  0.377173  0.350888  1
  Pa  Pa2  1  0.500000  0.125551  0.847609  1
  Pa  Pa3  1  0.500000  0.874449  0.152391  1
  V  V4  1  0.500000  0.124115  0.583429  1
  V  V5  1  0.500000  0.875885  0.416571  1
  V  V6  1  0.500000  0.627404  0.917474  1
  V  V7  1  0.500000  0.372596  0.082526  1
  B  B8  1  0.000000  0.282582  0.685155  1
  B  B9  1  0.000000  0.717418  0.314845  1
  B  B10  1  0.000000  0.783438  0.814839  1
  B  B11  1  0.000000  0.216562  0.185161  1
  B  B12  1  0.000000  0.363777  0.532767  1
  B  B13  1  0.000000  0.636223  0.467233  1
  B  B14  1  0.000000  0.863901  0.967168  1
  B  B15  1  0.000000  0.136099  0.032832  1
  B  B16  1  0.000000  0.023548  0.308708  1
  B  B17  1  0.000000  0.976452  0.691292  1
  B  B18  1  0.000000  0.526357  0.191497  1
  B  B19  1  0.000000  0.473643  0.808503  1
  B  B20  1  0.000000  0.113951  0.454022  1
  B  B21  1  0.000000  0.886049  0.545978  1
  B  B22  1  0.000000  0.613165  0.046712  1
  B  B23  1  0.000000  0.386835  0.953288  1
