# generated using pymatgen
data_DyTm4Os2C7
_symmetry_space_group_name_H-M   'P 1'
_cell_length_a   8.10241670
_cell_length_b   8.10241835
_cell_length_c   3.47762600
_cell_angle_alpha   90.00000000
_cell_angle_beta   90.00000000
_cell_angle_gamma   121.58792085
_symmetry_Int_Tables_number   1
_chemical_formula_structural   DyTm4Os2C7
_chemical_formula_sum   'Dy1 Tm4 Os2 C7'
_cell_volume   194.47725088
_cell_formula_units_Z   1
loop_
 _symmetry_equiv_pos_site_id
 _symmetry_equiv_pos_as_xyz
  1  'x, y, z'
loop_
 _atom_site_type_symbol
 _atom_site_label
 _atom_site_symmetry_multiplicity
 _atom_site_fract_x
 _atom_site_fract_y
 _atom_site_fract_z
 _atom_site_occupancy
  Dy  Dy0  1  0.500000  0.500000  0.000000  1
  Tm  Tm1  1  0.078004  0.338971  0.500000  1
  Tm  Tm2  1  0.921996  0.661029  0.500000  1
  Tm  Tm3  1  0.661029  0.921996  0.500000  1
  Tm  Tm4  1  0.338971  0.078004  0.500000  1
  Os  Os5  1  0.715272  0.284728  0.000000  1
  Os  Os6  1  0.284728  0.715272  0.000000  1
  C  C7  1  0.632017  0.367983  0.500000  1
  C  C8  1  0.367983  0.632017  0.500000  1
  C  C9  1  0.000000  0.000000  0.000000  1
  C  C10  1  0.171734  0.171734  0.000000  1
  C  C11  1  0.828266  0.828266  0.000000  1
  C  C12  1  0.000000  0.500000  0.000000  1
  C  C13  1  0.500000  0.000000  0.000000  1
