# generated using pymatgen
data_Tb2Fe4CoB4
_symmetry_space_group_name_H-M   'P 1'
_cell_length_a   7.17633919
_cell_length_b   5.96603611
_cell_length_c   5.34874261
_cell_angle_alpha   78.51939779
_cell_angle_beta   54.55916778
_cell_angle_gamma   46.92143829
_symmetry_Int_Tables_number   1
_chemical_formula_structural   Tb2Fe4CoB4
_chemical_formula_sum   'Tb2 Fe4 Co1 B4'
_cell_volume   128.59065195
_cell_formula_units_Z   1
loop_
 _symmetry_equiv_pos_site_id
 _symmetry_equiv_pos_as_xyz
  1  'x, y, z'
loop_
 _atom_site_type_symbol
 _atom_site_label
 _atom_site_symmetry_multiplicity
 _atom_site_fract_x
 _atom_site_fract_y
 _atom_site_fract_z
 _atom_site_occupancy
  Tb  Tb0  1  0.853582  0.853583  0.146418  1
  Tb  Tb1  1  0.146417  0.146418  0.853583  1
  Fe  Fe2  1  0.499961  0.499960  0.000040  1
  Fe  Fe3  1  0.000040  0.000040  0.499959  1
  Fe  Fe4  1  0.500000  0.500001  0.500000  1
  Fe  Fe5  1  0.750000  0.749999  0.750000  1
  Co  Co6  1  0.250001  0.250000  0.249999  1
  B  B7  1  0.481539  0.784929  0.208364  1
  B  B8  1  0.208363  0.525169  0.481540  1
  B  B9  1  0.784927  0.481540  0.525168  1
  B  B10  1  0.525167  0.208365  0.784928  1
