# generated using pymatgen
data_Y2ErSi2Ag3Hg
_symmetry_space_group_name_H-M   'P 1'
_cell_length_a   7.24726100
_cell_length_b   7.24726093
_cell_length_c   4.20820800
_cell_angle_alpha   90.00000000
_cell_angle_beta   90.00000000
_cell_angle_gamma   120.00149538
_symmetry_Int_Tables_number   1
_chemical_formula_structural   Y2ErSi2Ag3Hg
_chemical_formula_sum   'Y2 Er1 Si2 Ag3 Hg1'
_cell_volume   191.41196654
_cell_formula_units_Z   1
loop_
 _symmetry_equiv_pos_site_id
 _symmetry_equiv_pos_as_xyz
  1  'x, y, z'
loop_
 _atom_site_type_symbol
 _atom_site_label
 _atom_site_symmetry_multiplicity
 _atom_site_fract_x
 _atom_site_fract_y
 _atom_site_fract_z
 _atom_site_occupancy
  Y  Y0  1  0.420134  0.000104  0.500000  1
  Y  Y1  1  0.000104  0.420134  0.500000  1
  Er  Er2  1  0.580030  0.580030  0.500000  1
  Si  Si3  1  0.333971  0.666403  0.000000  1
  Si  Si4  1  0.666403  0.333971  0.000000  1
  Ag  Ag5  1  0.729955  0.999542  0.000000  1
  Ag  Ag6  1  0.999542  0.729955  0.000000  1
  Ag  Ag7  1  0.270671  0.270671  0.000000  1
  Hg  Hg8  1  0.999189  0.999189  0.500000  1
