# generated using pymatgen
data_YbY9Cd3Os
_symmetry_space_group_name_H-M   'P 1'
_cell_length_a   9.65914400
_cell_length_b   9.65914393
_cell_length_c   9.85937800
_cell_angle_alpha   90.00000000
_cell_angle_beta   90.00000000
_cell_angle_gamma   120.00000025
_symmetry_Int_Tables_number   1
_chemical_formula_structural   YbY9Cd3Os
_chemical_formula_sum   'Yb2 Y18 Cd6 Os2'
_cell_volume   796.63141017
_cell_formula_units_Z   2
loop_
 _symmetry_equiv_pos_site_id
 _symmetry_equiv_pos_as_xyz
  1  'x, y, z'
loop_
 _atom_site_type_symbol
 _atom_site_label
 _atom_site_symmetry_multiplicity
 _atom_site_fract_x
 _atom_site_fract_y
 _atom_site_fract_z
 _atom_site_occupancy
  Yb  Yb0  1  0.000000  0.000000  0.500000  1
  Yb  Yb1  1  0.000000  0.000000  0.000000  1
  Y  Y2  1  0.210550  0.789450  0.439937  1
  Y  Y3  1  0.210550  0.421103  0.439937  1
  Y  Y4  1  0.578897  0.789450  0.439937  1
  Y  Y5  1  0.789450  0.210550  0.560063  1
  Y  Y6  1  0.789450  0.578897  0.560063  1
  Y  Y7  1  0.421103  0.210550  0.560063  1
  Y  Y8  1  0.789450  0.210550  0.939937  1
  Y  Y9  1  0.789450  0.578897  0.939937  1
  Y  Y10  1  0.421103  0.210550  0.939937  1
  Y  Y11  1  0.210550  0.789450  0.060063  1
  Y  Y12  1  0.210550  0.421103  0.060063  1
  Y  Y13  1  0.578897  0.789450  0.060063  1
  Y  Y14  1  0.541254  0.458746  0.250000  1
  Y  Y15  1  0.541254  0.082508  0.250000  1
  Y  Y16  1  0.917492  0.458746  0.250000  1
  Y  Y17  1  0.458746  0.541254  0.750000  1
  Y  Y18  1  0.458746  0.917492  0.750000  1
  Y  Y19  1  0.082508  0.541254  0.750000  1
  Cd  Cd20  1  0.884789  0.115211  0.250000  1
  Cd  Cd21  1  0.884789  0.769580  0.250000  1
  Cd  Cd22  1  0.230420  0.115211  0.250000  1
  Cd  Cd23  1  0.115211  0.884789  0.750000  1
  Cd  Cd24  1  0.115211  0.230420  0.750000  1
  Cd  Cd25  1  0.769580  0.884789  0.750000  1
  Os  Os26  1  0.333333  0.666667  0.250000  1
  Os  Os27  1  0.666667  0.333333  0.750000  1
