# generated using pymatgen
data_Tm4Fe9Co3(P3Rh2)4
_symmetry_space_group_name_H-M   'P 1'
_cell_length_a   3.74102800
_cell_length_b   10.36450440
_cell_length_c   12.17090153
_cell_angle_alpha   89.82591974
_cell_angle_beta   90.00000000
_cell_angle_gamma   90.00000000
_symmetry_Int_Tables_number   1
_chemical_formula_structural   Tm4Fe9Co3(P3Rh2)4
_chemical_formula_sum   'Tm4 Fe9 Co3 P12 Rh8'
_cell_volume   471.91115513
_cell_formula_units_Z   1
loop_
 _symmetry_equiv_pos_site_id
 _symmetry_equiv_pos_as_xyz
  1  'x, y, z'
loop_
 _atom_site_type_symbol
 _atom_site_label
 _atom_site_symmetry_multiplicity
 _atom_site_fract_x
 _atom_site_fract_y
 _atom_site_fract_z
 _atom_site_occupancy
  Tm  Tm0  1  0.250000  0.581959  0.711517  1
  Tm  Tm1  1  0.250000  0.916867  0.211232  1
  Tm  Tm2  1  0.750000  0.417596  0.289099  1
  Tm  Tm3  1  0.750000  0.083634  0.788542  1
  Fe  Fe4  1  0.250000  0.221864  0.173178  1
  Fe  Fe5  1  0.250000  0.277965  0.672516  1
  Fe  Fe6  1  0.750000  0.777884  0.827230  1
  Fe  Fe7  1  0.750000  0.721448  0.327235  1
  Fe  Fe8  1  0.250000  0.880545  0.695118  1
  Fe  Fe9  1  0.250000  0.619913  0.195273  1
  Fe  Fe10  1  0.750000  0.118962  0.304894  1
  Fe  Fe11  1  0.750000  0.379532  0.804149  1
  Fe  Fe12  1  0.250000  0.460276  0.935729  1
  Co  Co13  1  0.250000  0.039535  0.434537  1
  Co  Co14  1  0.750000  0.540681  0.065586  1
  Co  Co15  1  0.750000  0.960148  0.565386  1
  P  P16  1  0.250000  0.425749  0.112778  1
  P  P17  1  0.250000  0.074860  0.612810  1
  P  P18  1  0.750000  0.572341  0.886431  1
  P  P19  1  0.750000  0.924731  0.387034  1
  P  P20  1  0.250000  0.274421  0.854817  1
  P  P21  1  0.250000  0.226741  0.355211  1
  P  P22  1  0.750000  0.726892  0.145569  1
  P  P23  1  0.750000  0.773161  0.645146  1
  P  P24  1  0.250000  0.603601  0.375778  1
  P  P25  1  0.250000  0.897027  0.875616  1
  P  P26  1  0.750000  0.395916  0.624134  1
  P  P27  1  0.750000  0.103806  0.123929  1
  Rh  Rh28  1  0.250000  0.710579  0.983198  1
  Rh  Rh29  1  0.250000  0.788366  0.484563  1
  Rh  Rh30  1  0.750000  0.290997  0.016376  1
  Rh  Rh31  1  0.750000  0.211430  0.515056  1
  Rh  Rh32  1  0.250000  0.405737  0.477954  1
  Rh  Rh33  1  0.250000  0.095081  0.978103  1
  Rh  Rh34  1  0.750000  0.594280  0.522398  1
  Rh  Rh35  1  0.750000  0.905473  0.021876  1
