# generated using pymatgen
data_Er4Al18Ni4IrRh
_symmetry_space_group_name_H-M   'P 1'
_cell_length_a   7.44252008
_cell_length_b   7.44251937
_cell_length_c   9.30253813
_cell_angle_alpha   89.99020762
_cell_angle_beta   89.99021440
_cell_angle_gamma   119.11721526
_symmetry_Int_Tables_number   1
_chemical_formula_structural   Er4Al18Ni4IrRh
_chemical_formula_sum   'Er4 Al18 Ni4 Ir1 Rh1'
_cell_volume   450.16010344
_cell_formula_units_Z   1
loop_
 _symmetry_equiv_pos_site_id
 _symmetry_equiv_pos_as_xyz
  1  'x, y, z'
loop_
 _atom_site_type_symbol
 _atom_site_label
 _atom_site_symmetry_multiplicity
 _atom_site_fract_x
 _atom_site_fract_y
 _atom_site_fract_z
 _atom_site_occupancy
  Er  Er0  1  0.994359  0.673125  0.749754  1
  Er  Er1  1  0.005641  0.326875  0.250246  1
  Er  Er2  1  0.673125  0.994359  0.749754  1
  Er  Er3  1  0.326875  0.005641  0.250246  1
  Al  Al4  1  0.133412  0.133412  0.750983  1
  Al  Al5  1  0.866588  0.866588  0.249017  1
  Al  Al6  1  0.997522  0.338674  0.574259  1
  Al  Al7  1  0.002478  0.661326  0.425741  1
  Al  Al8  1  0.002421  0.662009  0.074274  1
  Al  Al9  1  0.337991  0.997579  0.925726  1
  Al  Al10  1  0.997579  0.337991  0.925726  1
  Al  Al11  1  0.662009  0.002421  0.074274  1
  Al  Al12  1  0.661326  0.002478  0.425741  1
  Al  Al13  1  0.338674  0.997522  0.574259  1
  Al  Al14  1  0.335212  0.335212  0.050672  1
  Al  Al15  1  0.664788  0.664788  0.949328  1
  Al  Al16  1  0.664199  0.664199  0.550727  1
  Al  Al17  1  0.335801  0.335801  0.449273  1
  Al  Al18  1  0.340940  0.556419  0.749960  1
  Al  Al19  1  0.659060  0.443581  0.250040  1
  Al  Al20  1  0.556419  0.340940  0.749960  1
  Al  Al21  1  0.443581  0.659060  0.250040  1
  Ni  Ni22  1  0.671095  0.328905  0.500000  1
  Ni  Ni23  1  0.328905  0.671095  0.500000  1
  Ni  Ni24  1  0.328762  0.671238  0.000000  1
  Ni  Ni25  1  0.671238  0.328762  0.000000  1
  Ir  Ir26  1  0.000000  0.000000  0.500000  1
  Rh  Rh27  1  0.000000  0.000000  0.000000  1
