# generated using pymatgen
data_CeLu(AsPt)2
_symmetry_space_group_name_H-M   'P 1'
_cell_length_a   4.27877500
_cell_length_b   4.27877502
_cell_length_c   15.45462600
_cell_angle_alpha   90.00000000
_cell_angle_beta   90.00000000
_cell_angle_gamma   120.00002307
_symmetry_Int_Tables_number   1
_chemical_formula_structural   CeLu(AsPt)2
_chemical_formula_sum   'Ce2 Lu2 As4 Pt4'
_cell_volume   245.03489244
_cell_formula_units_Z   2
loop_
 _symmetry_equiv_pos_site_id
 _symmetry_equiv_pos_as_xyz
  1  'x, y, z'
loop_
 _atom_site_type_symbol
 _atom_site_label
 _atom_site_symmetry_multiplicity
 _atom_site_fract_x
 _atom_site_fract_y
 _atom_site_fract_z
 _atom_site_occupancy
  Ce  Ce0  1  0.000000  0.000000  0.500000  1
  Ce  Ce1  1  0.000000  0.000000  0.000000  1
  Lu  Lu2  1  0.000000  0.000000  0.250000  1
  Lu  Lu3  1  0.000000  0.000000  0.750000  1
  As  As4  1  0.333333  0.666667  0.885771  1
  As  As5  1  0.666667  0.333333  0.114229  1
  As  As6  1  0.666667  0.333333  0.385771  1
  As  As7  1  0.333333  0.666667  0.614229  1
  Pt  Pt8  1  0.333333  0.666667  0.352947  1
  Pt  Pt9  1  0.666667  0.333333  0.647053  1
  Pt  Pt10  1  0.666667  0.333333  0.852947  1
  Pt  Pt11  1  0.333333  0.666667  0.147053  1
