# generated using pymatgen
data_Yb3VCoO6
_symmetry_space_group_name_H-M   'P 1'
_cell_length_a   6.27695413
_cell_length_b   6.27695709
_cell_length_c   6.27693000
_cell_angle_alpha   91.64781383
_cell_angle_beta   91.64762284
_cell_angle_gamma   91.64712379
_symmetry_Int_Tables_number   1
_chemical_formula_structural   Yb3VCoO6
_chemical_formula_sum   'Yb6 V2 Co2 O12'
_cell_volume   246.99940166
_cell_formula_units_Z   2
loop_
 _symmetry_equiv_pos_site_id
 _symmetry_equiv_pos_as_xyz
  1  'x, y, z'
loop_
 _atom_site_type_symbol
 _atom_site_label
 _atom_site_symmetry_multiplicity
 _atom_site_fract_x
 _atom_site_fract_y
 _atom_site_fract_z
 _atom_site_occupancy
  Yb  Yb0  1  0.248531  0.613792  0.883797  1
  Yb  Yb1  1  0.386096  0.113595  0.749056  1
  Yb  Yb2  1  0.113748  0.752434  0.386399  1
  Yb  Yb3  1  0.748815  0.385577  0.114483  1
  Yb  Yb4  1  0.613493  0.886770  0.251249  1
  Yb  Yb5  1  0.886886  0.249867  0.615367  1
  V  V6  1  0.502259  0.498850  0.498691  1
  V  V7  1  0.001268  0.997774  0.001180  1
  Co  Co8  1  0.748911  0.748253  0.752384  1
  Co  Co9  1  0.242806  0.259567  0.247851  1
  O  O10  1  0.547906  0.208037  0.416882  1
  O  O11  1  0.452120  0.792377  0.582107  1
  O  O12  1  0.794273  0.586116  0.450119  1
  O  O13  1  0.589228  0.449709  0.795654  1
  O  O14  1  0.707813  0.046815  0.915334  1
  O  O15  1  0.051511  0.912006  0.705200  1
  O  O16  1  0.087663  0.293692  0.950980  1
  O  O17  1  0.947599  0.084140  0.296852  1
  O  O18  1  0.291862  0.953228  0.085064  1
  O  O19  1  0.414911  0.551272  0.202145  1
  O  O20  1  0.207208  0.411369  0.548808  1
  O  O21  1  0.915089  0.704765  0.050396  1
