# generated using pymatgen
data_Tm12Fe3BiRh
_symmetry_space_group_name_H-M   'P 1'
_cell_length_a   8.19384665
_cell_length_b   8.19384718
_cell_length_c   8.19384800
_cell_angle_alpha   110.32192322
_cell_angle_beta   107.63629803
_cell_angle_gamma   110.47091820
_symmetry_Int_Tables_number   1
_chemical_formula_structural   Tm12Fe3BiRh
_chemical_formula_sum   'Tm12 Fe3 Bi1 Rh1'
_cell_volume   423.16334134
_cell_formula_units_Z   1
loop_
 _symmetry_equiv_pos_site_id
 _symmetry_equiv_pos_as_xyz
  1  'x, y, z'
loop_
 _atom_site_type_symbol
 _atom_site_label
 _atom_site_symmetry_multiplicity
 _atom_site_fract_x
 _atom_site_fract_y
 _atom_site_fract_z
 _atom_site_occupancy
  Tm  Tm0  1  0.188403  0.464631  0.276227  1
  Tm  Tm1  1  0.811597  0.535369  0.723773  1
  Tm  Tm2  1  0.188403  0.912177  0.723773  1
  Tm  Tm3  1  0.978415  0.189979  0.788435  1
  Tm  Tm4  1  0.811597  0.087823  0.276227  1
  Tm  Tm5  1  0.021585  0.810021  0.211565  1
  Tm  Tm6  1  0.401544  0.189979  0.211565  1
  Tm  Tm7  1  0.598456  0.810021  0.788435  1
  Tm  Tm8  1  0.304193  0.315453  0.619648  1
  Tm  Tm9  1  0.695807  0.684547  0.380352  1
  Tm  Tm10  1  0.695807  0.315453  0.011260  1
  Tm  Tm11  1  0.304193  0.684547  0.988740  1
  Fe  Fe12  1  0.383913  0.383913  0.000000  1
  Fe  Fe13  1  0.616087  0.616087  0.000000  1
  Fe  Fe14  1  0.000000  0.000000  0.000000  1
  Bi  Bi15  1  0.500000  0.000000  0.500000  1
  Rh  Rh16  1  0.000000  0.500000  0.500000  1
