# generated using pymatgen
data_HgIrCl6
_symmetry_space_group_name_H-M   'P 1'
_cell_length_a   6.64781332
_cell_length_b   6.64781391
_cell_length_c   6.57079843
_cell_angle_alpha   80.40397686
_cell_angle_beta   80.40398856
_cell_angle_gamma   119.65491903
_symmetry_Int_Tables_number   1
_chemical_formula_structural   HgIrCl6
_chemical_formula_sum   'Hg1 Ir1 Cl6'
_cell_volume   238.06721619
_cell_formula_units_Z   1
loop_
 _symmetry_equiv_pos_site_id
 _symmetry_equiv_pos_as_xyz
  1  'x, y, z'
loop_
 _atom_site_type_symbol
 _atom_site_label
 _atom_site_symmetry_multiplicity
 _atom_site_fract_x
 _atom_site_fract_y
 _atom_site_fract_z
 _atom_site_occupancy
  Hg  Hg0  1  0.167412  0.832588  0.000000  1
  Ir  Ir1  1  0.833023  0.166977  0.000000  1
  Cl  Cl2  1  0.475612  0.095691  0.217244  1
  Cl  Cl3  1  0.904309  0.524388  0.782756  1
  Cl  Cl4  1  0.188799  0.233652  0.782899  1
  Cl  Cl5  1  0.766348  0.811201  0.217101  1
  Cl  Cl6  1  0.048660  0.384162  0.216249  1
  Cl  Cl7  1  0.615838  0.951340  0.783751  1
