# generated using pymatgen
data_Sr4TlSb3Pt4
_symmetry_space_group_name_H-M   'P 1'
_cell_length_a   4.77113500
_cell_length_b   7.58542235
_cell_length_c   8.27253500
_cell_angle_alpha   90.51409931
_cell_angle_beta   90.00000000
_cell_angle_gamma   90.00000000
_symmetry_Int_Tables_number   1
_chemical_formula_structural   Sr4TlSb3Pt4
_chemical_formula_sum   'Sr4 Tl1 Sb3 Pt4'
_cell_volume   299.37987491
_cell_formula_units_Z   1
loop_
 _symmetry_equiv_pos_site_id
 _symmetry_equiv_pos_as_xyz
  1  'x, y, z'
loop_
 _atom_site_type_symbol
 _atom_site_label
 _atom_site_symmetry_multiplicity
 _atom_site_fract_x
 _atom_site_fract_y
 _atom_site_fract_z
 _atom_site_occupancy
  Sr  Sr0  1  0.750000  0.508896  0.195542  1
  Sr  Sr1  1  0.750000  0.011752  0.303150  1
  Sr  Sr2  1  0.250000  0.491054  0.803584  1
  Sr  Sr3  1  0.250000  0.987010  0.699114  1
  Tl  Tl4  1  0.250000  0.313439  0.412468  1
  Sb  Sb5  1  0.750000  0.177070  0.915282  1
  Sb  Sb6  1  0.750000  0.678670  0.582674  1
  Sb  Sb7  1  0.250000  0.817166  0.087622  1
  Pt  Pt8  1  0.750000  0.305914  0.603715  1
  Pt  Pt9  1  0.750000  0.799260  0.909872  1
  Pt  Pt10  1  0.250000  0.716654  0.410280  1
  Pt  Pt11  1  0.250000  0.193113  0.076698  1
