# generated using pymatgen
data_SmErTcB6
_symmetry_space_group_name_H-M   'P 1'
_cell_length_a   3.70264500
_cell_length_b   9.18875900
_cell_length_c   11.61435000
_cell_angle_alpha   90.00000000
_cell_angle_beta   90.00000000
_cell_angle_gamma   90.00000000
_symmetry_Int_Tables_number   1
_chemical_formula_structural   SmErTcB6
_chemical_formula_sum   'Sm4 Er4 Tc4 B24'
_cell_volume   395.15169171
_cell_formula_units_Z   4
loop_
 _symmetry_equiv_pos_site_id
 _symmetry_equiv_pos_as_xyz
  1  'x, y, z'
loop_
 _atom_site_type_symbol
 _atom_site_label
 _atom_site_symmetry_multiplicity
 _atom_site_fract_x
 _atom_site_fract_y
 _atom_site_fract_z
 _atom_site_occupancy
  Sm  Sm0  1  0.000000  0.323615  0.414442  1
  Sm  Sm1  1  0.000000  0.676385  0.585558  1
  Sm  Sm2  1  0.000000  0.823615  0.085558  1
  Sm  Sm3  1  0.000000  0.176385  0.914442  1
  Er  Er4  1  0.000000  0.943253  0.369526  1
  Er  Er5  1  0.000000  0.056747  0.630474  1
  Er  Er6  1  0.000000  0.443253  0.130474  1
  Er  Er7  1  0.000000  0.556747  0.869526  1
  Tc  Tc8  1  0.000000  0.639895  0.319190  1
  Tc  Tc9  1  0.000000  0.360105  0.680810  1
  Tc  Tc10  1  0.000000  0.139895  0.180810  1
  Tc  Tc11  1  0.000000  0.860105  0.819190  1
  B  B12  1  0.500000  0.554675  0.431291  1
  B  B13  1  0.500000  0.445325  0.568709  1
  B  B14  1  0.500000  0.054675  0.068709  1
  B  B15  1  0.500000  0.945325  0.931291  1
  B  B16  1  0.500000  0.749906  0.416901  1
  B  B17  1  0.500000  0.250094  0.583099  1
  B  B18  1  0.500000  0.249906  0.083099  1
  B  B19  1  0.500000  0.750094  0.916901  1
  B  B20  1  0.500000  0.792286  0.265829  1
  B  B21  1  0.500000  0.207714  0.734171  1
  B  B22  1  0.500000  0.292286  0.234171  1
  B  B23  1  0.500000  0.707714  0.765829  1
  B  B24  1  0.500000  0.630254  0.185668  1
  B  B25  1  0.500000  0.369746  0.814332  1
  B  B26  1  0.500000  0.130254  0.314332  1
  B  B27  1  0.500000  0.869746  0.685668  1
  B  B28  1  0.500000  0.983322  0.212937  1
  B  B29  1  0.500000  0.016678  0.787063  1
  B  B30  1  0.500000  0.483322  0.287063  1
  B  B31  1  0.500000  0.516678  0.712937  1
  B  B32  1  0.500000  0.597755  0.027023  1
  B  B33  1  0.500000  0.402245  0.972977  1
  B  B34  1  0.500000  0.097755  0.472977  1
  B  B35  1  0.500000  0.902245  0.527023  1
