# generated using pymatgen
data_Sc4Al18(NiRu)3
_symmetry_space_group_name_H-M   'P 1'
_cell_length_a   7.42303427
_cell_length_b   7.42303528
_cell_length_c   9.23926684
_cell_angle_alpha   89.83798477
_cell_angle_beta   89.83798559
_cell_angle_gamma   120.35861628
_symmetry_Int_Tables_number   1
_chemical_formula_structural   Sc4Al18(NiRu)3
_chemical_formula_sum   'Sc4 Al18 Ni3 Ru3'
_cell_volume   439.28194164
_cell_formula_units_Z   1
loop_
 _symmetry_equiv_pos_site_id
 _symmetry_equiv_pos_as_xyz
  1  'x, y, z'
loop_
 _atom_site_type_symbol
 _atom_site_label
 _atom_site_symmetry_multiplicity
 _atom_site_fract_x
 _atom_site_fract_y
 _atom_site_fract_z
 _atom_site_occupancy
  Sc  Sc0  1  0.999035  0.666257  0.251124  1
  Sc  Sc1  1  0.006928  0.339385  0.749344  1
  Sc  Sc2  1  0.660615  0.993072  0.250656  1
  Sc  Sc3  1  0.333743  0.000965  0.748876  1
  Al  Al4  1  0.111040  0.110358  0.249152  1
  Al  Al5  1  0.889642  0.888960  0.750848  1
  Al  Al6  1  0.991905  0.331237  0.074459  1
  Al  Al7  1  0.000269  0.668489  0.926000  1
  Al  Al8  1  0.001933  0.667593  0.574698  1
  Al  Al9  1  0.332407  0.998067  0.425302  1
  Al  Al10  1  0.998062  0.330064  0.425015  1
  Al  Al11  1  0.669936  0.001938  0.574985  1
  Al  Al12  1  0.668763  0.008095  0.925541  1
  Al  Al13  1  0.331511  0.999731  0.074000  1
  Al  Al14  1  0.330826  0.329285  0.553803  1
  Al  Al15  1  0.670715  0.669174  0.446197  1
  Al  Al16  1  0.669829  0.671835  0.053699  1
  Al  Al17  1  0.328165  0.330171  0.946301  1
  Al  Al18  1  0.337704  0.547838  0.249368  1
  Al  Al19  1  0.662853  0.446281  0.752751  1
  Al  Al20  1  0.553719  0.337147  0.247249  1
  Al  Al21  1  0.452162  0.662296  0.750632  1
  Ni  Ni22  1  0.670854  0.329146  0.000000  1
  Ni  Ni23  1  0.998765  0.001235  0.000000  1
  Ni  Ni24  1  0.001068  0.998932  0.500000  1
  Ru  Ru25  1  0.326249  0.673751  0.000000  1
  Ru  Ru26  1  0.328248  0.671752  0.500000  1
  Ru  Ru27  1  0.673050  0.326950  0.500000  1
