# generated using pymatgen
data_DyY12Th3(MgCo)4
_symmetry_space_group_name_H-M   'P 1'
_cell_length_a   9.64882682
_cell_length_b   9.66411213
_cell_length_c   9.66411200
_cell_angle_alpha   60.00000043
_cell_angle_beta   59.94758290
_cell_angle_gamma   59.94758591
_symmetry_Int_Tables_number   1
_chemical_formula_structural   DyY12Th3(MgCo)4
_chemical_formula_sum   'Dy1 Y12 Th3 Mg4 Co4'
_cell_volume   636.70593797
_cell_formula_units_Z   1
loop_
 _symmetry_equiv_pos_site_id
 _symmetry_equiv_pos_as_xyz
  1  'x, y, z'
loop_
 _atom_site_type_symbol
 _atom_site_label
 _atom_site_symmetry_multiplicity
 _atom_site_fract_x
 _atom_site_fract_y
 _atom_site_fract_z
 _atom_site_occupancy
  Dy  Dy0  1  0.961549  0.346150  0.346150  1
  Y  Y1  1  0.813121  0.187210  0.187210  1
  Y  Y2  1  0.187412  0.813223  0.813223  1
  Y  Y3  1  0.187412  0.813223  0.186141  1
  Y  Y4  1  0.813121  0.187210  0.812459  1
  Y  Y5  1  0.187412  0.186141  0.813223  1
  Y  Y6  1  0.813121  0.812459  0.187210  1
  Y  Y7  1  0.935806  0.564303  0.564303  1
  Y  Y8  1  0.562893  0.936733  0.936733  1
  Y  Y9  1  0.562893  0.936733  0.563642  1
  Y  Y10  1  0.935806  0.564303  0.935587  1
  Y  Y11  1  0.562893  0.563642  0.936733  1
  Y  Y12  1  0.935806  0.935587  0.564303  1
  Th  Th13  1  0.340028  0.344856  0.344856  1
  Th  Th14  1  0.340028  0.344856  0.970262  1
  Th  Th15  1  0.340028  0.970262  0.344856  1
  Mg  Mg16  1  0.579759  0.579508  0.579508  1
  Mg  Mg17  1  0.579759  0.579508  0.261224  1
  Mg  Mg18  1  0.579759  0.261224  0.579508  1
  Mg  Mg19  1  0.258103  0.580633  0.580633  1
  Co  Co20  1  0.153021  0.139864  0.139864  1
  Co  Co21  1  0.153021  0.139864  0.567251  1
  Co  Co22  1  0.153021  0.567251  0.139864  1
  Co  Co23  1  0.564225  0.145259  0.145259  1
