# generated using pymatgen
data_Ti8Al14CoSiPt6
_symmetry_space_group_name_H-M   'P 1'
_cell_length_a   8.66768292
_cell_length_b   8.66776883
_cell_length_c   8.66766067
_cell_angle_alpha   120.24569438
_cell_angle_beta   119.75711714
_cell_angle_gamma   89.99809883
_symmetry_Int_Tables_number   1
_chemical_formula_structural   Ti8Al14CoSiPt6
_chemical_formula_sum   'Ti8 Al14 Co1 Si1 Pt6'
_cell_volume   460.44535092
_cell_formula_units_Z   1
loop_
 _symmetry_equiv_pos_site_id
 _symmetry_equiv_pos_as_xyz
  1  'x, y, z'
loop_
 _atom_site_type_symbol
 _atom_site_label
 _atom_site_symmetry_multiplicity
 _atom_site_fract_x
 _atom_site_fract_y
 _atom_site_fract_z
 _atom_site_occupancy
  Ti  Ti0  1  0.793763  0.297929  0.092564  1
  Ti  Ti1  1  0.205376  0.297930  0.504169  1
  Ti  Ti2  1  0.205251  0.705227  0.499974  1
  Ti  Ti3  1  0.205433  0.701215  0.907551  1
  Ti  Ti4  1  0.793667  0.701226  0.495781  1
  Ti  Ti5  1  0.797655  0.297648  0.499995  1
  Ti  Ti6  1  0.383784  0.116353  0.732599  1
  Ti  Ti7  1  0.383761  0.651195  0.267385  1
  Al  Al8  1  0.161075  0.342719  0.181637  1
  Al  Al9  1  0.160999  0.979240  0.818258  1
  Al  Al10  1  0.163250  0.338741  0.824588  1
  Al  Al11  1  0.514150  0.338725  0.175480  1
  Al  Al12  1  0.840187  0.660958  0.820786  1
  Al  Al13  1  0.840109  0.019278  0.179161  1
  Al  Al14  1  0.839771  0.660824  0.178999  1
  Al  Al15  1  0.481812  0.660834  0.821063  1
  Al  Al16  1  0.384941  0.115576  0.269312  1
  Al  Al17  1  0.846265  0.115584  0.730642  1
  Al  Al18  1  0.616856  0.884182  0.267315  1
  Al  Al19  1  0.616870  0.349524  0.732662  1
  Al  Al20  1  0.618898  0.883409  0.735433  1
  Al  Al21  1  0.147975  0.883402  0.264501  1
  Co  Co22  1  0.496709  0.996706  0.499995  1
  Si  Si23  1  0.000979  0.501054  0.500088  1
  Pt  Pt24  1  0.996871  0.000291  0.499009  1
  Pt  Pt25  1  0.501286  0.000295  0.003424  1
  Pt  Pt26  1  0.502036  0.501988  0.999957  1
  Pt  Pt27  1  0.501285  0.497852  0.501073  1
  Pt  Pt28  1  0.996780  0.497849  0.996566  1
  Pt  Pt29  1  0.002205  0.002247  0.000035  1
