# generated using pymatgen
data_Y2Al3Pt4
_symmetry_space_group_name_H-M   'P 1'
_cell_length_a   5.57793054
_cell_length_b   7.63427400
_cell_length_c   8.13102636
_cell_angle_alpha   90.00000000
_cell_angle_beta   69.94006967
_cell_angle_gamma   90.00000000
_symmetry_Int_Tables_number   1
_chemical_formula_structural   Y2Al3Pt4
_chemical_formula_sum   'Y4 Al6 Pt8'
_cell_volume   325.24184993
_cell_formula_units_Z   2
loop_
 _symmetry_equiv_pos_site_id
 _symmetry_equiv_pos_as_xyz
  1  'x, y, z'
loop_
 _atom_site_type_symbol
 _atom_site_label
 _atom_site_symmetry_multiplicity
 _atom_site_fract_x
 _atom_site_fract_y
 _atom_site_fract_z
 _atom_site_occupancy
  Y  Y0  1  0.392627  0.091334  0.214746  1
  Y  Y1  1  0.892628  0.408666  0.214746  1
  Y  Y2  1  0.107372  0.591334  0.785254  1
  Y  Y3  1  0.607373  0.908665  0.785254  1
  Al  Al4  1  0.000000  0.000000  0.000000  1
  Al  Al5  1  0.499999  0.500000  0.000000  1
  Al  Al6  1  0.023157  0.750000  0.453685  1
  Al  Al7  1  0.523158  0.750000  0.453685  1
  Al  Al8  1  0.476843  0.250001  0.546316  1
  Al  Al9  1  0.976842  0.250001  0.546316  1
  Pt  Pt10  1  0.190677  0.750000  0.118646  1
  Pt  Pt11  1  0.690678  0.750000  0.118646  1
  Pt  Pt12  1  0.815521  0.028504  0.368956  1
  Pt  Pt13  1  0.315520  0.471497  0.368956  1
  Pt  Pt14  1  0.684479  0.528504  0.631044  1
  Pt  Pt15  1  0.184478  0.971497  0.631044  1
  Pt  Pt16  1  0.309324  0.250001  0.881353  1
  Pt  Pt17  1  0.809323  0.250001  0.881353  1
