# generated using pymatgen
data_Ho6ErVO12
_symmetry_space_group_name_H-M   'P 1'
_cell_length_a   6.59451500
_cell_length_b   6.59451465
_cell_length_c   6.59451543
_cell_angle_alpha   93.19107078
_cell_angle_beta   93.19107521
_cell_angle_gamma   93.19107564
_symmetry_Int_Tables_number   1
_chemical_formula_structural   Ho6ErVO12
_chemical_formula_sum   'Ho6 Er1 V1 O12'
_cell_volume   285.39403727
_cell_formula_units_Z   1
loop_
 _symmetry_equiv_pos_site_id
 _symmetry_equiv_pos_as_xyz
  1  'x, y, z'
loop_
 _atom_site_type_symbol
 _atom_site_label
 _atom_site_symmetry_multiplicity
 _atom_site_fract_x
 _atom_site_fract_y
 _atom_site_fract_z
 _atom_site_occupancy
  Ho  Ho0  1  0.739662  0.925087  0.436061  1
  Ho  Ho1  1  0.925087  0.436061  0.739662  1
  Ho  Ho2  1  0.436061  0.739662  0.925087  1
  Ho  Ho3  1  0.260338  0.074913  0.563939  1
  Ho  Ho4  1  0.074913  0.563939  0.260338  1
  Ho  Ho5  1  0.563939  0.260338  0.074913  1
  Er  Er6  1  0.000000  0.000000  0.000000  1
  V  V7  1  0.500000  0.500000  0.500000  1
  O  O8  1  0.590163  0.462995  0.801378  1
  O  O9  1  0.462995  0.801378  0.590163  1
  O  O10  1  0.801378  0.590163  0.462995  1
  O  O11  1  0.409837  0.537005  0.198622  1
  O  O12  1  0.537005  0.198622  0.409837  1
  O  O13  1  0.198622  0.409837  0.537005  1
  O  O14  1  0.068921  0.907539  0.317689  1
  O  O15  1  0.907539  0.317689  0.068921  1
  O  O16  1  0.682311  0.931079  0.092461  1
  O  O17  1  0.092461  0.682311  0.931079  1
  O  O18  1  0.931079  0.092461  0.682311  1
  O  O19  1  0.317689  0.068921  0.907539  1
