# generated using pymatgen
data_ScU2(SnIr)3
_symmetry_space_group_name_H-M   'P 1'
_cell_length_a   7.41359761
_cell_length_b   7.41292939
_cell_length_c   3.96914600
_cell_angle_alpha   90.00000000
_cell_angle_beta   90.00000000
_cell_angle_gamma   121.18545748
_symmetry_Int_Tables_number   1
_chemical_formula_structural   ScU2(SnIr)3
_chemical_formula_sum   'Sc1 U2 Sn3 Ir3'
_cell_volume   186.60951615
_cell_formula_units_Z   1
loop_
 _symmetry_equiv_pos_site_id
 _symmetry_equiv_pos_as_xyz
  1  'x, y, z'
loop_
 _atom_site_type_symbol
 _atom_site_label
 _atom_site_symmetry_multiplicity
 _atom_site_fract_x
 _atom_site_fract_y
 _atom_site_fract_z
 _atom_site_occupancy
  Sc  Sc0  1  0.403597  0.403560  0.500000  1
  U  U1  1  0.589812  0.001872  0.500000  1
  U  U2  1  0.001837  0.589692  0.500000  1
  Sn  Sn3  1  0.728891  0.728894  0.000000  1
  Sn  Sn4  1  0.258568  0.013595  0.000000  1
  Sn  Sn5  1  0.013551  0.258574  0.000000  1
  Ir  Ir6  1  0.680750  0.330550  0.000000  1
  Ir  Ir7  1  0.330504  0.680763  0.000000  1
  Ir  Ir8  1  0.992491  0.992501  0.500000  1
