# generated using pymatgen
data_ScTl3Os3PbO13
_symmetry_space_group_name_H-M   'P 1'
_cell_length_a   7.50977758
_cell_length_b   7.55511222
_cell_length_c   7.50977639
_cell_angle_alpha   58.83811330
_cell_angle_beta   59.03575737
_cell_angle_gamma   58.83811597
_symmetry_Int_Tables_number   1
_chemical_formula_structural   ScTl3Os3PbO13
_chemical_formula_sum   'Sc1 Tl3 Os3 Pb1 O13'
_cell_volume   293.74782708
_cell_formula_units_Z   1
loop_
 _symmetry_equiv_pos_site_id
 _symmetry_equiv_pos_as_xyz
  1  'x, y, z'
loop_
 _atom_site_type_symbol
 _atom_site_label
 _atom_site_symmetry_multiplicity
 _atom_site_fract_x
 _atom_site_fract_y
 _atom_site_fract_z
 _atom_site_occupancy
  Sc  Sc0  1  0.500560  0.499696  0.500560  1
  Tl  Tl1  1  0.997928  0.998830  0.997928  1
  Tl  Tl2  1  0.511173  0.996697  0.997170  1
  Tl  Tl3  1  0.997170  0.996697  0.511173  1
  Os  Os4  1  0.999462  0.500466  0.500166  1
  Os  Os5  1  0.500166  0.500466  0.999462  1
  Os  Os6  1  0.499870  0.000099  0.499870  1
  Pb  Pb7  1  0.003180  0.497037  0.003180  1
  O  O8  1  0.837713  0.438476  0.418674  1
  O  O9  1  0.427016  0.811266  0.813890  1
  O  O10  1  0.418674  0.438476  0.837713  1
  O  O11  1  0.813890  0.811266  0.427016  1
  O  O12  1  0.807774  0.426576  0.807774  1
  O  O13  1  0.434780  0.833123  0.434780  1
  O  O14  1  0.163720  0.559935  0.579722  1
  O  O15  1  0.572376  0.189077  0.186265  1
  O  O16  1  0.579722  0.559935  0.163720  1
  O  O17  1  0.186265  0.189077  0.572376  1
  O  O18  1  0.191087  0.573340  0.191087  1
  O  O19  1  0.563738  0.168522  0.563738  1
  O  O20  1  0.118734  0.135941  0.118734  1
