# generated using pymatgen
data_Li4Pr2YErSi8
_symmetry_space_group_name_H-M   'P 1'
_cell_length_a   3.84788200
_cell_length_b   7.67485546
_cell_length_c   10.33753085
_cell_angle_alpha   90.42098780
_cell_angle_beta   90.00000000
_cell_angle_gamma   90.00000000
_symmetry_Int_Tables_number   1
_chemical_formula_structural   Li4Pr2YErSi8
_chemical_formula_sum   'Li4 Pr2 Y1 Er1 Si8'
_cell_volume   305.27908130
_cell_formula_units_Z   1
loop_
 _symmetry_equiv_pos_site_id
 _symmetry_equiv_pos_as_xyz
  1  'x, y, z'
loop_
 _atom_site_type_symbol
 _atom_site_label
 _atom_site_symmetry_multiplicity
 _atom_site_fract_x
 _atom_site_fract_y
 _atom_site_fract_z
 _atom_site_occupancy
  Li  Li0  1  0.250000  0.989294  0.393218  1
  Li  Li1  1  0.750000  0.010696  0.606496  1
  Li  Li2  1  0.250000  0.492591  0.110264  1
  Li  Li3  1  0.750000  0.507051  0.890185  1
  Pr  Pr4  1  0.250000  0.142854  0.863411  1
  Pr  Pr5  1  0.750000  0.857471  0.136811  1
  Y  Y6  1  0.250000  0.636419  0.634714  1
  Er  Er7  1  0.750000  0.364278  0.364732  1
  Si  Si8  1  0.750000  0.276725  0.077133  1
  Si  Si9  1  0.250000  0.723734  0.924337  1
  Si  Si10  1  0.750000  0.763244  0.435105  1
  Si  Si11  1  0.250000  0.236881  0.562768  1
  Si  Si12  1  0.750000  0.835280  0.816497  1
  Si  Si13  1  0.250000  0.165527  0.185136  1
  Si  Si14  1  0.750000  0.346350  0.672620  1
  Si  Si15  1  0.250000  0.651604  0.326570  1
