# generated using pymatgen
data_Ce2B8IrOs
_symmetry_space_group_name_H-M   'P 1'
_cell_length_a   7.06615798
_cell_length_b   7.06615737
_cell_length_c   7.06615875
_cell_angle_alpha   111.84636409
_cell_angle_beta   111.22853206
_cell_angle_gamma   105.41402880
_symmetry_Int_Tables_number   1
_chemical_formula_structural   Ce2B8IrOs
_chemical_formula_sum   'Ce4 B16 Ir2 Os2'
_cell_volume   270.57851532
_cell_formula_units_Z   2
loop_
 _symmetry_equiv_pos_site_id
 _symmetry_equiv_pos_as_xyz
  1  'x, y, z'
loop_
 _atom_site_type_symbol
 _atom_site_label
 _atom_site_symmetry_multiplicity
 _atom_site_fract_x
 _atom_site_fract_y
 _atom_site_fract_z
 _atom_site_occupancy
  Ce  Ce0  1  0.784887  0.784887  0.000000  1
  Ce  Ce1  1  0.215113  0.215113  0.000000  1
  Ce  Ce2  1  0.744459  0.244459  0.500000  1
  Ce  Ce3  1  0.255541  0.755541  0.500000  1
  B  B4  1  0.264646  0.107881  0.372527  1
  B  B5  1  0.735354  0.892119  0.627473  1
  B  B6  1  0.264646  0.892119  0.156765  1
  B  B7  1  0.735354  0.107881  0.843235  1
  B  B8  1  0.106506  0.735824  0.842330  1
  B  B9  1  0.893494  0.264176  0.157670  1
  B  B10  1  0.106506  0.264176  0.370681  1
  B  B11  1  0.893494  0.735824  0.629319  1
  B  B12  1  0.112715  0.112326  0.527000  1
  B  B13  1  0.585326  0.585715  0.473000  1
  B  B14  1  0.112715  0.585715  0.000389  1
  B  B15  1  0.585326  0.112326  0.999611  1
  B  B16  1  0.887285  0.887674  0.473000  1
  B  B17  1  0.414674  0.414285  0.527000  1
  B  B18  1  0.887285  0.414285  0.999611  1
  B  B19  1  0.414674  0.887674  0.000389  1
  Ir  Ir20  1  0.258320  0.500000  0.758320  1
  Ir  Ir21  1  0.741680  0.500000  0.241680  1
  Os  Os22  1  0.500000  0.737166  0.237166  1
  Os  Os23  1  0.500000  0.262834  0.762834  1
