# generated using pymatgen
data_Tb3Pr3Ho2(CdPt)2
_symmetry_space_group_name_H-M   'P 1'
_cell_length_a   9.83842886
_cell_length_b   9.83638980
_cell_length_c   9.83638921
_cell_angle_alpha   60.01370991
_cell_angle_beta   59.99314077
_cell_angle_gamma   59.99313916
_symmetry_Int_Tables_number   1
_chemical_formula_structural   Tb3Pr3Ho2(CdPt)2
_chemical_formula_sum   'Tb6 Pr6 Ho4 Cd4 Pt4'
_cell_volume   673.10391513
_cell_formula_units_Z   2
loop_
 _symmetry_equiv_pos_site_id
 _symmetry_equiv_pos_as_xyz
  1  'x, y, z'
loop_
 _atom_site_type_symbol
 _atom_site_label
 _atom_site_symmetry_multiplicity
 _atom_site_fract_x
 _atom_site_fract_y
 _atom_site_fract_z
 _atom_site_occupancy
  Tb  Tb0  1  0.349961  0.350716  0.350716  1
  Tb  Tb1  1  0.350716  0.349961  0.948607  1
  Tb  Tb2  1  0.350716  0.948607  0.349961  1
  Tb  Tb3  1  0.948607  0.350716  0.350716  1
  Tb  Tb4  1  0.812704  0.187296  0.187296  1
  Tb  Tb5  1  0.187296  0.812704  0.812704  1
  Pr  Pr6  1  0.938138  0.561862  0.561862  1
  Pr  Pr7  1  0.561862  0.938138  0.938138  1
  Pr  Pr8  1  0.561714  0.938286  0.561714  1
  Pr  Pr9  1  0.938286  0.561714  0.938286  1
  Pr  Pr10  1  0.561714  0.561714  0.938286  1
  Pr  Pr11  1  0.938286  0.938286  0.561714  1
  Ho  Ho12  1  0.187807  0.812193  0.187807  1
  Ho  Ho13  1  0.812193  0.187807  0.812193  1
  Ho  Ho14  1  0.187807  0.187807  0.812193  1
  Ho  Ho15  1  0.812193  0.812193  0.187807  1
  Cd  Cd16  1  0.579797  0.579404  0.579404  1
  Cd  Cd17  1  0.579404  0.579797  0.261395  1
  Cd  Cd18  1  0.579404  0.261395  0.579797  1
  Cd  Cd19  1  0.261395  0.579404  0.579404  1
  Pt  Pt20  1  0.143215  0.141975  0.141975  1
  Pt  Pt21  1  0.141975  0.143215  0.572835  1
  Pt  Pt22  1  0.141975  0.572835  0.143215  1
  Pt  Pt23  1  0.572835  0.141975  0.141975  1
