# generated using pymatgen
data_Y2ErCd3Ga2Ag
_symmetry_space_group_name_H-M   'P 1'
_cell_length_a   7.37741154
_cell_length_b   7.38801826
_cell_length_c   4.33534000
_cell_angle_alpha   90.00000000
_cell_angle_beta   90.00000000
_cell_angle_gamma   120.04757685
_symmetry_Int_Tables_number   1
_chemical_formula_structural   Y2ErCd3Ga2Ag
_chemical_formula_sum   'Y2 Er1 Cd3 Ga2 Ag1'
_cell_volume   204.53957934
_cell_formula_units_Z   1
loop_
 _symmetry_equiv_pos_site_id
 _symmetry_equiv_pos_as_xyz
  1  'x, y, z'
loop_
 _atom_site_type_symbol
 _atom_site_label
 _atom_site_symmetry_multiplicity
 _atom_site_fract_x
 _atom_site_fract_y
 _atom_site_fract_z
 _atom_site_occupancy
  Y  Y0  1  0.420630  0.420918  0.500000  1
  Y  Y1  1  0.579370  0.000288  0.500000  1
  Er  Er2  1  0.000000  0.579765  0.500000  1
  Cd  Cd3  1  0.748403  0.748021  0.000000  1
  Cd  Cd4  1  0.251597  0.999618  0.000000  1
  Cd  Cd5  1  0.000000  0.252836  0.000000  1
  Ga  Ga6  1  0.668612  0.334685  0.000000  1
  Ga  Ga7  1  0.331388  0.666073  0.000000  1
  Ag  Ag8  1  0.000000  0.997796  0.500000  1
