# generated using pymatgen
data_NdDy5(Ir5Rh)3
_symmetry_space_group_name_H-M   'P 1'
_cell_length_a   5.32095600
_cell_length_b   5.32095644
_cell_length_c   17.48909500
_cell_angle_alpha   90.00000000
_cell_angle_beta   90.00000000
_cell_angle_gamma   120.00000969
_symmetry_Int_Tables_number   1
_chemical_formula_structural   NdDy5(Ir5Rh)3
_chemical_formula_sum   'Nd1 Dy5 Ir15 Rh3'
_cell_volume   428.82223640
_cell_formula_units_Z   1
loop_
 _symmetry_equiv_pos_site_id
 _symmetry_equiv_pos_as_xyz
  1  'x, y, z'
loop_
 _atom_site_type_symbol
 _atom_site_label
 _atom_site_symmetry_multiplicity
 _atom_site_fract_x
 _atom_site_fract_y
 _atom_site_fract_z
 _atom_site_occupancy
  Nd  Nd0  1  0.666667  0.333333  0.250000  1
  Dy  Dy1  1  0.333333  0.666667  0.541588  1
  Dy  Dy2  1  0.666667  0.333333  0.040796  1
  Dy  Dy3  1  0.666667  0.333333  0.459204  1
  Dy  Dy4  1  0.333333  0.666667  0.958412  1
  Dy  Dy5  1  0.333333  0.666667  0.750000  1
  Ir  Ir6  1  0.167652  0.335302  0.125056  1
  Ir  Ir7  1  0.832457  0.664916  0.626140  1
  Ir  Ir8  1  0.664698  0.832348  0.125056  1
  Ir  Ir9  1  0.167652  0.832348  0.125056  1
  Ir  Ir10  1  0.832457  0.167543  0.626140  1
  Ir  Ir11  1  0.335084  0.167543  0.626140  1
  Ir  Ir12  1  0.832457  0.664916  0.873860  1
  Ir  Ir13  1  0.832457  0.167543  0.873860  1
  Ir  Ir14  1  0.335084  0.167543  0.873860  1
  Ir  Ir15  1  0.664698  0.832348  0.374944  1
  Ir  Ir16  1  0.167652  0.832348  0.374944  1
  Ir  Ir17  1  0.167652  0.335302  0.374944  1
  Ir  Ir18  1  0.000000  0.000000  0.750000  1
  Ir  Ir19  1  0.000000  0.000000  0.999720  1
  Ir  Ir20  1  0.000000  0.000000  0.500280  1
  Rh  Rh21  1  0.000000  0.000000  0.250000  1
  Rh  Rh22  1  0.333333  0.666667  0.250000  1
  Rh  Rh23  1  0.666667  0.333333  0.750000  1
