# generated using pymatgen
data_Na(LaCo)2
_symmetry_space_group_name_H-M   'P 1'
_cell_length_a   4.02202600
_cell_length_b   4.02202627
_cell_length_c   20.43825300
_cell_angle_alpha   90.00000000
_cell_angle_beta   90.00000000
_cell_angle_gamma   119.99999780
_symmetry_Int_Tables_number   1
_chemical_formula_structural   Na(LaCo)2
_chemical_formula_sum   'Na2 La4 Co4'
_cell_volume   286.32824318
_cell_formula_units_Z   2
loop_
 _symmetry_equiv_pos_site_id
 _symmetry_equiv_pos_as_xyz
  1  'x, y, z'
loop_
 _atom_site_type_symbol
 _atom_site_label
 _atom_site_symmetry_multiplicity
 _atom_site_fract_x
 _atom_site_fract_y
 _atom_site_fract_z
 _atom_site_occupancy
  Na  Na0  1  0.333333  0.666667  0.250000  1
  Na  Na1  1  0.666667  0.333333  0.750000  1
  La  La2  1  0.000000  0.000000  0.090883  1
  La  La3  1  0.000000  0.000000  0.909117  1
  La  La4  1  0.000000  0.000000  0.590883  1
  La  La5  1  0.000000  0.000000  0.409117  1
  Co  Co6  1  0.333333  0.666667  0.500037  1
  Co  Co7  1  0.666667  0.333333  0.499963  1
  Co  Co8  1  0.666667  0.333333  0.000037  1
  Co  Co9  1  0.333333  0.666667  0.999963  1
