# generated using pymatgen
data_Nd4Si10Ir5Os
_symmetry_space_group_name_H-M   'P 1'
_cell_length_a   8.27366659
_cell_length_b   8.27366741
_cell_length_c   8.27366700
_cell_angle_alpha   137.79703254
_cell_angle_beta   105.49779936
_cell_angle_gamma   89.54328763
_symmetry_Int_Tables_number   1
_chemical_formula_structural   Nd4Si10Ir5Os
_chemical_formula_sum   'Nd4 Si10 Ir5 Os1'
_cell_volume   350.48404954
_cell_formula_units_Z   1
loop_
 _symmetry_equiv_pos_site_id
 _symmetry_equiv_pos_as_xyz
  1  'x, y, z'
loop_
 _atom_site_type_symbol
 _atom_site_label
 _atom_site_symmetry_multiplicity
 _atom_site_fract_x
 _atom_site_fract_y
 _atom_site_fract_z
 _atom_site_occupancy
  Nd  Nd0  1  0.862738  0.630723  0.233240  1
  Nd  Nd1  1  0.137262  0.370502  0.767985  1
  Nd  Nd2  1  0.397485  0.129498  0.266760  1
  Nd  Nd3  1  0.602515  0.869277  0.732015  1
  Si  Si4  1  0.500000  0.750000  0.250000  1
  Si  Si5  1  0.500000  0.250000  0.750000  1
  Si  Si6  1  0.226082  0.976082  0.750000  1
  Si  Si7  1  0.773918  0.523918  0.750000  1
  Si  Si8  1  0.772714  0.022714  0.250000  1
  Si  Si9  1  0.227286  0.477286  0.250000  1
  Si  Si10  1  0.045917  0.891279  0.148685  1
  Si  Si11  1  0.954083  0.102769  0.845364  1
  Si  Si12  1  0.742594  0.397231  0.351315  1
  Si  Si13  1  0.257406  0.608721  0.654636  1
  Ir  Ir14  1  0.000000  0.250000  0.250000  1
  Ir  Ir15  1  0.248272  0.861638  0.388462  1
  Ir  Ir16  1  0.751728  0.140188  0.613365  1
  Ir  Ir17  1  0.473177  0.359812  0.111538  1
  Ir  Ir18  1  0.526823  0.638362  0.886635  1
  Os  Os19  1  0.000000  0.750000  0.750000  1
