# generated using pymatgen
data_Nd8MgSc11Sn16
_symmetry_space_group_name_H-M   'P 1'
_cell_length_a   7.82319800
_cell_length_b   7.91291012
_cell_length_c   14.95840100
_cell_angle_alpha   90.00000000
_cell_angle_beta   90.00000000
_cell_angle_gamma   89.82687951
_symmetry_Int_Tables_number   1
_chemical_formula_structural   Nd8MgSc11Sn16
_chemical_formula_sum   'Nd8 Mg1 Sc11 Sn16'
_cell_volume   925.98455710
_cell_formula_units_Z   1
loop_
 _symmetry_equiv_pos_site_id
 _symmetry_equiv_pos_as_xyz
  1  'x, y, z'
loop_
 _atom_site_type_symbol
 _atom_site_label
 _atom_site_symmetry_multiplicity
 _atom_site_fract_x
 _atom_site_fract_y
 _atom_site_fract_z
 _atom_site_occupancy
  Nd  Nd0  1  0.492727  0.671011  0.595232  1
  Nd  Nd1  1  0.988665  0.824678  0.904517  1
  Nd  Nd2  1  0.509510  0.327520  0.095750  1
  Nd  Nd3  1  0.010848  0.169985  0.404871  1
  Nd  Nd4  1  0.509510  0.327520  0.404250  1
  Nd  Nd5  1  0.010848  0.169985  0.095129  1
  Nd  Nd6  1  0.492727  0.671011  0.904768  1
  Nd  Nd7  1  0.988665  0.824678  0.595483  1
  Mg  Mg8  1  0.817470  0.500377  0.750000  1
  Sc  Sc9  1  0.653661  0.167536  0.624927  1
  Sc  Sc10  1  0.147876  0.335534  0.873758  1
  Sc  Sc11  1  0.346832  0.835864  0.125308  1
  Sc  Sc12  1  0.848464  0.666217  0.372937  1
  Sc  Sc13  1  0.346832  0.835864  0.374692  1
  Sc  Sc14  1  0.848464  0.666217  0.127063  1
  Sc  Sc15  1  0.653661  0.167536  0.875073  1
  Sc  Sc16  1  0.147876  0.335534  0.626242  1
  Sc  Sc17  1  0.319298  0.004107  0.750000  1
  Sc  Sc18  1  0.181710  0.504919  0.250000  1
  Sc  Sc19  1  0.682312  0.996360  0.250000  1
  Sn  Sn20  1  0.679385  0.956231  0.456966  1
  Sn  Sn21  1  0.178837  0.544203  0.042237  1
  Sn  Sn22  1  0.319851  0.042823  0.955534  1
  Sn  Sn23  1  0.820299  0.454232  0.539166  1
  Sn  Sn24  1  0.319851  0.042823  0.544466  1
  Sn  Sn25  1  0.820299  0.454232  0.960834  1
  Sn  Sn26  1  0.679385  0.956231  0.043034  1
  Sn  Sn27  1  0.178837  0.544203  0.457763  1
  Sn  Sn28  1  0.451368  0.367955  0.750000  1
  Sn  Sn29  1  0.954636  0.124777  0.750000  1
  Sn  Sn30  1  0.544175  0.631693  0.250000  1
  Sn  Sn31  1  0.045292  0.869227  0.250000  1
  Sn  Sn32  1  0.678586  0.866950  0.750000  1
  Sn  Sn33  1  0.190761  0.642287  0.750000  1
  Sn  Sn34  1  0.320031  0.140596  0.250000  1
  Sn  Sn35  1  0.820449  0.359086  0.250000  1
