# generated using pymatgen
data_Ta8V2SiB4P
_symmetry_space_group_name_H-M   'P 1'
_cell_length_a   7.18835471
_cell_length_b   7.18835456
_cell_length_c   7.18835407
_cell_angle_alpha   129.75768501
_cell_angle_beta   129.75769167
_cell_angle_gamma   73.79442995
_symmetry_Int_Tables_number   1
_chemical_formula_structural   Ta8V2SiB4P
_chemical_formula_sum   'Ta8 V2 Si1 B4 P1'
_cell_volume   214.14479827
_cell_formula_units_Z   1
loop_
 _symmetry_equiv_pos_site_id
 _symmetry_equiv_pos_as_xyz
  1  'x, y, z'
loop_
 _atom_site_type_symbol
 _atom_site_label
 _atom_site_symmetry_multiplicity
 _atom_site_fract_x
 _atom_site_fract_y
 _atom_site_fract_z
 _atom_site_occupancy
  Ta  Ta0  1  0.530415  0.691862  0.497239  1
  Ta  Ta1  1  0.033175  0.530415  0.838553  1
  Ta  Ta2  1  0.691862  0.194624  0.161447  1
  Ta  Ta3  1  0.969605  0.466781  0.161444  1
  Ta  Ta4  1  0.194624  0.033175  0.502761  1
  Ta  Ta5  1  0.466781  0.305336  0.497176  1
  Ta  Ta6  1  0.808161  0.969605  0.502824  1
  Ta  Ta7  1  0.305336  0.808161  0.838556  1
  V  V8  1  0.998942  0.998942  0.000000  1
  V  V9  1  0.501089  0.501089  0.000000  1
  Si  Si10  1  0.749994  0.749994  0.000000  1
  B  B11  1  0.620737  0.120728  0.741464  1
  B  B12  1  0.120728  0.379264  0.499991  1
  B  B13  1  0.879273  0.620737  0.500009  1
  B  B14  1  0.379264  0.879273  0.258536  1
  P  P15  1  0.250014  0.250014  0.000000  1
