# generated using pymatgen
data_Sc6Ti4Al12Ru3Rh4
_symmetry_space_group_name_H-M   'P 1'
_cell_length_a   8.81610411
_cell_length_b   8.80569535
_cell_length_c   8.82480300
_cell_angle_alpha   59.92819739
_cell_angle_beta   59.96735844
_cell_angle_gamma   60.07084837
_symmetry_Int_Tables_number   1
_chemical_formula_structural   Sc6Ti4Al12Ru3Rh4
_chemical_formula_sum   'Sc6 Ti4 Al12 Ru3 Rh4'
_cell_volume   484.30467288
_cell_formula_units_Z   1
loop_
 _symmetry_equiv_pos_site_id
 _symmetry_equiv_pos_as_xyz
  1  'x, y, z'
loop_
 _atom_site_type_symbol
 _atom_site_label
 _atom_site_symmetry_multiplicity
 _atom_site_fract_x
 _atom_site_fract_y
 _atom_site_fract_z
 _atom_site_occupancy
  Sc  Sc0  1  0.707771  0.287483  0.292196  1
  Sc  Sc1  1  0.707771  0.287483  0.712551  1
  Sc  Sc2  1  0.704150  0.711917  0.291967  1
  Sc  Sc3  1  0.293067  0.711495  0.706757  1
  Sc  Sc4  1  0.293067  0.711495  0.288681  1
  Sc  Sc5  1  0.296222  0.287340  0.708219  1
  Ti  Ti6  1  0.642507  0.117139  0.120176  1
  Ti  Ti7  1  0.118126  0.643866  0.119003  1
  Ti  Ti8  1  0.120829  0.118798  0.642918  1
  Ti  Ti9  1  0.120829  0.118798  0.117453  1
  Al  Al10  1  0.357903  0.881567  0.880265  1
  Al  Al11  1  0.881114  0.357751  0.880568  1
  Al  Al12  1  0.880043  0.880858  0.357725  1
  Al  Al13  1  0.880043  0.880858  0.881375  1
  Al  Al14  1  0.997815  0.334192  0.333997  1
  Al  Al15  1  0.332080  0.002524  0.332699  1
  Al  Al16  1  0.332739  0.333853  0.000209  1
  Al  Al17  1  0.332739  0.333853  0.333200  1
  Al  Al18  1  0.005433  0.664440  0.665064  1
  Al  Al19  1  0.666265  0.000186  0.666775  1
  Al  Al20  1  0.666158  0.665658  0.002736  1
  Al  Al21  1  0.666158  0.665658  0.665449  1
  Ru  Ru22  1  0.000006  0.000120  0.999937  1
  Ru  Ru23  1  0.498261  0.000993  0.001286  1
  Ru  Ru24  1  0.498261  0.000993  0.499460  1
  Rh  Rh25  1  0.498526  0.500445  0.000514  1
  Rh  Rh26  1  0.000667  0.500116  0.499049  1
  Rh  Rh27  1  0.000667  0.500116  0.000168  1
  Rh  Rh28  1  0.000786  0.000008  0.499603  1
