# generated using pymatgen
data_Ho6Lu6Th4Mg3Co4Cu
_symmetry_space_group_name_H-M   'P 1'
_cell_length_a   9.48281733
_cell_length_b   9.48281664
_cell_length_c   9.48281763
_cell_angle_alpha   59.91809469
_cell_angle_beta   59.91809674
_cell_angle_gamma   59.91809492
_symmetry_Int_Tables_number   1
_chemical_formula_structural   Ho6Lu6Th4Mg3Co4Cu
_chemical_formula_sum   'Ho6 Lu6 Th4 Mg3 Co4 Cu1'
_cell_volume   601.85170704
_cell_formula_units_Z   1
loop_
 _symmetry_equiv_pos_site_id
 _symmetry_equiv_pos_as_xyz
  1  'x, y, z'
loop_
 _atom_site_type_symbol
 _atom_site_label
 _atom_site_symmetry_multiplicity
 _atom_site_fract_x
 _atom_site_fract_y
 _atom_site_fract_z
 _atom_site_occupancy
  Ho  Ho0  1  0.928750  0.564730  0.564730  1
  Ho  Ho1  1  0.564211  0.935349  0.935349  1
  Ho  Ho2  1  0.564730  0.928750  0.564730  1
  Ho  Ho3  1  0.935349  0.564211  0.935349  1
  Ho  Ho4  1  0.564730  0.564730  0.928750  1
  Ho  Ho5  1  0.935349  0.935349  0.564211  1
  Lu  Lu6  1  0.813966  0.185278  0.185278  1
  Lu  Lu7  1  0.185156  0.814676  0.814676  1
  Lu  Lu8  1  0.185278  0.813966  0.185278  1
  Lu  Lu9  1  0.814676  0.185156  0.814676  1
  Lu  Lu10  1  0.185278  0.185278  0.813966  1
  Lu  Lu11  1  0.814676  0.814676  0.185156  1
  Th  Th12  1  0.345400  0.345400  0.345400  1
  Th  Th13  1  0.346940  0.346940  0.960514  1
  Th  Th14  1  0.346940  0.960514  0.346940  1
  Th  Th15  1  0.960514  0.346940  0.346940  1
  Mg  Mg16  1  0.580101  0.580101  0.265053  1
  Mg  Mg17  1  0.580101  0.265053  0.580101  1
  Mg  Mg18  1  0.265053  0.580101  0.580101  1
  Co  Co19  1  0.143440  0.143440  0.143440  1
  Co  Co20  1  0.143597  0.143597  0.568240  1
  Co  Co21  1  0.143597  0.568240  0.143597  1
  Co  Co22  1  0.568240  0.143597  0.143597  1
  Cu  Cu23  1  0.583929  0.583929  0.583929  1
