# generated using pymatgen
data_FeRe(Sb6Pt)2
_symmetry_space_group_name_H-M   'P 1'
_cell_length_a   8.16278788
_cell_length_b   8.11619607
_cell_length_c   8.11179200
_cell_angle_alpha   109.34803022
_cell_angle_beta   109.57232236
_cell_angle_gamma   109.65039411
_symmetry_Int_Tables_number   1
_chemical_formula_structural   FeRe(Sb6Pt)2
_chemical_formula_sum   'Fe1 Re1 Sb12 Pt2'
_cell_volume   412.89413117
_cell_formula_units_Z   1
loop_
 _symmetry_equiv_pos_site_id
 _symmetry_equiv_pos_as_xyz
  1  'x, y, z'
loop_
 _atom_site_type_symbol
 _atom_site_label
 _atom_site_symmetry_multiplicity
 _atom_site_fract_x
 _atom_site_fract_y
 _atom_site_fract_z
 _atom_site_occupancy
  Fe  Fe0  1  0.500000  0.000000  0.000000  1
  Re  Re1  1  0.000000  0.500000  0.000000  1
  Sb  Sb2  1  0.167347  0.820968  0.674175  1
  Sb  Sb3  1  0.832653  0.179032  0.325825  1
  Sb  Sb4  1  0.850404  0.505082  0.661047  1
  Sb  Sb5  1  0.149596  0.494918  0.338953  1
  Sb  Sb6  1  0.810746  0.654300  0.148996  1
  Sb  Sb7  1  0.189254  0.345700  0.851004  1
  Sb  Sb8  1  0.507511  0.674369  0.853169  1
  Sb  Sb9  1  0.492489  0.325631  0.146831  1
  Sb  Sb10  1  0.663492  0.151608  0.828503  1
  Sb  Sb11  1  0.336508  0.848392  0.171497  1
  Sb  Sb12  1  0.653309  0.848866  0.501329  1
  Sb  Sb13  1  0.346691  0.151134  0.498671  1
  Pt  Pt14  1  0.000000  0.000000  0.500000  1
  Pt  Pt15  1  0.500000  0.500000  0.500000  1
