# generated using pymatgen
data_La4Ga5Si5Pt6
_symmetry_space_group_name_H-M   'P 1'
_cell_length_a   8.52389230
_cell_length_b   8.53782022
_cell_length_c   8.53782140
_cell_angle_alpha   138.11818432
_cell_angle_beta   106.37712604
_cell_angle_gamma   88.50645102
_symmetry_Int_Tables_number   1
_chemical_formula_structural   La4Ga5Si5Pt6
_chemical_formula_sum   'La4 Ga5 Si5 Pt6'
_cell_volume   381.22777024
_cell_formula_units_Z   1
loop_
 _symmetry_equiv_pos_site_id
 _symmetry_equiv_pos_as_xyz
  1  'x, y, z'
loop_
 _atom_site_type_symbol
 _atom_site_label
 _atom_site_symmetry_multiplicity
 _atom_site_fract_x
 _atom_site_fract_y
 _atom_site_fract_z
 _atom_site_occupancy
  La  La0  1  0.636034  0.370024  0.266010  1
  La  La1  1  0.362348  0.631354  0.730994  1
  La  La2  1  0.101984  0.868860  0.233124  1
  La  La3  1  0.896642  0.131139  0.765503  1
  Ga  Ga4  1  0.269735  0.523140  0.251753  1
  Ga  Ga5  1  0.732193  0.484811  0.755216  1
  Ga  Ga6  1  0.732193  0.976977  0.247381  1
  Ga  Ga7  1  0.269735  0.017983  0.746596  1
  Ga  Ga8  1  0.460028  0.108320  0.351708  1
  Si  Si9  1  0.541227  0.893179  0.648047  1
  Si  Si10  1  0.758180  0.609368  0.148812  1
  Si  Si11  1  0.246631  0.393955  0.852677  1
  Si  Si12  1  0.998073  0.250011  0.250884  1
  Si  Si13  1  0.998073  0.747191  0.748062  1
  Pt  Pt14  1  0.234583  0.128415  0.106169  1
  Pt  Pt15  1  0.755725  0.872781  0.882944  1
  Pt  Pt16  1  0.011185  0.627178  0.384008  1
  Pt  Pt17  1  0.989265  0.372221  0.617043  1
  Pt  Pt18  1  0.503082  0.252526  0.762512  1
  Pt  Pt19  1  0.503082  0.740568  0.250556  1
