# generated using pymatgen
data_Sr2CaAg3Sn2Pb
_symmetry_space_group_name_H-M   'P 1'
_cell_length_a   4.92601600
_cell_length_b   4.92601514
_cell_length_c   12.08898200
_cell_angle_alpha   90.00000000
_cell_angle_beta   90.00000000
_cell_angle_gamma   120.00000579
_symmetry_Int_Tables_number   1
_chemical_formula_structural   Sr2CaAg3Sn2Pb
_chemical_formula_sum   'Sr2 Ca1 Ag3 Sn2 Pb1'
_cell_volume   254.04572874
_cell_formula_units_Z   1
loop_
 _symmetry_equiv_pos_site_id
 _symmetry_equiv_pos_as_xyz
  1  'x, y, z'
loop_
 _atom_site_type_symbol
 _atom_site_label
 _atom_site_symmetry_multiplicity
 _atom_site_fract_x
 _atom_site_fract_y
 _atom_site_fract_z
 _atom_site_occupancy
  Sr  Sr0  1  0.666667  0.333333  0.680247  1
  Sr  Sr1  1  0.666667  0.333333  0.319753  1
  Ca  Ca2  1  0.666667  0.333333  0.000000  1
  Ag  Ag3  1  0.000000  0.000000  0.849468  1
  Ag  Ag4  1  0.000000  0.000000  0.150532  1
  Ag  Ag5  1  0.333333  0.666667  0.500000  1
  Sn  Sn6  1  0.333333  0.666667  0.869721  1
  Sn  Sn7  1  0.333333  0.666667  0.130279  1
  Pb  Pb8  1  0.000000  0.000000  0.500000  1
