# generated using pymatgen
data_Dy2MnFeOs2
_symmetry_space_group_name_H-M   'P 1'
_cell_length_a   5.27513176
_cell_length_b   5.27513233
_cell_length_c   5.29685271
_cell_angle_alpha   60.60177188
_cell_angle_beta   60.60177098
_cell_angle_gamma   59.34282781
_symmetry_Int_Tables_number   1
_chemical_formula_structural   Dy2MnFeOs2
_chemical_formula_sum   'Dy2 Mn1 Fe1 Os2'
_cell_volume   104.62108478
_cell_formula_units_Z   1
loop_
 _symmetry_equiv_pos_site_id
 _symmetry_equiv_pos_as_xyz
  1  'x, y, z'
loop_
 _atom_site_type_symbol
 _atom_site_label
 _atom_site_symmetry_multiplicity
 _atom_site_fract_x
 _atom_site_fract_y
 _atom_site_fract_z
 _atom_site_occupancy
  Dy  Dy0  1  0.623079  0.623079  0.628886  1
  Dy  Dy1  1  0.376921  0.376921  0.371114  1
  Mn  Mn2  1  0.000000  0.000000  0.500000  1
  Fe  Fe3  1  0.000000  0.000000  0.000000  1
  Os  Os4  1  0.000000  0.500000  0.000000  1
  Os  Os5  1  0.500000  0.000000  0.000000  1
