# generated using pymatgen
data_Li2Gd3HfIr3
_symmetry_space_group_name_H-M   'P 1'
_cell_length_a   7.29930300
_cell_length_b   7.26839667
_cell_length_c   4.01216000
_cell_angle_alpha   90.00000000
_cell_angle_beta   90.00000000
_cell_angle_gamma   119.86003771
_symmetry_Int_Tables_number   1
_chemical_formula_structural   Li2Gd3HfIr3
_chemical_formula_sum   'Li2 Gd3 Hf1 Ir3'
_cell_volume   184.60338936
_cell_formula_units_Z   1
loop_
 _symmetry_equiv_pos_site_id
 _symmetry_equiv_pos_as_xyz
  1  'x, y, z'
loop_
 _atom_site_type_symbol
 _atom_site_label
 _atom_site_symmetry_multiplicity
 _atom_site_fract_x
 _atom_site_fract_y
 _atom_site_fract_z
 _atom_site_occupancy
  Li  Li0  1  0.753862  0.758313  0.500000  1
  Li  Li1  1  0.246138  0.004451  0.500000  1
  Gd  Gd2  1  0.428107  0.416163  0.000000  1
  Gd  Gd3  1  0.571893  0.988055  0.000000  1
  Gd  Gd4  1  0.000000  0.608765  0.000000  1
  Hf  Hf5  1  0.000000  0.243211  0.500000  1
  Ir  Ir6  1  0.000000  0.016934  0.000000  1
  Ir  Ir7  1  0.316978  0.640543  0.500000  1
  Ir  Ir8  1  0.683022  0.323563  0.500000  1
