# generated using pymatgen
data_Rb6Nb4SbAsSe22
_symmetry_space_group_name_H-M   'P 1'
_cell_length_a   10.22008827
_cell_length_b   10.44672682
_cell_length_c   10.44275065
_cell_angle_alpha   83.55654385
_cell_angle_beta   95.99726997
_cell_angle_gamma   96.27893033
_symmetry_Int_Tables_number   1
_chemical_formula_structural   Rb6Nb4SbAsSe22
_chemical_formula_sum   'Rb6 Nb4 Sb1 As1 Se22'
_cell_volume   1096.43757238
_cell_formula_units_Z   1
loop_
 _symmetry_equiv_pos_site_id
 _symmetry_equiv_pos_as_xyz
  1  'x, y, z'
loop_
 _atom_site_type_symbol
 _atom_site_label
 _atom_site_symmetry_multiplicity
 _atom_site_fract_x
 _atom_site_fract_y
 _atom_site_fract_z
 _atom_site_occupancy
  Rb  Rb0  1  0.018161  0.852811  0.009860  1
  Rb  Rb1  1  0.184626  0.248243  0.110954  1
  Rb  Rb2  1  0.684649  0.111221  0.248629  1
  Rb  Rb3  1  0.927071  0.644874  0.486197  1
  Rb  Rb4  1  0.427462  0.481392  0.644806  1
  Rb  Rb5  1  0.521800  0.013640  0.858752  1
  Nb  Nb6  1  0.598951  0.498419  0.092518  1
  Nb  Nb7  1  0.412782  0.749395  0.204983  1
  Nb  Nb8  1  0.098573  0.093993  0.499109  1
  Nb  Nb9  1  0.913358  0.207348  0.751664  1
  Sb  Sb10  1  0.373721  0.873251  0.548558  1
  As  As11  1  0.862757  0.548573  0.876198  1
  Se  Se12  1  0.851861  0.459923  0.098448  1
  Se  Se13  1  0.212648  0.599161  0.106551  1
  Se  Se14  1  0.355775  0.961302  0.128083  1
  Se  Se15  1  0.668224  0.763394  0.175493  1
  Se  Se16  1  0.437813  0.474955  0.274904  1
  Se  Se17  1  0.015545  0.981242  0.318067  1
  Se  Se18  1  0.658970  0.423659  0.336606  1
  Se  Se19  1  0.603850  0.779378  0.390198  1
  Se  Se20  1  0.252623  0.712265  0.395550  1
  Se  Se21  1  0.157539  0.337826  0.422764  1
  Se  Se22  1  0.354285  0.110410  0.458886  1
  Se  Se23  1  0.936478  0.275073  0.476063  1
  Se  Se24  1  0.711125  0.109991  0.600841  1
  Se  Se25  1  0.896444  0.982435  0.645524  1
  Se  Se26  1  0.169970  0.899053  0.681877  1
  Se  Se27  1  0.758602  0.401785  0.723326  1
  Se  Se28  1  0.167891  0.176799  0.762514  1
  Se  Se29  1  0.104666  0.390592  0.780474  1
  Se  Se30  1  0.675321  0.675873  0.895363  1
  Se  Se31  1  0.855386  0.127482  0.963248  1
  Se  Se32  1  0.399050  0.644662  0.980121  1
  Se  Se33  1  0.514307  0.317218  0.980515  1
