# generated using pymatgen
data_Ta7Sn
_symmetry_space_group_name_H-M   'P 1'
_cell_length_a   5.31490200
_cell_length_b   5.31490200
_cell_length_c   5.31490200
_cell_angle_alpha   90.00000000
_cell_angle_beta   90.00000000
_cell_angle_gamma   90.00000000
_symmetry_Int_Tables_number   1
_chemical_formula_structural   Ta7Sn
_chemical_formula_sum   'Ta7 Sn1'
_cell_volume   150.13632576
_cell_formula_units_Z   1
loop_
 _symmetry_equiv_pos_site_id
 _symmetry_equiv_pos_as_xyz
  1  'x, y, z'
loop_
 _atom_site_type_symbol
 _atom_site_label
 _atom_site_symmetry_multiplicity
 _atom_site_fract_x
 _atom_site_fract_y
 _atom_site_fract_z
 _atom_site_occupancy
  Ta  Ta0  1  0.244525  0.000000  0.500000  1
  Ta  Ta1  1  0.755475  0.000000  0.500000  1
  Ta  Ta2  1  0.000000  0.500000  0.244525  1
  Ta  Ta3  1  0.000000  0.500000  0.755475  1
  Ta  Ta4  1  0.500000  0.755475  0.000000  1
  Ta  Ta5  1  0.500000  0.244525  0.000000  1
  Ta  Ta6  1  0.000000  0.000000  0.000000  1
  Sn  Sn7  1  0.500000  0.500000  0.500000  1
