# generated using pymatgen
data_Cs3SmBr6
_symmetry_space_group_name_H-M   'P 1'
_cell_length_a   10.09128400
_cell_length_b   10.09128400
_cell_length_c   8.38997200
_cell_angle_alpha   90.00000000
_cell_angle_beta   90.00000000
_cell_angle_gamma   90.00000000
_symmetry_Int_Tables_number   1
_chemical_formula_structural   Cs3SmBr6
_chemical_formula_sum   'Cs6 Sm2 Br12'
_cell_volume   854.38451578
_cell_formula_units_Z   2
loop_
 _symmetry_equiv_pos_site_id
 _symmetry_equiv_pos_as_xyz
  1  'x, y, z'
loop_
 _atom_site_type_symbol
 _atom_site_label
 _atom_site_symmetry_multiplicity
 _atom_site_fract_x
 _atom_site_fract_y
 _atom_site_fract_z
 _atom_site_occupancy
  Cs  Cs0  1  0.000000  0.000000  0.500000  1
  Cs  Cs1  1  0.000000  0.000000  0.000000  1
  Cs  Cs2  1  0.234927  0.585313  0.500000  1
  Cs  Cs3  1  0.765073  0.414687  0.500000  1
  Cs  Cs4  1  0.414687  0.234927  0.000000  1
  Cs  Cs5  1  0.585313  0.765073  0.000000  1
  Sm  Sm6  1  0.500000  0.000000  0.500000  1
  Sm  Sm7  1  0.000000  0.500000  0.000000  1
  Br  Br8  1  0.694000  0.058878  0.742687  1
  Br  Br9  1  0.306000  0.941122  0.742687  1
  Br  Br10  1  0.941122  0.694000  0.242687  1
  Br  Br11  1  0.058878  0.306000  0.242687  1
  Br  Br12  1  0.306000  0.941122  0.257313  1
  Br  Br13  1  0.694000  0.058878  0.257313  1
  Br  Br14  1  0.058878  0.306000  0.757313  1
  Br  Br15  1  0.941122  0.694000  0.757313  1
  Br  Br16  1  0.570057  0.725521  0.500000  1
  Br  Br17  1  0.429943  0.274479  0.500000  1
  Br  Br18  1  0.274479  0.570057  0.000000  1
  Br  Br19  1  0.725521  0.429943  0.000000  1
