# generated using pymatgen
data_Tb4Ga4Ru3Pt
_symmetry_space_group_name_H-M   'P 1'
_cell_length_a   4.34063900
_cell_length_b   6.94343654
_cell_length_c   7.77360259
_cell_angle_alpha   89.80125127
_cell_angle_beta   90.00000000
_cell_angle_gamma   90.00000000
_symmetry_Int_Tables_number   1
_chemical_formula_structural   Tb4Ga4Ru3Pt
_chemical_formula_sum   'Tb4 Ga4 Ru3 Pt1'
_cell_volume   234.28682125
_cell_formula_units_Z   1
loop_
 _symmetry_equiv_pos_site_id
 _symmetry_equiv_pos_as_xyz
  1  'x, y, z'
loop_
 _atom_site_type_symbol
 _atom_site_label
 _atom_site_symmetry_multiplicity
 _atom_site_fract_x
 _atom_site_fract_y
 _atom_site_fract_z
 _atom_site_occupancy
  Tb  Tb0  1  0.750000  0.516044  0.808158  1
  Tb  Tb1  1  0.250000  0.981319  0.307732  1
  Tb  Tb2  1  0.250000  0.485078  0.188259  1
  Tb  Tb3  1  0.750000  0.013719  0.696098  1
  Ga  Ga4  1  0.750000  0.673944  0.423270  1
  Ga  Ga5  1  0.250000  0.337545  0.582152  1
  Ga  Ga6  1  0.750000  0.167104  0.072361  1
  Ga  Ga7  1  0.250000  0.829956  0.923743  1
  Ru  Ru8  1  0.250000  0.721022  0.600043  1
  Ru  Ru9  1  0.250000  0.212894  0.898269  1
  Ru  Ru10  1  0.750000  0.780118  0.100415  1
  Pt  Pt11  1  0.750000  0.281257  0.399502  1
