# generated using pymatgen
data_Sm3SiI3
_symmetry_space_group_name_H-M   'P 1'
_cell_length_a   10.66432181
_cell_length_b   10.66432264
_cell_length_c   10.66432200
_cell_angle_alpha   109.47121943
_cell_angle_beta   109.47122100
_cell_angle_gamma   109.47122138
_symmetry_Int_Tables_number   1
_chemical_formula_structural   Sm3SiI3
_chemical_formula_sum   'Sm12 Si4 I12'
_cell_volume   933.63661868
_cell_formula_units_Z   4
loop_
 _symmetry_equiv_pos_site_id
 _symmetry_equiv_pos_as_xyz
  1  'x, y, z'
loop_
 _atom_site_type_symbol
 _atom_site_label
 _atom_site_symmetry_multiplicity
 _atom_site_fract_x
 _atom_site_fract_y
 _atom_site_fract_z
 _atom_site_occupancy
  Sm  Sm0  1  0.463910  0.481955  0.231955  1
  Sm  Sm1  1  0.750000  0.231955  0.268045  1
  Sm  Sm2  1  0.750000  0.018045  0.481955  1
  Sm  Sm3  1  0.231955  0.463910  0.481955  1
  Sm  Sm4  1  0.268045  0.750000  0.231955  1
  Sm  Sm5  1  0.036090  0.268045  0.018045  1
  Sm  Sm6  1  0.018045  0.036090  0.268045  1
  Sm  Sm7  1  0.481955  0.750000  0.018045  1
  Sm  Sm8  1  0.481955  0.231955  0.463910  1
  Sm  Sm9  1  0.018045  0.481955  0.750000  1
  Sm  Sm10  1  0.268045  0.018045  0.036090  1
  Sm  Sm11  1  0.231955  0.268045  0.750000  1
  Si  Si12  1  0.250000  0.250000  0.250000  1
  Si  Si13  1  0.500000  0.000000  0.250000  1
  Si  Si14  1  0.000000  0.250000  0.500000  1
  Si  Si15  1  0.250000  0.500000  0.000000  1
  I  I16  1  0.250000  0.757618  0.742382  1
  I  I17  1  0.515235  0.507618  0.757618  1
  I  I18  1  0.984765  0.742382  0.992382  1
  I  I19  1  0.742382  0.250000  0.757618  1
  I  I20  1  0.992382  0.984765  0.742382  1
  I  I21  1  0.250000  0.992382  0.507618  1
  I  I22  1  0.757618  0.515235  0.507618  1
  I  I23  1  0.507618  0.250000  0.992382  1
  I  I24  1  0.757618  0.742382  0.250000  1
  I  I25  1  0.742382  0.992382  0.984765  1
  I  I26  1  0.992382  0.507618  0.250000  1
  I  I27  1  0.507618  0.757618  0.515235  1
