# generated using pymatgen
data_TmS23
_symmetry_space_group_name_H-M   'P 1'
_cell_length_a   5.59544714
_cell_length_b   9.59366147
_cell_length_c   16.29899500
_cell_angle_alpha   82.42591977
_cell_angle_beta   85.98404499
_cell_angle_gamma   91.36398319
_symmetry_Int_Tables_number   1
_chemical_formula_structural   TmS23
_chemical_formula_sum   'Tm1 S23'
_cell_volume   864.69732289
_cell_formula_units_Z   1
loop_
 _symmetry_equiv_pos_site_id
 _symmetry_equiv_pos_as_xyz
  1  'x, y, z'
loop_
 _atom_site_type_symbol
 _atom_site_label
 _atom_site_symmetry_multiplicity
 _atom_site_fract_x
 _atom_site_fract_y
 _atom_site_fract_z
 _atom_site_occupancy
  Tm  Tm0  1  0.618204  0.171743  0.431073  1
  S  S1  1  0.738016  0.925393  0.396715  1
  S  S2  1  0.018400  0.302509  0.099860  1
  S  S3  1  0.784053  0.223615  0.567428  1
  S  S4  1  0.467896  0.892342  0.489987  1
  S  S5  1  0.172391  0.280006  0.983681  1
  S  S6  1  0.815700  0.742260  0.026372  1
  S  S7  1  0.136781  0.197201  0.382733  1
  S  S8  1  0.602322  0.403662  0.313420  1
  S  S9  1  0.854482  0.112855  0.151846  1
  S  S10  1  0.267114  0.875119  0.118968  1
  S  S11  1  0.700099  0.648407  0.628751  1
  S  S12  1  0.305374  0.437581  0.563998  1
  S  S13  1  0.148868  0.901741  0.860659  1
  S  S14  1  0.733575  0.140080  0.886984  1
  S  S15  1  0.062721  0.694841  0.113514  1
  S  S16  1  0.609850  0.854318  0.607449  1
  S  S17  1  0.418423  0.228395  0.586855  1
  S  S18  1  0.968162  0.716188  0.910425  1
  S  S19  1  0.924545  0.323611  0.896389  1
  S  S20  1  0.246583  0.379768  0.309821  1
  S  S21  1  0.107880  0.986085  0.207168  1
  S  S22  1  0.386649  0.528544  0.665736  1
  S  S23  1  0.911911  0.033732  0.800170  1
