# generated using pymatgen
data_Hg4SF6
_symmetry_space_group_name_H-M   'P 1'
_cell_length_a   8.08055300
_cell_length_b   8.08055300
_cell_length_c   5.94589300
_cell_angle_alpha   90.00000000
_cell_angle_beta   90.00000000
_cell_angle_gamma   90.00000000
_symmetry_Int_Tables_number   1
_chemical_formula_structural   Hg4SF6
_chemical_formula_sum   'Hg8 S2 F12'
_cell_volume   388.23908593
_cell_formula_units_Z   2
loop_
 _symmetry_equiv_pos_site_id
 _symmetry_equiv_pos_as_xyz
  1  'x, y, z'
loop_
 _atom_site_type_symbol
 _atom_site_label
 _atom_site_symmetry_multiplicity
 _atom_site_fract_x
 _atom_site_fract_y
 _atom_site_fract_z
 _atom_site_occupancy
  Hg  Hg0  1  0.500000  0.755429  0.221912  1
  Hg  Hg1  1  0.500000  0.244571  0.221912  1
  Hg  Hg2  1  0.255429  0.000000  0.721912  1
  Hg  Hg3  1  0.744571  0.000000  0.721912  1
  Hg  Hg4  1  0.000000  0.744571  0.278088  1
  Hg  Hg5  1  0.000000  0.255429  0.278088  1
  Hg  Hg6  1  0.244571  0.500000  0.778088  1
  Hg  Hg7  1  0.755429  0.500000  0.778088  1
  S  S8  1  0.000000  0.000000  0.500000  1
  S  S9  1  0.500000  0.500000  0.000000  1
  F  F10  1  0.285585  0.285585  0.500000  1
  F  F11  1  0.285585  0.714415  0.500000  1
  F  F12  1  0.714415  0.285585  0.500000  1
  F  F13  1  0.714415  0.714415  0.500000  1
  F  F14  1  0.785585  0.785585  0.000000  1
  F  F15  1  0.785585  0.214415  0.000000  1
  F  F16  1  0.214415  0.785585  0.000000  1
  F  F17  1  0.214415  0.214415  0.000000  1
  F  F18  1  0.500000  0.000000  0.903507  1
  F  F19  1  0.500000  0.000000  0.403507  1
  F  F20  1  0.000000  0.500000  0.596493  1
  F  F21  1  0.000000  0.500000  0.096493  1
