# generated using pymatgen
data_Ce4B20IrOs
_symmetry_space_group_name_H-M   'P 1'
_cell_length_a   4.18927400
_cell_length_b   5.71519700
_cell_length_c   11.41269270
_cell_angle_alpha   89.66830110
_cell_angle_beta   90.00000000
_cell_angle_gamma   90.00000000
_symmetry_Int_Tables_number   1
_chemical_formula_structural   Ce4B20IrOs
_chemical_formula_sum   'Ce4 B20 Ir1 Os1'
_cell_volume   273.24411494
_cell_formula_units_Z   1
loop_
 _symmetry_equiv_pos_site_id
 _symmetry_equiv_pos_as_xyz
  1  'x, y, z'
loop_
 _atom_site_type_symbol
 _atom_site_label
 _atom_site_symmetry_multiplicity
 _atom_site_fract_x
 _atom_site_fract_y
 _atom_site_fract_z
 _atom_site_occupancy
  Ce  Ce0  1  0.500000  0.282350  0.868906  1
  Ce  Ce1  1  0.500000  0.717650  0.131094  1
  Ce  Ce2  1  0.500000  0.790685  0.634428  1
  Ce  Ce3  1  0.500000  0.209315  0.365572  1
  B  B4  1  0.000000  0.117428  0.542769  1
  B  B5  1  0.000000  0.882572  0.457231  1
  B  B6  1  0.000000  0.618401  0.957280  1
  B  B7  1  0.000000  0.381599  0.042720  1
  B  B8  1  0.000000  0.134208  0.696771  1
  B  B9  1  0.000000  0.865792  0.303229  1
  B  B10  1  0.301241  0.220961  0.118802  1
  B  B11  1  0.301241  0.779039  0.881198  1
  B  B12  1  0.697944  0.720548  0.381140  1
  B  B13  1  0.697944  0.279452  0.618860  1
  B  B14  1  0.698759  0.779039  0.881198  1
  B  B15  1  0.698759  0.220961  0.118802  1
  B  B16  1  0.302056  0.279452  0.618860  1
  B  B17  1  0.302056  0.720548  0.381140  1
  B  B18  1  0.000000  0.057233  0.193245  1
  B  B19  1  0.000000  0.942767  0.806755  1
  B  B20  1  0.000000  0.557440  0.306698  1
  B  B21  1  0.000000  0.442560  0.693302  1
  B  B22  1  0.000000  0.366143  0.197644  1
  B  B23  1  0.000000  0.633857  0.802356  1
  Ir  Ir24  1  0.000000  0.500000  0.500000  1
  Os  Os25  1  0.000000  0.000000  0.000000  1
