# generated using pymatgen
data_Ho2ErSiAg3Ge2
_symmetry_space_group_name_H-M   'P 1'
_cell_length_a   7.11606502
_cell_length_b   7.11672740
_cell_length_c   4.19057500
_cell_angle_alpha   90.00000000
_cell_angle_beta   90.00000000
_cell_angle_gamma   119.96925511
_symmetry_Int_Tables_number   1
_chemical_formula_structural   Ho2ErSiAg3Ge2
_chemical_formula_sum   'Ho2 Er1 Si1 Ag3 Ge2'
_cell_volume   183.84801779
_cell_formula_units_Z   1
loop_
 _symmetry_equiv_pos_site_id
 _symmetry_equiv_pos_as_xyz
  1  'x, y, z'
loop_
 _atom_site_type_symbol
 _atom_site_label
 _atom_site_symmetry_multiplicity
 _atom_site_fract_x
 _atom_site_fract_y
 _atom_site_fract_z
 _atom_site_occupancy
  Ho  Ho0  1  0.418950  0.001844  0.500000  1
  Ho  Ho1  1  0.998398  0.417218  0.500000  1
  Er  Er2  1  0.582855  0.581175  0.500000  1
  Si  Si3  1  0.666416  0.333733  0.000000  1
  Ag  Ag4  1  0.748220  0.004388  0.000000  1
  Ag  Ag5  1  0.995203  0.743596  0.000000  1
  Ag  Ag6  1  0.256611  0.252004  0.000000  1
  Ge  Ge7  1  0.333752  0.666431  0.000000  1
  Ge  Ge8  1  0.999597  0.999612  0.500000  1
