# generated using pymatgen
data_Dy5Tm5(In2Pd)4
_symmetry_space_group_name_H-M   'P 1'
_cell_length_a   8.09745900
_cell_length_b   18.32582420
_cell_length_c   3.60734500
_cell_angle_alpha   90.00000000
_cell_angle_beta   90.00000000
_cell_angle_gamma   90.20403614
_symmetry_Int_Tables_number   1
_chemical_formula_structural   Dy5Tm5(In2Pd)4
_chemical_formula_sum   'Dy5 Tm5 In8 Pd4'
_cell_volume   535.29994584
_cell_formula_units_Z   1
loop_
 _symmetry_equiv_pos_site_id
 _symmetry_equiv_pos_as_xyz
  1  'x, y, z'
loop_
 _atom_site_type_symbol
 _atom_site_label
 _atom_site_symmetry_multiplicity
 _atom_site_fract_x
 _atom_site_fract_y
 _atom_site_fract_z
 _atom_site_occupancy
  Dy  Dy0  1  0.499761  0.499698  0.000000  1
  Dy  Dy1  1  0.000273  0.000492  0.000000  1
  Dy  Dy2  1  0.381072  0.917393  0.000000  1
  Dy  Dy3  1  0.880664  0.583107  0.000000  1
  Dy  Dy4  1  0.119148  0.416541  0.000000  1
  Tm  Tm5  1  0.744102  0.278311  0.000000  1
  Tm  Tm6  1  0.255662  0.721641  0.000000  1
  Tm  Tm7  1  0.755633  0.779306  0.000000  1
  Tm  Tm8  1  0.243623  0.220254  0.000000  1
  Tm  Tm9  1  0.618998  0.084125  0.000000  1
  In  In10  1  0.709219  0.931577  0.500000  1
  In  In11  1  0.293410  0.069509  0.500000  1
  In  In12  1  0.790418  0.429463  0.500000  1
  In  In13  1  0.209487  0.570259  0.500000  1
  In  In14  1  0.574077  0.650255  0.500000  1
  In  In15  1  0.425755  0.349182  0.500000  1
  In  In16  1  0.923515  0.149369  0.500000  1
  In  In17  1  0.074331  0.850543  0.500000  1
  Pd  Pd18  1  0.526145  0.195544  0.500000  1
  Pd  Pd19  1  0.474968  0.803717  0.500000  1
  Pd  Pd20  1  0.974268  0.697213  0.500000  1
  Pd  Pd21  1  0.025473  0.302500  0.500000  1
