# generated using pymatgen
data_Sc6Ti4Al12Ir6Os
_symmetry_space_group_name_H-M   'P 1'
_cell_length_a   8.81646497
_cell_length_b   8.81647357
_cell_length_c   8.79090000
_cell_angle_alpha   60.09871173
_cell_angle_beta   60.09874346
_cell_angle_gamma   59.93580494
_symmetry_Int_Tables_number   1
_chemical_formula_structural   Sc6Ti4Al12Ir6Os
_chemical_formula_sum   'Sc6 Ti4 Al12 Ir6 Os1'
_cell_volume   483.66253111
_cell_formula_units_Z   1
loop_
 _symmetry_equiv_pos_site_id
 _symmetry_equiv_pos_as_xyz
  1  'x, y, z'
loop_
 _atom_site_type_symbol
 _atom_site_label
 _atom_site_symmetry_multiplicity
 _atom_site_fract_x
 _atom_site_fract_y
 _atom_site_fract_z
 _atom_site_occupancy
  Sc  Sc0  1  0.702648  0.297531  0.292000  1
  Sc  Sc1  1  0.702372  0.297657  0.707749  1
  Sc  Sc2  1  0.708354  0.708354  0.291688  1
  Sc  Sc3  1  0.297657  0.702372  0.707748  1
  Sc  Sc4  1  0.297531  0.702648  0.291999  1
  Sc  Sc5  1  0.292437  0.292437  0.707658  1
  Ti  Ti6  1  0.640059  0.121980  0.118964  1
  Ti  Ti7  1  0.121980  0.640059  0.118964  1
  Ti  Ti8  1  0.119498  0.119499  0.640597  1
  Ti  Ti9  1  0.119489  0.119489  0.120539  1
  Al  Al10  1  0.360162  0.878782  0.880500  1
  Al  Al11  1  0.878782  0.360162  0.880500  1
  Al  Al12  1  0.880311  0.880310  0.360005  1
  Al  Al13  1  0.880311  0.880311  0.879371  1
  Al  Al14  1  0.991896  0.335864  0.336137  1
  Al  Al15  1  0.335864  0.991896  0.336136  1
  Al  Al16  1  0.334258  0.334258  0.996093  1
  Al  Al17  1  0.334194  0.334195  0.335355  1
  Al  Al18  1  0.004744  0.665432  0.664917  1
  Al  Al19  1  0.665432  0.004744  0.664918  1
  Al  Al20  1  0.666635  0.666635  0.000763  1
  Al  Al21  1  0.666620  0.666619  0.665999  1
  Ir  Ir22  1  0.000053  0.000053  0.999991  1
  Ir  Ir23  1  0.498319  0.001276  0.000727  1
  Ir  Ir24  1  0.498376  0.001345  0.499648  1
  Ir  Ir25  1  0.001345  0.498376  0.499648  1
  Ir  Ir26  1  0.001276  0.498319  0.000727  1
  Ir  Ir27  1  0.000938  0.000938  0.499022  1
  Os  Os28  1  0.498461  0.498461  0.001635  1
