# generated using pymatgen
data_Tb6YRhO12
_symmetry_space_group_name_H-M   'P 1'
_cell_length_a   6.67156533
_cell_length_b   6.67156560
_cell_length_c   6.67156498
_cell_angle_alpha   95.18979857
_cell_angle_beta   95.18980130
_cell_angle_gamma   95.18980672
_symmetry_Int_Tables_number   1
_chemical_formula_structural   Tb6YRhO12
_chemical_formula_sum   'Tb6 Y1 Rh1 O12'
_cell_volume   293.06013201
_cell_formula_units_Z   1
loop_
 _symmetry_equiv_pos_site_id
 _symmetry_equiv_pos_as_xyz
  1  'x, y, z'
loop_
 _atom_site_type_symbol
 _atom_site_label
 _atom_site_symmetry_multiplicity
 _atom_site_fract_x
 _atom_site_fract_y
 _atom_site_fract_z
 _atom_site_occupancy
  Tb  Tb0  1  0.733670  0.912072  0.426625  1
  Tb  Tb1  1  0.426625  0.733670  0.912072  1
  Tb  Tb2  1  0.087928  0.573375  0.266330  1
  Tb  Tb3  1  0.912072  0.426625  0.733670  1
  Tb  Tb4  1  0.573375  0.266330  0.087928  1
  Tb  Tb5  1  0.266330  0.087928  0.573375  1
  Y  Y6  1  0.000000  0.000000  0.000000  1
  Rh  Rh7  1  0.500000  0.500000  0.500000  1
  O  O8  1  0.065687  0.912694  0.319816  1
  O  O9  1  0.680184  0.934313  0.087306  1
  O  O10  1  0.454770  0.802632  0.584785  1
  O  O11  1  0.087306  0.680184  0.934313  1
  O  O12  1  0.802632  0.584785  0.454770  1
  O  O13  1  0.415215  0.545230  0.197368  1
  O  O14  1  0.584785  0.454770  0.802632  1
  O  O15  1  0.197368  0.415215  0.545230  1
  O  O16  1  0.912694  0.319816  0.065687  1
  O  O17  1  0.545230  0.197368  0.415215  1
  O  O18  1  0.319816  0.065687  0.912694  1
  O  O19  1  0.934313  0.087306  0.680184  1
