# generated using pymatgen
data_Eu2NiSn2Ir
_symmetry_space_group_name_H-M   'P 1'
_cell_length_a   4.54785300
_cell_length_b   7.43818093
_cell_length_c   7.97926205
_cell_angle_alpha   89.04325188
_cell_angle_beta   90.00000000
_cell_angle_gamma   90.00000000
_symmetry_Int_Tables_number   1
_chemical_formula_structural   Eu2NiSn2Ir
_chemical_formula_sum   'Eu4 Ni2 Sn4 Ir2'
_cell_volume   269.88287840
_cell_formula_units_Z   2
loop_
 _symmetry_equiv_pos_site_id
 _symmetry_equiv_pos_as_xyz
  1  'x, y, z'
loop_
 _atom_site_type_symbol
 _atom_site_label
 _atom_site_symmetry_multiplicity
 _atom_site_fract_x
 _atom_site_fract_y
 _atom_site_fract_z
 _atom_site_occupancy
  Eu  Eu0  1  0.750000  0.470740  0.182718  1
  Eu  Eu1  1  0.250000  0.019981  0.681936  1
  Eu  Eu2  1  0.250000  0.529260  0.817282  1
  Eu  Eu3  1  0.750000  0.980019  0.318064  1
  Ni  Ni4  1  0.250000  0.798103  0.107322  1
  Ni  Ni5  1  0.750000  0.201897  0.892678  1
  Sn  Sn6  1  0.750000  0.339370  0.580368  1
  Sn  Sn7  1  0.250000  0.660630  0.419632  1
  Sn  Sn8  1  0.250000  0.161406  0.064567  1
  Sn  Sn9  1  0.750000  0.838594  0.935433  1
  Ir  Ir10  1  0.750000  0.715181  0.612734  1
  Ir  Ir11  1  0.250000  0.284819  0.387266  1
