# generated using pymatgen
data_YV5Co6Mo
_symmetry_space_group_name_H-M   'P 1'
_cell_length_a   4.86770921
_cell_length_b   6.40408328
_cell_length_c   6.40408387
_cell_angle_alpha   96.17161267
_cell_angle_beta   112.33662615
_cell_angle_gamma   67.66338038
_symmetry_Int_Tables_number   1
_chemical_formula_structural   YV5Co6Mo
_chemical_formula_sum   'Y1 V5 Co6 Mo1'
_cell_volume   170.64207592
_cell_formula_units_Z   1
loop_
 _symmetry_equiv_pos_site_id
 _symmetry_equiv_pos_as_xyz
  1  'x, y, z'
loop_
 _atom_site_type_symbol
 _atom_site_label
 _atom_site_symmetry_multiplicity
 _atom_site_fract_x
 _atom_site_fract_y
 _atom_site_fract_z
 _atom_site_occupancy
  Y  Y0  1  0.001443  0.998557  0.001443  1
  V  V1  1  0.357629  0.642371  0.357629  1
  V  V2  1  0.998738  0.360381  0.357857  1
  V  V3  1  0.998738  0.642143  0.639619  1
  V  V4  1  0.498599  0.793009  0.790207  1
  V  V5  1  0.498599  0.209793  0.206991  1
  Co  Co6  1  0.499663  0.997551  0.498688  1
  Co  Co7  1  0.001474  0.997551  0.498688  1
  Co  Co8  1  0.499663  0.501312  0.002449  1
  Co  Co9  1  0.001474  0.501312  0.002449  1
  Co  Co10  1  0.726343  0.773657  0.226343  1
  Co  Co11  1  0.274380  0.225620  0.774380  1
  Mo  Mo12  1  0.643257  0.356743  0.643257  1
