# generated using pymatgen
data_Na2SiS2O
_symmetry_space_group_name_H-M   'P 1'
_cell_length_a   13.95902700
_cell_length_b   5.36206591
_cell_length_c   7.06841041
_cell_angle_alpha   68.70471282
_cell_angle_beta   90.00000000
_cell_angle_gamma   90.00000000
_symmetry_Int_Tables_number   1
_chemical_formula_structural   Na2SiS2O
_chemical_formula_sum   'Na8 Si4 S8 O4'
_cell_volume   492.94104902
_cell_formula_units_Z   4
loop_
 _symmetry_equiv_pos_site_id
 _symmetry_equiv_pos_as_xyz
  1  'x, y, z'
loop_
 _atom_site_type_symbol
 _atom_site_label
 _atom_site_symmetry_multiplicity
 _atom_site_fract_x
 _atom_site_fract_y
 _atom_site_fract_z
 _atom_site_occupancy
  Na  Na0  1  0.346866  0.471126  0.577063  1
  Na  Na1  1  0.948724  0.342492  0.813638  1
  Na  Na2  1  0.153134  0.971126  0.577063  1
  Na  Na3  1  0.448724  0.157508  0.186362  1
  Na  Na4  1  0.551276  0.842492  0.813638  1
  Na  Na5  1  0.846866  0.028874  0.422937  1
  Na  Na6  1  0.051276  0.657508  0.186362  1
  Na  Na7  1  0.653134  0.528874  0.422937  1
  Si  Si8  1  0.313977  0.810911  0.977890  1
  Si  Si9  1  0.686023  0.189089  0.022110  1
  Si  Si10  1  0.186023  0.310911  0.977890  1
  Si  Si11  1  0.813977  0.689089  0.022110  1
  S  S12  1  0.574225  0.344426  0.813134  1
  S  S13  1  0.357285  0.926470  0.671771  1
  S  S14  1  0.857285  0.573530  0.328229  1
  S  S15  1  0.925775  0.844426  0.813134  1
  S  S16  1  0.642715  0.073530  0.328229  1
  S  S17  1  0.142715  0.426470  0.671771  1
  S  S18  1  0.425775  0.655574  0.186866  1
  S  S19  1  0.074225  0.155574  0.186866  1
  O  O20  1  0.725560  0.916411  0.978450  1
  O  O21  1  0.225560  0.583589  0.021550  1
  O  O22  1  0.774440  0.416411  0.978450  1
  O  O23  1  0.274440  0.083589  0.021550  1
