# generated using pymatgen
data_Pr3Nd17Si15Os
_symmetry_space_group_name_H-M   'P 1'
_cell_length_a   7.92164211
_cell_length_b   7.91142239
_cell_length_c   15.27552100
_cell_angle_alpha   90.23510287
_cell_angle_beta   89.89184041
_cell_angle_gamma   90.09504801
_symmetry_Int_Tables_number   1
_chemical_formula_structural   Pr3Nd17Si15Os
_chemical_formula_sum   'Pr3 Nd17 Si15 Os1'
_cell_volume   957.32808382
_cell_formula_units_Z   1
loop_
 _symmetry_equiv_pos_site_id
 _symmetry_equiv_pos_as_xyz
  1  'x, y, z'
loop_
 _atom_site_type_symbol
 _atom_site_label
 _atom_site_symmetry_multiplicity
 _atom_site_fract_x
 _atom_site_fract_y
 _atom_site_fract_z
 _atom_site_occupancy
  Pr  Pr0  1  0.305006  0.307027  0.998439  1
  Pr  Pr1  1  0.192383  0.809136  0.249292  1
  Pr  Pr2  1  0.825571  0.189576  0.749206  1
  Nd  Nd3  1  0.694723  0.689327  0.501944  1
  Nd  Nd4  1  0.373353  0.011796  0.449754  1
  Nd  Nd5  1  0.486279  0.881052  0.696356  1
  Nd  Nd6  1  0.511123  0.122527  0.197680  1
  Nd  Nd7  1  0.877361  0.488157  0.301481  1
  Nd  Nd8  1  0.125756  0.505005  0.799436  1
  Nd  Nd9  1  0.623814  0.988484  0.947188  1
  Nd  Nd10  1  0.008526  0.375894  0.552715  1
  Nd  Nd11  1  0.987956  0.623145  0.051238  1
  Nd  Nd12  1  0.133708  0.983070  0.872853  1
  Nd  Nd13  1  0.518666  0.630207  0.126039  1
  Nd  Nd14  1  0.470539  0.359963  0.628546  1
  Nd  Nd15  1  0.626816  0.515916  0.874129  1
  Nd  Nd16  1  0.374856  0.483252  0.373425  1
  Nd  Nd17  1  0.872686  0.022017  0.376392  1
  Nd  Nd18  1  0.981524  0.126239  0.124200  1
  Nd  Nd19  1  0.026867  0.881543  0.626283  1
  Si  Si20  1  0.334226  0.694159  0.951422  1
  Si  Si21  1  0.663881  0.303646  0.452565  1
  Si  Si22  1  0.695741  0.333915  0.049513  1
  Si  Si23  1  0.306053  0.669629  0.546414  1
  Si  Si24  1  0.806443  0.831659  0.203843  1
  Si  Si25  1  0.168146  0.196763  0.297679  1
  Si  Si26  1  0.832117  0.802123  0.800231  1
  Si  Si27  1  0.288516  0.922070  0.058631  1
  Si  Si28  1  0.580655  0.787026  0.311585  1
  Si  Si29  1  0.423067  0.207171  0.811515  1
  Si  Si30  1  0.777431  0.584296  0.690572  1
  Si  Si31  1  0.211936  0.421891  0.190138  1
  Si  Si32  1  0.703968  0.072897  0.558148  1
  Si  Si33  1  0.919010  0.286849  0.941699  1
  Si  Si34  1  0.079076  0.716065  0.440939  1
  Os  Os35  1  0.192226  0.176511  0.698512  1
