# generated using pymatgen
data_Y3ErGa4(IrPt)2
_symmetry_space_group_name_H-M   'P 1'
_cell_length_a   4.42509000
_cell_length_b   6.82444649
_cell_length_c   7.71681684
_cell_angle_alpha   89.90194115
_cell_angle_beta   90.00000000
_cell_angle_gamma   90.00000000
_symmetry_Int_Tables_number   1
_chemical_formula_structural   Y3ErGa4(IrPt)2
_chemical_formula_sum   'Y3 Er1 Ga4 Ir2 Pt2'
_cell_volume   233.03818915
_cell_formula_units_Z   1
loop_
 _symmetry_equiv_pos_site_id
 _symmetry_equiv_pos_as_xyz
  1  'x, y, z'
loop_
 _atom_site_type_symbol
 _atom_site_label
 _atom_site_symmetry_multiplicity
 _atom_site_fract_x
 _atom_site_fract_y
 _atom_site_fract_z
 _atom_site_occupancy
  Y  Y0  1  0.250000  0.985348  0.303870  1
  Y  Y1  1  0.750000  0.021197  0.690138  1
  Y  Y2  1  0.750000  0.520758  0.810342  1
  Er  Er3  1  0.250000  0.485032  0.195424  1
  Ga  Ga4  1  0.250000  0.333548  0.568516  1
  Ga  Ga5  1  0.250000  0.832526  0.931460  1
  Ga  Ga6  1  0.750000  0.660870  0.425180  1
  Ga  Ga7  1  0.750000  0.162059  0.074255  1
  Ir  Ir8  1  0.750000  0.770934  0.104556  1
  Ir  Ir9  1  0.750000  0.274359  0.394668  1
  Pt  Pt10  1  0.250000  0.227318  0.897129  1
  Pt  Pt11  1  0.250000  0.726054  0.604463  1
