# generated using pymatgen
data_Cs2Mg(PSe3)2
_symmetry_space_group_name_H-M   'P 1'
_cell_length_a   13.31385400
_cell_length_b   6.57501025
_cell_length_c   10.26105701
_cell_angle_alpha   53.46801116
_cell_angle_beta   90.00000000
_cell_angle_gamma   90.00000000
_symmetry_Int_Tables_number   1
_chemical_formula_structural   Cs2Mg(PSe3)2
_chemical_formula_sum   'Cs4 Mg2 P4 Se12'
_cell_volume   721.75786241
_cell_formula_units_Z   2
loop_
 _symmetry_equiv_pos_site_id
 _symmetry_equiv_pos_as_xyz
  1  'x, y, z'
loop_
 _atom_site_type_symbol
 _atom_site_label
 _atom_site_symmetry_multiplicity
 _atom_site_fract_x
 _atom_site_fract_y
 _atom_site_fract_z
 _atom_site_occupancy
  Cs  Cs0  1  0.670492  0.223077  0.524534  1
  Cs  Cs1  1  0.170492  0.776923  0.975466  1
  Cs  Cs2  1  0.329508  0.776923  0.475466  1
  Cs  Cs3  1  0.829508  0.223077  0.024534  1
  Mg  Mg4  1  0.000000  0.500000  0.500000  1
  Mg  Mg5  1  0.500000  0.500000  0.000000  1
  P  P6  1  0.038647  0.159838  0.383732  1
  P  P7  1  0.538647  0.840162  0.116268  1
  P  P8  1  0.961353  0.840162  0.616268  1
  P  P9  1  0.461353  0.159838  0.883732  1
  Se  Se10  1  0.166274  0.274403  0.463573  1
  Se  Se11  1  0.666274  0.725597  0.036427  1
  Se  Se12  1  0.833726  0.725597  0.536427  1
  Se  Se13  1  0.333726  0.274403  0.963573  1
  Se  Se14  1  0.927565  0.469636  0.258902  1
  Se  Se15  1  0.427565  0.530364  0.241098  1
  Se  Se16  1  0.072435  0.530364  0.741098  1
  Se  Se17  1  0.572435  0.469636  0.758902  1
  Se  Se18  1  0.077829  0.989283  0.260249  1
  Se  Se19  1  0.577829  0.010717  0.239751  1
  Se  Se20  1  0.922171  0.010717  0.739751  1
  Se  Se21  1  0.422171  0.989283  0.760249  1
