# generated using pymatgen
data_Sr2SmSi4(AsPd10)2
_symmetry_space_group_name_H-M   'P 1'
_cell_length_a   8.78455493
_cell_length_b   8.90494199
_cell_length_c   8.90494199
_cell_angle_alpha   59.10756951
_cell_angle_beta   60.44621474
_cell_angle_gamma   60.44621440
_symmetry_Int_Tables_number   1
_chemical_formula_structural   Sr2SmSi4(AsPd10)2
_chemical_formula_sum   'Sr2 Sm1 Si4 As2 Pd20'
_cell_volume   492.39119694
_cell_formula_units_Z   1
loop_
 _symmetry_equiv_pos_site_id
 _symmetry_equiv_pos_as_xyz
  1  'x, y, z'
loop_
 _atom_site_type_symbol
 _atom_site_label
 _atom_site_symmetry_multiplicity
 _atom_site_fract_x
 _atom_site_fract_y
 _atom_site_fract_z
 _atom_site_occupancy
  Sr  Sr0  1  0.250000  0.250000  0.250000  1
  Sr  Sr1  1  0.750000  0.750000  0.750000  1
  Sm  Sm2  1  0.000000  0.000000  0.000000  1
  Si  Si3  1  0.267688  0.732312  0.267688  1
  Si  Si4  1  0.732312  0.267688  0.732312  1
  Si  Si5  1  0.267688  0.267688  0.732312  1
  Si  Si6  1  0.732312  0.732312  0.267688  1
  As  As7  1  0.735762  0.264238  0.264238  1
  As  As8  1  0.264238  0.735762  0.735762  1
  Pd  Pd9  1  0.381676  0.389916  0.389916  1
  Pd  Pd10  1  0.618324  0.610084  0.610084  1
  Pd  Pd11  1  0.389916  0.381676  0.838491  1
  Pd  Pd12  1  0.389916  0.838491  0.381676  1
  Pd  Pd13  1  0.610084  0.618324  0.161509  1
  Pd  Pd14  1  0.610084  0.161509  0.618324  1
  Pd  Pd15  1  0.838491  0.389916  0.389916  1
  Pd  Pd16  1  0.161509  0.610084  0.610084  1
  Pd  Pd17  1  0.345228  0.000000  0.000000  1
  Pd  Pd18  1  0.654772  0.000000  0.000000  1
  Pd  Pd19  1  0.000000  0.345228  0.654772  1
  Pd  Pd20  1  0.000000  0.654772  0.345228  1
  Pd  Pd21  1  0.009739  0.345847  0.990261  1
  Pd  Pd22  1  0.654153  0.990261  0.345847  1
  Pd  Pd23  1  0.990261  0.654153  0.009739  1
  Pd  Pd24  1  0.345847  0.009739  0.654153  1
  Pd  Pd25  1  0.009739  0.990261  0.345847  1
  Pd  Pd26  1  0.990261  0.009739  0.654153  1
  Pd  Pd27  1  0.654153  0.345847  0.990261  1
  Pd  Pd28  1  0.345847  0.654153  0.009739  1
