# generated using pymatgen
data_Dy4ZrZn3Rh4
_symmetry_space_group_name_H-M   'P 1'
_cell_length_a   4.04084300
_cell_length_b   7.09057819
_cell_length_c   8.35652027
_cell_angle_alpha   91.00380312
_cell_angle_beta   90.00000000
_cell_angle_gamma   90.00000000
_symmetry_Int_Tables_number   1
_chemical_formula_structural   Dy4ZrZn3Rh4
_chemical_formula_sum   'Dy4 Zr1 Zn3 Rh4'
_cell_volume   239.39354949
_cell_formula_units_Z   1
loop_
 _symmetry_equiv_pos_site_id
 _symmetry_equiv_pos_as_xyz
  1  'x, y, z'
loop_
 _atom_site_type_symbol
 _atom_site_label
 _atom_site_symmetry_multiplicity
 _atom_site_fract_x
 _atom_site_fract_y
 _atom_site_fract_z
 _atom_site_occupancy
  Dy  Dy0  1  0.250000  0.547945  0.187438  1
  Dy  Dy1  1  0.750000  0.480578  0.807432  1
  Dy  Dy2  1  0.250000  0.034165  0.323034  1
  Dy  Dy3  1  0.750000  0.949910  0.662433  1
  Zr  Zr4  1  0.250000  0.128850  0.939996  1
  Zn  Zn5  1  0.750000  0.858065  0.073138  1
  Zn  Zn6  1  0.250000  0.630777  0.561663  1
  Zn  Zn7  1  0.750000  0.363256  0.440339  1
  Rh  Rh8  1  0.750000  0.736538  0.379365  1
  Rh  Rh9  1  0.250000  0.253590  0.632095  1
  Rh  Rh10  1  0.750000  0.252191  0.119753  1
  Rh  Rh11  1  0.250000  0.764135  0.873316  1
