# generated using pymatgen
data_Cs2LuTlF6
_symmetry_space_group_name_H-M   'P 1'
_cell_length_a   6.95721900
_cell_length_b   6.74659690
_cell_length_c   11.77344600
_cell_angle_alpha   55.03371857
_cell_angle_beta   90.00000000
_cell_angle_gamma   90.00000000
_symmetry_Int_Tables_number   1
_chemical_formula_structural   Cs2LuTlF6
_chemical_formula_sum   'Cs4 Lu2 Tl2 F12'
_cell_volume   452.86358601
_cell_formula_units_Z   2
loop_
 _symmetry_equiv_pos_site_id
 _symmetry_equiv_pos_as_xyz
  1  'x, y, z'
loop_
 _atom_site_type_symbol
 _atom_site_label
 _atom_site_symmetry_multiplicity
 _atom_site_fract_x
 _atom_site_fract_y
 _atom_site_fract_z
 _atom_site_occupancy
  Cs  Cs0  1  0.460177  0.239375  0.750059  1
  Cs  Cs1  1  0.960177  0.760625  0.749941  1
  Cs  Cs2  1  0.539823  0.760625  0.249941  1
  Cs  Cs3  1  0.039823  0.239375  0.250059  1
  Lu  Lu4  1  0.000000  0.000000  0.000000  1
  Lu  Lu5  1  0.500000  0.000000  0.500000  1
  Tl  Tl6  1  0.000000  0.500000  0.500000  1
  Tl  Tl7  1  0.500000  0.500000  0.000000  1
  F  F8  1  0.748171  0.869550  0.454510  1
  F  F9  1  0.248171  0.130450  0.045490  1
  F  F10  1  0.251829  0.130450  0.545490  1
  F  F11  1  0.751829  0.869550  0.954510  1
  F  F12  1  0.679533  0.220145  0.532998  1
  F  F13  1  0.179533  0.779855  0.967002  1
  F  F14  1  0.320467  0.779855  0.467002  1
  F  F15  1  0.820467  0.220145  0.032998  1
  F  F16  1  0.971224  0.712573  0.214474  1
  F  F17  1  0.471224  0.287427  0.285526  1
  F  F18  1  0.028776  0.287427  0.785526  1
  F  F19  1  0.528776  0.712573  0.714474  1
