# generated using pymatgen
data_LiTb8Sc8Si16Ag3
_symmetry_space_group_name_H-M   'P 1'
_cell_length_a   6.86261657
_cell_length_b   7.43466269
_cell_length_c   14.12798600
_cell_angle_alpha   90.00000000
_cell_angle_beta   90.00000000
_cell_angle_gamma   89.90169321
_symmetry_Int_Tables_number   1
_chemical_formula_structural   LiTb8Sc8Si16Ag3
_chemical_formula_sum   'Li1 Tb8 Sc8 Si16 Ag3'
_cell_volume   720.82629429
_cell_formula_units_Z   1
loop_
 _symmetry_equiv_pos_site_id
 _symmetry_equiv_pos_as_xyz
  1  'x, y, z'
loop_
 _atom_site_type_symbol
 _atom_site_label
 _atom_site_symmetry_multiplicity
 _atom_site_fract_x
 _atom_site_fract_y
 _atom_site_fract_z
 _atom_site_occupancy
  Li  Li0  1  0.658320  0.994312  0.750000  1
  Tb  Tb1  1  0.011108  0.180057  0.099173  1
  Tb  Tb2  1  0.988342  0.818688  0.900879  1
  Tb  Tb3  1  0.487868  0.679547  0.901276  1
  Tb  Tb4  1  0.988342  0.818688  0.599121  1
  Tb  Tb5  1  0.511135  0.320196  0.098600  1
  Tb  Tb6  1  0.011108  0.180057  0.400827  1
  Tb  Tb7  1  0.511135  0.320196  0.401400  1
  Tb  Tb8  1  0.487868  0.679547  0.598724  1
  Sc  Sc9  1  0.329456  0.180848  0.626283  1
  Sc  Sc10  1  0.670581  0.820563  0.373961  1
  Sc  Sc11  1  0.170649  0.680252  0.374024  1
  Sc  Sc12  1  0.670581  0.820563  0.126039  1
  Sc  Sc13  1  0.830298  0.320239  0.625924  1
  Sc  Sc14  1  0.329456  0.180848  0.873717  1
  Sc  Sc15  1  0.830298  0.320239  0.874076  1
  Sc  Sc16  1  0.170649  0.680252  0.125976  1
  Si  Si17  1  0.028843  0.101136  0.750000  1
  Si  Si18  1  0.969917  0.897188  0.250000  1
  Si  Si19  1  0.470107  0.602950  0.250000  1
  Si  Si20  1  0.532865  0.393506  0.750000  1
  Si  Si21  1  0.285897  0.887446  0.750000  1
  Si  Si22  1  0.716317  0.115343  0.250000  1
  Si  Si23  1  0.217438  0.384970  0.250000  1
  Si  Si24  1  0.781467  0.617408  0.750000  1
  Si  Si25  1  0.160080  0.460867  0.532335  1
  Si  Si26  1  0.840057  0.538465  0.467488  1
  Si  Si27  1  0.339529  0.961595  0.467495  1
  Si  Si28  1  0.840057  0.538465  0.032512  1
  Si  Si29  1  0.658679  0.036856  0.534433  1
  Si  Si30  1  0.160080  0.460867  0.967665  1
  Si  Si31  1  0.658679  0.036856  0.965567  1
  Si  Si32  1  0.339529  0.961595  0.032505  1
  Ag  Ag33  1  0.157913  0.509246  0.750000  1
  Ag  Ag34  1  0.842713  0.490501  0.250000  1
  Ag  Ag35  1  0.342640  0.009645  0.250000  1
