# generated using pymatgen
data_Tm6Si5Ni4Ge
_symmetry_space_group_name_H-M   'P 1'
_cell_length_a   5.40884067
_cell_length_b   5.40884127
_cell_length_c   13.72637500
_cell_angle_alpha   90.00000000
_cell_angle_beta   90.00000000
_cell_angle_gamma   135.27453247
_symmetry_Int_Tables_number   1
_chemical_formula_structural   Tm6Si5Ni4Ge
_chemical_formula_sum   'Tm6 Si5 Ni4 Ge1'
_cell_volume   282.59102460
_cell_formula_units_Z   1
loop_
 _symmetry_equiv_pos_site_id
 _symmetry_equiv_pos_as_xyz
  1  'x, y, z'
loop_
 _atom_site_type_symbol
 _atom_site_label
 _atom_site_symmetry_multiplicity
 _atom_site_fract_x
 _atom_site_fract_y
 _atom_site_fract_z
 _atom_site_occupancy
  Tm  Tm0  1  0.588020  0.411980  0.610413  1
  Tm  Tm1  1  0.411968  0.588032  0.392760  1
  Tm  Tm2  1  0.411968  0.588032  0.107240  1
  Tm  Tm3  1  0.588020  0.411980  0.889587  1
  Tm  Tm4  1  0.134341  0.865659  0.250000  1
  Tm  Tm5  1  0.867808  0.132192  0.750000  1
  Si  Si6  1  0.881408  0.118592  0.539577  1
  Si  Si7  1  0.117185  0.882815  0.461865  1
  Si  Si8  1  0.167952  0.832048  0.750000  1
  Si  Si9  1  0.881408  0.118592  0.960423  1
  Si  Si10  1  0.117185  0.882815  0.038135  1
  Ni  Ni11  1  0.297138  0.702862  0.597693  1
  Ni  Ni12  1  0.700531  0.299469  0.407383  1
  Ni  Ni13  1  0.700531  0.299469  0.092617  1
  Ni  Ni14  1  0.297138  0.702862  0.902307  1
  Ge  Ge15  1  0.837400  0.162600  0.250000  1
