# generated using pymatgen
data_Sr(Yb4Pd3)2
_symmetry_space_group_name_H-M   'P 1'
_cell_length_a   7.61784851
_cell_length_b   7.60269049
_cell_length_c   7.63599590
_cell_angle_alpha   71.11248591
_cell_angle_beta   71.19954805
_cell_angle_gamma   70.83539684
_symmetry_Int_Tables_number   1
_chemical_formula_structural   Sr(Yb4Pd3)2
_chemical_formula_sum   'Sr1 Yb8 Pd6'
_cell_volume   383.52734176
_cell_formula_units_Z   1
loop_
 _symmetry_equiv_pos_site_id
 _symmetry_equiv_pos_as_xyz
  1  'x, y, z'
loop_
 _atom_site_type_symbol
 _atom_site_label
 _atom_site_symmetry_multiplicity
 _atom_site_fract_x
 _atom_site_fract_y
 _atom_site_fract_z
 _atom_site_occupancy
  Sr  Sr0  1  0.662963  0.156409  0.901141  1
  Yb  Yb1  1  0.338661  0.827889  0.105986  1
  Yb  Yb2  1  0.899412  0.650854  0.173954  1
  Yb  Yb3  1  0.301026  0.300158  0.298694  1
  Yb  Yb4  1  0.829623  0.103731  0.346955  1
  Yb  Yb5  1  0.500258  0.499389  0.499705  1
  Yb  Yb6  1  0.172719  0.895349  0.651672  1
  Yb  Yb7  1  0.699189  0.699041  0.701255  1
  Yb  Yb8  1  0.105703  0.349116  0.826776  1
  Pd  Pd9  1  0.657388  0.466695  0.096000  1
  Pd  Pd10  1  0.542542  0.902820  0.346591  1
  Pd  Pd11  1  0.090422  0.660985  0.456496  1
  Pd  Pd12  1  0.917378  0.346618  0.532044  1
  Pd  Pd13  1  0.448856  0.088747  0.651095  1
  Pd  Pd14  1  0.333856  0.552195  0.911633  1
