# generated using pymatgen
data_Ho2AlZn3
_symmetry_space_group_name_H-M   'P 1'
_cell_length_a   5.64753775
_cell_length_b   5.69381722
_cell_length_c   5.69381669
_cell_angle_alpha   133.43500065
_cell_angle_beta   102.79218966
_cell_angle_gamma   95.37153686
_symmetry_Int_Tables_number   1
_chemical_formula_structural   Ho2AlZn3
_chemical_formula_sum   'Ho2 Al1 Zn3'
_cell_volume   121.58800735
_cell_formula_units_Z   1
loop_
 _symmetry_equiv_pos_site_id
 _symmetry_equiv_pos_as_xyz
  1  'x, y, z'
loop_
 _atom_site_type_symbol
 _atom_site_label
 _atom_site_symmetry_multiplicity
 _atom_site_fract_x
 _atom_site_fract_y
 _atom_site_fract_z
 _atom_site_occupancy
  Ho  Ho0  1  0.725439  0.473102  0.252336  1
  Ho  Ho1  1  0.277069  0.527969  0.749099  1
  Al  Al2  1  0.706525  0.164628  0.541896  1
  Zn  Zn3  1  0.293523  0.833559  0.459964  1
  Zn  Zn4  1  0.123307  0.166062  0.957245  1
  Zn  Zn5  1  0.874138  0.834679  0.039459  1
