# generated using pymatgen
data_Rb8Nb6O19
_symmetry_space_group_name_H-M   'P 1'
_cell_length_a   9.75707517
_cell_length_b   9.75707410
_cell_length_c   9.75707387
_cell_angle_alpha   119.15367612
_cell_angle_beta   119.15367638
_cell_angle_gamma   91.47223360
_symmetry_Int_Tables_number   1
_chemical_formula_structural   Rb8Nb6O19
_chemical_formula_sum   'Rb8 Nb6 O19'
_cell_volume   664.98073108
_cell_formula_units_Z   1
loop_
 _symmetry_equiv_pos_site_id
 _symmetry_equiv_pos_as_xyz
  1  'x, y, z'
loop_
 _atom_site_type_symbol
 _atom_site_label
 _atom_site_symmetry_multiplicity
 _atom_site_fract_x
 _atom_site_fract_y
 _atom_site_fract_z
 _atom_site_occupancy
  Rb  Rb0  1  0.629457  0.443294  0.362639  1
  Rb  Rb1  1  0.370543  0.556706  0.637361  1
  Rb  Rb2  1  0.080655  0.266817  0.637361  1
  Rb  Rb3  1  0.443294  0.080655  0.813837  1
  Rb  Rb4  1  0.919345  0.733183  0.362639  1
  Rb  Rb5  1  0.556706  0.919345  0.186163  1
  Rb  Rb6  1  0.266817  0.629457  0.186163  1
  Rb  Rb7  1  0.733183  0.370543  0.813837  1
  Nb  Nb8  1  0.172670  0.172670  0.000000  1
  Nb  Nb9  1  0.827330  0.827330  0.000000  1
  Nb  Nb10  1  0.221460  0.104136  0.325596  1
  Nb  Nb11  1  0.778540  0.895864  0.674404  1
  Nb  Nb12  1  0.104136  0.778540  0.882676  1
  Nb  Nb13  1  0.895864  0.221460  0.117324  1
  O  O14  1  0.090120  0.267914  0.358033  1
  O  O15  1  0.909880  0.732086  0.641967  1
  O  O16  1  0.267914  0.909880  0.177794  1
  O  O17  1  0.732086  0.090120  0.822206  1
  O  O18  1  0.327183  0.237242  0.272375  1
  O  O19  1  0.672817  0.762758  0.727625  1
  O  O20  1  0.964867  0.054808  0.727625  1
  O  O21  1  0.237242  0.964867  0.910059  1
  O  O22  1  0.035133  0.945192  0.272375  1
  O  O23  1  0.762758  0.035133  0.089941  1
  O  O24  1  0.054808  0.327183  0.089941  1
  O  O25  1  0.945192  0.672817  0.910059  1
  O  O26  1  0.379479  0.201393  0.580874  1
  O  O27  1  0.620521  0.798607  0.419126  1
  O  O28  1  0.201393  0.620521  0.821914  1
  O  O29  1  0.798607  0.379479  0.178086  1
  O  O30  1  0.307693  0.307693  0.000000  1
  O  O31  1  0.692307  0.692307  0.000000  1
  O  O32  1  0.000000  0.000000  0.000000  1
