# generated using pymatgen
data_K4P(PtAu3)2
_symmetry_space_group_name_H-M   'P 1'
_cell_length_a   10.61838182
_cell_length_b   10.61838115
_cell_length_c   10.39946650
_cell_angle_alpha   78.11052726
_cell_angle_beta   78.11052284
_cell_angle_gamma   34.51003489
_symmetry_Int_Tables_number   1
_chemical_formula_structural   K4P(PtAu3)2
_chemical_formula_sum   'K8 P2 Pt4 Au12'
_cell_volume   648.66040166
_cell_formula_units_Z   2
loop_
 _symmetry_equiv_pos_site_id
 _symmetry_equiv_pos_as_xyz
  1  'x, y, z'
loop_
 _atom_site_type_symbol
 _atom_site_label
 _atom_site_symmetry_multiplicity
 _atom_site_fract_x
 _atom_site_fract_y
 _atom_site_fract_z
 _atom_site_occupancy
  K  K0  1  0.480026  0.480026  0.833628  1
  K  K1  1  0.519974  0.519974  0.166372  1
  K  K2  1  0.282871  0.282871  0.909686  1
  K  K3  1  0.717129  0.717129  0.090314  1
  K  K4  1  0.223018  0.223018  0.589033  1
  K  K5  1  0.776982  0.776982  0.410967  1
  K  K6  1  0.040758  0.040758  0.650895  1
  K  K7  1  0.959242  0.959242  0.349105  1
  P  P8  1  0.667160  0.667160  0.760196  1
  P  P9  1  0.332840  0.332840  0.239804  1
  Pt  Pt10  1  0.779160  0.779160  0.743249  1
  Pt  Pt11  1  0.220840  0.220840  0.256751  1
  Pt  Pt12  1  0.620208  0.620208  0.584201  1
  Pt  Pt13  1  0.379792  0.379792  0.415799  1
  Au  Au14  1  0.500000  0.500000  0.500000  1
  Au  Au15  1  0.000000  0.000000  0.000000  1
  Au  Au16  1  0.111689  0.111689  0.139450  1
  Au  Au17  1  0.888311  0.888311  0.860550  1
  Au  Au18  1  0.861494  0.365226  0.370052  1
  Au  Au19  1  0.634774  0.138506  0.629948  1
  Au  Au20  1  0.138506  0.634774  0.629948  1
  Au  Au21  1  0.365226  0.861494  0.370052  1
  Au  Au22  1  0.098607  0.658322  0.100269  1
  Au  Au23  1  0.341678  0.901393  0.899731  1
  Au  Au24  1  0.901393  0.341678  0.899731  1
  Au  Au25  1  0.658322  0.098607  0.100269  1
