# generated using pymatgen
data_Hf4Ni5Pt6Rh
_symmetry_space_group_name_H-M   'P 1'
_cell_length_a   5.56306802
_cell_length_b   5.50308543
_cell_length_c   8.99511526
_cell_angle_alpha   89.75096287
_cell_angle_beta   90.46208019
_cell_angle_gamma   119.79951841
_symmetry_Int_Tables_number   1
_chemical_formula_structural   Hf4Ni5Pt6Rh
_chemical_formula_sum   'Hf4 Ni5 Pt6 Rh1'
_cell_volume   238.95583945
_cell_formula_units_Z   1
loop_
 _symmetry_equiv_pos_site_id
 _symmetry_equiv_pos_as_xyz
  1  'x, y, z'
loop_
 _atom_site_type_symbol
 _atom_site_label
 _atom_site_symmetry_multiplicity
 _atom_site_fract_x
 _atom_site_fract_y
 _atom_site_fract_z
 _atom_site_occupancy
  Hf  Hf0  1  0.002227  0.999544  0.495417  1
  Hf  Hf1  1  0.672480  0.336555  0.753668  1
  Hf  Hf2  1  0.325665  0.668720  0.246447  1
  Hf  Hf3  1  0.002763  0.999175  0.004882  1
  Ni  Ni4  1  0.179688  0.351787  0.749733  1
  Ni  Ni5  1  0.820197  0.648016  0.250284  1
  Ni  Ni6  1  0.345695  0.169100  0.250059  1
  Ni  Ni7  1  0.497327  0.999527  0.496969  1
  Ni  Ni8  1  0.498547  0.999610  0.002504  1
  Pt  Pt9  1  0.496315  0.493090  0.004986  1
  Pt  Pt10  1  0.812731  0.161147  0.249313  1
  Pt  Pt11  1  0.496584  0.493559  0.494913  1
  Pt  Pt12  1  0.182992  0.840614  0.750706  1
  Pt  Pt13  1  0.667820  0.840962  0.749899  1
  Pt  Pt14  1  0.999520  0.499208  0.499482  1
  Rh  Rh15  1  0.999450  0.499386  0.000738  1
