# generated using pymatgen
data_Ho8ZnCo2Hg
_symmetry_space_group_name_H-M   'P 1'
_cell_length_a   9.35128570
_cell_length_b   9.35970344
_cell_length_c   9.35128560
_cell_angle_alpha   59.97022451
_cell_angle_beta   60.01564276
_cell_angle_gamma   59.97022605
_symmetry_Int_Tables_number   1
_chemical_formula_structural   Ho8ZnCo2Hg
_chemical_formula_sum   'Ho16 Zn2 Co4 Hg2'
_cell_volume   578.55600906
_cell_formula_units_Z   2
loop_
 _symmetry_equiv_pos_site_id
 _symmetry_equiv_pos_as_xyz
  1  'x, y, z'
loop_
 _atom_site_type_symbol
 _atom_site_label
 _atom_site_symmetry_multiplicity
 _atom_site_fract_x
 _atom_site_fract_y
 _atom_site_fract_z
 _atom_site_occupancy
  Ho  Ho0  1  0.940567  0.935444  0.562426  1
  Ho  Ho1  1  0.810529  0.189835  0.189306  1
  Ho  Ho2  1  0.940567  0.561563  0.562426  1
  Ho  Ho3  1  0.937904  0.562096  0.937904  1
  Ho  Ho4  1  0.810529  0.810331  0.189306  1
  Ho  Ho5  1  0.348930  0.349868  0.348930  1
  Ho  Ho6  1  0.562426  0.935444  0.940567  1
  Ho  Ho7  1  0.561552  0.938448  0.561552  1
  Ho  Ho8  1  0.189306  0.810331  0.810529  1
  Ho  Ho9  1  0.189306  0.189835  0.810529  1
  Ho  Ho10  1  0.348717  0.348988  0.953307  1
  Ho  Ho11  1  0.348930  0.952274  0.348930  1
  Ho  Ho12  1  0.810237  0.189763  0.810237  1
  Ho  Ho13  1  0.562426  0.561563  0.940567  1
  Ho  Ho14  1  0.190063  0.809937  0.190063  1
  Ho  Ho15  1  0.953307  0.348988  0.348717  1
  Zn  Zn16  1  0.577298  0.582233  0.258237  1
  Zn  Zn17  1  0.258237  0.582233  0.577298  1
  Co  Co18  1  0.575113  0.141229  0.142429  1
  Co  Co19  1  0.141673  0.140560  0.141673  1
  Co  Co20  1  0.141673  0.576095  0.141673  1
  Co  Co21  1  0.142429  0.141229  0.575113  1
  Hg  Hg22  1  0.579142  0.587694  0.579142  1
  Hg  Hg23  1  0.579142  0.254022  0.579142  1
