# generated using pymatgen
data_Pr8Y10ScSi16Ag
_symmetry_space_group_name_H-M   'P 1'
_cell_length_a   7.42963528
_cell_length_b   7.82056909
_cell_length_c   14.87871000
_cell_angle_alpha   90.00000000
_cell_angle_beta   90.00000000
_cell_angle_gamma   89.98787745
_symmetry_Int_Tables_number   1
_chemical_formula_structural   Pr8Y10ScSi16Ag
_chemical_formula_sum   'Pr8 Y10 Sc1 Si16 Ag1'
_cell_volume   864.51218914
_cell_formula_units_Z   1
loop_
 _symmetry_equiv_pos_site_id
 _symmetry_equiv_pos_as_xyz
  1  'x, y, z'
loop_
 _atom_site_type_symbol
 _atom_site_label
 _atom_site_symmetry_multiplicity
 _atom_site_fract_x
 _atom_site_fract_y
 _atom_site_fract_z
 _atom_site_occupancy
  Pr  Pr0  1  0.020020  0.179086  0.405016  1
  Pr  Pr1  1  0.519777  0.322847  0.404235  1
  Pr  Pr2  1  0.481077  0.690028  0.896786  1
  Pr  Pr3  1  0.481077  0.690028  0.603214  1
  Pr  Pr4  1  0.970537  0.822551  0.603125  1
  Pr  Pr5  1  0.970537  0.822551  0.896875  1
  Pr  Pr6  1  0.519777  0.322847  0.095765  1
  Pr  Pr7  1  0.020020  0.179086  0.094984  1
  Y  Y8  1  0.332021  0.174460  0.627206  1
  Y  Y9  1  0.677787  0.817384  0.376677  1
  Y  Y10  1  0.178547  0.677809  0.379382  1
  Y  Y11  1  0.817824  0.313309  0.872825  1
  Y  Y12  1  0.817824  0.313309  0.627175  1
  Y  Y13  1  0.847148  0.486357  0.250000  1
  Y  Y14  1  0.343815  0.013331  0.250000  1
  Y  Y15  1  0.332021  0.174460  0.872794  1
  Y  Y16  1  0.178547  0.677809  0.120618  1
  Y  Y17  1  0.677787  0.817384  0.123323  1
  Sc  Sc18  1  0.151488  0.508738  0.750000  1
  Si  Si19  1  0.261929  0.873455  0.750000  1
  Si  Si20  1  0.471281  0.608764  0.250000  1
  Si  Si21  1  0.033424  0.107143  0.750000  1
  Si  Si22  1  0.516868  0.412542  0.750000  1
  Si  Si23  1  0.147079  0.471102  0.544962  1
  Si  Si24  1  0.972084  0.885841  0.250000  1
  Si  Si25  1  0.728382  0.118018  0.250000  1
  Si  Si26  1  0.854984  0.530496  0.034913  1
  Si  Si27  1  0.355434  0.969392  0.038401  1
  Si  Si28  1  0.147079  0.471102  0.955038  1
  Si  Si29  1  0.650931  0.036956  0.531890  1
  Si  Si30  1  0.355434  0.969392  0.461599  1
  Si  Si31  1  0.854984  0.530496  0.465087  1
  Si  Si32  1  0.779479  0.610939  0.750000  1
  Si  Si33  1  0.228044  0.380519  0.250000  1
  Si  Si34  1  0.650931  0.036956  0.968110  1
  Ag  Ag35  1  0.654022  0.983517  0.750000  1
