# generated using pymatgen
data_Nd4PaIr2
_symmetry_space_group_name_H-M   'P 1'
_cell_length_a   6.50139346
_cell_length_b   7.21556148
_cell_length_c   9.15288041
_cell_angle_alpha   97.54596059
_cell_angle_beta   110.80297850
_cell_angle_gamma   89.99999814
_symmetry_Int_Tables_number   1
_chemical_formula_structural   Nd4PaIr2
_chemical_formula_sum   'Nd8 Pa2 Ir4'
_cell_volume   397.40037613
_cell_formula_units_Z   2
loop_
 _symmetry_equiv_pos_site_id
 _symmetry_equiv_pos_as_xyz
  1  'x, y, z'
loop_
 _atom_site_type_symbol
 _atom_site_label
 _atom_site_symmetry_multiplicity
 _atom_site_fract_x
 _atom_site_fract_y
 _atom_site_fract_z
 _atom_site_occupancy
  Nd  Nd0  1  0.977860  0.928519  0.183730  1
  Nd  Nd1  1  0.794131  0.571481  0.816270  1
  Nd  Nd2  1  0.022140  0.071481  0.816270  1
  Nd  Nd3  1  0.205869  0.428519  0.183730  1
  Nd  Nd4  1  0.648268  0.815547  0.434694  1
  Nd  Nd5  1  0.213574  0.684453  0.565306  1
  Nd  Nd6  1  0.351732  0.184453  0.565306  1
  Nd  Nd7  1  0.786426  0.315547  0.434694  1
  Pa  Pa8  1  0.417853  0.750000  0.000000  1
  Pa  Pa9  1  0.582147  0.250000  0.000000  1
  Ir  Ir10  1  0.762430  0.564622  0.191299  1
  Ir  Ir11  1  0.571133  0.935378  0.808701  1
  Ir  Ir12  1  0.237570  0.435378  0.808701  1
  Ir  Ir13  1  0.428867  0.064622  0.191299  1
