# generated using pymatgen
data_SmY3(MgRh)4
_symmetry_space_group_name_H-M   'P 1'
_cell_length_a   4.14342700
_cell_length_b   7.16247931
_cell_length_c   8.55252437
_cell_angle_alpha   89.96528787
_cell_angle_beta   90.00000000
_cell_angle_gamma   90.00000000
_symmetry_Int_Tables_number   1
_chemical_formula_structural   SmY3(MgRh)4
_chemical_formula_sum   'Sm1 Y3 Mg4 Rh4'
_cell_volume   253.81501644
_cell_formula_units_Z   1
loop_
 _symmetry_equiv_pos_site_id
 _symmetry_equiv_pos_as_xyz
  1  'x, y, z'
loop_
 _atom_site_type_symbol
 _atom_site_label
 _atom_site_symmetry_multiplicity
 _atom_site_fract_x
 _atom_site_fract_y
 _atom_site_fract_z
 _atom_site_occupancy
  Sm  Sm0  1  0.750000  0.463358  0.823172  1
  Y  Y1  1  0.250000  0.037208  0.324141  1
  Y  Y2  1  0.750000  0.963889  0.675434  1
  Y  Y3  1  0.250000  0.535964  0.177889  1
  Mg  Mg4  1  0.250000  0.134819  0.942678  1
  Mg  Mg5  1  0.750000  0.863333  0.059484  1
  Mg  Mg6  1  0.250000  0.638002  0.557124  1
  Mg  Mg7  1  0.750000  0.363354  0.440933  1
  Rh  Rh8  1  0.750000  0.245329  0.131324  1
  Rh  Rh9  1  0.250000  0.755741  0.869619  1
  Rh  Rh10  1  0.750000  0.746918  0.369077  1
  Rh  Rh11  1  0.250000  0.252085  0.629123  1
