# generated using pymatgen
data_CsTc2Te7MoW3
_symmetry_space_group_name_H-M   'P 1'
_cell_length_a   10.46590212
_cell_length_b   10.44188458
_cell_length_c   10.43740873
_cell_angle_alpha   60.86212125
_cell_angle_beta   60.86954395
_cell_angle_gamma   60.79158707
_symmetry_Int_Tables_number   1
_chemical_formula_structural   CsTc2Te7MoW3
_chemical_formula_sum   'Cs2 Tc4 Te14 Mo2 W6'
_cell_volume   821.84949083
_cell_formula_units_Z   2
loop_
 _symmetry_equiv_pos_site_id
 _symmetry_equiv_pos_as_xyz
  1  'x, y, z'
loop_
 _atom_site_type_symbol
 _atom_site_label
 _atom_site_symmetry_multiplicity
 _atom_site_fract_x
 _atom_site_fract_y
 _atom_site_fract_z
 _atom_site_occupancy
  Cs  Cs0  1  0.620199  0.620403  0.620842  1
  Cs  Cs1  1  0.380746  0.379636  0.378609  1
  Tc  Tc2  1  0.713692  0.877826  0.006094  1
  Tc  Tc3  1  0.006854  0.712004  0.879563  1
  Tc  Tc4  1  0.878526  0.005706  0.713504  1
  Tc  Tc5  1  0.285787  0.122925  0.995292  1
  Te  Te6  1  0.426680  0.816901  0.159438  1
  Te  Te7  1  0.167600  0.424302  0.808955  1
  Te  Te8  1  0.808085  0.164963  0.428457  1
  Te  Te9  1  0.578055  0.181507  0.838191  1
  Te  Te10  1  0.836795  0.578947  0.182877  1
  Te  Te11  1  0.181827  0.836671  0.580233  1
  Te  Te12  1  0.631483  0.977088  0.248080  1
  Te  Te13  1  0.247290  0.631987  0.979478  1
  Te  Te14  1  0.977104  0.248219  0.632205  1
  Te  Te15  1  0.366472  0.020924  0.751891  1
  Te  Te16  1  0.750398  0.367079  0.017394  1
  Te  Te17  1  0.021305  0.749764  0.364391  1
  Te  Te18  1  0.782843  0.779116  0.780395  1
  Te  Te19  1  0.225144  0.223214  0.221088  1
  Mo  Mo20  1  0.891380  0.056221  0.189619  1
  Mo  Mo21  1  0.189600  0.892963  0.055197  1
  W  W22  1  0.995665  0.283979  0.122435  1
  W  W23  1  0.120091  0.998149  0.284073  1
  W  W24  1  0.942959  0.812563  0.107989  1
  W  W25  1  0.105656  0.943865  0.813976  1
  W  W26  1  0.811184  0.106669  0.944940  1
  W  W27  1  0.056577  0.186410  0.894793  1
