# generated using pymatgen
data_TmLu7(ScSb3)2
_symmetry_space_group_name_H-M   'P 1'
_cell_length_a   7.86571200
_cell_length_b   9.09400700
_cell_length_c   11.55533900
_cell_angle_alpha   90.00000000
_cell_angle_beta   90.00000000
_cell_angle_gamma   90.00000000
_symmetry_Int_Tables_number   1
_chemical_formula_structural   TmLu7(ScSb3)2
_chemical_formula_sum   'Tm2 Lu14 Sc4 Sb12'
_cell_volume   826.56310502
_cell_formula_units_Z   2
loop_
 _symmetry_equiv_pos_site_id
 _symmetry_equiv_pos_as_xyz
  1  'x, y, z'
loop_
 _atom_site_type_symbol
 _atom_site_label
 _atom_site_symmetry_multiplicity
 _atom_site_fract_x
 _atom_site_fract_y
 _atom_site_fract_z
 _atom_site_occupancy
  Tm  Tm0  1  0.185152  0.750000  0.720672  1
  Tm  Tm1  1  0.685152  0.750000  0.779328  1
  Lu  Lu2  1  0.196991  0.562712  0.439754  1
  Lu  Lu3  1  0.696991  0.937288  0.060246  1
  Lu  Lu4  1  0.803054  0.062691  0.560151  1
  Lu  Lu5  1  0.303054  0.437309  0.939849  1
  Lu  Lu6  1  0.803054  0.437309  0.560151  1
  Lu  Lu7  1  0.303054  0.062691  0.939849  1
  Lu  Lu8  1  0.196991  0.937288  0.439754  1
  Lu  Lu9  1  0.696991  0.562712  0.060246  1
  Lu  Lu10  1  0.814679  0.250000  0.279534  1
  Lu  Lu11  1  0.314679  0.250000  0.220466  1
  Lu  Lu12  1  0.855393  0.750000  0.284610  1
  Lu  Lu13  1  0.355393  0.750000  0.215390  1
  Lu  Lu14  1  0.144616  0.250000  0.715416  1
  Lu  Lu15  1  0.644616  0.250000  0.784584  1
  Sc  Sc16  1  0.027929  0.750000  0.988933  1
  Sc  Sc17  1  0.527929  0.750000  0.511067  1
  Sc  Sc18  1  0.972069  0.250000  0.011239  1
  Sc  Sc19  1  0.472069  0.250000  0.488761  1
  Sb  Sb20  1  0.933070  0.496115  0.830536  1
  Sb  Sb21  1  0.433070  0.003885  0.669464  1
  Sb  Sb22  1  0.067050  0.996537  0.169595  1
  Sb  Sb23  1  0.567050  0.503463  0.330405  1
  Sb  Sb24  1  0.067050  0.503463  0.169595  1
  Sb  Sb25  1  0.567050  0.996537  0.330405  1
  Sb  Sb26  1  0.933070  0.003885  0.830536  1
  Sb  Sb27  1  0.433070  0.496115  0.669464  1
  Sb  Sb28  1  0.906762  0.750000  0.540773  1
  Sb  Sb29  1  0.406762  0.750000  0.959227  1
  Sb  Sb30  1  0.093070  0.250000  0.458822  1
  Sb  Sb31  1  0.593070  0.250000  0.041178  1
