# generated using pymatgen
data_Tb5Dy3Sc12Si15Ge
_symmetry_space_group_name_H-M   'P 1'
_cell_length_a   7.11258888
_cell_length_b   7.39556299
_cell_length_c   14.01899200
_cell_angle_alpha   89.99956931
_cell_angle_beta   89.91554551
_cell_angle_gamma   90.03179143
_symmetry_Int_Tables_number   1
_chemical_formula_structural   Tb5Dy3Sc12Si15Ge
_chemical_formula_sum   'Tb5 Dy3 Sc12 Si15 Ge1'
_cell_volume   737.42048299
_cell_formula_units_Z   1
loop_
 _symmetry_equiv_pos_site_id
 _symmetry_equiv_pos_as_xyz
  1  'x, y, z'
loop_
 _atom_site_type_symbol
 _atom_site_label
 _atom_site_symmetry_multiplicity
 _atom_site_fract_x
 _atom_site_fract_y
 _atom_site_fract_z
 _atom_site_occupancy
  Tb  Tb0  1  0.012204  0.175075  0.096972  1
  Tb  Tb1  1  0.987939  0.825068  0.902977  1
  Tb  Tb2  1  0.488135  0.675159  0.903041  1
  Tb  Tb3  1  0.987332  0.825860  0.597012  1
  Tb  Tb4  1  0.512027  0.324996  0.097045  1
  Dy  Dy5  1  0.011236  0.174689  0.402387  1
  Dy  Dy6  1  0.512627  0.323740  0.402274  1
  Dy  Dy7  1  0.490380  0.676599  0.597366  1
  Sc  Sc8  1  0.160730  0.502184  0.751268  1
  Sc  Sc9  1  0.839185  0.497797  0.250124  1
  Sc  Sc10  1  0.339248  0.002130  0.250084  1
  Sc  Sc11  1  0.660621  0.997843  0.750032  1
  Sc  Sc12  1  0.332781  0.174305  0.626008  1
  Sc  Sc13  1  0.668477  0.823863  0.374492  1
  Sc  Sc14  1  0.168174  0.677187  0.374344  1
  Sc  Sc15  1  0.669134  0.823301  0.125265  1
  Sc  Sc16  1  0.829564  0.323514  0.625237  1
  Sc  Sc17  1  0.330970  0.176304  0.874675  1
  Sc  Sc18  1  0.830778  0.323324  0.874659  1
  Sc  Sc19  1  0.169048  0.676679  0.125306  1
  Si  Si20  1  0.033594  0.118123  0.749970  1
  Si  Si21  1  0.966329  0.882662  0.249842  1
  Si  Si22  1  0.466200  0.617685  0.249999  1
  Si  Si23  1  0.533243  0.382623  0.749935  1
  Si  Si24  1  0.285625  0.873861  0.749985  1
  Si  Si25  1  0.714603  0.125743  0.250085  1
  Si  Si26  1  0.214394  0.374192  0.250279  1
  Si  Si27  1  0.785697  0.625677  0.749828  1
  Si  Si28  1  0.837532  0.536168  0.459600  1
  Si  Si29  1  0.342085  0.964681  0.460457  1
  Si  Si30  1  0.842742  0.535429  0.039436  1
  Si  Si31  1  0.657494  0.035838  0.539404  1
  Si  Si32  1  0.157138  0.464642  0.960625  1
  Si  Si33  1  0.657212  0.035525  0.960559  1
  Si  Si34  1  0.342750  0.964491  0.039458  1
  Ge  Ge35  1  0.162774  0.463043  0.539967  1
