# generated using pymatgen
data_Eu2Ga9PtRh2
_symmetry_space_group_name_H-M   'P 1'
_cell_length_a   7.65927099
_cell_length_b   7.65927155
_cell_length_c   9.74678500
_cell_angle_alpha   90.00000000
_cell_angle_beta   90.00000000
_cell_angle_gamma   119.53443880
_symmetry_Int_Tables_number   1
_chemical_formula_structural   Eu2Ga9PtRh2
_chemical_formula_sum   'Eu4 Ga18 Pt2 Rh4'
_cell_volume   497.49104899
_cell_formula_units_Z   2
loop_
 _symmetry_equiv_pos_site_id
 _symmetry_equiv_pos_as_xyz
  1  'x, y, z'
loop_
 _atom_site_type_symbol
 _atom_site_label
 _atom_site_symmetry_multiplicity
 _atom_site_fract_x
 _atom_site_fract_y
 _atom_site_fract_z
 _atom_site_occupancy
  Eu  Eu0  1  0.665082  0.994057  0.250000  1
  Eu  Eu1  1  0.005943  0.334918  0.750000  1
  Eu  Eu2  1  0.001853  0.671041  0.250000  1
  Eu  Eu3  1  0.328959  0.998147  0.750000  1
  Ga  Ga4  1  0.669729  0.003669  0.923248  1
  Ga  Ga5  1  0.125489  0.127740  0.250000  1
  Ga  Ga6  1  0.996331  0.330271  0.423248  1
  Ga  Ga7  1  0.333345  0.329584  0.560582  1
  Ga  Ga8  1  0.338454  0.538039  0.250000  1
  Ga  Ga9  1  0.461961  0.661546  0.750000  1
  Ga  Ga10  1  0.872260  0.874511  0.750000  1
  Ga  Ga11  1  0.670416  0.666655  0.060582  1
  Ga  Ga12  1  0.670416  0.666655  0.439418  1
  Ga  Ga13  1  0.992620  0.665442  0.576852  1
  Ga  Ga14  1  0.992620  0.665442  0.923148  1
  Ga  Ga15  1  0.334558  0.007380  0.423148  1
  Ga  Ga16  1  0.659680  0.450251  0.750000  1
  Ga  Ga17  1  0.549749  0.340320  0.250000  1
  Ga  Ga18  1  0.333345  0.329584  0.939418  1
  Ga  Ga19  1  0.334558  0.007380  0.076852  1
  Ga  Ga20  1  0.669729  0.003669  0.576752  1
  Ga  Ga21  1  0.996331  0.330271  0.076752  1
  Pt  Pt22  1  0.329283  0.670717  0.500000  1
  Pt  Pt23  1  0.329283  0.670717  0.000000  1
  Rh  Rh24  1  0.669372  0.330628  0.500000  1
  Rh  Rh25  1  0.999632  0.000368  0.000000  1
  Rh  Rh26  1  0.999632  0.000368  0.500000  1
  Rh  Rh27  1  0.669372  0.330628  0.000000  1
