# generated using pymatgen
data_Tm4Sc16Bi11Sb
_symmetry_space_group_name_H-M   'P 1'
_cell_length_a   7.84100636
_cell_length_b   9.03020200
_cell_length_c   11.50922453
_cell_angle_alpha   90.00000000
_cell_angle_beta   89.96512887
_cell_angle_gamma   90.00000000
_symmetry_Int_Tables_number   1
_chemical_formula_structural   Tm4Sc16Bi11Sb
_chemical_formula_sum   'Tm4 Sc16 Bi11 Sb1'
_cell_volume   814.92052059
_cell_formula_units_Z   1
loop_
 _symmetry_equiv_pos_site_id
 _symmetry_equiv_pos_as_xyz
  1  'x, y, z'
loop_
 _atom_site_type_symbol
 _atom_site_label
 _atom_site_symmetry_multiplicity
 _atom_site_fract_x
 _atom_site_fract_y
 _atom_site_fract_z
 _atom_site_occupancy
  Tm  Tm0  1  0.185850  0.250000  0.780128  1
  Tm  Tm1  1  0.815320  0.750000  0.218289  1
  Tm  Tm2  1  0.315413  0.750000  0.281703  1
  Tm  Tm3  1  0.681024  0.250000  0.715815  1
  Sc  Sc4  1  0.022860  0.250000  0.511561  1
  Sc  Sc5  1  0.981419  0.750000  0.488740  1
  Sc  Sc6  1  0.480861  0.750000  0.011445  1
  Sc  Sc7  1  0.519238  0.250000  0.988441  1
  Sc  Sc8  1  0.351726  0.250000  0.283173  1
  Sc  Sc9  1  0.649278  0.750000  0.719971  1
  Sc  Sc10  1  0.149218  0.750000  0.779906  1
  Sc  Sc11  1  0.851129  0.250000  0.220151  1
  Sc  Sc12  1  0.193653  0.067839  0.062249  1
  Sc  Sc13  1  0.806470  0.932390  0.937841  1
  Sc  Sc14  1  0.307513  0.936019  0.561754  1
  Sc  Sc15  1  0.806470  0.567610  0.937841  1
  Sc  Sc16  1  0.690765  0.069686  0.438929  1
  Sc  Sc17  1  0.193653  0.432161  0.062249  1
  Sc  Sc18  1  0.690765  0.430314  0.438929  1
  Sc  Sc19  1  0.307513  0.563981  0.561754  1
  Bi  Bi20  1  0.597089  0.750000  0.465390  1
  Bi  Bi21  1  0.097100  0.750000  0.034601  1
  Bi  Bi22  1  0.903194  0.250000  0.964893  1
  Bi  Bi23  1  0.064587  0.008606  0.327851  1
  Bi  Bi24  1  0.935016  0.991458  0.672284  1
  Bi  Bi25  1  0.435167  0.991188  0.827676  1
  Bi  Bi26  1  0.935016  0.508542  0.672284  1
  Bi  Bi27  1  0.564756  0.008861  0.172351  1
  Bi  Bi28  1  0.064587  0.491394  0.327851  1
  Bi  Bi29  1  0.564756  0.491139  0.172351  1
  Bi  Bi30  1  0.435167  0.508812  0.827676  1
  Sb  Sb31  1  0.403424  0.250000  0.533920  1
