# generated using pymatgen
data_Tb4Dy15ErPb16
_symmetry_space_group_name_H-M   'P 1'
_cell_length_a   8.21231000
_cell_length_b   8.29409255
_cell_length_c   15.65669000
_cell_angle_alpha   89.99980398
_cell_angle_beta   90.00276471
_cell_angle_gamma   90.02174090
_symmetry_Int_Tables_number   1
_chemical_formula_structural   Tb4Dy15ErPb16
_chemical_formula_sum   'Tb4 Dy15 Er1 Pb16'
_cell_volume   1066.43436967
_cell_formula_units_Z   1
loop_
 _symmetry_equiv_pos_site_id
 _symmetry_equiv_pos_as_xyz
  1  'x, y, z'
loop_
 _atom_site_type_symbol
 _atom_site_label
 _atom_site_symmetry_multiplicity
 _atom_site_fract_x
 _atom_site_fract_y
 _atom_site_fract_z
 _atom_site_occupancy
  Tb  Tb0  1  0.465282  0.676930  0.100124  1
  Tb  Tb1  1  0.965515  0.823399  0.399877  1
  Tb  Tb2  1  0.534617  0.323262  0.600111  1
  Tb  Tb3  1  0.034593  0.176729  0.899968  1
  Dy  Dy4  1  0.377435  0.840595  0.879587  1
  Dy  Dy5  1  0.877456  0.659407  0.620513  1
  Dy  Dy6  1  0.622319  0.159229  0.379408  1
  Dy  Dy7  1  0.122713  0.340518  0.120577  1
  Dy  Dy8  1  0.622362  0.159218  0.120564  1
  Dy  Dy9  1  0.122750  0.340540  0.379465  1
  Dy  Dy10  1  0.377401  0.840608  0.620374  1
  Dy  Dy11  1  0.877415  0.659396  0.879513  1
  Dy  Dy12  1  0.534676  0.323323  0.899788  1
  Dy  Dy13  1  0.034648  0.176672  0.600121  1
  Dy  Dy14  1  0.465229  0.676871  0.399786  1
  Dy  Dy15  1  0.965461  0.823455  0.100229  1
  Dy  Dy16  1  0.208946  0.503844  0.750016  1
  Dy  Dy17  1  0.708938  0.996224  0.749971  1
  Dy  Dy18  1  0.791086  0.496243  0.250030  1
  Er  Er19  1  0.290994  0.003979  0.249973  1
  Pb  Pb20  1  0.280865  0.032799  0.043141  1
  Pb  Pb21  1  0.780804  0.467055  0.457212  1
  Pb  Pb22  1  0.719165  0.966989  0.542597  1
  Pb  Pb23  1  0.219151  0.532939  0.957394  1
  Pb  Pb24  1  0.719027  0.966853  0.957514  1
  Pb  Pb25  1  0.218997  0.533085  0.542488  1
  Pb  Pb26  1  0.281030  0.032928  0.456977  1
  Pb  Pb27  1  0.780951  0.466914  0.042677  1
  Pb  Pb28  1  0.572921  0.626326  0.749984  1
  Pb  Pb29  1  0.072948  0.873721  0.750015  1
  Pb  Pb30  1  0.426876  0.373285  0.249987  1
  Pb  Pb31  1  0.927758  0.125807  0.250018  1
  Pb  Pb32  1  0.345976  0.151969  0.750062  1
  Pb  Pb33  1  0.846055  0.347790  0.749930  1
  Pb  Pb34  1  0.653567  0.848064  0.250072  1
  Pb  Pb35  1  0.154074  0.653037  0.249937  1
