# generated using pymatgen
data_Ac16Ho4In11Pb5
_symmetry_space_group_name_H-M   'P 1'
_cell_length_a   8.47831535
_cell_length_b   16.90053707
_cell_length_c   9.10138425
_cell_angle_alpha   90.07013442
_cell_angle_beta   90.07098097
_cell_angle_gamma   90.11443895
_symmetry_Int_Tables_number   1
_chemical_formula_structural   Ac16Ho4In11Pb5
_chemical_formula_sum   'Ac16 Ho4 In11 Pb5'
_cell_volume   1304.11531754
_cell_formula_units_Z   1
loop_
 _symmetry_equiv_pos_site_id
 _symmetry_equiv_pos_as_xyz
  1  'x, y, z'
loop_
 _atom_site_type_symbol
 _atom_site_label
 _atom_site_symmetry_multiplicity
 _atom_site_fract_x
 _atom_site_fract_y
 _atom_site_fract_z
 _atom_site_occupancy
  Ac  Ac0  1  0.665212  0.627951  0.164566  1
  Ac  Ac1  1  0.166441  0.873445  0.331682  1
  Ac  Ac2  1  0.331245  0.126377  0.831393  1
  Ac  Ac3  1  0.837786  0.372793  0.671137  1
  Ac  Ac4  1  0.342686  0.371973  0.832951  1
  Ac  Ac5  1  0.840957  0.126762  0.670757  1
  Ac  Ac6  1  0.659273  0.872663  0.168312  1
  Ac  Ac7  1  0.160313  0.627011  0.329168  1
  Ac  Ac8  1  0.500872  0.595504  0.687921  1
  Ac  Ac9  1  0.005624  0.906211  0.810345  1
  Ac  Ac10  1  0.492971  0.092287  0.312326  1
  Ac  Ac11  1  0.995988  0.405473  0.189314  1
  Ac  Ac12  1  0.501537  0.405564  0.309649  1
  Ac  Ac13  1  0.998906  0.093993  0.188085  1
  Ac  Ac14  1  0.498648  0.905378  0.686693  1
  Ac  Ac15  1  0.999813  0.595279  0.813891  1
  Ho  Ho16  1  0.821846  0.751867  0.522198  1
  Ho  Ho17  1  0.321302  0.751279  0.977113  1
  Ho  Ho18  1  0.179864  0.249841  0.475910  1
  Ho  Ho19  1  0.677426  0.248856  0.026080  1
  In  In20  1  0.678121  0.456534  0.969088  1
  In  In21  1  0.175216  0.043559  0.530426  1
  In  In22  1  0.323635  0.955558  0.029790  1
  In  In23  1  0.468084  0.748032  0.412409  1
  In  In24  1  0.968674  0.753313  0.085596  1
  In  In25  1  0.533319  0.246743  0.588107  1
  In  In26  1  0.031486  0.253103  0.916631  1
  In  In27  1  0.704235  0.750687  0.855428  1
  In  In28  1  0.202649  0.748938  0.641231  1
  In  In29  1  0.296108  0.249722  0.142506  1
  In  In30  1  0.797409  0.249957  0.360759  1
  Pb  Pb31  1  0.818361  0.544060  0.468455  1
  Pb  Pb32  1  0.325008  0.542596  0.030856  1
  Pb  Pb33  1  0.825684  0.957444  0.468390  1
  Pb  Pb34  1  0.671338  0.043132  0.969568  1
  Pb  Pb35  1  0.181960  0.456116  0.531270  1
