# generated using pymatgen
data_Dy16MgNi4Ag3
_symmetry_space_group_name_H-M   'P 1'
_cell_length_a   9.47755736
_cell_length_b   9.48914796
_cell_length_c   9.48914800
_cell_angle_alpha   60.00000684
_cell_angle_beta   59.95954367
_cell_angle_gamma   59.95954560
_symmetry_Int_Tables_number   1
_chemical_formula_structural   Dy16MgNi4Ag3
_chemical_formula_sum   'Dy16 Mg1 Ni4 Ag3'
_cell_volume   603.07322976
_cell_formula_units_Z   1
loop_
 _symmetry_equiv_pos_site_id
 _symmetry_equiv_pos_as_xyz
  1  'x, y, z'
loop_
 _atom_site_type_symbol
 _atom_site_label
 _atom_site_symmetry_multiplicity
 _atom_site_fract_x
 _atom_site_fract_y
 _atom_site_fract_z
 _atom_site_occupancy
  Dy  Dy0  1  0.808790  0.190252  0.190252  1
  Dy  Dy1  1  0.185551  0.813252  0.813252  1
  Dy  Dy2  1  0.185551  0.813252  0.187947  1
  Dy  Dy3  1  0.808790  0.190252  0.810705  1
  Dy  Dy4  1  0.185551  0.187947  0.813252  1
  Dy  Dy5  1  0.808790  0.810705  0.190252  1
  Dy  Dy6  1  0.934187  0.565179  0.565179  1
  Dy  Dy7  1  0.564743  0.935178  0.935178  1
  Dy  Dy8  1  0.564743  0.935178  0.564902  1
  Dy  Dy9  1  0.934187  0.565179  0.935454  1
  Dy  Dy10  1  0.564743  0.564902  0.935178  1
  Dy  Dy11  1  0.934187  0.935454  0.565179  1
  Dy  Dy12  1  0.349257  0.347295  0.347295  1
  Dy  Dy13  1  0.349257  0.347295  0.956152  1
  Dy  Dy14  1  0.349257  0.956152  0.347295  1
  Dy  Dy15  1  0.942824  0.352392  0.352392  1
  Mg  Mg16  1  0.288364  0.570545  0.570545  1
  Ni  Ni17  1  0.139746  0.144008  0.144008  1
  Ni  Ni18  1  0.139746  0.144008  0.572237  1
  Ni  Ni19  1  0.139746  0.572237  0.144008  1
  Ni  Ni20  1  0.573750  0.142083  0.142083  1
  Ag  Ag21  1  0.582745  0.583979  0.583979  1
  Ag  Ag22  1  0.582745  0.583979  0.249295  1
  Ag  Ag23  1  0.582745  0.249295  0.583979  1
