# generated using pymatgen
data_TbErIr2O7
_symmetry_space_group_name_H-M   'P 1'
_cell_length_a   7.23785968
_cell_length_b   7.23786053
_cell_length_c   7.27256100
_cell_angle_alpha   59.84128332
_cell_angle_beta   59.84127939
_cell_angle_gamma   59.67588929
_symmetry_Int_Tables_number   1
_chemical_formula_structural   TbErIr2O7
_chemical_formula_sum   'Tb2 Er2 Ir4 O14'
_cell_volume   268.08757912
_cell_formula_units_Z   2
loop_
 _symmetry_equiv_pos_site_id
 _symmetry_equiv_pos_as_xyz
  1  'x, y, z'
loop_
 _atom_site_type_symbol
 _atom_site_label
 _atom_site_symmetry_multiplicity
 _atom_site_fract_x
 _atom_site_fract_y
 _atom_site_fract_z
 _atom_site_occupancy
  Tb  Tb0  1  0.125000  0.125000  0.625000  1
  Tb  Tb1  1  0.125000  0.125000  0.125000  1
  Er  Er2  1  0.625000  0.125000  0.125000  1
  Er  Er3  1  0.125000  0.625000  0.125000  1
  Ir  Ir4  1  0.125000  0.625000  0.625000  1
  Ir  Ir5  1  0.625000  0.125000  0.625000  1
  Ir  Ir6  1  0.625000  0.625000  0.125000  1
  Ir  Ir7  1  0.625000  0.625000  0.625000  1
  O  O8  1  0.712388  0.712388  0.287612  1
  O  O9  1  0.286276  0.286276  0.713724  1
  O  O10  1  0.709279  0.286854  0.716748  1
  O  O11  1  0.286854  0.709279  0.287120  1
  O  O12  1  0.286854  0.709279  0.716748  1
  O  O13  1  0.709279  0.286854  0.287120  1
  O  O14  1  0.537612  0.537612  0.962388  1
  O  O15  1  0.963724  0.963724  0.536276  1
  O  O16  1  0.540721  0.963146  0.533252  1
  O  O17  1  0.963146  0.540721  0.962880  1
  O  O18  1  0.963146  0.540721  0.533252  1
  O  O19  1  0.540721  0.963146  0.962880  1
  O  O20  1  0.252255  0.252255  0.247745  1
  O  O21  1  0.997745  0.997745  0.002255  1
