# generated using pymatgen
data_Tb5ThCoPd
_symmetry_space_group_name_H-M   'P 1'
_cell_length_a   6.37913600
_cell_length_b   7.00229400
_cell_length_c   9.77147600
_cell_angle_alpha   90.00000000
_cell_angle_beta   90.00000000
_cell_angle_gamma   90.00000000
_symmetry_Int_Tables_number   1
_chemical_formula_structural   Tb5ThCoPd
_chemical_formula_sum   'Tb10 Th2 Co2 Pd2'
_cell_volume   436.47801349
_cell_formula_units_Z   2
loop_
 _symmetry_equiv_pos_site_id
 _symmetry_equiv_pos_as_xyz
  1  'x, y, z'
loop_
 _atom_site_type_symbol
 _atom_site_label
 _atom_site_symmetry_multiplicity
 _atom_site_fract_x
 _atom_site_fract_y
 _atom_site_fract_z
 _atom_site_occupancy
  Tb  Tb0  1  0.327732  0.673657  0.072184  1
  Tb  Tb1  1  0.172268  0.173657  0.427816  1
  Tb  Tb2  1  0.672318  0.321947  0.558914  1
  Tb  Tb3  1  0.827682  0.821947  0.941086  1
  Tb  Tb4  1  0.672318  0.321947  0.941086  1
  Tb  Tb5  1  0.827682  0.821947  0.558914  1
  Tb  Tb6  1  0.327732  0.673657  0.427816  1
  Tb  Tb7  1  0.172268  0.173657  0.072184  1
  Tb  Tb8  1  0.140178  0.473399  0.750000  1
  Tb  Tb9  1  0.359822  0.973399  0.750000  1
  Th  Th10  1  0.845134  0.552772  0.250000  1
  Th  Th11  1  0.654866  0.052772  0.250000  1
  Co  Co12  1  0.030773  0.869817  0.250000  1
  Co  Co13  1  0.469227  0.369817  0.250000  1
  Pd  Pd14  1  0.936660  0.112803  0.750000  1
  Pd  Pd15  1  0.563340  0.612803  0.750000  1
