# generated using pymatgen
data_ErLu2Zr3(SnRh)6
_symmetry_space_group_name_H-M   'P 1'
_cell_length_a   7.48260606
_cell_length_b   7.49360532
_cell_length_c   7.44024800
_cell_angle_alpha   90.00000000
_cell_angle_beta   90.00000000
_cell_angle_gamma   119.96538731
_symmetry_Int_Tables_number   1
_chemical_formula_structural   ErLu2Zr3(SnRh)6
_chemical_formula_sum   'Er1 Lu2 Zr3 Sn6 Rh6'
_cell_volume   361.42077107
_cell_formula_units_Z   1
loop_
 _symmetry_equiv_pos_site_id
 _symmetry_equiv_pos_as_xyz
  1  'x, y, z'
loop_
 _atom_site_type_symbol
 _atom_site_label
 _atom_site_symmetry_multiplicity
 _atom_site_fract_x
 _atom_site_fract_y
 _atom_site_fract_z
 _atom_site_occupancy
  Er  Er0  1  0.594379  0.999143  0.750000  1
  Lu  Lu1  1  0.403537  0.404270  0.750000  1
  Lu  Lu2  1  0.000568  0.596406  0.750000  1
  Zr  Zr3  1  0.605413  0.002002  0.250000  1
  Zr  Zr4  1  0.396992  0.394861  0.250000  1
  Zr  Zr5  1  0.997968  0.603023  0.250000  1
  Sn  Sn6  1  0.265901  0.999073  0.005739  1
  Sn  Sn7  1  0.732921  0.733204  0.495586  1
  Sn  Sn8  1  0.001527  0.267707  0.495602  1
  Sn  Sn9  1  0.001527  0.267707  0.004398  1
  Sn  Sn10  1  0.732921  0.733204  0.004414  1
  Sn  Sn11  1  0.265901  0.999073  0.494261  1
  Rh  Rh12  1  0.666934  0.334656  0.023735  1
  Rh  Rh13  1  0.666934  0.334656  0.476265  1
  Rh  Rh14  1  0.332374  0.665465  0.029473  1
  Rh  Rh15  1  0.332374  0.665465  0.470527  1
  Rh  Rh16  1  0.002074  0.000049  0.750000  1
  Rh  Rh17  1  0.999756  0.000035  0.250000  1
