# generated using pymatgen
data_Ac3Sn13Ir4
_symmetry_space_group_name_H-M   'P 1'
_cell_length_a   10.00320800
_cell_length_b   10.00320800
_cell_length_c   10.00320800
_cell_angle_alpha   90.00000000
_cell_angle_beta   90.00000000
_cell_angle_gamma   90.00000000
_symmetry_Int_Tables_number   1
_chemical_formula_structural   Ac3Sn13Ir4
_chemical_formula_sum   'Ac6 Sn26 Ir8'
_cell_volume   1000.96270877
_cell_formula_units_Z   2
loop_
 _symmetry_equiv_pos_site_id
 _symmetry_equiv_pos_as_xyz
  1  'x, y, z'
loop_
 _atom_site_type_symbol
 _atom_site_label
 _atom_site_symmetry_multiplicity
 _atom_site_fract_x
 _atom_site_fract_y
 _atom_site_fract_z
 _atom_site_occupancy
  Ac  Ac0  1  0.250000  0.500000  0.000000  1
  Ac  Ac1  1  0.750000  0.500000  0.000000  1
  Ac  Ac2  1  0.500000  0.000000  0.250000  1
  Ac  Ac3  1  0.000000  0.250000  0.500000  1
  Ac  Ac4  1  0.000000  0.750000  0.500000  1
  Ac  Ac5  1  0.500000  0.000000  0.750000  1
  Sn  Sn6  1  0.000000  0.000000  0.000000  1
  Sn  Sn7  1  0.302835  0.152254  0.000000  1
  Sn  Sn8  1  0.697164  0.152254  0.000000  1
  Sn  Sn9  1  0.302835  0.847747  0.000000  1
  Sn  Sn10  1  0.697164  0.847747  0.000000  1
  Sn  Sn11  1  0.000000  0.302835  0.152254  1
  Sn  Sn12  1  0.000000  0.697164  0.152254  1
  Sn  Sn13  1  0.500000  0.347747  0.197165  1
  Sn  Sn14  1  0.500000  0.652253  0.197165  1
  Sn  Sn15  1  0.152254  0.000000  0.302835  1
  Sn  Sn16  1  0.847747  0.000000  0.302835  1
  Sn  Sn17  1  0.197165  0.500000  0.347747  1
  Sn  Sn18  1  0.802836  0.500000  0.347747  1
  Sn  Sn19  1  0.347747  0.197165  0.500000  1
  Sn  Sn20  1  0.652253  0.197165  0.500000  1
  Sn  Sn21  1  0.500000  0.500000  0.500000  1
  Sn  Sn22  1  0.347747  0.802836  0.500000  1
  Sn  Sn23  1  0.652253  0.802836  0.500000  1
  Sn  Sn24  1  0.197165  0.500000  0.652253  1
  Sn  Sn25  1  0.802836  0.500000  0.652253  1
  Sn  Sn26  1  0.152254  0.000000  0.697164  1
  Sn  Sn27  1  0.847747  0.000000  0.697164  1
  Sn  Sn28  1  0.500000  0.347747  0.802836  1
  Sn  Sn29  1  0.500000  0.652253  0.802836  1
  Sn  Sn30  1  0.000000  0.302835  0.847747  1
  Sn  Sn31  1  0.000000  0.697164  0.847747  1
  Ir  Ir32  1  0.250000  0.250000  0.250000  1
  Ir  Ir33  1  0.750000  0.250000  0.250000  1
  Ir  Ir34  1  0.250000  0.750000  0.250000  1
  Ir  Ir35  1  0.750000  0.750000  0.250000  1
  Ir  Ir36  1  0.250000  0.250000  0.750000  1
  Ir  Ir37  1  0.750000  0.250000  0.750000  1
  Ir  Ir38  1  0.250000  0.750000  0.750000  1
  Ir  Ir39  1  0.750000  0.750000  0.750000  1
