# generated using pymatgen
data_NdAl10IrOs
_symmetry_space_group_name_H-M   'P 1'
_cell_length_a   6.89069993
_cell_length_b   6.89830279
_cell_length_c   9.22568100
_cell_angle_alpha   90.00000000
_cell_angle_beta   90.00000000
_cell_angle_gamma   96.98750058
_symmetry_Int_Tables_number   1
_chemical_formula_structural   NdAl10IrOs
_chemical_formula_sum   'Nd2 Al20 Ir2 Os2'
_cell_volume   435.27763910
_cell_formula_units_Z   2
loop_
 _symmetry_equiv_pos_site_id
 _symmetry_equiv_pos_as_xyz
  1  'x, y, z'
loop_
 _atom_site_type_symbol
 _atom_site_label
 _atom_site_symmetry_multiplicity
 _atom_site_fract_x
 _atom_site_fract_y
 _atom_site_fract_z
 _atom_site_occupancy
  Nd  Nd0  1  0.871165  0.124671  0.750000  1
  Nd  Nd1  1  0.128835  0.875329  0.250000  1
  Al  Al2  1  0.620507  0.375942  0.550311  1
  Al  Al3  1  0.379493  0.624058  0.449689  1
  Al  Al4  1  0.379493  0.624058  0.050311  1
  Al  Al5  1  0.620507  0.375942  0.949689  1
  Al  Al6  1  0.224905  0.222887  0.499180  1
  Al  Al7  1  0.775095  0.777113  0.500820  1
  Al  Al8  1  0.775095  0.777113  0.999180  1
  Al  Al9  1  0.224905  0.222887  0.000820  1
  Al  Al10  1  0.841020  0.157679  0.103261  1
  Al  Al11  1  0.158980  0.842321  0.896739  1
  Al  Al12  1  0.158980  0.842321  0.603261  1
  Al  Al13  1  0.841020  0.157679  0.396739  1
  Al  Al14  1  0.854381  0.589317  0.750000  1
  Al  Al15  1  0.145619  0.410683  0.250000  1
  Al  Al16  1  0.411846  0.143981  0.750000  1
  Al  Al17  1  0.588154  0.856019  0.250000  1
  Al  Al18  1  0.223539  0.483311  0.750000  1
  Al  Al19  1  0.776461  0.516689  0.250000  1
  Al  Al20  1  0.516443  0.779392  0.750000  1
  Al  Al21  1  0.483557  0.220608  0.250000  1
  Ir  Ir22  1  0.000000  0.500000  0.500000  1
  Ir  Ir23  1  0.000000  0.500000  0.000000  1
  Os  Os24  1  0.500000  0.000000  0.000000  1
  Os  Os25  1  0.500000  0.000000  0.500000  1
