# generated using pymatgen
data_Tb3Lu3ReBi2
_symmetry_space_group_name_H-M   'P 1'
_cell_length_a   8.20936700
_cell_length_b   8.20936606
_cell_length_c   4.32461000
_cell_angle_alpha   90.00000000
_cell_angle_beta   90.00000000
_cell_angle_gamma   120.00000781
_symmetry_Int_Tables_number   1
_chemical_formula_structural   Tb3Lu3ReBi2
_chemical_formula_sum   'Tb3 Lu3 Re1 Bi2'
_cell_volume   252.40435191
_cell_formula_units_Z   1
loop_
 _symmetry_equiv_pos_site_id
 _symmetry_equiv_pos_as_xyz
  1  'x, y, z'
loop_
 _atom_site_type_symbol
 _atom_site_label
 _atom_site_symmetry_multiplicity
 _atom_site_fract_x
 _atom_site_fract_y
 _atom_site_fract_z
 _atom_site_occupancy
  Tb  Tb0  1  0.612000  0.000000  0.000000  1
  Tb  Tb1  1  0.000000  0.612000  0.000000  1
  Tb  Tb2  1  0.388000  0.388000  0.000000  1
  Lu  Lu3  1  0.228787  0.000000  0.500000  1
  Lu  Lu4  1  0.000000  0.228787  0.500000  1
  Lu  Lu5  1  0.771213  0.771213  0.500000  1
  Re  Re6  1  0.000000  0.000000  0.000000  1
  Bi  Bi7  1  0.333333  0.666667  0.500000  1
  Bi  Bi8  1  0.666667  0.333333  0.500000  1
