# generated using pymatgen
data_Dy6SnB2Rh12Pb
_symmetry_space_group_name_H-M   'P 1'
_cell_length_a   5.82327300
_cell_length_b   5.82327245
_cell_length_c   13.92006500
_cell_angle_alpha   90.00000000
_cell_angle_beta   90.00000000
_cell_angle_gamma   119.99999747
_symmetry_Int_Tables_number   1
_chemical_formula_structural   Dy6SnB2Rh12Pb
_chemical_formula_sum   'Dy6 Sn1 B2 Rh12 Pb1'
_cell_volume   408.79555608
_cell_formula_units_Z   1
loop_
 _symmetry_equiv_pos_site_id
 _symmetry_equiv_pos_as_xyz
  1  'x, y, z'
loop_
 _atom_site_type_symbol
 _atom_site_label
 _atom_site_symmetry_multiplicity
 _atom_site_fract_x
 _atom_site_fract_y
 _atom_site_fract_z
 _atom_site_occupancy
  Dy  Dy0  1  0.000000  0.000000  0.750000  1
  Dy  Dy1  1  0.000000  0.000000  0.250000  1
  Dy  Dy2  1  0.333333  0.666667  0.410024  1
  Dy  Dy3  1  0.666667  0.333333  0.912731  1
  Dy  Dy4  1  0.666667  0.333333  0.587269  1
  Dy  Dy5  1  0.333333  0.666667  0.089976  1
  Sn  Sn6  1  0.666667  0.333333  0.250000  1
  B  B7  1  0.000000  0.000000  0.498241  1
  B  B8  1  0.000000  0.000000  0.001759  1
  Rh  Rh9  1  0.344249  0.172125  0.412185  1
  Rh  Rh10  1  0.827875  0.172125  0.412185  1
  Rh  Rh11  1  0.827875  0.655751  0.412185  1
  Rh  Rh12  1  0.171319  0.342638  0.915626  1
  Rh  Rh13  1  0.657362  0.828681  0.584374  1
  Rh  Rh14  1  0.657362  0.828681  0.915626  1
  Rh  Rh15  1  0.344249  0.172125  0.087815  1
  Rh  Rh16  1  0.171319  0.342638  0.584374  1
  Rh  Rh17  1  0.171319  0.828681  0.584374  1
  Rh  Rh18  1  0.827875  0.172125  0.087815  1
  Rh  Rh19  1  0.827875  0.655751  0.087815  1
  Rh  Rh20  1  0.171319  0.828681  0.915626  1
  Pb  Pb21  1  0.333333  0.666667  0.750000  1
