# generated using pymatgen
data_ScU(Ni7B2)3
_symmetry_space_group_name_H-M   'P 1'
_cell_length_a   7.50974501
_cell_length_b   7.50807098
_cell_length_c   7.50785904
_cell_angle_alpha   119.98924322
_cell_angle_beta   90.00104517
_cell_angle_gamma   120.00336012
_symmetry_Int_Tables_number   1
_chemical_formula_structural   ScU(Ni7B2)3
_chemical_formula_sum   'Sc1 U1 Ni21 B6'
_cell_volume   299.36377984
_cell_formula_units_Z   1
loop_
 _symmetry_equiv_pos_site_id
 _symmetry_equiv_pos_as_xyz
  1  'x, y, z'
loop_
 _atom_site_type_symbol
 _atom_site_label
 _atom_site_symmetry_multiplicity
 _atom_site_fract_x
 _atom_site_fract_y
 _atom_site_fract_z
 _atom_site_occupancy
  Sc  Sc0  1  0.249932  0.499907  0.750043  1
  U  U1  1  0.750085  0.500068  0.250003  1
  Ni  Ni2  1  0.000022  0.000012  0.999983  1
  Ni  Ni3  1  0.340254  0.001538  0.000745  1
  Ni  Ni4  1  0.661277  0.001533  0.000755  1
  Ni  Ni5  1  0.999249  0.339493  0.000749  1
  Ni  Ni6  1  0.340219  0.339426  0.000783  1
  Ni  Ni7  1  0.999229  0.660533  0.000773  1
  Ni  Ni8  1  0.661312  0.660567  0.000786  1
  Ni  Ni9  1  0.385899  0.771865  0.157843  1
  Ni  Ni10  1  0.999219  0.998481  0.338694  1
  Ni  Ni11  1  0.999238  0.339481  0.338695  1
  Ni  Ni12  1  0.340240  0.339480  0.338685  1
  Ni  Ni13  1  0.614748  0.229488  0.385247  1
  Ni  Ni14  1  0.155764  0.770501  0.385266  1
  Ni  Ni15  1  0.614739  0.770509  0.385268  1
  Ni  Ni16  1  0.842208  0.228135  0.614077  1
  Ni  Ni17  1  0.385900  0.771861  0.614048  1
  Ni  Ni18  1  0.385882  0.228101  0.614063  1
  Ni  Ni19  1  0.999264  0.998479  0.659766  1
  Ni  Ni20  1  0.999287  0.660529  0.659737  1
  Ni  Ni21  1  0.661344  0.660560  0.659738  1
  Ni  Ni22  1  0.614733  0.229470  0.844237  1
  B  B23  1  0.731969  0.000004  0.268055  1
  B  B24  1  0.267998  0.999957  0.268038  1
  B  B25  1  0.268021  0.536109  0.268051  1
  B  B26  1  0.268008  0.999966  0.731943  1
  B  B27  1  0.731987  0.463922  0.731975  1
  B  B28  1  0.731976  0.000038  0.731958  1
