# generated using pymatgen
data_ErPa2Zn2GaFePd2
_symmetry_space_group_name_H-M   'P 1'
_cell_length_a   7.24617000
_cell_length_b   7.37080004
_cell_length_c   3.69402900
_cell_angle_alpha   90.00000000
_cell_angle_beta   90.00000000
_cell_angle_gamma   120.97232048
_symmetry_Int_Tables_number   1
_chemical_formula_structural   ErPa2Zn2GaFePd2
_chemical_formula_sum   'Er1 Pa2 Zn2 Ga1 Fe1 Pd2'
_cell_volume   169.16676332
_cell_formula_units_Z   1
loop_
 _symmetry_equiv_pos_site_id
 _symmetry_equiv_pos_as_xyz
  1  'x, y, z'
loop_
 _atom_site_type_symbol
 _atom_site_label
 _atom_site_symmetry_multiplicity
 _atom_site_fract_x
 _atom_site_fract_y
 _atom_site_fract_z
 _atom_site_occupancy
  Er  Er0  1  0.405558  0.409425  0.000000  1
  Pa  Pa1  1  0.572088  0.974657  0.000000  1
  Pa  Pa2  1  0.030387  0.592664  0.000000  1
  Zn  Zn3  1  0.009066  0.253163  0.500000  1
  Zn  Zn4  1  0.733399  0.729870  0.500000  1
  Ga  Ga5  1  0.253778  0.010604  0.500000  1
  Fe  Fe6  1  0.321197  0.705309  0.500000  1
  Pd  Pd7  1  0.992799  0.990917  0.000000  1
  Pd  Pd8  1  0.681726  0.333390  0.500000  1
