# generated using pymatgen
data_DyTm2(Al3Ru)4
_symmetry_space_group_name_H-M   'P 1'
_cell_length_a   8.76821674
_cell_length_b   8.76821627
_cell_length_c   9.58419400
_cell_angle_alpha   90.00000000
_cell_angle_beta   90.00000000
_cell_angle_gamma   119.92784012
_symmetry_Int_Tables_number   1
_chemical_formula_structural   DyTm2(Al3Ru)4
_chemical_formula_sum   'Dy2 Tm4 Al24 Ru8'
_cell_volume   638.59290264
_cell_formula_units_Z   2
loop_
 _symmetry_equiv_pos_site_id
 _symmetry_equiv_pos_as_xyz
  1  'x, y, z'
loop_
 _atom_site_type_symbol
 _atom_site_label
 _atom_site_symmetry_multiplicity
 _atom_site_fract_x
 _atom_site_fract_y
 _atom_site_fract_z
 _atom_site_occupancy
  Dy  Dy0  1  0.806696  0.193304  0.750000  1
  Dy  Dy1  1  0.193304  0.806696  0.250000  1
  Tm  Tm2  1  0.389043  0.194430  0.750000  1
  Tm  Tm3  1  0.610957  0.805570  0.250000  1
  Tm  Tm4  1  0.805570  0.610957  0.750000  1
  Tm  Tm5  1  0.194430  0.389043  0.250000  1
  Al  Al6  1  0.666654  0.333346  0.981271  1
  Al  Al7  1  0.333346  0.666654  0.018729  1
  Al  Al8  1  0.333346  0.666654  0.481271  1
  Al  Al9  1  0.666654  0.333346  0.518729  1
  Al  Al10  1  0.837427  0.162573  0.422116  1
  Al  Al11  1  0.162573  0.837427  0.577884  1
  Al  Al12  1  0.325383  0.163034  0.422773  1
  Al  Al13  1  0.162573  0.837427  0.922116  1
  Al  Al14  1  0.674617  0.836966  0.577227  1
  Al  Al15  1  0.837427  0.162573  0.077884  1
  Al  Al16  1  0.836966  0.674617  0.422773  1
  Al  Al17  1  0.674617  0.836966  0.922773  1
  Al  Al18  1  0.163034  0.325383  0.577227  1
  Al  Al19  1  0.325383  0.163034  0.077227  1
  Al  Al20  1  0.163034  0.325383  0.922773  1
  Al  Al21  1  0.836966  0.674617  0.077227  1
  Al  Al22  1  0.438799  0.561201  0.750000  1
  Al  Al23  1  0.561201  0.438799  0.250000  1
  Al  Al24  1  0.123271  0.562032  0.750000  1
  Al  Al25  1  0.876729  0.437968  0.250000  1
  Al  Al26  1  0.437968  0.876729  0.750000  1
  Al  Al27  1  0.562032  0.123271  0.250000  1
  Al  Al28  1  0.001156  0.998844  0.750000  1
  Al  Al29  1  0.998844  0.001156  0.250000  1
  Ru  Ru30  1  0.500000  0.500000  0.000000  1
  Ru  Ru31  1  0.000000  0.500000  0.000000  1
  Ru  Ru32  1  0.500000  0.500000  0.500000  1
  Ru  Ru33  1  0.500000  0.000000  0.000000  1
  Ru  Ru34  1  0.000000  0.500000  0.500000  1
  Ru  Ru35  1  0.500000  0.000000  0.500000  1
  Ru  Ru36  1  0.000000  0.000000  0.000000  1
  Ru  Ru37  1  0.000000  0.000000  0.500000  1
