# generated using pymatgen
data_TmPbF7
_symmetry_space_group_name_H-M   'P 1'
_cell_length_a   5.73947400
_cell_length_b   6.08229773
_cell_length_c   8.34280847
_cell_angle_alpha   103.00289407
_cell_angle_beta   90.00000000
_cell_angle_gamma   90.00000000
_symmetry_Int_Tables_number   1
_chemical_formula_structural   TmPbF7
_chemical_formula_sum   'Tm2 Pb2 F14'
_cell_volume   283.77289359
_cell_formula_units_Z   2
loop_
 _symmetry_equiv_pos_site_id
 _symmetry_equiv_pos_as_xyz
  1  'x, y, z'
loop_
 _atom_site_type_symbol
 _atom_site_label
 _atom_site_symmetry_multiplicity
 _atom_site_fract_x
 _atom_site_fract_y
 _atom_site_fract_z
 _atom_site_occupancy
  Tm  Tm0  1  0.696061  0.652426  0.682098  1
  Tm  Tm1  1  0.196061  0.347574  0.317902  1
  Pb  Pb2  1  0.705857  0.810688  0.226946  1
  Pb  Pb3  1  0.205857  0.189312  0.773054  1
  F  F4  1  0.899676  0.465152  0.481126  1
  F  F5  1  0.399676  0.534848  0.518874  1
  F  F6  1  0.431933  0.915494  0.768449  1
  F  F7  1  0.931933  0.084506  0.231551  1
  F  F8  1  0.940094  0.943031  0.758096  1
  F  F9  1  0.440094  0.056969  0.241904  1
  F  F10  1  0.987589  0.471159  0.792337  1
  F  F11  1  0.487589  0.528841  0.207663  1
  F  F12  1  0.696942  0.758511  0.972694  1
  F  F13  1  0.196942  0.241489  0.027306  1
  F  F14  1  0.704173  0.874020  0.483779  1
  F  F15  1  0.204173  0.125980  0.516221  1
  F  F16  1  0.514034  0.384737  0.781670  1
  F  F17  1  0.014034  0.615263  0.218330  1
