# generated using pymatgen
data_Y4Tm(SiB4)2
_symmetry_space_group_name_H-M   'P 1'
_cell_length_a   7.22991100
_cell_length_b   7.22991100
_cell_length_c   8.06674700
_cell_angle_alpha   90.00000000
_cell_angle_beta   90.00000000
_cell_angle_gamma   90.00000000
_symmetry_Int_Tables_number   1
_chemical_formula_structural   Y4Tm(SiB4)2
_chemical_formula_sum   'Y8 Tm2 Si4 B16'
_cell_volume   421.66187790
_cell_formula_units_Z   2
loop_
 _symmetry_equiv_pos_site_id
 _symmetry_equiv_pos_as_xyz
  1  'x, y, z'
loop_
 _atom_site_type_symbol
 _atom_site_label
 _atom_site_symmetry_multiplicity
 _atom_site_fract_x
 _atom_site_fract_y
 _atom_site_fract_z
 _atom_site_occupancy
  Y  Y0  1  0.680492  0.180492  0.225241  1
  Y  Y1  1  0.319508  0.819508  0.774759  1
  Y  Y2  1  0.319508  0.819508  0.225241  1
  Y  Y3  1  0.819508  0.680492  0.225241  1
  Y  Y4  1  0.819508  0.680492  0.774759  1
  Y  Y5  1  0.680492  0.180492  0.774759  1
  Y  Y6  1  0.180492  0.319508  0.774759  1
  Y  Y7  1  0.180492  0.319508  0.225241  1
  Tm  Tm8  1  0.000000  0.000000  0.500000  1
  Tm  Tm9  1  0.500000  0.500000  0.500000  1
  Si  Si10  1  0.115559  0.615559  0.500000  1
  Si  Si11  1  0.884441  0.384441  0.500000  1
  Si  Si12  1  0.384441  0.115559  0.500000  1
  Si  Si13  1  0.615559  0.884441  0.500000  1
  B  B14  1  0.172205  0.039203  0.000000  1
  B  B15  1  0.827795  0.960797  0.000000  1
  B  B16  1  0.960797  0.172205  0.000000  1
  B  B17  1  0.327795  0.539203  0.000000  1
  B  B18  1  0.039203  0.827795  0.000000  1
  B  B19  1  0.672205  0.460797  0.000000  1
  B  B20  1  0.539203  0.672205  0.000000  1
  B  B21  1  0.460797  0.327795  0.000000  1
  B  B22  1  0.089772  0.589772  0.000000  1
  B  B23  1  0.910228  0.410228  0.000000  1
  B  B24  1  0.410228  0.089772  0.000000  1
  B  B25  1  0.589772  0.910228  0.000000  1
  B  B26  1  0.000000  0.000000  0.162933  1
  B  B27  1  0.000000  0.000000  0.837067  1
  B  B28  1  0.500000  0.500000  0.837067  1
  B  B29  1  0.500000  0.500000  0.162933  1
