# generated using pymatgen
data_Li3Tm4Co7(Ni5P6)2
_symmetry_space_group_name_H-M   'P 1'
_cell_length_a   3.69083700
_cell_length_b   10.28434976
_cell_length_c   11.88850952
_cell_angle_alpha   90.03320781
_cell_angle_beta   90.00000000
_cell_angle_gamma   90.00000000
_symmetry_Int_Tables_number   1
_chemical_formula_structural   Li3Tm4Co7(Ni5P6)2
_chemical_formula_sum   'Li3 Tm4 Co7 Ni10 P12'
_cell_volume   451.26228783
_cell_formula_units_Z   1
loop_
 _symmetry_equiv_pos_site_id
 _symmetry_equiv_pos_as_xyz
  1  'x, y, z'
loop_
 _atom_site_type_symbol
 _atom_site_label
 _atom_site_symmetry_multiplicity
 _atom_site_fract_x
 _atom_site_fract_y
 _atom_site_fract_z
 _atom_site_occupancy
  Li  Li0  1  0.250000  0.701680  0.991384  1
  Li  Li1  1  0.250000  0.796727  0.492188  1
  Li  Li2  1  0.750000  0.297841  0.007388  1
  Tm  Tm3  1  0.250000  0.578612  0.704160  1
  Tm  Tm4  1  0.250000  0.919482  0.205472  1
  Tm  Tm5  1  0.750000  0.419577  0.293335  1
  Tm  Tm6  1  0.750000  0.079393  0.794753  1
  Co  Co7  1  0.250000  0.621780  0.199719  1
  Co  Co8  1  0.750000  0.120468  0.301825  1
  Co  Co9  1  0.750000  0.378585  0.796820  1
  Co  Co10  1  0.250000  0.465652  0.930801  1
  Co  Co11  1  0.250000  0.034785  0.432255  1
  Co  Co12  1  0.750000  0.534190  0.067286  1
  Co  Co13  1  0.750000  0.966501  0.568095  1
  Ni  Ni14  1  0.750000  0.212559  0.508339  1
  Ni  Ni15  1  0.250000  0.405492  0.484268  1
  Ni  Ni16  1  0.250000  0.096971  0.989648  1
  Ni  Ni17  1  0.750000  0.591051  0.511536  1
  Ni  Ni18  1  0.750000  0.906478  0.014872  1
  Ni  Ni19  1  0.250000  0.223471  0.176576  1
  Ni  Ni20  1  0.250000  0.274352  0.672810  1
  Ni  Ni21  1  0.750000  0.776975  0.826769  1
  Ni  Ni22  1  0.750000  0.722106  0.326291  1
  Ni  Ni23  1  0.250000  0.879036  0.701431  1
  P  P24  1  0.250000  0.427392  0.113845  1
  P  P25  1  0.250000  0.074243  0.612700  1
  P  P26  1  0.750000  0.571980  0.884413  1
  P  P27  1  0.750000  0.926234  0.386191  1
  P  P28  1  0.250000  0.270935  0.860734  1
  P  P29  1  0.250000  0.229904  0.364957  1
  P  P30  1  0.750000  0.728839  0.138734  1
  P  P31  1  0.750000  0.768194  0.637251  1
  P  P32  1  0.250000  0.597516  0.388239  1
  P  P33  1  0.250000  0.903198  0.894169  1
  P  P34  1  0.750000  0.396960  0.607863  1
  P  P35  1  0.750000  0.100845  0.112882  1
