# generated using pymatgen
data_Lu4Al15Ga2SiIr6
_symmetry_space_group_name_H-M   'P 1'
_cell_length_a   7.50880658
_cell_length_b   7.51113106
_cell_length_c   9.37911500
_cell_angle_alpha   90.00000000
_cell_angle_beta   90.00000000
_cell_angle_gamma   119.64284728
_symmetry_Int_Tables_number   1
_chemical_formula_structural   Lu4Al15Ga2SiIr6
_chemical_formula_sum   'Lu4 Al15 Ga2 Si1 Ir6'
_cell_volume   459.74870280
_cell_formula_units_Z   1
loop_
 _symmetry_equiv_pos_site_id
 _symmetry_equiv_pos_as_xyz
  1  'x, y, z'
loop_
 _atom_site_type_symbol
 _atom_site_label
 _atom_site_symmetry_multiplicity
 _atom_site_fract_x
 _atom_site_fract_y
 _atom_site_fract_z
 _atom_site_occupancy
  Lu  Lu0  1  0.995124  0.677332  0.250000  1
  Lu  Lu1  1  0.000258  0.327221  0.750000  1
  Lu  Lu2  1  0.677734  0.996602  0.250000  1
  Lu  Lu3  1  0.332544  0.007012  0.750000  1
  Al  Al4  1  0.000151  0.337416  0.077947  1
  Al  Al5  1  0.998999  0.666095  0.925415  1
  Al  Al6  1  0.998999  0.666095  0.574585  1
  Al  Al7  1  0.337477  0.999779  0.422216  1
  Al  Al8  1  0.000151  0.337416  0.422053  1
  Al  Al9  1  0.665287  0.997234  0.574495  1
  Al  Al10  1  0.665287  0.997234  0.925505  1
  Al  Al11  1  0.337477  0.999779  0.077784  1
  Al  Al12  1  0.331833  0.332210  0.556500  1
  Al  Al13  1  0.663510  0.663351  0.440448  1
  Al  Al14  1  0.663510  0.663351  0.059552  1
  Al  Al15  1  0.331833  0.332210  0.943500  1
  Al  Al16  1  0.335596  0.550342  0.250000  1
  Al  Al17  1  0.550116  0.335327  0.250000  1
  Al  Al18  1  0.448910  0.660414  0.750000  1
  Ga  Ga19  1  0.875018  0.874698  0.750000  1
  Ga  Ga20  1  0.661509  0.454621  0.750000  1
  Si  Si21  1  0.132345  0.132458  0.250000  1
  Ir  Ir22  1  0.670880  0.325863  0.001741  1
  Ir  Ir23  1  0.326940  0.670107  0.000017  1
  Ir  Ir24  1  0.326940  0.670107  0.499983  1
  Ir  Ir25  1  0.670880  0.325863  0.498259  1
  Ir  Ir26  1  0.000347  0.999932  0.010843  1
  Ir  Ir27  1  0.000347  0.999932  0.489157  1
