# generated using pymatgen
data_Y12Co2I17
_symmetry_space_group_name_H-M   'P 1'
_cell_length_a   9.76376439
_cell_length_b   11.68902980
_cell_length_c   11.68218200
_cell_angle_alpha   93.22418247
_cell_angle_beta   104.73828002
_cell_angle_gamma   114.51584118
_symmetry_Int_Tables_number   1
_chemical_formula_structural   Y12Co2I17
_chemical_formula_sum   'Y12 Co2 I17'
_cell_volume   1153.15695580
_cell_formula_units_Z   1
loop_
 _symmetry_equiv_pos_site_id
 _symmetry_equiv_pos_as_xyz
  1  'x, y, z'
loop_
 _atom_site_type_symbol
 _atom_site_label
 _atom_site_symmetry_multiplicity
 _atom_site_fract_x
 _atom_site_fract_y
 _atom_site_fract_z
 _atom_site_occupancy
  Y  Y0  1  0.051453  0.502733  0.320489  1
  Y  Y1  1  0.993338  0.809307  0.587743  1
  Y  Y2  1  0.652765  0.241338  0.280678  1
  Y  Y3  1  0.006662  0.190693  0.412257  1
  Y  Y4  1  0.213570  0.667646  0.982619  1
  Y  Y5  1  0.256482  0.976866  0.890317  1
  Y  Y6  1  0.347235  0.758662  0.719322  1
  Y  Y7  1  0.948547  0.497267  0.679511  1
  Y  Y8  1  0.743518  0.023134  0.109683  1
  Y  Y9  1  0.143338  0.287324  0.152353  1
  Y  Y10  1  0.786430  0.332354  0.017381  1
  Y  Y11  1  0.856662  0.712676  0.847647  1
  Co  Co12  1  0.103186  0.738226  0.784272  1
  Co  Co13  1  0.896814  0.261774  0.215728  1
  I  I14  1  0.781504  0.529234  0.417271  1
  I  I15  1  0.643375  0.417948  0.762456  1
  I  I16  1  0.844212  0.895410  0.327619  1
  I  I17  1  0.328555  0.213339  0.368061  1
  I  I18  1  0.155788  0.104590  0.672381  1
  I  I19  1  0.586917  0.054786  0.841044  1
  I  I20  1  0.757184  0.187914  0.539985  1
  I  I21  1  0.553358  0.711548  0.955213  1
  I  I22  1  0.356625  0.582052  0.237544  1
  I  I23  1  0.218496  0.470766  0.582729  1
  I  I24  1  0.056858  0.363526  0.893414  1
  I  I25  1  0.446642  0.288452  0.044787  1
  I  I26  1  0.000000  0.000000  0.000000  1
  I  I27  1  0.242816  0.812086  0.460015  1
  I  I28  1  0.413083  0.945214  0.158956  1
  I  I29  1  0.671445  0.786661  0.631939  1
  I  I30  1  0.943142  0.636474  0.106586  1
