# generated using pymatgen
data_LuUCo3
_symmetry_space_group_name_H-M   'P 1'
_cell_length_a   5.09733500
_cell_length_b   7.53207100
_cell_length_c   8.32011400
_cell_angle_alpha   90.00000000
_cell_angle_beta   90.00000000
_cell_angle_gamma   90.00000000
_symmetry_Int_Tables_number   1
_chemical_formula_structural   LuUCo3
_chemical_formula_sum   'Lu4 U4 Co12'
_cell_volume   319.43820643
_cell_formula_units_Z   4
loop_
 _symmetry_equiv_pos_site_id
 _symmetry_equiv_pos_as_xyz
  1  'x, y, z'
loop_
 _atom_site_type_symbol
 _atom_site_label
 _atom_site_symmetry_multiplicity
 _atom_site_fract_x
 _atom_site_fract_y
 _atom_site_fract_z
 _atom_site_occupancy
  Lu  Lu0  1  0.750000  0.931789  0.395488  1
  Lu  Lu1  1  0.750000  0.431789  0.104512  1
  Lu  Lu2  1  0.250000  0.068211  0.604512  1
  Lu  Lu3  1  0.250000  0.568211  0.895488  1
  U  U4  1  0.750000  0.880003  0.841513  1
  U  U5  1  0.750000  0.380003  0.658487  1
  U  U6  1  0.250000  0.119997  0.158487  1
  U  U7  1  0.250000  0.619997  0.341513  1
  Co  Co8  1  0.750000  0.556186  0.420926  1
  Co  Co9  1  0.750000  0.056186  0.079074  1
  Co  Co10  1  0.250000  0.443814  0.579074  1
  Co  Co11  1  0.250000  0.943814  0.920926  1
  Co  Co12  1  0.999024  0.264576  0.360047  1
  Co  Co13  1  0.500976  0.764576  0.139953  1
  Co  Co14  1  0.499024  0.735424  0.639953  1
  Co  Co15  1  0.000976  0.235424  0.860047  1
  Co  Co16  1  0.000976  0.735424  0.639953  1
  Co  Co17  1  0.499024  0.235424  0.860047  1
  Co  Co18  1  0.500976  0.264576  0.360047  1
  Co  Co19  1  0.999024  0.764576  0.139953  1
