# generated using pymatgen
data_TbSm3Al18AgIr4Pt
_symmetry_space_group_name_H-M   'P 1'
_cell_length_a   7.60979229
_cell_length_b   7.61240715
_cell_length_c   9.51741100
_cell_angle_alpha   89.95387680
_cell_angle_beta   89.93915638
_cell_angle_gamma   119.63455137
_symmetry_Int_Tables_number   1
_chemical_formula_structural   TbSm3Al18AgIr4Pt
_chemical_formula_sum   'Tb1 Sm3 Al18 Ag1 Ir4 Pt1'
_cell_volume   479.21571815
_cell_formula_units_Z   1
loop_
 _symmetry_equiv_pos_site_id
 _symmetry_equiv_pos_as_xyz
  1  'x, y, z'
loop_
 _atom_site_type_symbol
 _atom_site_label
 _atom_site_symmetry_multiplicity
 _atom_site_fract_x
 _atom_site_fract_y
 _atom_site_fract_z
 _atom_site_occupancy
  Tb  Tb0  1  0.332166  0.006740  0.748855  1
  Sm  Sm1  1  0.993292  0.667356  0.250709  1
  Sm  Sm2  1  0.003058  0.330529  0.749359  1
  Sm  Sm3  1  0.669263  0.996750  0.250736  1
  Al  Al4  1  0.128015  0.126418  0.252076  1
  Al  Al5  1  0.874188  0.872502  0.747957  1
  Al  Al6  1  0.010370  0.331590  0.078910  1
  Al  Al7  1  0.004263  0.675480  0.920547  1
  Al  Al8  1  0.001513  0.666461  0.572466  1
  Al  Al9  1  0.333992  0.999024  0.429556  1
  Al  Al10  1  0.000075  0.334548  0.427959  1
  Al  Al11  1  0.664627  0.000020  0.573248  1
  Al  Al12  1  0.667501  0.990170  0.919991  1
  Al  Al13  1  0.325370  0.996741  0.077262  1
  Al  Al14  1  0.331571  0.331720  0.547713  1
  Al  Al15  1  0.667905  0.668480  0.454015  1
  Al  Al16  1  0.667650  0.671671  0.058701  1
  Al  Al17  1  0.328562  0.331770  0.939347  1
  Al  Al18  1  0.341092  0.547360  0.254572  1
  Al  Al19  1  0.658232  0.456134  0.741606  1
  Al  Al20  1  0.542568  0.340220  0.258734  1
  Al  Al21  1  0.452418  0.659948  0.745602  1
  Ag  Ag22  1  0.673665  0.326487  0.999723  1
  Ir  Ir23  1  0.328578  0.671472  0.500370  1
  Ir  Ir24  1  0.671100  0.328262  0.500500  1
  Ir  Ir25  1  0.000207  0.000377  0.999369  1
  Ir  Ir26  1  0.000317  0.000281  0.500523  1
  Pt  Pt27  1  0.328441  0.671487  0.999588  1
