# generated using pymatgen
data_Gd6TaTi(MnC6)2
_symmetry_space_group_name_H-M   'P 1'
_cell_length_a   8.29832700
_cell_length_b   8.29832712
_cell_length_c   5.12639500
_cell_angle_alpha   90.00000000
_cell_angle_beta   90.00000000
_cell_angle_gamma   119.99998755
_symmetry_Int_Tables_number   1
_chemical_formula_structural   Gd6TaTi(MnC6)2
_chemical_formula_sum   'Gd6 Ta1 Ti1 Mn2 C12'
_cell_volume   305.71999797
_cell_formula_units_Z   1
loop_
 _symmetry_equiv_pos_site_id
 _symmetry_equiv_pos_as_xyz
  1  'x, y, z'
loop_
 _atom_site_type_symbol
 _atom_site_label
 _atom_site_symmetry_multiplicity
 _atom_site_fract_x
 _atom_site_fract_y
 _atom_site_fract_z
 _atom_site_occupancy
  Gd  Gd0  1  0.616402  0.677502  0.751081  1
  Gd  Gd1  1  0.938901  0.616402  0.248919  1
  Gd  Gd2  1  0.677502  0.061099  0.248919  1
  Gd  Gd3  1  0.322498  0.938901  0.751081  1
  Gd  Gd4  1  0.061099  0.383598  0.751081  1
  Gd  Gd5  1  0.383598  0.322498  0.248919  1
  Ta  Ta6  1  0.000000  0.000000  0.500000  1
  Ti  Ti7  1  0.000000  0.000000  0.000000  1
  Mn  Mn8  1  0.666667  0.333333  0.751147  1
  Mn  Mn9  1  0.333333  0.666667  0.248853  1
  C  C10  1  0.959996  0.759660  0.749261  1
  C  C11  1  0.200335  0.959996  0.250739  1
  C  C12  1  0.759660  0.799665  0.250739  1
  C  C13  1  0.240340  0.200335  0.749261  1
  C  C14  1  0.799665  0.040004  0.749261  1
  C  C15  1  0.040004  0.240340  0.250739  1
  C  C16  1  0.860368  0.568591  0.749861  1
  C  C17  1  0.291777  0.860368  0.250139  1
  C  C18  1  0.568591  0.708223  0.250139  1
  C  C19  1  0.431409  0.291777  0.749861  1
  C  C20  1  0.139632  0.431409  0.250139  1
  C  C21  1  0.708223  0.139632  0.749861  1
