# generated using pymatgen
data_TbHo18LuSn16
_symmetry_space_group_name_H-M   'P 1'
_cell_length_a   8.01187656
_cell_length_b   8.14910622
_cell_length_c   15.40665600
_cell_angle_alpha   90.00393732
_cell_angle_beta   89.94595005
_cell_angle_gamma   89.96883562
_symmetry_Int_Tables_number   1
_chemical_formula_structural   TbHo18LuSn16
_chemical_formula_sum   'Tb1 Ho18 Lu1 Sn16'
_cell_volume   1005.89432012
_cell_formula_units_Z   1
loop_
 _symmetry_equiv_pos_site_id
 _symmetry_equiv_pos_as_xyz
  1  'x, y, z'
loop_
 _atom_site_type_symbol
 _atom_site_label
 _atom_site_symmetry_multiplicity
 _atom_site_fract_x
 _atom_site_fract_y
 _atom_site_fract_z
 _atom_site_occupancy
  Tb  Tb0  1  0.020251  0.179774  0.902958  1
  Ho  Ho1  1  0.367569  0.836599  0.877723  1
  Ho  Ho2  1  0.867834  0.663447  0.622049  1
  Ho  Ho3  1  0.631813  0.163183  0.377684  1
  Ho  Ho4  1  0.132749  0.336623  0.122432  1
  Ho  Ho5  1  0.632294  0.163181  0.122425  1
  Ho  Ho6  1  0.132362  0.336492  0.377733  1
  Ho  Ho7  1  0.367942  0.836525  0.622096  1
  Ho  Ho8  1  0.867717  0.663288  0.877742  1
  Ho  Ho9  1  0.520966  0.320804  0.902722  1
  Ho  Ho10  1  0.021156  0.179533  0.597394  1
  Ho  Ho11  1  0.478760  0.679510  0.402575  1
  Ho  Ho12  1  0.979402  0.820391  0.097362  1
  Ho  Ho13  1  0.479071  0.679655  0.097364  1
  Ho  Ho14  1  0.979054  0.820720  0.402629  1
  Ho  Ho15  1  0.521086  0.320697  0.597156  1
  Ho  Ho16  1  0.198571  0.503057  0.749860  1
  Ho  Ho17  1  0.698413  0.996988  0.749795  1
  Ho  Ho18  1  0.801612  0.497153  0.250059  1
  Lu  Lu19  1  0.301569  0.002934  0.250072  1
  Sn  Sn20  1  0.293346  0.035533  0.042655  1
  Sn  Sn21  1  0.792195  0.463870  0.458273  1
  Sn  Sn22  1  0.707753  0.964058  0.541531  1
  Sn  Sn23  1  0.207689  0.536921  0.958674  1
  Sn  Sn24  1  0.706254  0.962666  0.958634  1
  Sn  Sn25  1  0.207627  0.536069  0.541489  1
  Sn  Sn26  1  0.292301  0.035752  0.457760  1
  Sn  Sn27  1  0.792492  0.463767  0.041727  1
  Sn  Sn28  1  0.565135  0.618837  0.749929  1
  Sn  Sn29  1  0.065213  0.881007  0.749886  1
  Sn  Sn30  1  0.434558  0.380868  0.250066  1
  Sn  Sn31  1  0.936087  0.118373  0.250095  1
  Sn  Sn32  1  0.330550  0.147973  0.749878  1
  Sn  Sn33  1  0.829550  0.352298  0.749543  1
  Sn  Sn34  1  0.669138  0.852201  0.249983  1
  Sn  Sn35  1  0.169926  0.649256  0.250045  1
