# generated using pymatgen
data_TbNi4(AuO4)3
_symmetry_space_group_name_H-M   'P 1'
_cell_length_a   6.51800518
_cell_length_b   6.51800538
_cell_length_c   6.51800500
_cell_angle_alpha   109.47122568
_cell_angle_beta   109.47122630
_cell_angle_gamma   109.47121435
_symmetry_Int_Tables_number   1
_chemical_formula_structural   TbNi4(AuO4)3
_chemical_formula_sum   'Tb1 Ni4 Au3 O12'
_cell_volume   213.16808824
_cell_formula_units_Z   1
loop_
 _symmetry_equiv_pos_site_id
 _symmetry_equiv_pos_as_xyz
  1  'x, y, z'
loop_
 _atom_site_type_symbol
 _atom_site_label
 _atom_site_symmetry_multiplicity
 _atom_site_fract_x
 _atom_site_fract_y
 _atom_site_fract_z
 _atom_site_occupancy
  Tb  Tb0  1  0.000000  0.000000  0.000000  1
  Ni  Ni1  1  0.000000  0.000000  0.500000  1
  Ni  Ni2  1  0.000000  0.500000  0.000000  1
  Ni  Ni3  1  0.500000  0.000000  0.000000  1
  Ni  Ni4  1  0.500000  0.500000  0.500000  1
  Au  Au5  1  0.000000  0.500000  0.500000  1
  Au  Au6  1  0.500000  0.000000  0.500000  1
  Au  Au7  1  0.500000  0.500000  0.000000  1
  O  O8  1  0.294052  0.121305  0.827252  1
  O  O9  1  0.705948  0.878695  0.172748  1
  O  O10  1  0.705948  0.533200  0.827252  1
  O  O11  1  0.466800  0.172748  0.294052  1
  O  O12  1  0.172748  0.294052  0.466800  1
  O  O13  1  0.827252  0.294052  0.121305  1
  O  O14  1  0.878695  0.172748  0.705948  1
  O  O15  1  0.827252  0.705948  0.533200  1
  O  O16  1  0.294052  0.466800  0.172748  1
  O  O17  1  0.533200  0.827252  0.705948  1
  O  O18  1  0.172748  0.705948  0.878695  1
  O  O19  1  0.121305  0.827252  0.294052  1
