# generated using pymatgen
data_Tb2DyMg3Si2Ag
_symmetry_space_group_name_H-M   'P 1'
_cell_length_a   7.27757201
_cell_length_b   7.28420115
_cell_length_c   4.32729800
_cell_angle_alpha   90.00000000
_cell_angle_beta   90.00000000
_cell_angle_gamma   120.03014141
_symmetry_Int_Tables_number   1
_chemical_formula_structural   Tb2DyMg3Si2Ag
_chemical_formula_sum   'Tb2 Dy1 Mg3 Si2 Ag1'
_cell_volume   198.60212499
_cell_formula_units_Z   1
loop_
 _symmetry_equiv_pos_site_id
 _symmetry_equiv_pos_as_xyz
  1  'x, y, z'
loop_
 _atom_site_type_symbol
 _atom_site_label
 _atom_site_symmetry_multiplicity
 _atom_site_fract_x
 _atom_site_fract_y
 _atom_site_fract_z
 _atom_site_occupancy
  Tb  Tb0  1  0.421613  0.421777  0.500000  1
  Tb  Tb1  1  0.578387  0.000164  0.500000  1
  Dy  Dy2  1  0.000000  0.578348  0.500000  1
  Mg  Mg3  1  0.751390  0.751253  0.000000  1
  Mg  Mg4  1  0.248610  0.999863  0.000000  1
  Mg  Mg5  1  0.000000  0.248876  0.000000  1
  Si  Si6  1  0.666881  0.333452  0.000000  1
  Si  Si7  1  0.333119  0.666572  0.000000  1
  Ag  Ag8  1  0.000000  0.999695  0.500000  1
