# generated using pymatgen
data_NaLuCo12GeP6
_symmetry_space_group_name_H-M   'P 1'
_cell_length_a   9.02794800
_cell_length_b   9.02794823
_cell_length_c   3.55196400
_cell_angle_alpha   90.00000000
_cell_angle_beta   90.00000000
_cell_angle_gamma   120.00000649
_symmetry_Int_Tables_number   1
_chemical_formula_structural   NaLuCo12GeP6
_chemical_formula_sum   'Na1 Lu1 Co12 Ge1 P6'
_cell_volume   250.71323902
_cell_formula_units_Z   1
loop_
 _symmetry_equiv_pos_site_id
 _symmetry_equiv_pos_as_xyz
  1  'x, y, z'
loop_
 _atom_site_type_symbol
 _atom_site_label
 _atom_site_symmetry_multiplicity
 _atom_site_fract_x
 _atom_site_fract_y
 _atom_site_fract_z
 _atom_site_occupancy
  Na  Na0  1  0.000000  0.000000  0.000000  1
  Lu  Lu1  1  0.333333  0.666667  0.500000  1
  Co  Co2  1  0.104065  0.396606  0.000000  1
  Co  Co3  1  0.603394  0.707456  0.000000  1
  Co  Co4  1  0.292544  0.895935  0.000000  1
  Co  Co5  1  0.056847  0.772044  0.500000  1
  Co  Co6  1  0.227956  0.284804  0.500000  1
  Co  Co7  1  0.715196  0.943153  0.500000  1
  Co  Co8  1  0.827585  0.621473  0.000000  1
  Co  Co9  1  0.378527  0.206113  0.000000  1
  Co  Co10  1  0.793887  0.172415  0.000000  1
  Co  Co11  1  0.912962  0.440767  0.500000  1
  Co  Co12  1  0.559233  0.472196  0.500000  1
  Co  Co13  1  0.527804  0.087038  0.500000  1
  Ge  Ge14  1  0.666667  0.333333  0.000000  1
  P  P15  1  0.781808  0.738570  0.500000  1
  P  P16  1  0.261430  0.043237  0.500000  1
  P  P17  1  0.956763  0.218192  0.500000  1
  P  P18  1  0.072344  0.626537  0.000000  1
  P  P19  1  0.373463  0.445807  0.000000  1
  P  P20  1  0.554193  0.927656  0.000000  1
