# generated using pymatgen
data_Tb2(NdPb)3
_symmetry_space_group_name_H-M   'P 1'
_cell_length_a   6.78732300
_cell_length_b   9.30247451
_cell_length_c   9.30295900
_cell_angle_alpha   119.99826603
_cell_angle_beta   90.00000000
_cell_angle_gamma   90.00000000
_symmetry_Int_Tables_number   1
_chemical_formula_structural   Tb2(NdPb)3
_chemical_formula_sum   'Tb4 Nd6 Pb6'
_cell_volume   508.69366883
_cell_formula_units_Z   2
loop_
 _symmetry_equiv_pos_site_id
 _symmetry_equiv_pos_as_xyz
  1  'x, y, z'
loop_
 _atom_site_type_symbol
 _atom_site_label
 _atom_site_symmetry_multiplicity
 _atom_site_fract_x
 _atom_site_fract_y
 _atom_site_fract_z
 _atom_site_occupancy
  Tb  Tb0  1  0.499997  0.333334  0.666700  1
  Tb  Tb1  1  0.499997  0.666634  0.333300  1
  Tb  Tb2  1  0.999997  0.666666  0.333300  1
  Tb  Tb3  1  0.999997  0.333366  0.666700  1
  Nd  Nd4  1  0.750002  0.239994  0.000000  1
  Nd  Nd5  1  0.749996  0.759930  0.759960  1
  Nd  Nd6  1  0.749996  0.999970  0.240040  1
  Nd  Nd7  1  0.250002  0.760006  0.000000  1
  Nd  Nd8  1  0.249996  0.240070  0.240040  1
  Nd  Nd9  1  0.249996  0.000030  0.759960  1
  Pb  Pb10  1  0.750002  0.601960  0.000000  1
  Pb  Pb11  1  0.750007  0.398002  0.397981  1
  Pb  Pb12  1  0.750007  0.000021  0.602019  1
  Pb  Pb13  1  0.250002  0.398040  0.000000  1
  Pb  Pb14  1  0.250007  0.601998  0.602019  1
  Pb  Pb15  1  0.250007  0.999979  0.397981  1
