# generated using pymatgen
data_Dy4Co3ReOs4
_symmetry_space_group_name_H-M   'P 1'
_cell_length_a   5.13050345
_cell_length_b   5.24603254
_cell_length_c   8.73137000
_cell_angle_alpha   90.00000000
_cell_angle_beta   90.00000000
_cell_angle_gamma   118.41844863
_symmetry_Int_Tables_number   1
_chemical_formula_structural   Dy4Co3ReOs4
_chemical_formula_sum   'Dy4 Co3 Re1 Os4'
_cell_volume   206.68402941
_cell_formula_units_Z   1
loop_
 _symmetry_equiv_pos_site_id
 _symmetry_equiv_pos_as_xyz
  1  'x, y, z'
loop_
 _atom_site_type_symbol
 _atom_site_label
 _atom_site_symmetry_multiplicity
 _atom_site_fract_x
 _atom_site_fract_y
 _atom_site_fract_z
 _atom_site_occupancy
  Dy  Dy0  1  0.326999  0.668581  0.440113  1
  Dy  Dy1  1  0.661715  0.334848  0.567294  1
  Dy  Dy2  1  0.661715  0.334848  0.932706  1
  Dy  Dy3  1  0.326999  0.668581  0.059887  1
  Co  Co4  1  0.826997  0.647160  0.250000  1
  Co  Co5  1  0.183958  0.836832  0.750000  1
  Co  Co6  1  0.178179  0.340888  0.750000  1
  Re  Re7  1  0.834828  0.154951  0.250000  1
  Os  Os8  1  0.987907  0.004444  0.504462  1
  Os  Os9  1  0.987907  0.004444  0.995538  1
  Os  Os10  1  0.351395  0.165974  0.250000  1
  Os  Os11  1  0.671399  0.838450  0.750000  1
