# generated using pymatgen
data_Li2PrTmSi4
_symmetry_space_group_name_H-M   'P 1'
_cell_length_a   3.83819200
_cell_length_b   7.66590819
_cell_length_c   10.28122553
_cell_angle_alpha   89.59301894
_cell_angle_beta   90.00000000
_cell_angle_gamma   90.00000000
_symmetry_Int_Tables_number   1
_chemical_formula_structural   Li2PrTmSi4
_chemical_formula_sum   'Li4 Pr2 Tm2 Si8'
_cell_volume   302.49920619
_cell_formula_units_Z   2
loop_
 _symmetry_equiv_pos_site_id
 _symmetry_equiv_pos_as_xyz
  1  'x, y, z'
loop_
 _atom_site_type_symbol
 _atom_site_label
 _atom_site_symmetry_multiplicity
 _atom_site_fract_x
 _atom_site_fract_y
 _atom_site_fract_z
 _atom_site_occupancy
  Li  Li0  1  0.250000  0.994484  0.389092  1
  Li  Li1  1  0.750000  0.005516  0.610908  1
  Li  Li2  1  0.250000  0.488422  0.105640  1
  Li  Li3  1  0.750000  0.511578  0.894360  1
  Pr  Pr4  1  0.250000  0.641199  0.637471  1
  Pr  Pr5  1  0.750000  0.358801  0.362529  1
  Tm  Tm6  1  0.250000  0.131900  0.865071  1
  Tm  Tm7  1  0.750000  0.868100  0.134929  1
  Si  Si8  1  0.750000  0.262356  0.061361  1
  Si  Si9  1  0.250000  0.737644  0.938639  1
  Si  Si10  1  0.750000  0.778619  0.423131  1
  Si  Si11  1  0.250000  0.221381  0.576869  1
  Si  Si12  1  0.750000  0.846104  0.827658  1
  Si  Si13  1  0.250000  0.153896  0.172342  1
  Si  Si14  1  0.750000  0.331727  0.686275  1
  Si  Si15  1  0.250000  0.668273  0.313725  1
