# generated using pymatgen
data_Tb3DySc4(WO6)4
_symmetry_space_group_name_H-M   'P 1'
_cell_length_a   5.33086900
_cell_length_b   7.56817910
_cell_length_c   11.20626236
_cell_angle_alpha   77.50874887
_cell_angle_beta   90.00000000
_cell_angle_gamma   90.00000000
_symmetry_Int_Tables_number   1
_chemical_formula_structural   Tb3DySc4(WO6)4
_chemical_formula_sum   'Tb3 Dy1 Sc4 W4 O24'
_cell_volume   441.41430870
_cell_formula_units_Z   1
loop_
 _symmetry_equiv_pos_site_id
 _symmetry_equiv_pos_as_xyz
  1  'x, y, z'
loop_
 _atom_site_type_symbol
 _atom_site_label
 _atom_site_symmetry_multiplicity
 _atom_site_fract_x
 _atom_site_fract_y
 _atom_site_fract_z
 _atom_site_occupancy
  Tb  Tb0  1  0.762340  0.000000  0.750000  1
  Tb  Tb1  1  0.688508  0.500000  0.750000  1
  Tb  Tb2  1  0.310857  0.500000  0.250000  1
  Dy  Dy3  1  0.237711  0.000000  0.250000  1
  Sc  Sc4  1  0.193818  0.781166  0.589476  1
  Sc  Sc5  1  0.806502  0.781085  0.089982  1
  Sc  Sc6  1  0.193818  0.218834  0.910524  1
  Sc  Sc7  1  0.806502  0.218915  0.410018  1
  W  W8  1  0.265107  0.730634  0.889539  1
  W  W9  1  0.734661  0.731647  0.389051  1
  W  W10  1  0.265107  0.269366  0.610461  1
  W  W11  1  0.734661  0.268353  0.110949  1
  O  O12  1  0.082811  0.958633  0.892680  1
  O  O13  1  0.569085  0.831817  0.938163  1
  O  O14  1  0.918646  0.959057  0.391982  1
  O  O15  1  0.459700  0.792303  0.725091  1
  O  O16  1  0.430917  0.833517  0.437481  1
  O  O17  1  0.988187  0.712856  0.773095  1
  O  O18  1  0.539367  0.793415  0.224820  1
  O  O19  1  0.862001  0.649193  0.550316  1
  O  O20  1  0.357659  0.489477  0.886797  1
  O  O21  1  0.012010  0.713781  0.272661  1
  O  O22  1  0.357659  0.510523  0.613203  1
  O  O23  1  0.862001  0.350807  0.949684  1
  O  O24  1  0.137046  0.647782  0.050563  1
  O  O25  1  0.642777  0.490491  0.386003  1
  O  O26  1  0.988187  0.287144  0.726905  1
  O  O27  1  0.642777  0.509509  0.113997  1
  O  O28  1  0.137046  0.352218  0.449437  1
  O  O29  1  0.459700  0.207697  0.774909  1
  O  O30  1  0.012010  0.286219  0.227339  1
  O  O31  1  0.569085  0.168183  0.561837  1
  O  O32  1  0.539367  0.206585  0.275180  1
  O  O33  1  0.082811  0.041367  0.607320  1
  O  O34  1  0.430917  0.166483  0.062519  1
  O  O35  1  0.918646  0.040943  0.108018  1
