# generated using pymatgen
data_Hf6Ta2FeCo3N2
_symmetry_space_group_name_H-M   'P 1'
_cell_length_a   8.43117113
_cell_length_b   8.43117064
_cell_length_c   8.43728400
_cell_angle_alpha   59.97601132
_cell_angle_beta   59.97601324
_cell_angle_gamma   59.93762642
_symmetry_Int_Tables_number   1
_chemical_formula_structural   Hf6Ta2FeCo3N2
_chemical_formula_sum   'Hf12 Ta4 Fe2 Co6 N4'
_cell_volume   423.74140614
_cell_formula_units_Z   2
loop_
 _symmetry_equiv_pos_site_id
 _symmetry_equiv_pos_as_xyz
  1  'x, y, z'
loop_
 _atom_site_type_symbol
 _atom_site_label
 _atom_site_symmetry_multiplicity
 _atom_site_fract_x
 _atom_site_fract_y
 _atom_site_fract_z
 _atom_site_occupancy
  Hf  Hf0  1  0.812284  0.812284  0.187716  1
  Hf  Hf1  1  0.187413  0.187413  0.812587  1
  Hf  Hf2  1  0.812526  0.185245  0.812600  1
  Hf  Hf3  1  0.185245  0.812526  0.189629  1
  Hf  Hf4  1  0.185245  0.812526  0.812600  1
  Hf  Hf5  1  0.812526  0.185245  0.189629  1
  Hf  Hf6  1  0.437744  0.437744  0.062256  1
  Hf  Hf7  1  0.060755  0.060755  0.439245  1
  Hf  Hf8  1  0.438922  0.061111  0.438096  1
  Hf  Hf9  1  0.061111  0.438922  0.061872  1
  Hf  Hf10  1  0.061111  0.438922  0.438096  1
  Hf  Hf11  1  0.438922  0.061111  0.061872  1
  Ta  Ta12  1  0.125550  0.624853  0.624799  1
  Ta  Ta13  1  0.624853  0.125550  0.624799  1
  Ta  Ta14  1  0.624654  0.624654  0.125903  1
  Ta  Ta15  1  0.624654  0.624654  0.624788  1
  Fe  Fe16  1  0.833265  0.833265  0.501271  1
  Fe  Fe17  1  0.833265  0.833265  0.832199  1
  Co  Co18  1  0.749268  0.417902  0.416416  1
  Co  Co19  1  0.417902  0.749268  0.416416  1
  Co  Co20  1  0.417322  0.417322  0.749531  1
  Co  Co21  1  0.417322  0.417322  0.415826  1
  Co  Co22  1  0.504260  0.832463  0.831638  1
  Co  Co23  1  0.832463  0.504260  0.831638  1
  N  N24  1  0.625202  0.125581  0.124608  1
  N  N25  1  0.125581  0.625202  0.124608  1
  N  N26  1  0.125317  0.125317  0.625080  1
  N  N27  1  0.125317  0.125317  0.124285  1
