# generated using pymatgen
data_TmLu3Al13Ga5Ir6
_symmetry_space_group_name_H-M   'P 1'
_cell_length_a   7.50250122
_cell_length_b   7.50619443
_cell_length_c   9.50321600
_cell_angle_alpha   90.00000000
_cell_angle_beta   90.00000000
_cell_angle_gamma   119.58480168
_symmetry_Int_Tables_number   1
_chemical_formula_structural   TmLu3Al13Ga5Ir6
_chemical_formula_sum   'Tm1 Lu3 Al13 Ga5 Ir6'
_cell_volume   465.40276830
_cell_formula_units_Z   1
loop_
 _symmetry_equiv_pos_site_id
 _symmetry_equiv_pos_as_xyz
  1  'x, y, z'
loop_
 _atom_site_type_symbol
 _atom_site_label
 _atom_site_symmetry_multiplicity
 _atom_site_fract_x
 _atom_site_fract_y
 _atom_site_fract_z
 _atom_site_occupancy
  Tm  Tm0  1  0.995271  0.670821  0.250000  1
  Lu  Lu1  1  0.999411  0.324599  0.750000  1
  Lu  Lu2  1  0.671720  0.996946  0.250000  1
  Lu  Lu3  1  0.329357  0.006375  0.750000  1
  Al  Al4  1  0.002388  0.334681  0.072807  1
  Al  Al5  1  0.999845  0.665178  0.925911  1
  Al  Al6  1  0.999845  0.665178  0.574089  1
  Al  Al7  1  0.335397  0.001908  0.427479  1
  Al  Al8  1  0.002388  0.334681  0.427193  1
  Al  Al9  1  0.664587  0.998244  0.573649  1
  Al  Al10  1  0.664587  0.998244  0.926351  1
  Al  Al11  1  0.335397  0.001908  0.072521  1
  Al  Al12  1  0.333146  0.333590  0.560058  1
  Al  Al13  1  0.666018  0.666052  0.445551  1
  Al  Al14  1  0.666018  0.666052  0.054449  1
  Al  Al15  1  0.333146  0.333590  0.939942  1
  Al  Al16  1  0.448380  0.661980  0.750000  1
  Ga  Ga17  1  0.129384  0.129752  0.250000  1
  Ga  Ga18  1  0.868961  0.869078  0.750000  1
  Ga  Ga19  1  0.339599  0.549396  0.250000  1
  Ga  Ga20  1  0.661872  0.453079  0.750000  1
  Ga  Ga21  1  0.548314  0.339297  0.250000  1
  Ir  Ir22  1  0.673053  0.327495  0.999919  1
  Ir  Ir23  1  0.328846  0.672091  0.997605  1
  Ir  Ir24  1  0.328846  0.672091  0.502395  1
  Ir  Ir25  1  0.673053  0.327495  0.500081  1
  Ir  Ir26  1  0.000588  0.000100  0.999684  1
  Ir  Ir27  1  0.000588  0.000100  0.500316  1
