# generated using pymatgen
data_Lu2Fe3Co(SiC)2
_symmetry_space_group_name_H-M   'P 1'
_cell_length_a   5.52325848
_cell_length_b   5.52325939
_cell_length_c   6.69887162
_cell_angle_alpha   89.92522712
_cell_angle_beta   90.07477458
_cell_angle_gamma   141.50906311
_symmetry_Int_Tables_number   1
_chemical_formula_structural   Lu2Fe3Co(SiC)2
_chemical_formula_sum   'Lu2 Fe3 Co1 Si2 C2'
_cell_volume   127.19066465
_cell_formula_units_Z   1
loop_
 _symmetry_equiv_pos_site_id
 _symmetry_equiv_pos_as_xyz
  1  'x, y, z'
loop_
 _atom_site_type_symbol
 _atom_site_label
 _atom_site_symmetry_multiplicity
 _atom_site_fract_x
 _atom_site_fract_y
 _atom_site_fract_z
 _atom_site_occupancy
  Lu  Lu0  1  0.548583  0.451417  0.250385  1
  Lu  Lu1  1  0.451074  0.548926  0.749374  1
  Fe  Fe2  1  0.163570  0.836430  0.940788  1
  Fe  Fe3  1  0.165299  0.834701  0.560464  1
  Fe  Fe4  1  0.835310  0.164690  0.441226  1
  Co  Co5  1  0.835028  0.164972  0.058386  1
  Si  Si6  1  0.268730  0.731270  0.250381  1
  Si  Si7  1  0.730721  0.269279  0.749743  1
  C  C8  1  0.001095  0.998905  0.999469  1
  C  C9  1  0.000589  0.999411  0.499784  1
