# generated using pymatgen
data_Ba8Mn7FeO21
_symmetry_space_group_name_H-M   'P 1'
_cell_length_a   9.59918387
_cell_length_b   5.79443944
_cell_length_c   10.05208761
_cell_angle_alpha   89.59735827
_cell_angle_beta   89.85774356
_cell_angle_gamma   89.96154415
_symmetry_Int_Tables_number   1
_chemical_formula_structural   Ba8Mn7FeO21
_chemical_formula_sum   'Ba8 Mn7 Fe1 O21'
_cell_volume   559.10045857
_cell_formula_units_Z   1
loop_
 _symmetry_equiv_pos_site_id
 _symmetry_equiv_pos_as_xyz
  1  'x, y, z'
loop_
 _atom_site_type_symbol
 _atom_site_label
 _atom_site_symmetry_multiplicity
 _atom_site_fract_x
 _atom_site_fract_y
 _atom_site_fract_z
 _atom_site_occupancy
  Ba  Ba0  1  0.767830  0.994355  0.000343  1
  Ba  Ba1  1  0.505281  0.512719  0.168380  1
  Ba  Ba2  1  0.282611  0.493615  0.504093  1
  Ba  Ba3  1  0.998796  0.007042  0.330996  1
  Ba  Ba4  1  0.500721  0.992932  0.665156  1
  Ba  Ba5  1  0.234449  0.991636  0.997283  1
  Ba  Ba6  1  0.717109  0.493501  0.504261  1
  Ba  Ba7  1  0.996693  0.492851  0.833647  1
  Mn  Mn8  1  0.855136  0.497872  0.164563  1
  Mn  Mn9  1  0.637743  0.999255  0.333300  1
  Mn  Mn10  1  0.142950  0.018244  0.664964  1
  Mn  Mn11  1  0.361493  0.998398  0.333662  1
  Mn  Mn12  1  0.856042  0.018144  0.664531  1
  Mn  Mn13  1  0.641414  0.516274  0.830320  1
  Mn  Mn14  1  0.358432  0.516291  0.828011  1
  Fe  Fe15  1  0.155549  0.496661  0.157849  1
  O  O16  1  0.247995  0.247604  0.258005  1
  O  O17  1  0.997914  0.276568  0.116261  1
  O  O18  1  0.739393  0.491718  0.995888  1
  O  O19  1  0.998607  0.716950  0.113867  1
  O  O20  1  0.751606  0.748057  0.257896  1
  O  O21  1  0.230932  0.749907  0.735442  1
  O  O22  1  0.767778  0.750036  0.734245  1
  O  O23  1  0.248477  0.748874  0.256585  1
  O  O24  1  0.500427  0.777769  0.405436  1
  O  O25  1  0.500394  0.005413  0.187479  1
  O  O26  1  0.751085  0.992265  0.494579  1
  O  O27  1  0.248393  0.990112  0.494693  1
  O  O28  1  0.999490  0.988880  0.804192  1
  O  O29  1  0.499830  0.214855  0.408421  1
  O  O30  1  0.000387  0.228437  0.581948  1
  O  O31  1  0.750945  0.251020  0.259261  1
  O  O32  1  0.732511  0.248261  0.762528  1
  O  O33  1  0.267224  0.247733  0.763581  1
  O  O34  1  0.499064  0.491600  0.687154  1
  O  O35  1  0.258268  0.490233  0.997723  1
  O  O36  1  0.497029  0.724076  0.908482  1
