# generated using pymatgen
data_Sc4Al3ZnOs4
_symmetry_space_group_name_H-M   'P 1'
_cell_length_a   5.29313669
_cell_length_b   5.25297105
_cell_length_c   8.40307600
_cell_angle_alpha   90.00000000
_cell_angle_beta   90.00000000
_cell_angle_gamma   120.19419503
_symmetry_Int_Tables_number   1
_chemical_formula_structural   Sc4Al3ZnOs4
_chemical_formula_sum   'Sc4 Al3 Zn1 Os4'
_cell_volume   201.94535375
_cell_formula_units_Z   1
loop_
 _symmetry_equiv_pos_site_id
 _symmetry_equiv_pos_as_xyz
  1  'x, y, z'
loop_
 _atom_site_type_symbol
 _atom_site_label
 _atom_site_symmetry_multiplicity
 _atom_site_fract_x
 _atom_site_fract_y
 _atom_site_fract_z
 _atom_site_occupancy
  Sc  Sc0  1  0.340272  0.676663  0.433929  1
  Sc  Sc1  1  0.677753  0.344404  0.563014  1
  Sc  Sc2  1  0.677753  0.344404  0.936986  1
  Sc  Sc3  1  0.340272  0.676663  0.066071  1
  Al  Al4  1  0.171658  0.335775  0.750000  1
  Al  Al5  1  0.981351  0.982079  0.999778  1
  Al  Al6  1  0.981351  0.982079  0.500222  1
  Zn  Zn7  1  0.335200  0.169943  0.250000  1
  Os  Os8  1  0.178728  0.834431  0.750000  1
  Os  Os9  1  0.835047  0.648231  0.250000  1
  Os  Os10  1  0.649900  0.836015  0.750000  1
  Os  Os11  1  0.830718  0.169311  0.250000  1
