# generated using pymatgen
data_Ba4MnSbO8
_symmetry_space_group_name_H-M   'P 1'
_cell_length_a   7.24447310
_cell_length_b   7.24447265
_cell_length_c   5.90499900
_cell_angle_alpha   90.00000000
_cell_angle_beta   90.00000000
_cell_angle_gamma   131.89040824
_symmetry_Int_Tables_number   1
_chemical_formula_structural   Ba4MnSbO8
_chemical_formula_sum   'Ba4 Mn1 Sb1 O8'
_cell_volume   230.70307789
_cell_formula_units_Z   1
loop_
 _symmetry_equiv_pos_site_id
 _symmetry_equiv_pos_as_xyz
  1  'x, y, z'
loop_
 _atom_site_type_symbol
 _atom_site_label
 _atom_site_symmetry_multiplicity
 _atom_site_fract_x
 _atom_site_fract_y
 _atom_site_fract_z
 _atom_site_occupancy
  Ba  Ba0  1  0.354760  0.645240  0.000000  1
  Ba  Ba1  1  0.856921  0.143079  0.500000  1
  Ba  Ba2  1  0.143079  0.856921  0.500000  1
  Ba  Ba3  1  0.645240  0.354760  0.000000  1
  Mn  Mn4  1  0.000000  0.000000  0.000000  1
  Sb  Sb5  1  0.500000  0.500000  0.500000  1
  O  O6  1  0.257539  0.257539  0.741945  1
  O  O7  1  0.742461  0.742461  0.258055  1
  O  O8  1  0.742461  0.742461  0.741945  1
  O  O9  1  0.257539  0.257539  0.258055  1
  O  O10  1  0.149023  0.850977  0.000000  1
  O  O11  1  0.653919  0.346081  0.500000  1
  O  O12  1  0.346081  0.653919  0.500000  1
  O  O13  1  0.850977  0.149023  0.000000  1
