# generated using pymatgen
data_Ho3Tm3Al3ZnNi12
_symmetry_space_group_name_H-M   'P 1'
_cell_length_a   7.70663906
_cell_length_b   7.70394778
_cell_length_c   7.65080442
_cell_angle_alpha   109.39827728
_cell_angle_beta   109.26452776
_cell_angle_gamma   109.61079545
_symmetry_Int_Tables_number   1
_chemical_formula_structural   Ho3Tm3Al3ZnNi12
_chemical_formula_sum   'Ho3 Tm3 Al3 Zn1 Ni12'
_cell_volume   350.27485685
_cell_formula_units_Z   1
loop_
 _symmetry_equiv_pos_site_id
 _symmetry_equiv_pos_as_xyz
  1  'x, y, z'
loop_
 _atom_site_type_symbol
 _atom_site_label
 _atom_site_symmetry_multiplicity
 _atom_site_fract_x
 _atom_site_fract_y
 _atom_site_fract_z
 _atom_site_occupancy
  Ho  Ho0  1  0.292189  0.292223  0.998804  1
  Ho  Ho1  1  0.000072  0.708029  0.706906  1
  Ho  Ho2  1  0.999943  0.291863  0.293081  1
  Tm  Tm3  1  0.293831  0.999887  0.294750  1
  Tm  Tm4  1  0.705898  0.999849  0.705115  1
  Tm  Tm5  1  0.706261  0.706294  0.000875  1
  Al  Al6  1  0.500404  0.999637  0.000060  1
  Al  Al7  1  0.999599  0.500316  0.999955  1
  Al  Al8  1  0.500452  0.500475  0.500382  1
  Zn  Zn9  1  0.999986  0.999998  0.499291  1
  Ni  Ni10  1  0.663769  0.335877  0.999676  1
  Ni  Ni11  1  0.660760  0.999485  0.336152  1
  Ni  Ni12  1  0.999788  0.661864  0.335460  1
  Ni  Ni13  1  0.671940  0.335604  0.336432  1
  Ni  Ni14  1  0.329502  0.664460  0.664772  1
  Ni  Ni15  1  0.339473  0.338722  0.674947  1
  Ni  Ni16  1  0.339700  0.999925  0.663217  1
  Ni  Ni17  1  0.660998  0.661586  0.324953  1
  Ni  Ni18  1  0.999356  0.338507  0.663695  1
  Ni  Ni19  1  0.336466  0.673655  0.336882  1
  Ni  Ni20  1  0.336261  0.664189  0.000455  1
  Ni  Ni21  1  0.663353  0.327554  0.664140  1
