# generated using pymatgen
data_Hf15ThBi18
_symmetry_space_group_name_H-M   'P 1'
_cell_length_a   10.87246200
_cell_length_b   10.87246200
_cell_length_c   7.65957500
_cell_angle_alpha   90.00000000
_cell_angle_beta   90.00000000
_cell_angle_gamma   90.00000000
_symmetry_Int_Tables_number   1
_chemical_formula_structural   Hf15ThBi18
_chemical_formula_sum   'Hf15 Th1 Bi18'
_cell_volume   905.44165392
_cell_formula_units_Z   1
loop_
 _symmetry_equiv_pos_site_id
 _symmetry_equiv_pos_as_xyz
  1  'x, y, z'
loop_
 _atom_site_type_symbol
 _atom_site_label
 _atom_site_symmetry_multiplicity
 _atom_site_fract_x
 _atom_site_fract_y
 _atom_site_fract_z
 _atom_site_occupancy
  Hf  Hf0  1  0.000563  0.000563  0.000947  1
  Hf  Hf1  1  0.499437  0.000563  0.000947  1
  Hf  Hf2  1  0.000563  0.499437  0.000947  1
  Hf  Hf3  1  0.499437  0.499437  0.000947  1
  Hf  Hf4  1  0.750000  0.105563  0.152381  1
  Hf  Hf5  1  0.750000  0.394436  0.152381  1
  Hf  Hf6  1  0.105563  0.750000  0.152381  1
  Hf  Hf7  1  0.394436  0.750000  0.152381  1
  Hf  Hf8  1  0.250000  0.250000  0.433004  1
  Hf  Hf9  1  0.750000  0.750000  0.565384  1
  Hf  Hf10  1  0.604627  0.249999  0.845860  1
  Hf  Hf11  1  0.895374  0.250000  0.845860  1
  Hf  Hf12  1  0.249999  0.604627  0.845860  1
  Hf  Hf13  1  0.250000  0.895374  0.845860  1
  Hf  Hf14  1  0.250000  0.250000  0.921545  1
  Th  Th15  1  0.750000  0.750000  0.079878  1
  Bi  Bi16  1  0.250000  0.016021  0.196230  1
  Bi  Bi17  1  0.016021  0.250000  0.196230  1
  Bi  Bi18  1  0.483978  0.249999  0.196230  1
  Bi  Bi19  1  0.249999  0.483978  0.196230  1
  Bi  Bi20  1  0.578825  0.578825  0.357743  1
  Bi  Bi21  1  0.921175  0.578825  0.357743  1
  Bi  Bi22  1  0.921175  0.921175  0.357743  1
  Bi  Bi23  1  0.578825  0.921175  0.357743  1
  Bi  Bi24  1  0.750000  0.250000  0.496670  1
  Bi  Bi25  1  0.250000  0.750000  0.496670  1
  Bi  Bi26  1  0.415086  0.084914  0.650942  1
  Bi  Bi27  1  0.084914  0.084914  0.650942  1
  Bi  Bi28  1  0.084914  0.415086  0.650942  1
  Bi  Bi29  1  0.415086  0.415086  0.650942  1
  Bi  Bi30  1  0.750000  0.509335  0.797612  1
  Bi  Bi31  1  0.509335  0.750000  0.797612  1
  Bi  Bi32  1  0.990665  0.750000  0.797612  1
  Bi  Bi33  1  0.750000  0.990665  0.797612  1
