# generated using pymatgen
data_La5Nd11Ag4(OsPd)2
_symmetry_space_group_name_H-M   'P 1'
_cell_length_a   9.92071691
_cell_length_b   9.96678469
_cell_length_c   10.13590561
_cell_angle_alpha   59.39214579
_cell_angle_beta   59.81058036
_cell_angle_gamma   59.43509511
_symmetry_Int_Tables_number   1
_chemical_formula_structural   La5Nd11Ag4(OsPd)2
_chemical_formula_sum   'La5 Nd11 Ag4 Os2 Pd2'
_cell_volume   701.33358052
_cell_formula_units_Z   1
loop_
 _symmetry_equiv_pos_site_id
 _symmetry_equiv_pos_as_xyz
  1  'x, y, z'
loop_
 _atom_site_type_symbol
 _atom_site_label
 _atom_site_symmetry_multiplicity
 _atom_site_fract_x
 _atom_site_fract_y
 _atom_site_fract_z
 _atom_site_occupancy
  La  La0  1  0.350375  0.350234  0.360010  1
  La  La1  1  0.350981  0.350127  0.940069  1
  La  La2  1  0.344776  0.952484  0.350867  1
  La  La3  1  0.949675  0.347592  0.353766  1
  La  La4  1  0.820009  0.186819  0.188386  1
  Nd  Nd5  1  0.185817  0.816686  0.805178  1
  Nd  Nd6  1  0.191005  0.813374  0.189641  1
  Nd  Nd7  1  0.815642  0.185751  0.803300  1
  Nd  Nd8  1  0.188275  0.186324  0.810498  1
  Nd  Nd9  1  0.805586  0.804287  0.194626  1
  Nd  Nd10  1  0.933999  0.558865  0.568876  1
  Nd  Nd11  1  0.560757  0.934424  0.935684  1
  Nd  Nd12  1  0.557549  0.934243  0.568357  1
  Nd  Nd13  1  0.937569  0.559030  0.937008  1
  Nd  Nd14  1  0.563280  0.563311  0.936465  1
  Nd  Nd15  1  0.937173  0.934697  0.561718  1
  Ag  Ag16  1  0.580963  0.582992  0.585234  1
  Ag  Ag17  1  0.579779  0.584510  0.255683  1
  Ag  Ag18  1  0.581348  0.254107  0.584702  1
  Ag  Ag19  1  0.254439  0.582428  0.583038  1
  Os  Os20  1  0.138421  0.148044  0.138481  1
  Os  Os21  1  0.148685  0.147734  0.569869  1
  Pd  Pd22  1  0.148930  0.573013  0.138873  1
  Pd  Pd23  1  0.574970  0.148926  0.139671  1
