# generated using pymatgen
data_Tb8Fe(Si4Ni)3
_symmetry_space_group_name_H-M   'P 1'
_cell_length_a   7.97985900
_cell_length_b   7.97985785
_cell_length_c   8.08336500
_cell_angle_alpha   90.00000000
_cell_angle_beta   90.00000000
_cell_angle_gamma   120.00000890
_symmetry_Int_Tables_number   1
_chemical_formula_structural   Tb8Fe(Si4Ni)3
_chemical_formula_sum   'Tb8 Fe1 Si12 Ni3'
_cell_volume   445.77237908
_cell_formula_units_Z   1
loop_
 _symmetry_equiv_pos_site_id
 _symmetry_equiv_pos_as_xyz
  1  'x, y, z'
loop_
 _atom_site_type_symbol
 _atom_site_label
 _atom_site_symmetry_multiplicity
 _atom_site_fract_x
 _atom_site_fract_y
 _atom_site_fract_z
 _atom_site_occupancy
  Tb  Tb0  1  0.499239  0.998479  0.252172  1
  Tb  Tb1  1  0.499004  0.998009  0.747847  1
  Tb  Tb2  1  0.001521  0.500761  0.252172  1
  Tb  Tb3  1  0.001991  0.500996  0.747847  1
  Tb  Tb4  1  0.499239  0.500761  0.252172  1
  Tb  Tb5  1  0.499004  0.500996  0.747847  1
  Tb  Tb6  1  0.000000  0.000000  0.249391  1
  Tb  Tb7  1  0.000000  0.000000  0.750597  1
  Fe  Fe8  1  0.333333  0.666667  0.499591  1
  Si  Si9  1  0.170327  0.340655  0.000078  1
  Si  Si10  1  0.829386  0.658772  0.999926  1
  Si  Si11  1  0.659345  0.829673  0.000078  1
  Si  Si12  1  0.829264  0.658528  0.500089  1
  Si  Si13  1  0.341228  0.170614  0.999926  1
  Si  Si14  1  0.171123  0.342246  0.499920  1
  Si  Si15  1  0.170327  0.829673  0.000078  1
  Si  Si16  1  0.341472  0.170736  0.500089  1
  Si  Si17  1  0.829386  0.170614  0.999926  1
  Si  Si18  1  0.657754  0.828877  0.499920  1
  Si  Si19  1  0.829264  0.170736  0.500089  1
  Si  Si20  1  0.171123  0.828877  0.499920  1
  Ni  Ni21  1  0.333333  0.666667  0.000335  1
  Ni  Ni22  1  0.666667  0.333333  0.999295  1
  Ni  Ni23  1  0.666667  0.333333  0.500695  1
