# generated using pymatgen
data_PrSmAl2(GaAu)3
_symmetry_space_group_name_H-M   'P 1'
_cell_length_a   4.33376000
_cell_length_b   4.33142100
_cell_length_c   10.90085700
_cell_angle_alpha   90.00000000
_cell_angle_beta   90.00000000
_cell_angle_gamma   90.00000000
_symmetry_Int_Tables_number   1
_chemical_formula_structural   PrSmAl2(GaAu)3
_chemical_formula_sum   'Pr1 Sm1 Al2 Ga3 Au3'
_cell_volume   204.62368293
_cell_formula_units_Z   1
loop_
 _symmetry_equiv_pos_site_id
 _symmetry_equiv_pos_as_xyz
  1  'x, y, z'
loop_
 _atom_site_type_symbol
 _atom_site_label
 _atom_site_symmetry_multiplicity
 _atom_site_fract_x
 _atom_site_fract_y
 _atom_site_fract_z
 _atom_site_occupancy
  Pr  Pr0  1  0.500000  0.000000  0.747180  1
  Sm  Sm1  1  0.000000  0.500000  0.253295  1
  Al  Al2  1  0.500000  0.500000  0.001178  1
  Al  Al3  1  0.000000  0.000000  0.001616  1
  Ga  Ga4  1  0.000000  0.500000  0.640639  1
  Ga  Ga5  1  0.500000  0.000000  0.357444  1
  Ga  Ga6  1  0.000000  0.000000  0.498696  1
  Au  Au7  1  0.000000  0.500000  0.872643  1
  Au  Au8  1  0.500000  0.000000  0.129089  1
  Au  Au9  1  0.500000  0.500000  0.498219  1
