# generated using pymatgen
data_Dy9Lu11Sn16
_symmetry_space_group_name_H-M   'P 1'
_cell_length_a   7.94256281
_cell_length_b   8.06873115
_cell_length_c   15.25241359
_cell_angle_alpha   90.03170774
_cell_angle_beta   90.00091210
_cell_angle_gamma   90.07736625
_symmetry_Int_Tables_number   1
_chemical_formula_structural   Dy9Lu11Sn16
_chemical_formula_sum   'Dy9 Lu11 Sn16'
_cell_volume   977.47129715
_cell_formula_units_Z   1
loop_
 _symmetry_equiv_pos_site_id
 _symmetry_equiv_pos_as_xyz
  1  'x, y, z'
loop_
 _atom_site_type_symbol
 _atom_site_label
 _atom_site_symmetry_multiplicity
 _atom_site_fract_x
 _atom_site_fract_y
 _atom_site_fract_z
 _atom_site_occupancy
  Dy  Dy0  1  0.866230  0.663594  0.877785  1
  Dy  Dy1  1  0.520458  0.321265  0.904194  1
  Dy  Dy2  1  0.020727  0.178630  0.595627  1
  Dy  Dy3  1  0.479144  0.678409  0.403856  1
  Dy  Dy4  1  0.978719  0.822554  0.097491  1
  Dy  Dy5  1  0.480683  0.677801  0.096220  1
  Dy  Dy6  1  0.979413  0.821842  0.403434  1
  Dy  Dy7  1  0.519749  0.321183  0.595418  1
  Dy  Dy8  1  0.020464  0.178305  0.903699  1
  Lu  Lu9  1  0.364571  0.837496  0.876239  1
  Lu  Lu10  1  0.865277  0.661958  0.623039  1
  Lu  Lu11  1  0.634961  0.161565  0.376726  1
  Lu  Lu12  1  0.135003  0.337936  0.123612  1
  Lu  Lu13  1  0.633822  0.161941  0.124597  1
  Lu  Lu14  1  0.134651  0.337480  0.376631  1
  Lu  Lu15  1  0.365999  0.838185  0.622705  1
  Lu  Lu16  1  0.197045  0.504759  0.749668  1
  Lu  Lu17  1  0.696247  0.995791  0.749241  1
  Lu  Lu18  1  0.803516  0.495047  0.250388  1
  Lu  Lu19  1  0.303112  0.004713  0.250001  1
  Sn  Sn20  1  0.296453  0.039514  0.041524  1
  Sn  Sn21  1  0.796975  0.460691  0.458075  1
  Sn  Sn22  1  0.704278  0.960219  0.541243  1
  Sn  Sn23  1  0.206862  0.538048  0.959042  1
  Sn  Sn24  1  0.700893  0.963697  0.958610  1
  Sn  Sn25  1  0.202484  0.539593  0.541504  1
  Sn  Sn26  1  0.296518  0.039007  0.458359  1
  Sn  Sn27  1  0.796615  0.458934  0.043164  1
  Sn  Sn28  1  0.561832  0.619999  0.748905  1
  Sn  Sn29  1  0.063245  0.881020  0.748912  1
  Sn  Sn30  1  0.437498  0.379877  0.250738  1
  Sn  Sn31  1  0.937417  0.120258  0.250033  1
  Sn  Sn32  1  0.330624  0.149324  0.749533  1
  Sn  Sn33  1  0.830080  0.350474  0.749307  1
  Sn  Sn34  1  0.669028  0.849905  0.250259  1
  Sn  Sn35  1  0.169407  0.648986  0.250221  1
