# generated using pymatgen
data_Tm20Ru4PtRh7
_symmetry_space_group_name_H-M   'P 1'
_cell_length_a   10.70795194
_cell_length_b   10.70788496
_cell_length_c   6.32545000
_cell_angle_alpha   89.97460509
_cell_angle_beta   89.97605531
_cell_angle_gamma   90.06509261
_symmetry_Int_Tables_number   1
_chemical_formula_structural   Tm20Ru4PtRh7
_chemical_formula_sum   'Tm20 Ru4 Pt1 Rh7'
_cell_volume   725.27244234
_cell_formula_units_Z   1
loop_
 _symmetry_equiv_pos_site_id
 _symmetry_equiv_pos_as_xyz
  1  'x, y, z'
loop_
 _atom_site_type_symbol
 _atom_site_label
 _atom_site_symmetry_multiplicity
 _atom_site_fract_x
 _atom_site_fract_y
 _atom_site_fract_z
 _atom_site_occupancy
  Tm  Tm0  1  0.293856  0.086112  0.376046  1
  Tm  Tm1  1  0.293950  0.915395  0.875159  1
  Tm  Tm2  1  0.705850  0.086444  0.874934  1
  Tm  Tm3  1  0.705844  0.913393  0.374179  1
  Tm  Tm4  1  0.586956  0.794598  0.876418  1
  Tm  Tm5  1  0.586545  0.205488  0.374631  1
  Tm  Tm6  1  0.414174  0.795414  0.372216  1
  Tm  Tm7  1  0.413593  0.206436  0.873946  1
  Tm  Tm8  1  0.205399  0.413039  0.623581  1
  Tm  Tm9  1  0.204586  0.585830  0.127798  1
  Tm  Tm10  1  0.794513  0.413456  0.125386  1
  Tm  Tm11  1  0.793559  0.586405  0.626059  1
  Tm  Tm12  1  0.913880  0.706147  0.123967  1
  Tm  Tm13  1  0.913559  0.294153  0.625070  1
  Tm  Tm14  1  0.084598  0.706053  0.624854  1
  Tm  Tm15  1  0.086609  0.294159  0.125821  1
  Tm  Tm16  1  0.999765  0.000164  0.499711  1
  Tm  Tm17  1  0.999831  0.000230  0.000283  1
  Tm  Tm18  1  0.501645  0.498696  0.001087  1
  Tm  Tm19  1  0.501309  0.498350  0.498922  1
  Ru  Ru20  1  0.500058  0.000126  0.122882  1
  Ru  Ru21  1  0.500139  0.000203  0.623168  1
  Ru  Ru22  1  0.999798  0.499869  0.876853  1
  Ru  Ru23  1  0.999876  0.499956  0.377130  1
  Pt  Pt24  1  0.347190  0.652797  0.749992  1
  Rh  Rh25  1  0.847494  0.152470  0.250013  1
  Rh  Rh26  1  0.847086  0.847688  0.749775  1
  Rh  Rh27  1  0.152274  0.152894  0.750150  1
  Rh  Rh28  1  0.152900  0.847091  0.250015  1
  Rh  Rh29  1  0.652130  0.347929  0.749966  1
  Rh  Rh30  1  0.652670  0.651670  0.250097  1
  Rh  Rh31  1  0.348364  0.347342  0.249892  1
