# generated using pymatgen
data_Ho10CuBiPPb5
_symmetry_space_group_name_H-M   'P 1'
_cell_length_a   9.17538050
_cell_length_b   9.16582851
_cell_length_c   6.61962135
_cell_angle_alpha   89.98118984
_cell_angle_beta   90.03757490
_cell_angle_gamma   120.03447938
_symmetry_Int_Tables_number   1
_chemical_formula_structural   Ho10CuBiPPb5
_chemical_formula_sum   'Ho10 Cu1 Bi1 P1 Pb5'
_cell_volume   481.95723299
_cell_formula_units_Z   1
loop_
 _symmetry_equiv_pos_site_id
 _symmetry_equiv_pos_as_xyz
  1  'x, y, z'
loop_
 _atom_site_type_symbol
 _atom_site_label
 _atom_site_symmetry_multiplicity
 _atom_site_fract_x
 _atom_site_fract_y
 _atom_site_fract_z
 _atom_site_occupancy
  Ho  Ho0  1  0.246574  0.000000  0.737068  1
  Ho  Ho1  1  0.752553  0.000000  0.261069  1
  Ho  Ho2  1  0.003724  0.248380  0.738290  1
  Ho  Ho3  1  0.998874  0.751698  0.262556  1
  Ho  Ho4  1  0.755344  0.751620  0.738290  1
  Ho  Ho5  1  0.247176  0.248302  0.262556  1
  Ho  Ho6  1  0.331742  0.665485  0.499107  1
  Ho  Ho7  1  0.666258  0.334515  0.499107  1
  Ho  Ho8  1  0.667559  0.337584  0.001194  1
  Ho  Ho9  1  0.329974  0.662416  0.001194  1
  Cu  Cu10  1  0.002376  0.000000  0.999061  1
  Bi  Bi11  1  0.607330  0.000000  0.751287  1
  P  P12  1  0.999426  0.000000  0.499205  1
  Pb  Pb13  1  0.392791  0.000000  0.249466  1
  Pb  Pb14  1  0.999700  0.604839  0.749978  1
  Pb  Pb15  1  0.998021  0.392304  0.250296  1
  Pb  Pb16  1  0.394861  0.395161  0.749978  1
  Pb  Pb17  1  0.605716  0.607696  0.250296  1
