# generated using pymatgen
data_LaTb3(MoN3)4
_symmetry_space_group_name_H-M   'P 1'
_cell_length_a   7.30183213
_cell_length_b   7.30183176
_cell_length_c   6.25016500
_cell_angle_alpha   74.24943336
_cell_angle_beta   74.24943419
_cell_angle_gamma   82.06040759
_symmetry_Int_Tables_number   1
_chemical_formula_structural   LaTb3(MoN3)4
_chemical_formula_sum   'La1 Tb3 Mo4 N12'
_cell_volume   307.93585647
_cell_formula_units_Z   1
loop_
 _symmetry_equiv_pos_site_id
 _symmetry_equiv_pos_as_xyz
  1  'x, y, z'
loop_
 _atom_site_type_symbol
 _atom_site_label
 _atom_site_symmetry_multiplicity
 _atom_site_fract_x
 _atom_site_fract_y
 _atom_site_fract_z
 _atom_site_occupancy
  La  La0  1  0.307312  0.692688  0.750000  1
  Tb  Tb1  1  0.908201  0.091799  0.750000  1
  Tb  Tb2  1  0.697030  0.302970  0.250000  1
  Tb  Tb3  1  0.082544  0.917456  0.250000  1
  Mo  Mo4  1  0.803821  0.618902  0.754200  1
  Mo  Mo5  1  0.198354  0.378482  0.251176  1
  Mo  Mo6  1  0.621518  0.801646  0.248824  1
  Mo  Mo7  1  0.381098  0.196179  0.745800  1
  N  N8  1  0.212301  0.005196  0.850946  1
  N  N9  1  0.353240  0.366055  0.466367  1
  N  N10  1  0.659033  0.635000  0.526803  1
  N  N11  1  0.620032  0.101558  0.654394  1
  N  N12  1  0.994804  0.787699  0.649054  1
  N  N13  1  0.776976  0.005510  0.149211  1
  N  N14  1  0.111833  0.619976  0.164179  1
  N  N15  1  0.898442  0.379968  0.845606  1
  N  N16  1  0.994490  0.223024  0.350789  1
  N  N17  1  0.365000  0.340967  0.973197  1
  N  N18  1  0.633945  0.646760  0.033633  1
  N  N19  1  0.380024  0.888167  0.335821  1
