# generated using pymatgen
data_Y6Lu4Si5P
_symmetry_space_group_name_H-M   'P 1'
_cell_length_a   8.35562600
_cell_length_b   8.36124247
_cell_length_c   6.21126200
_cell_angle_alpha   90.00000000
_cell_angle_beta   90.00000000
_cell_angle_gamma   119.97778193
_symmetry_Int_Tables_number   1
_chemical_formula_structural   Y6Lu4Si5P
_chemical_formula_sum   'Y6 Lu4 Si5 P1'
_cell_volume   375.88714995
_cell_formula_units_Z   1
loop_
 _symmetry_equiv_pos_site_id
 _symmetry_equiv_pos_as_xyz
  1  'x, y, z'
loop_
 _atom_site_type_symbol
 _atom_site_label
 _atom_site_symmetry_multiplicity
 _atom_site_fract_x
 _atom_site_fract_y
 _atom_site_fract_z
 _atom_site_occupancy
  Y  Y0  1  0.000893  0.755030  0.750000  1
  Y  Y1  1  0.000589  0.245712  0.250000  1
  Y  Y2  1  0.754877  0.754288  0.250000  1
  Y  Y3  1  0.753413  0.000000  0.750000  1
  Y  Y4  1  0.245863  0.244970  0.750000  1
  Y  Y5  1  0.245828  0.000000  0.250000  1
  Lu  Lu6  1  0.333477  0.667152  0.499706  1
  Lu  Lu7  1  0.666326  0.332848  0.000294  1
  Lu  Lu8  1  0.666326  0.332848  0.499706  1
  Lu  Lu9  1  0.333477  0.667152  0.000294  1
  Si  Si10  1  0.395586  0.395078  0.250000  1
  Si  Si11  1  0.000507  0.604922  0.250000  1
  Si  Si12  1  0.999961  0.395371  0.750000  1
  Si  Si13  1  0.604590  0.604629  0.750000  1
  Si  Si14  1  0.605325  0.000000  0.250000  1
  P  P15  1  0.392960  0.000000  0.750000  1
