# generated using pymatgen
data_KRb3Ba8I20
_symmetry_space_group_name_H-M   'P 1'
_cell_length_a   9.42396932
_cell_length_b   10.51318332
_cell_length_c   15.17349376
_cell_angle_alpha   89.91579135
_cell_angle_beta   89.92949691
_cell_angle_gamma   89.91335077
_symmetry_Int_Tables_number   1
_chemical_formula_structural   KRb3Ba8I20
_chemical_formula_sum   'K1 Rb3 Ba8 I20'
_cell_volume   1503.32333251
_cell_formula_units_Z   1
loop_
 _symmetry_equiv_pos_site_id
 _symmetry_equiv_pos_as_xyz
  1  'x, y, z'
loop_
 _atom_site_type_symbol
 _atom_site_label
 _atom_site_symmetry_multiplicity
 _atom_site_fract_x
 _atom_site_fract_y
 _atom_site_fract_z
 _atom_site_occupancy
  K  K0  1  0.473835  0.494635  0.822502  1
  Rb  Rb1  1  0.531966  0.503082  0.174166  1
  Rb  Rb2  1  0.967216  0.503493  0.674393  1
  Rb  Rb3  1  0.032095  0.497095  0.325790  1
  Ba  Ba4  1  0.476573  0.998292  0.821623  1
  Ba  Ba5  1  0.523543  0.000976  0.177109  1
  Ba  Ba6  1  0.977637  0.001205  0.679532  1
  Ba  Ba7  1  0.023544  0.999102  0.321649  1
  Ba  Ba8  1  0.425256  0.749745  0.507379  1
  Ba  Ba9  1  0.573771  0.250298  0.494419  1
  Ba  Ba10  1  0.924762  0.251576  0.992260  1
  Ba  Ba11  1  0.072953  0.748487  0.004870  1
  I  I12  1  0.338099  0.461638  0.599186  1
  I  I13  1  0.665831  0.539671  0.406218  1
  I  I14  1  0.827987  0.540530  0.905171  1
  I  I15  1  0.163929  0.460042  0.094222  1
  I  I16  1  0.671000  0.780441  0.682972  1
  I  I17  1  0.329396  0.219881  0.317411  1
  I  I18  1  0.171593  0.220633  0.817475  1
  I  I19  1  0.829872  0.780832  0.182521  1
  I  I20  1  0.198272  0.764468  0.782910  1
  I  I21  1  0.803394  0.232103  0.216199  1
  I  I22  1  0.695366  0.233791  0.717333  1
  I  I23  1  0.303778  0.767606  0.283425  1
  I  I24  1  0.043148  0.777063  0.503165  1
  I  I25  1  0.956110  0.222975  0.498021  1
  I  I26  1  0.542876  0.224037  0.996181  1
  I  I27  1  0.457006  0.775735  0.002826  1
  I  I28  1  0.838569  0.958981  0.898212  1
  I  I29  1  0.161921  0.041161  0.100500  1
  I  I30  1  0.336724  0.042247  0.601157  1
  I  I31  1  0.661976  0.958174  0.399204  1
