# generated using pymatgen
data_ThScP7Ru12
_symmetry_space_group_name_H-M   'P 1'
_cell_length_a   9.45362100
_cell_length_b   9.45362030
_cell_length_c   3.92960300
_cell_angle_alpha   90.00000000
_cell_angle_beta   90.00000000
_cell_angle_gamma   119.99999802
_symmetry_Int_Tables_number   1
_chemical_formula_structural   ThScP7Ru12
_chemical_formula_sum   'Th1 Sc1 P7 Ru12'
_cell_volume   304.14148307
_cell_formula_units_Z   1
loop_
 _symmetry_equiv_pos_site_id
 _symmetry_equiv_pos_as_xyz
  1  'x, y, z'
loop_
 _atom_site_type_symbol
 _atom_site_label
 _atom_site_symmetry_multiplicity
 _atom_site_fract_x
 _atom_site_fract_y
 _atom_site_fract_z
 _atom_site_occupancy
  Th  Th0  1  0.333333  0.666667  0.000000  1
  Sc  Sc1  1  0.666667  0.333333  0.500000  1
  P  P2  1  0.606226  0.717063  0.500000  1
  P  P3  1  0.000000  0.000000  0.000000  1
  P  P4  1  0.282937  0.889163  0.500000  1
  P  P5  1  0.110837  0.393774  0.500000  1
  P  P6  1  0.883409  0.570641  0.000000  1
  P  P7  1  0.429359  0.312768  0.000000  1
  P  P8  1  0.687232  0.116591  0.000000  1
  Ru  Ru9  1  0.557937  0.952326  0.500000  1
  Ru  Ru10  1  0.394390  0.442063  0.500000  1
  Ru  Ru11  1  0.912476  0.119141  0.500000  1
  Ru  Ru12  1  0.206665  0.087524  0.500000  1
  Ru  Ru13  1  0.880859  0.793335  0.500000  1
  Ru  Ru14  1  0.727075  0.891222  0.000000  1
  Ru  Ru15  1  0.108778  0.835852  0.000000  1
  Ru  Ru16  1  0.164148  0.272925  0.000000  1
  Ru  Ru17  1  0.426311  0.072238  0.000000  1
  Ru  Ru18  1  0.927762  0.354073  0.000000  1
  Ru  Ru19  1  0.645927  0.573689  0.000000  1
  Ru  Ru20  1  0.047674  0.605610  0.500000  1
