# generated using pymatgen
data_HoLu5(Si3Ru)8
_symmetry_space_group_name_H-M   'P 1'
_cell_length_a   10.08731540
_cell_length_b   10.08731482
_cell_length_c   8.09045594
_cell_angle_alpha   89.88412818
_cell_angle_beta   90.11586924
_cell_angle_gamma   132.71908605
_symmetry_Int_Tables_number   1
_chemical_formula_structural   HoLu5(Si3Ru)8
_chemical_formula_sum   'Ho1 Lu5 Si24 Ru8'
_cell_volume   604.82041950
_cell_formula_units_Z   1
loop_
 _symmetry_equiv_pos_site_id
 _symmetry_equiv_pos_as_xyz
  1  'x, y, z'
loop_
 _atom_site_type_symbol
 _atom_site_label
 _atom_site_symmetry_multiplicity
 _atom_site_fract_x
 _atom_site_fract_y
 _atom_site_fract_z
 _atom_site_occupancy
  Ho  Ho0  1  0.002667  0.502667  0.750000  1
  Lu  Lu1  1  0.500200  0.500224  0.499831  1
  Lu  Lu2  1  0.000224  0.000200  0.000169  1
  Lu  Lu3  1  0.502492  0.002492  0.750000  1
  Lu  Lu4  1  0.997888  0.497888  0.250000  1
  Lu  Lu5  1  0.497673  0.997673  0.250000  1
  Si  Si6  1  0.795777  0.205743  0.499548  1
  Si  Si7  1  0.294322  0.704217  0.000140  1
  Si  Si8  1  0.204217  0.794322  0.499860  1
  Si  Si9  1  0.705743  0.295777  0.000452  1
  Si  Si10  1  0.331275  0.332982  0.832688  1
  Si  Si11  1  0.667766  0.667962  0.166947  1
  Si  Si12  1  0.167962  0.167766  0.333053  1
  Si  Si13  1  0.832982  0.831275  0.667312  1
  Si  Si14  1  0.121670  0.887002  0.729687  1
  Si  Si15  1  0.111124  0.876854  0.272068  1
  Si  Si16  1  0.614110  0.380541  0.228037  1
  Si  Si17  1  0.622152  0.387567  0.771036  1
  Si  Si18  1  0.880541  0.114110  0.271963  1
  Si  Si19  1  0.887567  0.122152  0.728964  1
  Si  Si20  1  0.387002  0.621670  0.770313  1
  Si  Si21  1  0.376854  0.611124  0.227932  1
  Si  Si22  1  0.343011  0.110672  0.504589  1
  Si  Si23  1  0.886558  0.651703  0.493913  1
  Si  Si24  1  0.389449  0.157157  0.003165  1
  Si  Si25  1  0.847564  0.613239  0.995455  1
  Si  Si26  1  0.657157  0.889449  0.496835  1
  Si  Si27  1  0.113239  0.347564  0.504545  1
  Si  Si28  1  0.610672  0.843011  0.995411  1
  Si  Si29  1  0.151703  0.386558  0.006087  1
  Ru  Ru30  1  0.665392  0.325832  0.498809  1
  Ru  Ru31  1  0.173868  0.834211  0.002027  1
  Ru  Ru32  1  0.334211  0.673868  0.497973  1
  Ru  Ru33  1  0.825832  0.165392  0.001191  1
  Ru  Ru34  1  0.126364  0.126736  0.628084  1
  Ru  Ru35  1  0.873325  0.872709  0.372505  1
  Ru  Ru36  1  0.372709  0.373325  0.127495  1
  Ru  Ru37  1  0.626736  0.626364  0.871916  1
