# generated using pymatgen
data_Er8In2OsRh
_symmetry_space_group_name_H-M   'P 1'
_cell_length_a   9.55114070
_cell_length_b   9.58111243
_cell_length_c   9.58111307
_cell_angle_alpha   60.21455379
_cell_angle_beta   60.10342878
_cell_angle_gamma   60.10342875
_symmetry_Int_Tables_number   1
_chemical_formula_structural   Er8In2OsRh
_chemical_formula_sum   'Er16 In4 Os2 Rh2'
_cell_volume   621.94328842
_cell_formula_units_Z   2
loop_
 _symmetry_equiv_pos_site_id
 _symmetry_equiv_pos_as_xyz
  1  'x, y, z'
loop_
 _atom_site_type_symbol
 _atom_site_label
 _atom_site_symmetry_multiplicity
 _atom_site_fract_x
 _atom_site_fract_y
 _atom_site_fract_z
 _atom_site_occupancy
  Er  Er0  1  0.189965  0.193597  0.808565  1
  Er  Er1  1  0.438935  0.061065  0.061065  1
  Er  Er2  1  0.445172  0.058052  0.437428  1
  Er  Er3  1  0.059346  0.437428  0.058052  1
  Er  Er4  1  0.651062  0.048642  0.649234  1
  Er  Er5  1  0.191623  0.808377  0.808377  1
  Er  Er6  1  0.059346  0.058052  0.437428  1
  Er  Er7  1  0.807718  0.192282  0.192282  1
  Er  Er8  1  0.807874  0.808565  0.193597  1
  Er  Er9  1  0.651062  0.649234  0.048642  1
  Er  Er10  1  0.652980  0.650444  0.650444  1
  Er  Er11  1  0.057380  0.442620  0.442620  1
  Er  Er12  1  0.046132  0.650444  0.650444  1
  Er  Er13  1  0.807874  0.193597  0.808565  1
  Er  Er14  1  0.445172  0.437428  0.058052  1
  Er  Er15  1  0.189965  0.808565  0.193597  1
  In  In16  1  0.417328  0.748814  0.416530  1
  In  In17  1  0.417328  0.416530  0.748814  1
  In  In18  1  0.748997  0.417095  0.417095  1
  In  In19  1  0.416813  0.417095  0.417095  1
  Os  Os20  1  0.858731  0.422251  0.860286  1
  Os  Os21  1  0.858731  0.860286  0.422251  1
  Rh  Rh22  1  0.421545  0.859768  0.859768  1
  Rh  Rh23  1  0.858920  0.859768  0.859768  1
