# generated using pymatgen
data_CsDy3CBr6
_symmetry_space_group_name_H-M   'P 1'
_cell_length_a   8.85059672
_cell_length_b   8.88558507
_cell_length_c   9.46172124
_cell_angle_alpha   70.91529670
_cell_angle_beta   84.83061896
_cell_angle_gamma   89.13797205
_symmetry_Int_Tables_number   1
_chemical_formula_structural   CsDy3CBr6
_chemical_formula_sum   'Cs2 Dy6 C2 Br12'
_cell_volume   700.25503222
_cell_formula_units_Z   2
loop_
 _symmetry_equiv_pos_site_id
 _symmetry_equiv_pos_as_xyz
  1  'x, y, z'
loop_
 _atom_site_type_symbol
 _atom_site_label
 _atom_site_symmetry_multiplicity
 _atom_site_fract_x
 _atom_site_fract_y
 _atom_site_fract_z
 _atom_site_occupancy
  Cs  Cs0  1  0.466673  0.367149  0.330524  1
  Cs  Cs1  1  0.533328  0.632851  0.669476  1
  Dy  Dy2  1  0.917007  0.746494  0.005131  1
  Dy  Dy3  1  0.082993  0.253506  0.994868  1
  Dy  Dy4  1  0.745330  0.085246  0.001182  1
  Dy  Dy5  1  0.254669  0.914754  0.998819  1
  Dy  Dy6  1  0.973182  0.887171  0.323955  1
  Dy  Dy7  1  0.026817  0.112829  0.676046  1
  C  C8  1  0.006404  0.026700  0.920364  1
  C  C9  1  0.993595  0.973300  0.079636  1
  Br  Br10  1  0.073870  0.196836  0.326999  1
  Br  Br11  1  0.926130  0.803164  0.673001  1
  Br  Br12  1  0.202494  0.594564  0.001026  1
  Br  Br13  1  0.797507  0.405436  0.998974  1
  Br  Br14  1  0.401081  0.198995  0.001033  1
  Br  Br15  1  0.598918  0.801006  0.998966  1
  Br  Br16  1  0.668437  0.001728  0.324418  1
  Br  Br17  1  0.331563  0.998272  0.675582  1
  Br  Br18  1  0.279215  0.778120  0.320601  1
  Br  Br19  1  0.720785  0.221880  0.679399  1
  Br  Br20  1  0.852909  0.591868  0.325558  1
  Br  Br21  1  0.147090  0.408132  0.674442  1
