# generated using pymatgen
data_CaSmNi2(As2Pd)2
_symmetry_space_group_name_H-M   'P 1'
_cell_length_a   4.29436200
_cell_length_b   4.29436200
_cell_length_c   9.73152200
_cell_angle_alpha   90.00000000
_cell_angle_beta   90.00000000
_cell_angle_gamma   90.00000000
_symmetry_Int_Tables_number   1
_chemical_formula_structural   CaSmNi2(As2Pd)2
_chemical_formula_sum   'Ca1 Sm1 Ni2 As4 Pd2'
_cell_volume   179.46430076
_cell_formula_units_Z   1
loop_
 _symmetry_equiv_pos_site_id
 _symmetry_equiv_pos_as_xyz
  1  'x, y, z'
loop_
 _atom_site_type_symbol
 _atom_site_label
 _atom_site_symmetry_multiplicity
 _atom_site_fract_x
 _atom_site_fract_y
 _atom_site_fract_z
 _atom_site_occupancy
  Ca  Ca0  1  0.000000  0.500000  0.255492  1
  Sm  Sm1  1  0.500000  0.000000  0.739508  1
  Ni  Ni2  1  0.000000  0.500000  0.615226  1
  Ni  Ni3  1  0.500000  0.000000  0.389478  1
  As  As4  1  0.000000  0.000000  0.499687  1
  As  As5  1  0.500000  0.500000  0.499687  1
  As  As6  1  0.000000  0.500000  0.853622  1
  As  As7  1  0.500000  0.000000  0.148930  1
  Pd  Pd8  1  0.000000  0.000000  0.999186  1
  Pd  Pd9  1  0.500000  0.500000  0.999186  1
