# generated using pymatgen
data_Hf6Al16Co5Cu2
_symmetry_space_group_name_H-M   'P 1'
_cell_length_a   8.50331460
_cell_length_b   8.52763189
_cell_length_c   8.50331487
_cell_angle_alpha   59.90535842
_cell_angle_beta   60.18928956
_cell_angle_gamma   59.90535263
_symmetry_Int_Tables_number   1
_chemical_formula_structural   Hf6Al16Co5Cu2
_chemical_formula_sum   'Hf6 Al16 Co5 Cu2'
_cell_volume   435.99632985
_cell_formula_units_Z   1
loop_
 _symmetry_equiv_pos_site_id
 _symmetry_equiv_pos_as_xyz
  1  'x, y, z'
loop_
 _atom_site_type_symbol
 _atom_site_label
 _atom_site_symmetry_multiplicity
 _atom_site_fract_x
 _atom_site_fract_y
 _atom_site_fract_z
 _atom_site_occupancy
  Hf  Hf0  1  0.696795  0.696795  0.303205  1
  Hf  Hf1  1  0.324549  0.675451  0.324549  1
  Hf  Hf2  1  0.696795  0.303205  0.303205  1
  Hf  Hf3  1  0.303205  0.303205  0.696795  1
  Hf  Hf4  1  0.675451  0.324549  0.675451  1
  Hf  Hf5  1  0.303205  0.696795  0.696795  1
  Al  Al6  1  0.892685  0.876768  0.353779  1
  Al  Al7  1  0.876768  0.353779  0.876768  1
  Al  Al8  1  0.353779  0.876768  0.892685  1
  Al  Al9  1  0.876768  0.892685  0.876768  1
  Al  Al10  1  0.107315  0.123232  0.646221  1
  Al  Al11  1  0.123232  0.646221  0.123232  1
  Al  Al12  1  0.646221  0.123232  0.107315  1
  Al  Al13  1  0.123232  0.107315  0.123232  1
  Al  Al14  1  0.662491  0.667162  0.003184  1
  Al  Al15  1  0.667162  0.003184  0.667162  1
  Al  Al16  1  0.003184  0.667162  0.662491  1
  Al  Al17  1  0.667162  0.662491  0.667162  1
  Al  Al18  1  0.337509  0.332838  0.996816  1
  Al  Al19  1  0.332838  0.996816  0.332838  1
  Al  Al20  1  0.996816  0.332838  0.337509  1
  Al  Al21  1  0.332838  0.337509  0.332838  1
  Co  Co22  1  0.000000  0.000000  0.000000  1
  Co  Co23  1  0.000000  0.000000  0.500000  1
  Co  Co24  1  0.000000  0.500000  0.500000  1
  Co  Co25  1  0.500000  0.500000  0.000000  1
  Co  Co26  1  0.500000  0.000000  0.000000  1
  Cu  Cu27  1  0.500000  0.000000  0.500000  1
  Cu  Cu28  1  0.000000  0.500000  0.000000  1
