# generated using pymatgen
data_PrCr4AgO14
_symmetry_space_group_name_H-M   'P 1'
_cell_length_a   7.43846602
_cell_length_b   7.43846545
_cell_length_c   7.43846523
_cell_angle_alpha   111.24471621
_cell_angle_beta   108.59182150
_cell_angle_gamma   108.59181673
_symmetry_Int_Tables_number   1
_chemical_formula_structural   PrCr4AgO14
_chemical_formula_sum   'Pr1 Cr4 Ag1 O14'
_cell_volume   316.60290140
_cell_formula_units_Z   1
loop_
 _symmetry_equiv_pos_site_id
 _symmetry_equiv_pos_as_xyz
  1  'x, y, z'
loop_
 _atom_site_type_symbol
 _atom_site_label
 _atom_site_symmetry_multiplicity
 _atom_site_fract_x
 _atom_site_fract_y
 _atom_site_fract_z
 _atom_site_occupancy
  Pr  Pr0  1  0.000000  0.990241  0.990241  1
  Cr  Cr1  1  0.544043  0.954204  0.173457  1
  Cr  Cr2  1  0.455956  0.629413  0.410161  1
  Cr  Cr3  1  0.219252  0.173457  0.629413  1
  Cr  Cr4  1  0.780748  0.410161  0.954204  1
  Ag  Ag5  1  0.000000  0.567072  0.567072  1
  O  O6  1  0.304888  0.912121  0.009391  1
  O  O7  1  0.677277  0.913663  0.037079  1
  O  O8  1  0.819876  0.518403  0.204576  1
  O  O9  1  0.322722  0.359801  0.236386  1
  O  O10  1  0.500000  0.763183  0.263183  1
  O  O11  1  0.123415  0.037079  0.359801  1
  O  O12  1  0.686171  0.204576  0.384700  1
  O  O13  1  0.313828  0.698528  0.518405  1
  O  O14  1  0.695112  0.704504  0.607234  1
  O  O15  1  0.097270  0.009391  0.704504  1
  O  O16  1  0.180124  0.384701  0.698528  1
  O  O17  1  0.500000  0.263183  0.763183  1
  O  O18  1  0.902730  0.607234  0.912121  1
  O  O19  1  0.876585  0.236386  0.913663  1
