# generated using pymatgen
data_Li2ErTcH6
_symmetry_space_group_name_H-M   'P 1'
_cell_length_a   4.96099482
_cell_length_b   4.96098306
_cell_length_c   4.96102400
_cell_angle_alpha   120.00011546
_cell_angle_beta   120.00005863
_cell_angle_gamma   59.99990963
_symmetry_Int_Tables_number   1
_chemical_formula_structural   Li2ErTcH6
_chemical_formula_sum   'Li2 Er1 Tc1 H6'
_cell_volume   86.33601101
_cell_formula_units_Z   1
loop_
 _symmetry_equiv_pos_site_id
 _symmetry_equiv_pos_as_xyz
  1  'x, y, z'
loop_
 _atom_site_type_symbol
 _atom_site_label
 _atom_site_symmetry_multiplicity
 _atom_site_fract_x
 _atom_site_fract_y
 _atom_site_fract_z
 _atom_site_occupancy
  Li  Li0  1  0.499996  0.500007  0.500000  1
  Li  Li1  1  0.250000  0.250006  0.750005  1
  Er  Er2  1  0.750010  0.749973  0.249976  1
  Tc  Tc3  1  0.999994  0.999996  0.999994  1
  H  H4  1  0.248757  0.248761  0.248762  1
  H  H5  1  0.751243  0.248759  0.248758  1
  H  H6  1  0.248759  0.751245  0.248764  1
  H  H7  1  0.751241  0.248763  0.751244  1
  H  H8  1  0.248760  0.751244  0.751244  1
  H  H9  1  0.751242  0.751248  0.751249  1
