# generated using pymatgen
data_Li2PrSm3P4
_symmetry_space_group_name_H-M   'P 1'
_cell_length_a   4.15194500
_cell_length_b   4.15194402
_cell_length_c   14.32946200
_cell_angle_alpha   90.00000000
_cell_angle_beta   90.00000000
_cell_angle_gamma   119.99999986
_symmetry_Int_Tables_number   1
_chemical_formula_structural   Li2PrSm3P4
_chemical_formula_sum   'Li2 Pr1 Sm3 P4'
_cell_volume   213.92601363
_cell_formula_units_Z   1
loop_
 _symmetry_equiv_pos_site_id
 _symmetry_equiv_pos_as_xyz
  1  'x, y, z'
loop_
 _atom_site_type_symbol
 _atom_site_label
 _atom_site_symmetry_multiplicity
 _atom_site_fract_x
 _atom_site_fract_y
 _atom_site_fract_z
 _atom_site_occupancy
  Li  Li0  1  0.000000  0.000000  0.249824  1
  Li  Li1  1  0.000000  0.000000  0.747578  1
  Pr  Pr2  1  0.666667  0.333332  0.890104  1
  Sm  Sm3  1  0.333333  0.666667  0.112571  1
  Sm  Sm4  1  0.333333  0.666667  0.389369  1
  Sm  Sm5  1  0.666667  0.333332  0.608938  1
  P  P6  1  0.000000  0.000000  0.004999  1
  P  P7  1  0.666667  0.333332  0.251759  1
  P  P8  1  0.000000  0.000000  0.499175  1
  P  P9  1  0.333333  0.666667  0.745682  1
