# generated using pymatgen
data_Lu8TiSi16W11
_symmetry_space_group_name_H-M   'P 1'
_cell_length_a   6.82461720
_cell_length_b   6.82007735
_cell_length_c   12.67161407
_cell_angle_alpha   89.98292383
_cell_angle_beta   90.08805611
_cell_angle_gamma   90.00600160
_symmetry_Int_Tables_number   1
_chemical_formula_structural   Lu8TiSi16W11
_chemical_formula_sum   'Lu8 Ti1 Si16 W11'
_cell_volume   589.79216562
_cell_formula_units_Z   1
loop_
 _symmetry_equiv_pos_site_id
 _symmetry_equiv_pos_as_xyz
  1  'x, y, z'
loop_
 _atom_site_type_symbol
 _atom_site_label
 _atom_site_symmetry_multiplicity
 _atom_site_fract_x
 _atom_site_fract_y
 _atom_site_fract_z
 _atom_site_occupancy
  Lu  Lu0  1  0.339102  0.999381  0.468874  1
  Lu  Lu1  1  0.499619  0.838643  0.719756  1
  Lu  Lu2  1  0.498378  0.161633  0.219326  1
  Lu  Lu3  1  0.839535  0.501141  0.280679  1
  Lu  Lu4  1  0.161609  0.498256  0.780748  1
  Lu  Lu5  1  0.660912  0.000528  0.969238  1
  Lu  Lu6  1  0.000470  0.338124  0.530730  1
  Lu  Lu7  1  0.001118  0.661470  0.030587  1
  Ti  Ti8  1  0.996571  0.841224  0.624748  1
  Si  Si9  1  0.202209  0.127207  0.682213  1
  Si  Si10  1  0.371793  0.701637  0.932868  1
  Si  Si11  1  0.630297  0.297729  0.432795  1
  Si  Si12  1  0.701620  0.370482  0.067089  1
  Si  Si13  1  0.298351  0.632023  0.567016  1
  Si  Si14  1  0.797599  0.870995  0.182836  1
  Si  Si15  1  0.128581  0.201068  0.317397  1
  Si  Si16  1  0.872201  0.797443  0.816943  1
  Si  Si17  1  0.290131  0.962875  0.064424  1
  Si  Si18  1  0.537470  0.790467  0.314349  1
  Si  Si19  1  0.461185  0.209132  0.813969  1
  Si  Si20  1  0.791762  0.538478  0.685231  1
  Si  Si21  1  0.209812  0.461774  0.186060  1
  Si  Si22  1  0.707178  0.040075  0.564960  1
  Si  Si23  1  0.962866  0.290746  0.936474  1
  Si  Si24  1  0.039942  0.709810  0.435453  1
  W  W25  1  0.332827  0.332865  0.000562  1
  W  W26  1  0.167796  0.831740  0.249121  1
  W  W27  1  0.832255  0.167447  0.749942  1
  W  W28  1  0.667331  0.666467  0.499742  1
  W  W29  1  0.164266  0.998702  0.874511  1
  W  W30  1  0.502207  0.662769  0.123499  1
  W  W31  1  0.497622  0.338736  0.623830  1
  W  W32  1  0.662766  0.499119  0.876317  1
  W  W33  1  0.339409  0.495068  0.376093  1
  W  W34  1  0.837058  0.001482  0.374542  1
  W  W35  1  0.996154  0.163263  0.127076  1
