# generated using pymatgen
data_YbZr7(Si4W3)4
_symmetry_space_group_name_H-M   'P 1'
_cell_length_a   6.62828505
_cell_length_b   6.77591712
_cell_length_c   12.73694243
_cell_angle_alpha   89.90290343
_cell_angle_beta   89.98643776
_cell_angle_gamma   89.97523658
_symmetry_Int_Tables_number   1
_chemical_formula_structural   YbZr7(Si4W3)4
_chemical_formula_sum   'Yb1 Zr7 Si16 W12'
_cell_volume   572.04971302
_cell_formula_units_Z   1
loop_
 _symmetry_equiv_pos_site_id
 _symmetry_equiv_pos_as_xyz
  1  'x, y, z'
loop_
 _atom_site_type_symbol
 _atom_site_label
 _atom_site_symmetry_multiplicity
 _atom_site_fract_x
 _atom_site_fract_y
 _atom_site_fract_z
 _atom_site_occupancy
  Yb  Yb0  1  0.995727  0.832519  0.589956  1
  Zr  Zr1  1  0.496979  0.670120  0.592308  1
  Zr  Zr2  1  0.995814  0.828596  0.907696  1
  Zr  Zr3  1  0.505554  0.328789  0.092150  1
  Zr  Zr4  1  0.006312  0.173867  0.405766  1
  Zr  Zr5  1  0.505820  0.329156  0.407360  1
  Zr  Zr6  1  0.004713  0.170127  0.092730  1
  Zr  Zr7  1  0.494181  0.670996  0.908740  1
  Si  Si8  1  0.666413  0.959793  0.456566  1
  Si  Si9  1  0.166983  0.541769  0.043252  1
  Si  Si10  1  0.332035  0.042029  0.957855  1
  Si  Si11  1  0.832929  0.458311  0.543248  1
  Si  Si12  1  0.334758  0.041225  0.542787  1
  Si  Si13  1  0.832904  0.458308  0.957876  1
  Si  Si14  1  0.667402  0.958202  0.042575  1
  Si  Si15  1  0.167101  0.540389  0.456005  1
  Si  Si16  1  0.464461  0.380148  0.750642  1
  Si  Si17  1  0.964877  0.121207  0.750380  1
  Si  Si18  1  0.534437  0.618806  0.249112  1
  Si  Si19  1  0.034457  0.877940  0.251168  1
  Si  Si20  1  0.698797  0.858541  0.749911  1
  Si  Si21  1  0.199089  0.641729  0.749777  1
  Si  Si22  1  0.301276  0.139986  0.249562  1
  Si  Si23  1  0.799991  0.359130  0.249851  1
  W  W24  1  0.662849  0.167040  0.625410  1
  W  W25  1  0.167006  0.337636  0.876378  1
  W  W26  1  0.333748  0.836691  0.123891  1
  W  W27  1  0.829950  0.661764  0.374549  1
  W  W28  1  0.336635  0.835695  0.374955  1
  W  W29  1  0.833115  0.663374  0.124281  1
  W  W30  1  0.664484  0.164438  0.876577  1
  W  W31  1  0.167005  0.335896  0.624827  1
  W  W32  1  0.834407  0.502558  0.751435  1
  W  W33  1  0.334959  0.995658  0.751224  1
  W  W34  1  0.166165  0.491074  0.250243  1
  W  W35  1  0.666668  0.006489  0.248955  1
