# generated using pymatgen
data_CaAc(CdPt)2
_symmetry_space_group_name_H-M   'P 1'
_cell_length_a   4.39156000
_cell_length_b   7.49612800
_cell_length_c   8.91302100
_cell_angle_alpha   90.00000000
_cell_angle_beta   90.00000000
_cell_angle_gamma   90.00000000
_symmetry_Int_Tables_number   1
_chemical_formula_structural   CaAc(CdPt)2
_chemical_formula_sum   'Ca2 Ac2 Cd4 Pt4'
_cell_volume   293.41394069
_cell_formula_units_Z   2
loop_
 _symmetry_equiv_pos_site_id
 _symmetry_equiv_pos_as_xyz
  1  'x, y, z'
loop_
 _atom_site_type_symbol
 _atom_site_label
 _atom_site_symmetry_multiplicity
 _atom_site_fract_x
 _atom_site_fract_y
 _atom_site_fract_z
 _atom_site_occupancy
  Ca  Ca0  1  0.750000  0.960413  0.687425  1
  Ca  Ca1  1  0.750000  0.460413  0.812575  1
  Ac  Ac2  1  0.250000  0.037106  0.327491  1
  Ac  Ac3  1  0.250000  0.537106  0.172509  1
  Cd  Cd4  1  0.250000  0.140591  0.929257  1
  Cd  Cd5  1  0.250000  0.640591  0.570743  1
  Cd  Cd6  1  0.750000  0.863496  0.051225  1
  Cd  Cd7  1  0.750000  0.363496  0.448775  1
  Pt  Pt8  1  0.250000  0.253211  0.627382  1
  Pt  Pt9  1  0.250000  0.753211  0.872618  1
  Pt  Pt10  1  0.750000  0.745182  0.370945  1
  Pt  Pt11  1  0.750000  0.245182  0.129055  1
