# generated using pymatgen
data_Tb3Nd(HgO4)2
_symmetry_space_group_name_H-M   'P 1'
_cell_length_a   7.12100502
_cell_length_b   7.12100639
_cell_length_c   10.16104600
_cell_angle_alpha   59.08276868
_cell_angle_beta   59.08276205
_cell_angle_gamma   29.98616035
_symmetry_Int_Tables_number   1
_chemical_formula_structural   Tb3Nd(HgO4)2
_chemical_formula_sum   'Tb3 Nd1 Hg2 O8'
_cell_volume   218.06783586
_cell_formula_units_Z   1
loop_
 _symmetry_equiv_pos_site_id
 _symmetry_equiv_pos_as_xyz
  1  'x, y, z'
loop_
 _atom_site_type_symbol
 _atom_site_label
 _atom_site_symmetry_multiplicity
 _atom_site_fract_x
 _atom_site_fract_y
 _atom_site_fract_z
 _atom_site_occupancy
  Tb  Tb0  1  0.617106  0.617106  0.539936  1
  Tb  Tb1  1  0.160495  0.160495  0.199765  1
  Tb  Tb2  1  0.840609  0.840609  0.802147  1
  Nd  Nd3  1  0.379888  0.379888  0.460642  1
  Hg  Hg4  1  0.886994  0.886994  0.158468  1
  Hg  Hg5  1  0.113970  0.113970  0.839035  1
  O  O6  1  0.228617  0.228617  0.387851  1
  O  O7  1  0.796064  0.796064  0.054818  1
  O  O8  1  0.035120  0.035120  0.718181  1
  O  O9  1  0.584251  0.584251  0.345661  1
  O  O10  1  0.419060  0.419060  0.656783  1
  O  O11  1  0.969667  0.969667  0.273260  1
  O  O12  1  0.204250  0.204250  0.944607  1
  O  O13  1  0.763908  0.763908  0.618847  1
