# generated using pymatgen
data_NaMg2Ag(H6Ir)2
_symmetry_space_group_name_H-M   'P 1'
_cell_length_a   6.89293200
_cell_length_b   6.89293200
_cell_length_c   6.88460900
_cell_angle_alpha   90.00000000
_cell_angle_beta   90.00000000
_cell_angle_gamma   90.00000000
_symmetry_Int_Tables_number   1
_chemical_formula_structural   NaMg2Ag(H6Ir)2
_chemical_formula_sum   'Na2 Mg4 Ag2 H24 Ir4'
_cell_volume   327.10506468
_cell_formula_units_Z   2
loop_
 _symmetry_equiv_pos_site_id
 _symmetry_equiv_pos_as_xyz
  1  'x, y, z'
loop_
 _atom_site_type_symbol
 _atom_site_label
 _atom_site_symmetry_multiplicity
 _atom_site_fract_x
 _atom_site_fract_y
 _atom_site_fract_z
 _atom_site_occupancy
  Na  Na0  1  0.000000  0.000000  0.500000  1
  Na  Na1  1  0.000000  0.000000  0.000000  1
  Mg  Mg2  1  0.500000  0.500000  0.500000  1
  Mg  Mg3  1  0.000000  0.500000  0.500000  1
  Mg  Mg4  1  0.500000  0.000000  0.500000  1
  Mg  Mg5  1  0.500000  0.500000  0.000000  1
  Ag  Ag6  1  0.000000  0.500000  0.000000  1
  Ag  Ag7  1  0.500000  0.000000  0.000000  1
  H  H8  1  0.742659  0.742659  0.506746  1
  H  H9  1  0.257341  0.257341  0.506746  1
  H  H10  1  0.022726  0.740847  0.739490  1
  H  H11  1  0.259153  0.977274  0.739490  1
  H  H12  1  0.740847  0.022726  0.739490  1
  H  H13  1  0.977274  0.259153  0.739490  1
  H  H14  1  0.739176  0.507724  0.739980  1
  H  H15  1  0.507724  0.739176  0.739980  1
  H  H16  1  0.492276  0.260824  0.739980  1
  H  H17  1  0.260824  0.492276  0.739980  1
  H  H18  1  0.260667  0.739333  0.978852  1
  H  H19  1  0.739333  0.260667  0.978852  1
  H  H20  1  0.739333  0.739333  0.021148  1
  H  H21  1  0.260667  0.260667  0.021148  1
  H  H22  1  0.260824  0.507724  0.260020  1
  H  H23  1  0.492276  0.739176  0.260020  1
  H  H24  1  0.507724  0.260824  0.260020  1
  H  H25  1  0.739176  0.492276  0.260020  1
  H  H26  1  0.977274  0.740847  0.260510  1
  H  H27  1  0.740847  0.977274  0.260510  1
  H  H28  1  0.259153  0.022726  0.260510  1
  H  H29  1  0.022726  0.259153  0.260510  1
  H  H30  1  0.257341  0.742659  0.493254  1
  H  H31  1  0.742659  0.257341  0.493254  1
  Ir  Ir32  1  0.266535  0.733465  0.734819  1
  Ir  Ir33  1  0.733465  0.266535  0.734819  1
  Ir  Ir34  1  0.733465  0.733465  0.265181  1
  Ir  Ir35  1  0.266535  0.266535  0.265181  1
