# generated using pymatgen
data_V3Si3(Tc2Os)2
_symmetry_space_group_name_H-M   'P 1'
_cell_length_a   4.23708500
_cell_length_b   6.00056100
_cell_length_c   12.65591800
_cell_angle_alpha   90.00000000
_cell_angle_beta   90.00002258
_cell_angle_gamma   90.00000000
_symmetry_Int_Tables_number   1
_chemical_formula_structural   V3Si3(Tc2Os)2
_chemical_formula_sum   'V6 Si6 Tc8 Os4'
_cell_volume   321.77528509
_cell_formula_units_Z   2
loop_
 _symmetry_equiv_pos_site_id
 _symmetry_equiv_pos_as_xyz
  1  'x, y, z'
loop_
 _atom_site_type_symbol
 _atom_site_label
 _atom_site_symmetry_multiplicity
 _atom_site_fract_x
 _atom_site_fract_y
 _atom_site_fract_z
 _atom_site_occupancy
  V  V0  1  0.000002  0.500001  0.005323  1
  V  V1  1  0.499740  0.000000  0.167306  1
  V  V2  1  0.999738  0.500001  0.332688  1
  V  V3  1  0.500002  0.000000  0.494692  1
  V  V4  1  0.000251  0.500001  0.659195  1
  V  V5  1  0.500250  0.000000  0.840798  1
  Si  Si6  1  0.000033  0.000000  0.998742  1
  Si  Si7  1  0.499723  0.500001  0.166221  1
  Si  Si8  1  0.999722  0.000000  0.333782  1
  Si  Si9  1  0.500033  0.500001  0.501253  1
  Si  Si10  1  0.000291  0.000000  0.667744  1
  Si  Si11  1  0.500291  0.500001  0.832261  1
  Tc  Tc12  1  0.500008  0.251243  0.997297  1
  Tc  Tc13  1  0.500008  0.748757  0.997297  1
  Tc  Tc14  1  0.999778  0.248919  0.165779  1
  Tc  Tc15  1  0.999778  0.751081  0.165779  1
  Tc  Tc16  1  0.499778  0.251224  0.334244  1
  Tc  Tc17  1  0.499778  0.748776  0.334244  1
  Tc  Tc18  1  0.000008  0.248821  0.502684  1
  Tc  Tc19  1  0.000008  0.751179  0.502684  1
  Os  Os20  1  0.500196  0.249455  0.668753  1
  Os  Os21  1  0.500196  0.750545  0.668753  1
  Os  Os22  1  0.000195  0.250581  0.831241  1
  Os  Os23  1  0.000195  0.749419  0.831241  1
