# generated using pymatgen
data_Cd(FeBr4)2
_symmetry_space_group_name_H-M   'P 1'
_cell_length_a   7.47379400
_cell_length_b   7.66370463
_cell_length_c   14.05012348
_cell_angle_alpha   87.15850749
_cell_angle_beta   90.00000000
_cell_angle_gamma   90.00000000
_symmetry_Int_Tables_number   1
_chemical_formula_structural   Cd(FeBr4)2
_chemical_formula_sum   'Cd2 Fe4 Br16'
_cell_volume   803.75877742
_cell_formula_units_Z   2
loop_
 _symmetry_equiv_pos_site_id
 _symmetry_equiv_pos_as_xyz
  1  'x, y, z'
loop_
 _atom_site_type_symbol
 _atom_site_label
 _atom_site_symmetry_multiplicity
 _atom_site_fract_x
 _atom_site_fract_y
 _atom_site_fract_z
 _atom_site_occupancy
  Cd  Cd0  1  0.754227  0.076243  0.813415  1
  Cd  Cd1  1  0.245773  0.076243  0.313415  1
  Fe  Fe2  1  0.932263  0.218184  0.579269  1
  Fe  Fe3  1  0.067737  0.218184  0.079269  1
  Fe  Fe4  1  0.573857  0.640570  0.778682  1
  Fe  Fe5  1  0.426143  0.640570  0.278682  1
  Br  Br6  1  0.420849  0.614848  0.638618  1
  Br  Br7  1  0.579151  0.614848  0.138618  1
  Br  Br8  1  0.875814  0.736987  0.758976  1
  Br  Br9  1  0.124186  0.736987  0.258976  1
  Br  Br10  1  0.937768  0.481995  0.495671  1
  Br  Br11  1  0.062232  0.481995  0.995671  1
  Br  Br12  1  0.911776  0.000765  0.993629  1
  Br  Br13  1  0.088224  0.000765  0.493629  1
  Br  Br14  1  0.634457  0.127133  0.619097  1
  Br  Br15  1  0.365543  0.127133  0.119097  1
  Br  Br16  1  0.567748  0.368864  0.872770  1
  Br  Br17  1  0.432252  0.368864  0.372770  1
  Br  Br18  1  0.447205  0.871020  0.866628  1
  Br  Br19  1  0.552795  0.871020  0.366628  1
  Br  Br20  1  0.936111  0.230790  0.235444  1
  Br  Br21  1  0.063889  0.230790  0.735444  1
