# generated using pymatgen
data_Nd4FeCoB20
_symmetry_space_group_name_H-M   'P 1'
_cell_length_a   4.19285900
_cell_length_b   5.63593433
_cell_length_c   11.22429925
_cell_angle_alpha   90.23206267
_cell_angle_beta   90.00000000
_cell_angle_gamma   90.00000000
_symmetry_Int_Tables_number   1
_chemical_formula_structural   Nd4FeCoB20
_chemical_formula_sum   'Nd4 Fe1 Co1 B20'
_cell_volume   265.23562583
_cell_formula_units_Z   1
loop_
 _symmetry_equiv_pos_site_id
 _symmetry_equiv_pos_as_xyz
  1  'x, y, z'
loop_
 _atom_site_type_symbol
 _atom_site_label
 _atom_site_symmetry_multiplicity
 _atom_site_fract_x
 _atom_site_fract_y
 _atom_site_fract_z
 _atom_site_occupancy
  Nd  Nd0  1  0.500000  0.205417  0.368372  1
  Nd  Nd1  1  0.500000  0.794583  0.631628  1
  Nd  Nd2  1  0.500000  0.299215  0.865425  1
  Nd  Nd3  1  0.500000  0.700785  0.134575  1
  Fe  Fe4  1  0.000000  0.500000  0.500000  1
  Co  Co5  1  0.000000  0.000000  0.000000  1
  B  B6  1  0.000000  0.372224  0.040387  1
  B  B7  1  0.000000  0.627776  0.959613  1
  B  B8  1  0.000000  0.128987  0.540209  1
  B  B9  1  0.000000  0.871013  0.459791  1
  B  B10  1  0.000000  0.343480  0.196974  1
  B  B11  1  0.000000  0.656520  0.803026  1
  B  B12  1  0.000000  0.156331  0.698081  1
  B  B13  1  0.000000  0.843669  0.301919  1
  B  B14  1  0.000000  0.033872  0.186408  1
  B  B15  1  0.000000  0.966128  0.813592  1
  B  B16  1  0.000000  0.467012  0.686645  1
  B  B17  1  0.000000  0.532988  0.313355  1
  B  B18  1  0.299004  0.201131  0.112482  1
  B  B19  1  0.700996  0.798869  0.887518  1
  B  B20  1  0.299004  0.798869  0.887518  1
  B  B21  1  0.701658  0.298877  0.613147  1
  B  B22  1  0.700996  0.201131  0.112482  1
  B  B23  1  0.298342  0.701123  0.386853  1
  B  B24  1  0.701658  0.701123  0.386853  1
  B  B25  1  0.298342  0.298877  0.613147  1
