# generated using pymatgen
data_Dy2Er6Sc11Si16Mo
_symmetry_space_group_name_H-M   'P 1'
_cell_length_a   7.05013609
_cell_length_b   7.30523734
_cell_length_c   13.85965368
_cell_angle_alpha   90.20685286
_cell_angle_beta   89.66844702
_cell_angle_gamma   89.73216791
_symmetry_Int_Tables_number   1
_chemical_formula_structural   Dy2Er6Sc11Si16Mo
_chemical_formula_sum   'Dy2 Er6 Sc11 Si16 Mo1'
_cell_volume   713.78812681
_cell_formula_units_Z   1
loop_
 _symmetry_equiv_pos_site_id
 _symmetry_equiv_pos_as_xyz
  1  'x, y, z'
loop_
 _atom_site_type_symbol
 _atom_site_label
 _atom_site_symmetry_multiplicity
 _atom_site_fract_x
 _atom_site_fract_y
 _atom_site_fract_z
 _atom_site_occupancy
  Dy  Dy0  1  0.011903  0.175000  0.097284  1
  Dy  Dy1  1  0.989560  0.825247  0.899002  1
  Er  Er2  1  0.487606  0.678722  0.899367  1
  Er  Er3  1  0.993055  0.829012  0.595774  1
  Er  Er4  1  0.512927  0.322766  0.096552  1
  Er  Er5  1  0.009058  0.175233  0.403592  1
  Er  Er6  1  0.506803  0.322669  0.410133  1
  Er  Er7  1  0.487374  0.676929  0.595806  1
  Sc  Sc8  1  0.164139  0.495874  0.744966  1
  Sc  Sc9  1  0.837156  0.497414  0.251997  1
  Sc  Sc10  1  0.336135  0.003144  0.252735  1
  Sc  Sc11  1  0.658806  0.001900  0.746833  1
  Sc  Sc12  1  0.664781  0.825695  0.379095  1
  Sc  Sc13  1  0.168416  0.678722  0.378183  1
  Sc  Sc14  1  0.668759  0.824009  0.124575  1
  Sc  Sc15  1  0.833472  0.323107  0.623555  1
  Sc  Sc16  1  0.333475  0.176872  0.874909  1
  Sc  Sc17  1  0.830226  0.323315  0.871927  1
  Sc  Sc18  1  0.170127  0.676540  0.126129  1
  Si  Si19  1  0.042964  0.119832  0.745324  1
  Si  Si20  1  0.963111  0.886025  0.251465  1
  Si  Si21  1  0.466908  0.615331  0.250998  1
  Si  Si22  1  0.531456  0.376547  0.745550  1
  Si  Si23  1  0.287218  0.878715  0.745868  1
  Si  Si24  1  0.710070  0.128111  0.250994  1
  Si  Si25  1  0.215342  0.371867  0.250890  1
  Si  Si26  1  0.784058  0.625470  0.746374  1
  Si  Si27  1  0.175573  0.451550  0.540258  1
  Si  Si28  1  0.842568  0.532050  0.460828  1
  Si  Si29  1  0.332310  0.970009  0.471176  1
  Si  Si30  1  0.844716  0.534937  0.038921  1
  Si  Si31  1  0.648368  0.034960  0.544481  1
  Si  Si32  1  0.156260  0.466454  0.959479  1
  Si  Si33  1  0.661558  0.035883  0.959013  1
  Si  Si34  1  0.340739  0.962639  0.038135  1
  Mo  Mo35  1  0.332999  0.177450  0.627830  1
