# generated using pymatgen
data_ReAgRuO8
_symmetry_space_group_name_H-M   'P 1'
_cell_length_a   6.09846200
_cell_length_b   6.09846249
_cell_length_c   6.83915300
_cell_angle_alpha   90.00000000
_cell_angle_beta   90.00000000
_cell_angle_gamma   120.00001761
_symmetry_Int_Tables_number   1
_chemical_formula_structural   ReAgRuO8
_chemical_formula_sum   'Re1 Ag1 Ru1 O8'
_cell_volume   220.27923160
_cell_formula_units_Z   1
loop_
 _symmetry_equiv_pos_site_id
 _symmetry_equiv_pos_as_xyz
  1  'x, y, z'
loop_
 _atom_site_type_symbol
 _atom_site_label
 _atom_site_symmetry_multiplicity
 _atom_site_fract_x
 _atom_site_fract_y
 _atom_site_fract_z
 _atom_site_occupancy
  Re  Re0  1  0.666667  0.333333  0.211502  1
  Ag  Ag1  1  0.000000  0.000000  0.497309  1
  Ru  Ru2  1  0.333333  0.666667  0.789396  1
  O  O3  1  0.206577  0.847467  0.704682  1
  O  O4  1  0.152533  0.359110  0.704682  1
  O  O5  1  0.333333  0.666667  0.039765  1
  O  O6  1  0.354768  0.205577  0.297264  1
  O  O7  1  0.640890  0.793423  0.704682  1
  O  O8  1  0.666667  0.333333  0.956189  1
  O  O9  1  0.850809  0.645232  0.297264  1
  O  O10  1  0.794423  0.149191  0.297264  1
