# generated using pymatgen
data_Tb3Y(Sc3Si4)2
_symmetry_space_group_name_H-M   'P 1'
_cell_length_a   7.11812015
_cell_length_b   7.40312323
_cell_length_c   14.03924872
_cell_angle_alpha   89.97151664
_cell_angle_beta   89.97672974
_cell_angle_gamma   90.00234869
_symmetry_Int_Tables_number   1
_chemical_formula_structural   Tb3Y(Sc3Si4)2
_chemical_formula_sum   'Tb6 Y2 Sc12 Si16'
_cell_volume   739.81659900
_cell_formula_units_Z   2
loop_
 _symmetry_equiv_pos_site_id
 _symmetry_equiv_pos_as_xyz
  1  'x, y, z'
loop_
 _atom_site_type_symbol
 _atom_site_label
 _atom_site_symmetry_multiplicity
 _atom_site_fract_x
 _atom_site_fract_y
 _atom_site_fract_z
 _atom_site_occupancy
  Tb  Tb0  1  0.487846  0.674574  0.902797  1
  Tb  Tb1  1  0.987855  0.825441  0.597134  1
  Tb  Tb2  1  0.512154  0.325426  0.097203  1
  Tb  Tb3  1  0.012145  0.174559  0.402866  1
  Tb  Tb4  1  0.512063  0.325419  0.402719  1
  Tb  Tb5  1  0.487937  0.674581  0.597281  1
  Y  Y6  1  0.011899  0.174680  0.097167  1
  Y  Y7  1  0.988101  0.825320  0.902833  1
  Sc  Sc8  1  0.160715  0.502552  0.750048  1
  Sc  Sc9  1  0.839285  0.497448  0.249952  1
  Sc  Sc10  1  0.339409  0.002318  0.250063  1
  Sc  Sc11  1  0.660591  0.997682  0.749937  1
  Sc  Sc12  1  0.330476  0.176626  0.625075  1
  Sc  Sc13  1  0.669524  0.823374  0.374925  1
  Sc  Sc14  1  0.169632  0.676652  0.374901  1
  Sc  Sc15  1  0.669645  0.823439  0.125023  1
  Sc  Sc16  1  0.830368  0.323348  0.625099  1
  Sc  Sc17  1  0.330355  0.176561  0.874977  1
  Sc  Sc18  1  0.830507  0.323187  0.874886  1
  Sc  Sc19  1  0.169493  0.676813  0.125114  1
  Si  Si20  1  0.033516  0.118984  0.750042  1
  Si  Si21  1  0.966484  0.881016  0.249958  1
  Si  Si22  1  0.466460  0.619141  0.249968  1
  Si  Si23  1  0.533540  0.380859  0.750032  1
  Si  Si24  1  0.285665  0.875222  0.750118  1
  Si  Si25  1  0.714335  0.124778  0.249882  1
  Si  Si26  1  0.214216  0.375258  0.250002  1
  Si  Si27  1  0.785784  0.624742  0.749998  1
  Si  Si28  1  0.156888  0.464394  0.539432  1
  Si  Si29  1  0.843112  0.535606  0.460568  1
  Si  Si30  1  0.343250  0.964379  0.460560  1
  Si  Si31  1  0.843272  0.535669  0.039486  1
  Si  Si32  1  0.656750  0.035621  0.539440  1
  Si  Si33  1  0.156728  0.464331  0.960514  1
  Si  Si34  1  0.657041  0.035603  0.960554  1
  Si  Si35  1  0.342959  0.964397  0.039446  1
