# generated using pymatgen
data_YbLu3Ga15(SiIr2)3
_symmetry_space_group_name_H-M   'P 1'
_cell_length_a   7.55260092
_cell_length_b   7.47905990
_cell_length_c   9.41383643
_cell_angle_alpha   89.96024447
_cell_angle_beta   89.87900884
_cell_angle_gamma   119.94661118
_symmetry_Int_Tables_number   1
_chemical_formula_structural   YbLu3Ga15(SiIr2)3
_chemical_formula_sum   'Yb1 Lu3 Ga15 Si3 Ir6'
_cell_volume   460.75745116
_cell_formula_units_Z   1
loop_
 _symmetry_equiv_pos_site_id
 _symmetry_equiv_pos_as_xyz
  1  'x, y, z'
loop_
 _atom_site_type_symbol
 _atom_site_label
 _atom_site_symmetry_multiplicity
 _atom_site_fract_x
 _atom_site_fract_y
 _atom_site_fract_z
 _atom_site_occupancy
  Yb  Yb0  1  0.323561  0.993340  0.749894  1
  Lu  Lu1  1  0.996588  0.665801  0.247881  1
  Lu  Lu2  1  0.004812  0.342032  0.751142  1
  Lu  Lu3  1  0.674584  0.004986  0.247193  1
  Ga  Ga4  1  0.130555  0.127270  0.250897  1
  Ga  Ga5  1  0.872033  0.869969  0.750956  1
  Ga  Ga6  1  0.340882  0.003454  0.418930  1
  Ga  Ga7  1  0.999273  0.327554  0.418775  1
  Ga  Ga8  1  0.666141  0.003567  0.581753  1
  Ga  Ga9  1  0.661019  0.999426  0.916114  1
  Ga  Ga10  1  0.339464  0.002127  0.081968  1
  Ga  Ga11  1  0.331282  0.326930  0.571552  1
  Ga  Ga12  1  0.661332  0.669928  0.428927  1
  Ga  Ga13  1  0.661379  0.669530  0.073359  1
  Ga  Ga14  1  0.335992  0.327952  0.927594  1
  Ga  Ga15  1  0.335772  0.547356  0.251189  1
  Ga  Ga16  1  0.663266  0.454964  0.751656  1
  Ga  Ga17  1  0.550010  0.341662  0.250775  1
  Ga  Ga18  1  0.451991  0.661384  0.750768  1
  Si  Si19  1  0.999860  0.328331  0.074019  1
  Si  Si20  1  0.998832  0.670440  0.929785  1
  Si  Si21  1  0.000730  0.665681  0.567255  1
  Ir  Ir22  1  0.697388  0.342976  0.003792  1
  Ir  Ir23  1  0.302567  0.655580  0.999246  1
  Ir  Ir24  1  0.314904  0.667982  0.502785  1
  Ir  Ir25  1  0.687153  0.343780  0.500319  1
  Ir  Ir26  1  0.998799  0.999700  0.001833  1
  Ir  Ir27  1  0.999830  0.986298  0.499642  1
