# generated using pymatgen
data_Dy19Er(SnPb)8
_symmetry_space_group_name_H-M   'P 1'
_cell_length_a   8.13502803
_cell_length_b   8.20971503
_cell_length_c   15.57735000
_cell_angle_alpha   90.00000000
_cell_angle_beta   90.00000000
_cell_angle_gamma   90.01030606
_symmetry_Int_Tables_number   1
_chemical_formula_structural   Dy19Er(SnPb)8
_chemical_formula_sum   'Dy19 Er1 Sn8 Pb8'
_cell_volume   1040.35296056
_cell_formula_units_Z   1
loop_
 _symmetry_equiv_pos_site_id
 _symmetry_equiv_pos_as_xyz
  1  'x, y, z'
loop_
 _atom_site_type_symbol
 _atom_site_label
 _atom_site_symmetry_multiplicity
 _atom_site_fract_x
 _atom_site_fract_y
 _atom_site_fract_z
 _atom_site_occupancy
  Dy  Dy0  1  0.378157  0.839719  0.877113  1
  Dy  Dy1  1  0.878164  0.660263  0.622926  1
  Dy  Dy2  1  0.621666  0.160160  0.377052  1
  Dy  Dy3  1  0.121944  0.339649  0.122940  1
  Dy  Dy4  1  0.621666  0.160160  0.122948  1
  Dy  Dy5  1  0.121944  0.339649  0.377060  1
  Dy  Dy6  1  0.378157  0.839719  0.622887  1
  Dy  Dy7  1  0.878164  0.660263  0.877074  1
  Dy  Dy8  1  0.534965  0.323464  0.897269  1
  Dy  Dy9  1  0.034935  0.176543  0.602697  1
  Dy  Dy10  1  0.464995  0.676634  0.397266  1
  Dy  Dy11  1  0.965140  0.823529  0.102743  1
  Dy  Dy12  1  0.464995  0.676634  0.102734  1
  Dy  Dy13  1  0.965140  0.823529  0.397257  1
  Dy  Dy14  1  0.534965  0.323464  0.602731  1
  Dy  Dy15  1  0.034935  0.176543  0.897303  1
  Dy  Dy16  1  0.209352  0.503695  0.750000  1
  Dy  Dy17  1  0.709354  0.996349  0.750000  1
  Dy  Dy18  1  0.790698  0.496361  0.250000  1
  Er  Er19  1  0.290488  0.003709  0.250000  1
  Sn  Sn20  1  0.574878  0.622642  0.750000  1
  Sn  Sn21  1  0.074896  0.877373  0.750000  1
  Sn  Sn22  1  0.425091  0.377026  0.250000  1
  Sn  Sn23  1  0.925610  0.122561  0.250000  1
  Sn  Sn24  1  0.343081  0.148956  0.750000  1
  Sn  Sn25  1  0.843120  0.350950  0.750000  1
  Sn  Sn26  1  0.656617  0.851005  0.250000  1
  Sn  Sn27  1  0.156889  0.649497  0.250000  1
  Pb  Pb28  1  0.281821  0.033354  0.041903  1
  Pb  Pb29  1  0.781809  0.466638  0.458211  1
  Pb  Pb30  1  0.718185  0.966614  0.541761  1
  Pb  Pb31  1  0.218184  0.533372  0.958239  1
  Pb  Pb32  1  0.718185  0.966614  0.958239  1
  Pb  Pb33  1  0.218184  0.533372  0.541761  1
  Pb  Pb34  1  0.281821  0.033354  0.458097  1
  Pb  Pb35  1  0.781809  0.466638  0.041789  1
