# generated using pymatgen
data_Nd20Sn7Ir4Au
_symmetry_space_group_name_H-M   'P 1'
_cell_length_a   8.20921282
_cell_length_b   9.19429272
_cell_length_c   12.69014400
_cell_angle_alpha   89.98394722
_cell_angle_beta   89.76881909
_cell_angle_gamma   89.88236322
_symmetry_Int_Tables_number   1
_chemical_formula_structural   Nd20Sn7Ir4Au
_chemical_formula_sum   'Nd20 Sn7 Ir4 Au1'
_cell_volume   957.81564106
_cell_formula_units_Z   1
loop_
 _symmetry_equiv_pos_site_id
 _symmetry_equiv_pos_as_xyz
  1  'x, y, z'
loop_
 _atom_site_type_symbol
 _atom_site_label
 _atom_site_symmetry_multiplicity
 _atom_site_fract_x
 _atom_site_fract_y
 _atom_site_fract_z
 _atom_site_occupancy
  Nd  Nd0  1  0.673144  0.461180  0.921237  1
  Nd  Nd1  1  0.176473  0.962964  0.573706  1
  Nd  Nd2  1  0.679043  0.034548  0.927669  1
  Nd  Nd3  1  0.827953  0.462767  0.420950  1
  Nd  Nd4  1  0.948609  0.745438  0.001975  1
  Nd  Nd5  1  0.446963  0.249040  0.501098  1
  Nd  Nd6  1  0.049050  0.251711  0.003801  1
  Nd  Nd7  1  0.557115  0.750173  0.498090  1
  Nd  Nd8  1  0.323379  0.537825  0.075642  1
  Nd  Nd9  1  0.821214  0.038123  0.425280  1
  Nd  Nd10  1  0.324296  0.964084  0.074301  1
  Nd  Nd11  1  0.179419  0.535220  0.573621  1
  Nd  Nd12  1  0.371821  0.750760  0.805746  1
  Nd  Nd13  1  0.869171  0.251720  0.692528  1
  Nd  Nd14  1  0.628785  0.253212  0.193451  1
  Nd  Nd15  1  0.129497  0.753158  0.305818  1
  Nd  Nd16  1  0.838018  0.749858  0.714611  1
  Nd  Nd17  1  0.337211  0.248610  0.786715  1
  Nd  Nd18  1  0.158306  0.254415  0.283027  1
  Nd  Nd19  1  0.664873  0.747736  0.216530  1
  Sn  Sn20  1  0.564127  0.494641  0.669989  1
  Sn  Sn21  1  0.933358  0.005802  0.170207  1
  Sn  Sn22  1  0.434157  0.995299  0.327896  1
  Sn  Sn23  1  0.064611  0.505601  0.830564  1
  Sn  Sn24  1  0.429868  0.506683  0.330168  1
  Sn  Sn25  1  0.062636  0.993416  0.831890  1
  Sn  Sn26  1  0.568107  0.006065  0.670838  1
  Ir  Ir27  1  0.578407  0.746265  0.994048  1
  Ir  Ir28  1  0.074356  0.250174  0.503894  1
  Ir  Ir29  1  0.421859  0.251283  0.008460  1
  Ir  Ir30  1  0.926728  0.748832  0.492502  1
  Au  Au31  1  0.937445  0.493399  0.173749  1
