# generated using pymatgen
data_Lu8B24Ir3W
_symmetry_space_group_name_H-M   'P 1'
_cell_length_a   3.59136000
_cell_length_b   9.07178574
_cell_length_c   11.44347862
_cell_angle_alpha   89.79935625
_cell_angle_beta   90.00000000
_cell_angle_gamma   90.00000000
_symmetry_Int_Tables_number   1
_chemical_formula_structural   Lu8B24Ir3W
_chemical_formula_sum   'Lu8 B24 Ir3 W1'
_cell_volume   372.82680158
_cell_formula_units_Z   1
loop_
 _symmetry_equiv_pos_site_id
 _symmetry_equiv_pos_as_xyz
  1  'x, y, z'
loop_
 _atom_site_type_symbol
 _atom_site_label
 _atom_site_symmetry_multiplicity
 _atom_site_fract_x
 _atom_site_fract_y
 _atom_site_fract_z
 _atom_site_occupancy
  Lu  Lu0  1  0.000000  0.322618  0.413131  1
  Lu  Lu1  1  0.000000  0.680198  0.583163  1
  Lu  Lu2  1  0.000000  0.815890  0.090438  1
  Lu  Lu3  1  0.000000  0.179821  0.914365  1
  Lu  Lu4  1  0.000000  0.944209  0.375499  1
  Lu  Lu5  1  0.000000  0.057073  0.626089  1
  Lu  Lu6  1  0.000000  0.445108  0.124976  1
  Lu  Lu7  1  0.000000  0.556535  0.872922  1
  B  B8  1  0.500000  0.550934  0.436554  1
  B  B9  1  0.500000  0.446992  0.566830  1
  B  B10  1  0.500000  0.052226  0.065476  1
  B  B11  1  0.500000  0.946299  0.935193  1
  B  B12  1  0.500000  0.751191  0.422464  1
  B  B13  1  0.500000  0.250425  0.579078  1
  B  B14  1  0.500000  0.249938  0.078179  1
  B  B15  1  0.500000  0.749615  0.921179  1
  B  B16  1  0.500000  0.795431  0.264232  1
  B  B17  1  0.500000  0.206776  0.735998  1
  B  B18  1  0.500000  0.291822  0.233222  1
  B  B19  1  0.500000  0.708076  0.763675  1
  B  B20  1  0.500000  0.630847  0.182601  1
  B  B21  1  0.500000  0.368298  0.817013  1
  B  B22  1  0.500000  0.131364  0.316152  1
  B  B23  1  0.500000  0.869533  0.682950  1
  B  B24  1  0.500000  0.980718  0.212594  1
  B  B25  1  0.500000  0.019515  0.787370  1
  B  B26  1  0.500000  0.477124  0.286375  1
  B  B27  1  0.500000  0.519918  0.713079  1
  B  B28  1  0.500000  0.606050  0.027214  1
  B  B29  1  0.500000  0.392558  0.969281  1
  B  B30  1  0.500000  0.108057  0.471288  1
  B  B31  1  0.500000  0.895865  0.530848  1
  Ir  Ir32  1  0.000000  0.360965  0.679774  1
  Ir  Ir33  1  0.000000  0.137812  0.177930  1
  Ir  Ir34  1  0.000000  0.863230  0.821864  1
  W  W35  1  0.000000  0.636970  0.321004  1
