# generated using pymatgen
data_La4ZnGa23Pt9
_symmetry_space_group_name_H-M   'P 1'
_cell_length_a   7.65497374
_cell_length_b   7.69204426
_cell_length_c   13.51494934
_cell_angle_alpha   84.45583005
_cell_angle_beta   79.13527185
_cell_angle_gamma   60.14112311
_symmetry_Int_Tables_number   1
_chemical_formula_structural   La4ZnGa23Pt9
_chemical_formula_sum   'La4 Zn1 Ga23 Pt9'
_cell_volume   677.77991873
_cell_formula_units_Z   1
loop_
 _symmetry_equiv_pos_site_id
 _symmetry_equiv_pos_as_xyz
  1  'x, y, z'
loop_
 _atom_site_type_symbol
 _atom_site_label
 _atom_site_symmetry_multiplicity
 _atom_site_fract_x
 _atom_site_fract_y
 _atom_site_fract_z
 _atom_site_occupancy
  La  La0  1  0.393173  0.168718  0.808074  1
  La  La1  1  0.605205  0.832173  0.191124  1
  La  La2  1  0.731915  0.496815  0.809001  1
  La  La3  1  0.268397  0.501203  0.189572  1
  Zn  Zn4  1  0.689476  0.833781  0.943326  1
  Ga  Ga5  1  0.318248  0.160872  0.056019  1
  Ga  Ga6  1  0.146602  0.831127  0.559389  1
  Ga  Ga7  1  0.853700  0.169219  0.441117  1
  Ga  Ga8  1  0.480093  0.166317  0.555862  1
  Ga  Ga9  1  0.520583  0.833494  0.443865  1
  Ga  Ga10  1  0.217262  0.165179  0.329190  1
  Ga  Ga11  1  0.783321  0.834701  0.670697  1
  Ga  Ga12  1  0.435842  0.506641  0.669838  1
  Ga  Ga13  1  0.562723  0.494513  0.330643  1
  Ga  Ga14  1  0.107948  0.159502  0.668417  1
  Ga  Ga15  1  0.891868  0.839528  0.332421  1
  Ga  Ga16  1  0.353475  0.501631  0.942610  1
  Ga  Ga17  1  0.649177  0.504152  0.054868  1
  Ga  Ga18  1  0.018543  0.166277  0.951378  1
  Ga  Ga19  1  0.979579  0.833582  0.046353  1
  Ga  Ga20  1  0.185957  0.498749  0.442951  1
  Ga  Ga21  1  0.814405  0.502451  0.557004  1
  Ga  Ga22  1  0.737766  0.165649  0.182636  1
  Ga  Ga23  1  0.260931  0.835102  0.817418  1
  Ga  Ga24  1  0.054198  0.636907  0.818451  1
  Ga  Ga25  1  0.939165  0.364819  0.183177  1
  Ga  Ga26  1  0.856295  0.034185  0.818506  1
  Ga  Ga27  1  0.138133  0.961947  0.183473  1
  Pt  Pt28  1  0.119542  0.496732  0.637328  1
  Pt  Pt29  1  0.881771  0.503148  0.362389  1
  Pt  Pt30  1  0.660406  0.175605  0.000559  1
  Pt  Pt31  1  0.336816  0.830059  0.001166  1
  Pt  Pt32  1  0.541722  0.166798  0.362205  1
  Pt  Pt33  1  0.458750  0.833245  0.637644  1
  Pt  Pt34  1  0.782192  0.170861  0.635694  1
  Pt  Pt35  1  0.218086  0.829974  0.364783  1
  Pt  Pt36  1  0.006735  0.494343  0.000853  1
