# generated using pymatgen
data_Dy2MnC2
_symmetry_space_group_name_H-M   'P 1'
_cell_length_a   5.03799100
_cell_length_b   6.33032300
_cell_length_c   9.69165600
_cell_angle_alpha   90.00000000
_cell_angle_beta   90.00000000
_cell_angle_gamma   90.00000000
_symmetry_Int_Tables_number   1
_chemical_formula_structural   Dy2MnC2
_chemical_formula_sum   'Dy8 Mn4 C8'
_cell_volume   309.08736215
_cell_formula_units_Z   4
loop_
 _symmetry_equiv_pos_site_id
 _symmetry_equiv_pos_as_xyz
  1  'x, y, z'
loop_
 _atom_site_type_symbol
 _atom_site_label
 _atom_site_symmetry_multiplicity
 _atom_site_fract_x
 _atom_site_fract_y
 _atom_site_fract_z
 _atom_site_occupancy
  Dy  Dy0  1  0.250000  0.685038  0.554941  1
  Dy  Dy1  1  0.750000  0.314962  0.445059  1
  Dy  Dy2  1  0.750000  0.814962  0.054941  1
  Dy  Dy3  1  0.250000  0.185038  0.945059  1
  Dy  Dy4  1  0.250000  0.523040  0.214712  1
  Dy  Dy5  1  0.750000  0.476960  0.785288  1
  Dy  Dy6  1  0.750000  0.976960  0.714712  1
  Dy  Dy7  1  0.250000  0.023040  0.285288  1
  Mn  Mn8  1  0.250000  0.730185  0.856646  1
  Mn  Mn9  1  0.750000  0.269815  0.143354  1
  Mn  Mn10  1  0.750000  0.769815  0.356646  1
  Mn  Mn11  1  0.250000  0.230185  0.643354  1
  C  C12  1  0.250000  0.465617  0.759455  1
  C  C13  1  0.750000  0.534383  0.240545  1
  C  C14  1  0.750000  0.034383  0.259455  1
  C  C15  1  0.250000  0.965617  0.740545  1
  C  C16  1  0.250000  0.808260  0.034688  1
  C  C17  1  0.750000  0.191740  0.965312  1
  C  C18  1  0.750000  0.691740  0.534688  1
  C  C19  1  0.250000  0.308260  0.465312  1
