# generated using pymatgen
data_La7Tb(SiI6)2
_symmetry_space_group_name_H-M   'P 1'
_cell_length_a   4.42134100
_cell_length_b   14.61581324
_cell_length_c   15.45149815
_cell_angle_alpha   89.37127099
_cell_angle_beta   90.00000000
_cell_angle_gamma   90.00000000
_symmetry_Int_Tables_number   1
_chemical_formula_structural   La7Tb(SiI6)2
_chemical_formula_sum   'La7 Tb1 Si2 I12'
_cell_volume   998.43878369
_cell_formula_units_Z   1
loop_
 _symmetry_equiv_pos_site_id
 _symmetry_equiv_pos_as_xyz
  1  'x, y, z'
loop_
 _atom_site_type_symbol
 _atom_site_label
 _atom_site_symmetry_multiplicity
 _atom_site_fract_x
 _atom_site_fract_y
 _atom_site_fract_z
 _atom_site_occupancy
  La  La0  1  0.500000  0.118080  0.342524  1
  La  La1  1  0.500000  0.883779  0.655356  1
  La  La2  1  0.500000  0.613222  0.155547  1
  La  La3  1  0.500000  0.382570  0.847053  1
  La  La4  1  0.000000  0.114514  0.575840  1
  La  La5  1  0.000000  0.885944  0.423072  1
  La  La6  1  0.000000  0.611646  0.925082  1
  Tb  Tb7  1  0.000000  0.390710  0.073075  1
  Si  Si8  1  0.500000  0.000675  0.498823  1
  Si  Si9  1  0.500000  0.496742  0.002020  1
  I  I10  1  0.500000  0.255711  0.159263  1
  I  I11  1  0.500000  0.754612  0.837825  1
  I  I12  1  0.500000  0.742627  0.336843  1
  I  I13  1  0.500000  0.255847  0.664339  1
  I  I14  1  0.000000  0.260762  0.413461  1
  I  I15  1  0.000000  0.739917  0.586032  1
  I  I16  1  0.000000  0.758110  0.085466  1
  I  I17  1  0.000000  0.242594  0.924223  1
  I  I18  1  0.000000  0.000146  0.238151  1
  I  I19  1  0.000000  0.001178  0.760696  1
  I  I20  1  0.000000  0.489591  0.254487  1
  I  I21  1  0.000000  0.501020  0.740824  1
