# generated using pymatgen
data_Rb2SrTa4(NbBr9)2
_symmetry_space_group_name_H-M   'P 1'
_cell_length_a   10.97932977
_cell_length_b   10.98097707
_cell_length_c   10.98123698
_cell_angle_alpha   54.85380740
_cell_angle_beta   54.83593476
_cell_angle_gamma   54.84747778
_symmetry_Int_Tables_number   1
_chemical_formula_structural   Rb2SrTa4(NbBr9)2
_chemical_formula_sum   'Rb2 Sr1 Ta4 Nb2 Br18'
_cell_volume   823.82713299
_cell_formula_units_Z   1
loop_
 _symmetry_equiv_pos_site_id
 _symmetry_equiv_pos_as_xyz
  1  'x, y, z'
loop_
 _atom_site_type_symbol
 _atom_site_label
 _atom_site_symmetry_multiplicity
 _atom_site_fract_x
 _atom_site_fract_y
 _atom_site_fract_z
 _atom_site_occupancy
  Rb  Rb0  1  0.221846  0.220878  0.220993  1
  Rb  Rb1  1  0.778154  0.779122  0.779007  1
  Sr  Sr2  1  0.500000  0.500000  0.500000  1
  Ta  Ta3  1  0.929179  0.805342  0.137041  1
  Ta  Ta4  1  0.070821  0.194658  0.862959  1
  Ta  Ta5  1  0.137207  0.929182  0.805295  1
  Ta  Ta6  1  0.862793  0.070818  0.194705  1
  Nb  Nb7  1  0.803925  0.138032  0.928693  1
  Nb  Nb8  1  0.196075  0.861968  0.071307  1
  Br  Br9  1  0.165714  0.468148  0.675811  1
  Br  Br10  1  0.930045  0.080280  0.669319  1
  Br  Br11  1  0.328884  0.074578  0.916866  1
  Br  Br12  1  0.671116  0.925422  0.083134  1
  Br  Br13  1  0.589624  0.258761  0.154651  1
  Br  Br14  1  0.081667  0.671532  0.927930  1
  Br  Br15  1  0.675590  0.165905  0.467937  1
  Br  Br16  1  0.741681  0.847862  0.409055  1
  Br  Br17  1  0.410376  0.741239  0.845349  1
  Br  Br18  1  0.324410  0.834095  0.532063  1
  Br  Br19  1  0.258319  0.152138  0.590945  1
  Br  Br20  1  0.849104  0.411274  0.740474  1
  Br  Br21  1  0.069955  0.919720  0.330681  1
  Br  Br22  1  0.529653  0.325953  0.832943  1
  Br  Br23  1  0.150896  0.588726  0.259526  1
  Br  Br24  1  0.918333  0.328468  0.072070  1
  Br  Br25  1  0.834286  0.531852  0.324189  1
  Br  Br26  1  0.470347  0.674047  0.167057  1
