# generated using pymatgen
data_Dy2Y3Co19(Si5P)2
_symmetry_space_group_name_H-M   'P 1'
_cell_length_a   12.15818302
_cell_length_b   12.13221475
_cell_length_c   3.71683300
_cell_angle_alpha   90.00000000
_cell_angle_beta   90.00000000
_cell_angle_gamma   119.92996473
_symmetry_Int_Tables_number   1
_chemical_formula_structural   Dy2Y3Co19(Si5P)2
_chemical_formula_sum   'Dy2 Y3 Co19 Si10 P2'
_cell_volume   475.13662054
_cell_formula_units_Z   1
loop_
 _symmetry_equiv_pos_site_id
 _symmetry_equiv_pos_as_xyz
  1  'x, y, z'
loop_
 _atom_site_type_symbol
 _atom_site_label
 _atom_site_symmetry_multiplicity
 _atom_site_fract_x
 _atom_site_fract_y
 _atom_site_fract_z
 _atom_site_occupancy
  Dy  Dy0  1  0.999992  0.185343  0.000000  1
  Dy  Dy1  1  0.814164  0.815135  0.000000  1
  Y  Y2  1  0.333743  0.666421  0.500000  1
  Y  Y3  1  0.666280  0.332712  0.500000  1
  Y  Y4  1  0.185803  0.000943  0.000000  1
  Co  Co5  1  0.626301  0.823886  0.500000  1
  Co  Co6  1  0.180065  0.802609  0.500000  1
  Co  Co7  1  0.197357  0.373619  0.500000  1
  Co  Co8  1  0.373757  0.197668  0.500000  1
  Co  Co9  1  0.819897  0.622593  0.500000  1
  Co  Co10  1  0.802641  0.176228  0.500000  1
  Co  Co11  1  0.999987  0.558881  0.500000  1
  Co  Co12  1  0.441001  0.441576  0.500000  1
  Co  Co13  1  0.559039  0.000557  0.500000  1
  Co  Co14  1  0.521025  0.644324  0.000000  1
  Co  Co15  1  0.357074  0.877648  0.000000  1
  Co  Co16  1  0.123125  0.478549  0.000000  1
  Co  Co17  1  0.479021  0.123320  0.000000  1
  Co  Co18  1  0.642950  0.520635  0.000000  1
  Co  Co19  1  0.876865  0.355419  0.000000  1
  Co  Co20  1  0.999992  0.718409  0.000000  1
  Co  Co21  1  0.278103  0.278043  0.000000  1
  Co  Co22  1  0.721916  0.999930  0.000000  1
  Co  Co23  1  0.999947  0.004471  0.500000  1
  Si  Si24  1  0.000002  0.371355  0.500000  1
  Si  Si25  1  0.628620  0.628898  0.500000  1
  Si  Si26  1  0.371427  0.000276  0.500000  1
  Si  Si27  1  0.522458  0.840453  0.000000  1
  Si  Si28  1  0.160679  0.682553  0.000000  1
  Si  Si29  1  0.318030  0.477760  0.000000  1
  Si  Si30  1  0.477581  0.318038  0.000000  1
  Si  Si31  1  0.839297  0.521869  0.000000  1
  Si  Si32  1  0.681996  0.159703  0.000000  1
  Si  Si33  1  0.999963  0.817296  0.500000  1
  P  P34  1  0.182868  0.182900  0.500000  1
  P  P35  1  0.817035  0.999981  0.500000  1
