# generated using pymatgen
data_Hf16Ni4Ir4CN
_symmetry_space_group_name_H-M   'P 1'
_cell_length_a   8.61868054
_cell_length_b   8.62327231
_cell_length_c   8.61868088
_cell_angle_alpha   120.14180127
_cell_angle_beta   119.82385007
_cell_angle_gamma   90.01463781
_symmetry_Int_Tables_number   1
_chemical_formula_structural   Hf16Ni4Ir4CN
_chemical_formula_sum   'Hf16 Ni4 Ir4 C1 N1'
_cell_volume   453.11169150
_cell_formula_units_Z   1
loop_
 _symmetry_equiv_pos_site_id
 _symmetry_equiv_pos_as_xyz
  1  'x, y, z'
loop_
 _atom_site_type_symbol
 _atom_site_label
 _atom_site_symmetry_multiplicity
 _atom_site_fract_x
 _atom_site_fract_y
 _atom_site_fract_z
 _atom_site_occupancy
  Hf  Hf0  1  0.937398  0.187734  0.750335  1
  Hf  Hf1  1  0.321607  0.571295  0.749688  1
  Hf  Hf2  1  0.933779  0.567201  0.755942  1
  Hf  Hf3  1  0.310553  0.175499  0.742205  1
  Hf  Hf4  1  0.933294  0.175499  0.364946  1
  Hf  Hf5  1  0.311259  0.567201  0.133422  1
  Hf  Hf6  1  0.058127  0.807236  0.249109  1
  Hf  Hf7  1  0.688896  0.439217  0.250320  1
  Hf  Hf8  1  0.058900  0.438884  0.245731  1
  Hf  Hf9  1  0.693513  0.814451  0.255295  1
  Hf  Hf10  1  0.059156  0.814451  0.620938  1
  Hf  Hf11  1  0.693153  0.438884  0.879984  1
  Hf  Hf12  1  0.485650  0.015057  0.029407  1
  Hf  Hf13  1  0.485661  0.457073  0.471413  1
  Hf  Hf14  1  0.484999  0.014574  0.470839  1
  Hf  Hf15  1  0.043735  0.014574  0.029574  1
  Ni  Ni16  1  0.273046  0.231022  0.457976  1
  Ni  Ni17  1  0.274064  0.815752  0.041687  1
  Ni  Ni18  1  0.276413  0.228483  0.046589  1
  Ni  Ni19  1  0.681893  0.228483  0.452070  1
  Ir  Ir20  1  0.708464  0.785679  0.577216  1
  Ir  Ir21  1  0.707304  0.131058  0.923754  1
  Ir  Ir22  1  0.705513  0.791251  0.916773  1
  Ir  Ir23  1  0.374480  0.791251  0.585738  1
  C  C24  1  0.999803  0.498897  0.999094  1
  N  N25  1  0.999344  0.999298  0.499955  1
