# generated using pymatgen
data_Sm2Cu3PPt5
_symmetry_space_group_name_H-M   'P 1'
_cell_length_a   8.87119644
_cell_length_b   8.92730940
_cell_length_c   4.06983400
_cell_angle_alpha   90.00000000
_cell_angle_beta   90.00000000
_cell_angle_gamma   144.18173416
_symmetry_Int_Tables_number   1
_chemical_formula_structural   Sm2Cu3PPt5
_chemical_formula_sum   'Sm2 Cu3 P1 Pt5'
_cell_volume   188.62351199
_cell_formula_units_Z   1
loop_
 _symmetry_equiv_pos_site_id
 _symmetry_equiv_pos_as_xyz
  1  'x, y, z'
loop_
 _atom_site_type_symbol
 _atom_site_label
 _atom_site_symmetry_multiplicity
 _atom_site_fract_x
 _atom_site_fract_y
 _atom_site_fract_z
 _atom_site_occupancy
  Sm  Sm0  1  0.612578  0.369623  0.500000  1
  Sm  Sm1  1  0.367330  0.613394  0.500000  1
  Cu  Cu2  1  0.098469  0.870954  0.000000  1
  Cu  Cu3  1  0.187730  0.795737  0.500000  1
  Cu  Cu4  1  0.786110  0.191789  0.500000  1
  P  P5  1  0.239639  0.229967  0.000000  1
  Pt  Pt6  1  0.895531  0.120017  0.000000  1
  Pt  Pt7  1  0.485775  0.989191  0.000000  1
  Pt  Pt8  1  0.984075  0.494808  0.000000  1
  Pt  Pt9  1  0.010803  0.992218  0.500000  1
  Pt  Pt10  1  0.645560  0.645904  0.000000  1
