# generated using pymatgen
data_LuScP7Ru11Pt
_symmetry_space_group_name_H-M   'P 1'
_cell_length_a   9.31635904
_cell_length_b   9.43335753
_cell_length_c   3.93059000
_cell_angle_alpha   90.00000000
_cell_angle_beta   90.00000000
_cell_angle_gamma   119.26142250
_symmetry_Int_Tables_number   1
_chemical_formula_structural   LuScP7Ru11Pt
_chemical_formula_sum   'Lu1 Sc1 P7 Ru11 Pt1'
_cell_volume   301.35972148
_cell_formula_units_Z   1
loop_
 _symmetry_equiv_pos_site_id
 _symmetry_equiv_pos_as_xyz
  1  'x, y, z'
loop_
 _atom_site_type_symbol
 _atom_site_label
 _atom_site_symmetry_multiplicity
 _atom_site_fract_x
 _atom_site_fract_y
 _atom_site_fract_z
 _atom_site_occupancy
  Lu  Lu0  1  0.327897  0.657458  0.000000  1
  Sc  Sc1  1  0.671665  0.337816  0.500000  1
  P  P2  1  0.597332  0.705111  0.500000  1
  P  P3  1  0.997687  0.001299  0.000000  1
  P  P4  1  0.270315  0.875518  0.500000  1
  P  P5  1  0.119632  0.402228  0.500000  1
  P  P6  1  0.885762  0.578535  0.000000  1
  P  P7  1  0.430269  0.309355  0.000000  1
  P  P8  1  0.704467  0.129710  0.000000  1
  Ru  Ru9  1  0.391694  0.439149  0.500000  1
  Ru  Ru10  1  0.910076  0.128508  0.500000  1
  Ru  Ru11  1  0.211494  0.086396  0.500000  1
  Ru  Ru12  1  0.875833  0.794388  0.500000  1
  Ru  Ru13  1  0.722831  0.893561  0.000000  1
  Ru  Ru14  1  0.112003  0.839306  0.000000  1
  Ru  Ru15  1  0.164163  0.270556  0.000000  1
  Ru  Ru16  1  0.436245  0.071352  0.000000  1
  Ru  Ru17  1  0.936388  0.366101  0.000000  1
  Ru  Ru18  1  0.641302  0.573013  0.000000  1
  Ru  Ru19  1  0.051487  0.607758  0.500000  1
  Pt  Pt20  1  0.541459  0.932879  0.500000  1
