# generated using pymatgen
data_Lu8Ti9Si16Tc3
_symmetry_space_group_name_H-M   'P 1'
_cell_length_a   6.90523483
_cell_length_b   6.91280634
_cell_length_c   12.71926849
_cell_angle_alpha   89.83689954
_cell_angle_beta   90.14957837
_cell_angle_gamma   89.99430299
_symmetry_Int_Tables_number   1
_chemical_formula_structural   Lu8Ti9Si16Tc3
_chemical_formula_sum   'Lu8 Ti9 Si16 Tc3'
_cell_volume   607.14403912
_cell_formula_units_Z   1
loop_
 _symmetry_equiv_pos_site_id
 _symmetry_equiv_pos_as_xyz
  1  'x, y, z'
loop_
 _atom_site_type_symbol
 _atom_site_label
 _atom_site_symmetry_multiplicity
 _atom_site_fract_x
 _atom_site_fract_y
 _atom_site_fract_z
 _atom_site_occupancy
  Lu  Lu0  1  0.343486  0.998994  0.467791  1
  Lu  Lu1  1  0.499499  0.842265  0.720021  1
  Lu  Lu2  1  0.498670  0.157669  0.216294  1
  Lu  Lu3  1  0.838256  0.497969  0.281871  1
  Lu  Lu4  1  0.161293  0.499645  0.781271  1
  Lu  Lu5  1  0.658515  0.999384  0.968660  1
  Lu  Lu6  1  0.001664  0.338661  0.533753  1
  Lu  Lu7  1  0.999334  0.661028  0.030376  1
  Ti  Ti8  1  0.329585  0.332055  0.999043  1
  Ti  Ti9  1  0.169292  0.825173  0.248061  1
  Ti  Ti10  1  0.831050  0.172508  0.749488  1
  Ti  Ti11  1  0.669295  0.667349  0.500115  1
  Ti  Ti12  1  0.655340  0.496861  0.876824  1
  Ti  Ti13  1  0.344288  0.504199  0.376405  1
  Ti  Ti14  1  0.838780  0.993646  0.373390  1
  Ti  Ti15  1  0.002318  0.152613  0.127197  1
  Ti  Ti16  1  0.995112  0.844894  0.627140  1
  Si  Si17  1  0.207157  0.131020  0.681893  1
  Si  Si18  1  0.368046  0.707658  0.930546  1
  Si  Si19  1  0.632197  0.296631  0.434753  1
  Si  Si20  1  0.701081  0.374265  0.068119  1
  Si  Si21  1  0.303074  0.627945  0.569214  1
  Si  Si22  1  0.789993  0.865672  0.179645  1
  Si  Si23  1  0.131386  0.201581  0.318681  1
  Si  Si24  1  0.874711  0.802161  0.818869  1
  Si  Si25  1  0.290232  0.959458  0.062255  1
  Si  Si26  1  0.541292  0.790792  0.311513  1
  Si  Si27  1  0.458877  0.210318  0.813733  1
  Si  Si28  1  0.790190  0.543805  0.686751  1
  Si  Si29  1  0.207389  0.456775  0.186727  1
  Si  Si30  1  0.709221  0.043499  0.563943  1
  Si  Si31  1  0.957653  0.289348  0.937349  1
  Si  Si32  1  0.044849  0.705913  0.436325  1
  Tc  Tc33  1  0.165911  0.009957  0.873452  1
  Tc  Tc34  1  0.484091  0.659834  0.121471  1
  Tc  Tc35  1  0.506874  0.338456  0.627060  1
