# generated using pymatgen
data_DyHo2Hf(Al3Ir)6
_symmetry_space_group_name_H-M   'P 1'
_cell_length_a   7.53377137
_cell_length_b   7.52554470
_cell_length_c   9.40187700
_cell_angle_alpha   90.00000000
_cell_angle_beta   90.00000000
_cell_angle_gamma   119.59480495
_symmetry_Int_Tables_number   1
_chemical_formula_structural   DyHo2Hf(Al3Ir)6
_chemical_formula_sum   'Dy1 Ho2 Hf1 Al18 Ir6'
_cell_volume   463.50493502
_cell_formula_units_Z   1
loop_
 _symmetry_equiv_pos_site_id
 _symmetry_equiv_pos_as_xyz
  1  'x, y, z'
loop_
 _atom_site_type_symbol
 _atom_site_label
 _atom_site_symmetry_multiplicity
 _atom_site_fract_x
 _atom_site_fract_y
 _atom_site_fract_z
 _atom_site_occupancy
  Dy  Dy0  1  0.005660  0.327536  0.750000  1
  Ho  Ho1  1  0.671227  0.995845  0.250000  1
  Ho  Ho2  1  0.329018  0.006442  0.750000  1
  Hf  Hf3  1  0.997624  0.673045  0.250000  1
  Al  Al4  1  0.126069  0.123531  0.250000  1
  Al  Al5  1  0.870926  0.869519  0.750000  1
  Al  Al6  1  0.000090  0.337857  0.079421  1
  Al  Al7  1  0.999286  0.665066  0.928859  1
  Al  Al8  1  0.999286  0.665066  0.571141  1
  Al  Al9  1  0.332611  0.998187  0.420595  1
  Al  Al10  1  0.000090  0.337857  0.420579  1
  Al  Al11  1  0.664386  0.998208  0.574696  1
  Al  Al12  1  0.664386  0.998208  0.925304  1
  Al  Al13  1  0.332611  0.998187  0.079405  1
  Al  Al14  1  0.333745  0.333713  0.551062  1
  Al  Al15  1  0.668952  0.666887  0.442661  1
  Al  Al16  1  0.668952  0.666887  0.057339  1
  Al  Al17  1  0.333745  0.333713  0.948938  1
  Al  Al18  1  0.336029  0.549262  0.250000  1
  Al  Al19  1  0.660686  0.452155  0.750000  1
  Al  Al20  1  0.554956  0.344342  0.250000  1
  Al  Al21  1  0.450966  0.659729  0.750000  1
  Ir  Ir22  1  0.672655  0.328412  0.001217  1
  Ir  Ir23  1  0.327413  0.672292  0.001945  1
  Ir  Ir24  1  0.327413  0.672292  0.498055  1
  Ir  Ir25  1  0.672655  0.328412  0.498783  1
  Ir  Ir26  1  0.999280  0.998675  0.001410  1
  Ir  Ir27  1  0.999280  0.998675  0.498590  1
