# generated using pymatgen
data_TbDy4Y5Si6
_symmetry_space_group_name_H-M   'P 1'
_cell_length_a   8.45341000
_cell_length_b   8.45583169
_cell_length_c   6.37512000
_cell_angle_alpha   90.00000000
_cell_angle_beta   90.00000000
_cell_angle_gamma   119.99052666
_symmetry_Int_Tables_number   1
_chemical_formula_structural   TbDy4Y5Si6
_chemical_formula_sum   'Tb1 Dy4 Y5 Si6'
_cell_volume   394.68326159
_cell_formula_units_Z   1
loop_
 _symmetry_equiv_pos_site_id
 _symmetry_equiv_pos_as_xyz
  1  'x, y, z'
loop_
 _atom_site_type_symbol
 _atom_site_label
 _atom_site_symmetry_multiplicity
 _atom_site_fract_x
 _atom_site_fract_y
 _atom_site_fract_z
 _atom_site_occupancy
  Tb  Tb0  1  0.243270  0.000000  0.250000  1
  Dy  Dy1  1  0.666695  0.333364  0.999988  1
  Dy  Dy2  1  0.333331  0.666636  0.500012  1
  Dy  Dy3  1  0.333331  0.666636  0.999988  1
  Dy  Dy4  1  0.666695  0.333364  0.500012  1
  Y  Y5  1  0.999985  0.756685  0.750000  1
  Y  Y6  1  0.999999  0.243281  0.250000  1
  Y  Y7  1  0.756718  0.756719  0.250000  1
  Y  Y8  1  0.756750  0.000000  0.750000  1
  Y  Y9  1  0.243300  0.243315  0.750000  1
  Si  Si10  1  0.394409  0.000000  0.750000  1
  Si  Si11  1  0.394497  0.394589  0.250000  1
  Si  Si12  1  0.999908  0.605411  0.250000  1
  Si  Si13  1  0.999965  0.394432  0.750000  1
  Si  Si14  1  0.605533  0.605568  0.750000  1
  Si  Si15  1  0.605614  0.000000  0.250000  1
