# generated using pymatgen
data_Pr2Nd6Be3Si12Rh
_symmetry_space_group_name_H-M   'P 1'
_cell_length_a   8.05704300
_cell_length_b   8.05704282
_cell_length_c   8.58400800
_cell_angle_alpha   90.00000000
_cell_angle_beta   90.00000000
_cell_angle_gamma   119.99999663
_symmetry_Int_Tables_number   1
_chemical_formula_structural   Pr2Nd6Be3Si12Rh
_chemical_formula_sum   'Pr2 Nd6 Be3 Si12 Rh1'
_cell_volume   482.58310506
_cell_formula_units_Z   1
loop_
 _symmetry_equiv_pos_site_id
 _symmetry_equiv_pos_as_xyz
  1  'x, y, z'
loop_
 _atom_site_type_symbol
 _atom_site_label
 _atom_site_symmetry_multiplicity
 _atom_site_fract_x
 _atom_site_fract_y
 _atom_site_fract_z
 _atom_site_occupancy
  Pr  Pr0  1  0.000000  0.000000  0.750098  1
  Pr  Pr1  1  0.000000  0.000000  0.249931  1
  Nd  Nd2  1  0.500336  0.499664  0.748952  1
  Nd  Nd3  1  0.500336  0.000674  0.748952  1
  Nd  Nd4  1  0.999326  0.499664  0.748952  1
  Nd  Nd5  1  0.500877  0.499123  0.251112  1
  Nd  Nd6  1  0.998247  0.499123  0.251112  1
  Nd  Nd7  1  0.500877  0.001753  0.251112  1
  Be  Be8  1  0.666667  0.333333  0.998843  1
  Be  Be9  1  0.666667  0.333333  0.501747  1
  Be  Be10  1  0.333333  0.666667  0.497749  1
  Si  Si11  1  0.830582  0.169418  0.999585  1
  Si  Si12  1  0.830582  0.661162  0.999585  1
  Si  Si13  1  0.338838  0.169418  0.999585  1
  Si  Si14  1  0.827860  0.172140  0.500227  1
  Si  Si15  1  0.827860  0.655720  0.500227  1
  Si  Si16  1  0.344280  0.172140  0.500227  1
  Si  Si17  1  0.172942  0.827058  0.499964  1
  Si  Si18  1  0.654116  0.827058  0.499964  1
  Si  Si19  1  0.172942  0.345884  0.499964  1
  Si  Si20  1  0.168970  0.831030  0.000139  1
  Si  Si21  1  0.662060  0.831030  0.000139  1
  Si  Si22  1  0.168970  0.337940  0.000139  1
  Rh  Rh23  1  0.333333  0.666667  0.001694  1
