# generated using pymatgen
data_Dy2Er4CoTe2
_symmetry_space_group_name_H-M   'P 1'
_cell_length_a   8.37376632
_cell_length_b   8.21924887
_cell_length_c   3.90133600
_cell_angle_alpha   90.00000000
_cell_angle_beta   90.00000000
_cell_angle_gamma   119.39145306
_symmetry_Int_Tables_number   1
_chemical_formula_structural   Dy2Er4CoTe2
_chemical_formula_sum   'Dy2 Er4 Co1 Te2'
_cell_volume   233.95243665
_cell_formula_units_Z   1
loop_
 _symmetry_equiv_pos_site_id
 _symmetry_equiv_pos_as_xyz
  1  'x, y, z'
loop_
 _atom_site_type_symbol
 _atom_site_label
 _atom_site_symmetry_multiplicity
 _atom_site_fract_x
 _atom_site_fract_y
 _atom_site_fract_z
 _atom_site_occupancy
  Dy  Dy0  1  0.596919  0.597651  0.500000  1
  Dy  Dy1  1  0.403081  0.000732  0.500000  1
  Er  Er2  1  0.000000  0.387109  0.500000  1
  Er  Er3  1  0.000000  0.766696  0.000000  1
  Er  Er4  1  0.238784  0.230784  0.000000  1
  Er  Er5  1  0.761216  0.992001  0.000000  1
  Co  Co6  1  0.000000  0.028572  0.500000  1
  Te  Te7  1  0.329190  0.662823  0.000000  1
  Te  Te8  1  0.670810  0.333632  0.000000  1
