# generated using pymatgen
data_HoLu3GeSe3
_symmetry_space_group_name_H-M   'P 1'
_cell_length_a   7.00649599
_cell_length_b   7.00649434
_cell_length_c   7.00649517
_cell_angle_alpha   132.02768798
_cell_angle_beta   132.02767767
_cell_angle_gamma   70.18530915
_symmetry_Int_Tables_number   1
_chemical_formula_structural   HoLu3GeSe3
_chemical_formula_sum   'Ho1 Lu3 Ge1 Se3'
_cell_volume   186.03280628
_cell_formula_units_Z   1
loop_
 _symmetry_equiv_pos_site_id
 _symmetry_equiv_pos_as_xyz
  1  'x, y, z'
loop_
 _atom_site_type_symbol
 _atom_site_label
 _atom_site_symmetry_multiplicity
 _atom_site_fract_x
 _atom_site_fract_y
 _atom_site_fract_z
 _atom_site_occupancy
  Ho  Ho0  1  0.241923  0.241923  0.000000  1
  Lu  Lu1  1  0.758307  0.758307  0.000000  1
  Lu  Lu2  1  0.499828  0.999829  0.499999  1
  Lu  Lu3  1  0.999829  0.499828  0.499999  1
  Ge  Ge4  1  0.998201  0.998201  0.000000  1
  Se  Se5  1  0.502375  0.502375  0.000000  1
  Se  Se6  1  0.749767  0.249768  0.499999  1
  Se  Se7  1  0.249768  0.749767  0.499999  1
