# generated using pymatgen
data_Er4Th(B3Ru)2
_symmetry_space_group_name_H-M   'P 1'
_cell_length_a   5.42333210
_cell_length_b   5.42333308
_cell_length_c   8.33090300
_cell_angle_alpha   71.00444184
_cell_angle_beta   71.00443828
_cell_angle_gamma   60.00001046
_symmetry_Int_Tables_number   1
_chemical_formula_structural   Er4Th(B3Ru)2
_chemical_formula_sum   'Er4 Th1 B6 Ru2'
_cell_volume   196.64614120
_cell_formula_units_Z   1
loop_
 _symmetry_equiv_pos_site_id
 _symmetry_equiv_pos_as_xyz
  1  'x, y, z'
loop_
 _atom_site_type_symbol
 _atom_site_label
 _atom_site_symmetry_multiplicity
 _atom_site_fract_x
 _atom_site_fract_y
 _atom_site_fract_z
 _atom_site_occupancy
  Er  Er0  1  0.750383  0.750383  0.748853  1
  Er  Er1  1  0.249617  0.249617  0.251147  1
  Er  Er2  1  0.583404  0.583404  0.249788  1
  Er  Er3  1  0.416596  0.416596  0.750212  1
  Th  Th4  1  0.000000  0.000000  0.000000  1
  B  B5  1  0.500000  0.172714  0.500000  1
  B  B6  1  0.827286  0.500000  0.500000  1
  B  B7  1  0.172714  0.827287  0.500000  1
  B  B8  1  0.172714  0.500000  0.500000  1
  B  B9  1  0.827286  0.172714  0.500000  1
  B  B10  1  0.500000  0.827286  0.500000  1
  Ru  Ru11  1  0.890419  0.890419  0.328744  1
  Ru  Ru12  1  0.109581  0.109581  0.671256  1
