# generated using pymatgen
data_NdAl3CdNi
_symmetry_space_group_name_H-M   'P 1'
_cell_length_a   4.19882970
_cell_length_b   6.73879000
_cell_length_c   8.41566639
_cell_angle_alpha   90.00000000
_cell_angle_beta   104.44585253
_cell_angle_gamma   90.00000000
_symmetry_Int_Tables_number   1
_chemical_formula_structural   NdAl3CdNi
_chemical_formula_sum   'Nd2 Al6 Cd2 Ni2'
_cell_volume   230.59305528
_cell_formula_units_Z   2
loop_
 _symmetry_equiv_pos_site_id
 _symmetry_equiv_pos_as_xyz
  1  'x, y, z'
loop_
 _atom_site_type_symbol
 _atom_site_label
 _atom_site_symmetry_multiplicity
 _atom_site_fract_x
 _atom_site_fract_y
 _atom_site_fract_z
 _atom_site_occupancy
  Nd  Nd0  1  0.878440  0.750000  0.756880  1
  Nd  Nd1  1  0.121560  0.250000  0.243120  1
  Al  Al2  1  0.080078  0.750000  0.160155  1
  Al  Al3  1  0.919922  0.250000  0.839845  1
  Al  Al4  1  0.693515  0.553767  0.387030  1
  Al  Al5  1  0.306485  0.446233  0.612970  1
  Al  Al6  1  0.693515  0.946233  0.387030  1
  Al  Al7  1  0.306485  0.053767  0.612970  1
  Cd  Cd8  1  0.500000  0.500000  0.000000  1
  Cd  Cd9  1  0.500000  0.000000  0.000000  1
  Ni  Ni10  1  0.224022  0.750000  0.448044  1
  Ni  Ni11  1  0.775978  0.250000  0.551956  1
