# generated using pymatgen
data_TbEr7Ti11Si16Mo
_symmetry_space_group_name_H-M   'P 1'
_cell_length_a   7.01338340
_cell_length_b   7.01264566
_cell_length_c   12.88336489
_cell_angle_alpha   89.98896932
_cell_angle_beta   90.00043652
_cell_angle_gamma   89.98428009
_symmetry_Int_Tables_number   1
_chemical_formula_structural   TbEr7Ti11Si16Mo
_chemical_formula_sum   'Tb1 Er7 Ti11 Si16 Mo1'
_cell_volume   633.63441733
_cell_formula_units_Z   1
loop_
 _symmetry_equiv_pos_site_id
 _symmetry_equiv_pos_as_xyz
  1  'x, y, z'
loop_
 _atom_site_type_symbol
 _atom_site_label
 _atom_site_symmetry_multiplicity
 _atom_site_fract_x
 _atom_site_fract_y
 _atom_site_fract_z
 _atom_site_occupancy
  Tb  Tb0  1  0.340147  0.003874  0.467168  1
  Er  Er1  1  0.497778  0.840163  0.717817  1
  Er  Er2  1  0.500479  0.159215  0.215243  1
  Er  Er3  1  0.840498  0.497715  0.282300  1
  Er  Er4  1  0.159047  0.500362  0.784643  1
  Er  Er5  1  0.657497  0.999203  0.967063  1
  Er  Er6  1  0.002607  0.341014  0.533039  1
  Er  Er7  1  0.999146  0.657494  0.032865  1
  Ti  Ti8  1  0.173796  0.827379  0.249257  1
  Ti  Ti9  1  0.827516  0.174110  0.750723  1
  Ti  Ti10  1  0.673255  0.672597  0.499979  1
  Ti  Ti11  1  0.153036  0.008604  0.876272  1
  Ti  Ti12  1  0.492185  0.651049  0.123906  1
  Ti  Ti13  1  0.507590  0.349222  0.626364  1
  Ti  Ti14  1  0.651197  0.492166  0.875938  1
  Ti  Ti15  1  0.349134  0.507077  0.373716  1
  Ti  Ti16  1  0.848149  0.992549  0.375270  1
  Ti  Ti17  1  0.008432  0.153126  0.123657  1
  Ti  Ti18  1  0.992628  0.848174  0.624891  1
  Si  Si19  1  0.202407  0.131169  0.684454  1
  Si  Si20  1  0.369323  0.702096  0.933626  1
  Si  Si21  1  0.632021  0.297775  0.433593  1
  Si  Si22  1  0.702079  0.369407  0.066405  1
  Si  Si23  1  0.296633  0.629961  0.566672  1
  Si  Si24  1  0.797346  0.869051  0.183616  1
  Si  Si25  1  0.130185  0.203599  0.315320  1
  Si  Si26  1  0.869140  0.797366  0.816372  1
  Si  Si27  1  0.290724  0.953358  0.064546  1
  Si  Si28  1  0.546900  0.791411  0.314143  1
  Si  Si29  1  0.452771  0.208120  0.815373  1
  Si  Si30  1  0.792159  0.546137  0.685403  1
  Si  Si31  1  0.208146  0.452955  0.184633  1
  Si  Si32  1  0.709735  0.047559  0.565297  1
  Si  Si33  1  0.953376  0.290739  0.935393  1
  Si  Si34  1  0.046444  0.707706  0.435034  1
  Mo  Mo35  1  0.326493  0.326497  0.000007  1
