# generated using pymatgen
data_Yb2YCd(Ru2O7)2
_symmetry_space_group_name_H-M   'P 1'
_cell_length_a   7.30121696
_cell_length_b   7.28245685
_cell_length_c   7.17901940
_cell_angle_alpha   59.35583727
_cell_angle_beta   59.43530044
_cell_angle_gamma   59.91474051
_symmetry_Int_Tables_number   1
_chemical_formula_structural   Yb2YCd(Ru2O7)2
_chemical_formula_sum   'Yb2 Y1 Cd1 Ru4 O14'
_cell_volume   267.25065700
_cell_formula_units_Z   1
loop_
 _symmetry_equiv_pos_site_id
 _symmetry_equiv_pos_as_xyz
  1  'x, y, z'
loop_
 _atom_site_type_symbol
 _atom_site_label
 _atom_site_symmetry_multiplicity
 _atom_site_fract_x
 _atom_site_fract_y
 _atom_site_fract_z
 _atom_site_occupancy
  Yb  Yb0  1  0.625000  0.125000  0.125000  1
  Yb  Yb1  1  0.125000  0.125000  0.125000  1
  Y  Y2  1  0.125000  0.625000  0.125000  1
  Cd  Cd3  1  0.125000  0.125000  0.625000  1
  Ru  Ru4  1  0.625000  0.125000  0.625000  1
  Ru  Ru5  1  0.625000  0.625000  0.125000  1
  Ru  Ru6  1  0.125000  0.625000  0.625000  1
  Ru  Ru7  1  0.625000  0.625000  0.625000  1
  O  O8  1  0.707074  0.704845  0.293215  1
  O  O9  1  0.945878  0.553572  0.554672  1
  O  O10  1  0.550187  0.946587  0.953040  1
  O  O11  1  0.942718  0.940993  0.556788  1
  O  O12  1  0.955135  0.545155  0.956785  1
  O  O13  1  0.559501  0.940993  0.556788  1
  O  O14  1  0.294865  0.704845  0.293215  1
  O  O15  1  0.304122  0.696428  0.695328  1
  O  O16  1  0.699813  0.303413  0.296960  1
  O  O17  1  0.690499  0.309007  0.693212  1
  O  O18  1  0.542926  0.545155  0.956785  1
  O  O19  1  0.307282  0.309007  0.693212  1
  O  O20  1  0.244100  0.252823  0.258977  1
  O  O21  1  0.005900  0.997177  0.991023  1
