# generated using pymatgen
data_Zr6Zn6RuRh11
_symmetry_space_group_name_H-M   'P 1'
_cell_length_a   4.49260000
_cell_length_b   6.30478000
_cell_length_c   13.42619800
_cell_angle_alpha   90.00000000
_cell_angle_beta   89.99966778
_cell_angle_gamma   90.00000000
_symmetry_Int_Tables_number   1
_chemical_formula_structural   Zr6Zn6RuRh11
_chemical_formula_sum   'Zr6 Zn6 Ru1 Rh11'
_cell_volume   380.29510655
_cell_formula_units_Z   1
loop_
 _symmetry_equiv_pos_site_id
 _symmetry_equiv_pos_as_xyz
  1  'x, y, z'
loop_
 _atom_site_type_symbol
 _atom_site_label
 _atom_site_symmetry_multiplicity
 _atom_site_fract_x
 _atom_site_fract_y
 _atom_site_fract_z
 _atom_site_occupancy
  Zr  Zr0  1  0.000000  0.002781  0.000000  1
  Zr  Zr1  1  0.499976  0.498536  0.164804  1
  Zr  Zr2  1  0.999973  0.999811  0.333161  1
  Zr  Zr3  1  0.500001  0.500181  0.500000  1
  Zr  Zr4  1  0.000027  0.999811  0.666839  1
  Zr  Zr5  1  0.500023  0.498536  0.835196  1
  Zn  Zn6  1  0.000000  0.499149  0.000000  1
  Zn  Zn7  1  0.499974  0.000818  0.166035  1
  Zn  Zn8  1  0.999975  0.499690  0.333352  1
  Zn  Zn9  1  0.500001  0.999908  0.500000  1
  Zn  Zn10  1  0.000025  0.499690  0.666648  1
  Zn  Zn11  1  0.500027  0.000818  0.833965  1
  Ru  Ru12  1  0.500001  0.250091  0.000000  1
  Rh  Rh13  1  0.500001  0.750043  0.000000  1
  Rh  Rh14  1  0.999975  0.250089  0.166932  1
  Rh  Rh15  1  0.999978  0.749930  0.167651  1
  Rh  Rh16  1  0.499971  0.249844  0.333921  1
  Rh  Rh17  1  0.499972  0.750196  0.333705  1
  Rh  Rh18  1  0.000000  0.250122  0.500000  1
  Rh  Rh19  1  0.000000  0.749889  0.500000  1
  Rh  Rh20  1  0.500028  0.249844  0.666079  1
  Rh  Rh21  1  0.500027  0.750196  0.666295  1
  Rh  Rh22  1  0.000025  0.250089  0.833068  1
  Rh  Rh23  1  0.000022  0.749930  0.832349  1
