# generated using pymatgen
data_Y5Si12Ir13Ru6
_symmetry_space_group_name_H-M   'P 1'
_cell_length_a   12.62238000
_cell_length_b   12.61556377
_cell_length_c   3.98293300
_cell_angle_alpha   90.00000000
_cell_angle_beta   90.00000000
_cell_angle_gamma   119.71297060
_symmetry_Int_Tables_number   1
_chemical_formula_structural   Y5Si12Ir13Ru6
_chemical_formula_sum   'Y5 Si12 Ir13 Ru6'
_cell_volume   550.84625811
_cell_formula_units_Z   1
loop_
 _symmetry_equiv_pos_site_id
 _symmetry_equiv_pos_as_xyz
  1  'x, y, z'
loop_
 _atom_site_type_symbol
 _atom_site_label
 _atom_site_symmetry_multiplicity
 _atom_site_fract_x
 _atom_site_fract_y
 _atom_site_fract_z
 _atom_site_occupancy
  Y  Y0  1  0.668590  0.334733  0.000000  1
  Y  Y1  1  0.332860  0.664925  0.000000  1
  Y  Y2  1  0.816528  0.001451  0.500000  1
  Y  Y3  1  0.184733  0.185799  0.500000  1
  Y  Y4  1  0.999748  0.815619  0.500000  1
  Si  Si5  1  0.628679  0.001142  0.000000  1
  Si  Si6  1  0.374578  0.374072  0.000000  1
  Si  Si7  1  0.999903  0.625757  0.000000  1
  Si  Si8  1  0.688250  0.523958  0.500000  1
  Si  Si9  1  0.835302  0.310579  0.500000  1
  Si  Si10  1  0.310064  0.833049  0.500000  1
  Si  Si11  1  0.523120  0.687282  0.500000  1
  Si  Si12  1  0.183216  0.000529  0.000000  1
  Si  Si13  1  0.816683  0.817282  0.000000  1
  Si  Si14  1  0.998087  0.183811  0.000000  1
  Si  Si15  1  0.477163  0.165971  0.500000  1
  Si  Si16  1  0.164146  0.476252  0.500000  1
  Ir  Ir17  1  0.622661  0.808155  0.000000  1
  Ir  Ir18  1  0.185018  0.376049  0.000000  1
  Ir  Ir19  1  0.376653  0.184416  0.000000  1
  Ir  Ir20  1  0.191126  0.815221  0.000000  1
  Ir  Ir21  1  0.808436  0.624133  0.000000  1
  Ir  Ir22  1  0.873560  0.511279  0.500000  1
  Ir  Ir23  1  0.489291  0.362494  0.500000  1
  Ir  Ir24  1  0.637387  0.124970  0.500000  1
  Ir  Ir25  1  0.125926  0.637702  0.500000  1
  Ir  Ir26  1  0.361991  0.488401  0.500000  1
  Ir  Ir27  1  0.510402  0.873057  0.500000  1
  Ir  Ir28  1  0.999899  0.000297  0.000000  1
  Ir  Ir29  1  0.441172  0.998063  0.000000  1
  Ru  Ru30  1  0.721387  0.722100  0.500000  1
  Ru  Ru31  1  0.001059  0.279071  0.500000  1
  Ru  Ru32  1  0.558810  0.559153  0.000000  1
  Ru  Ru33  1  0.999462  0.440201  0.000000  1
  Ru  Ru34  1  0.814340  0.192807  0.000000  1
  Ru  Ru35  1  0.279764  0.000222  0.500000  1
