# generated using pymatgen
data_KLa(NbCl3)6
_symmetry_space_group_name_H-M   'P 1'
_cell_length_a   10.34673681
_cell_length_b   10.34673668
_cell_length_c   10.34673617
_cell_angle_alpha   55.11574588
_cell_angle_beta   55.11574349
_cell_angle_gamma   55.11575148
_symmetry_Int_Tables_number   1
_chemical_formula_structural   KLa(NbCl3)6
_chemical_formula_sum   'K1 La1 Nb6 Cl18'
_cell_volume   694.27405480
_cell_formula_units_Z   1
loop_
 _symmetry_equiv_pos_site_id
 _symmetry_equiv_pos_as_xyz
  1  'x, y, z'
loop_
 _atom_site_type_symbol
 _atom_site_label
 _atom_site_symmetry_multiplicity
 _atom_site_fract_x
 _atom_site_fract_y
 _atom_site_fract_z
 _atom_site_occupancy
  K  K0  1  0.221804  0.221804  0.221804  1
  La  La1  1  0.498301  0.498301  0.498301  1
  Nb  Nb2  1  0.799946  0.147561  0.915836  1
  Nb  Nb3  1  0.915836  0.799946  0.147561  1
  Nb  Nb4  1  0.147561  0.915836  0.799946  1
  Nb  Nb5  1  0.201079  0.852812  0.083148  1
  Nb  Nb6  1  0.083148  0.201079  0.852812  1
  Nb  Nb7  1  0.852812  0.083148  0.201079  1
  Cl  Cl8  1  0.861325  0.409614  0.729821  1
  Cl  Cl9  1  0.729821  0.861325  0.409614  1
  Cl  Cl10  1  0.409614  0.729821  0.861325  1
  Cl  Cl11  1  0.138628  0.589499  0.271209  1
  Cl  Cl12  1  0.271209  0.138628  0.589499  1
  Cl  Cl13  1  0.589499  0.271209  0.138628  1
  Cl  Cl14  1  0.529964  0.337306  0.817099  1
  Cl  Cl15  1  0.817099  0.529964  0.337306  1
  Cl  Cl16  1  0.337306  0.817099  0.529964  1
  Cl  Cl17  1  0.464561  0.663815  0.187314  1
  Cl  Cl18  1  0.187314  0.464561  0.663815  1
  Cl  Cl19  1  0.663815  0.187314  0.464561  1
  Cl  Cl20  1  0.665390  0.936998  0.074176  1
  Cl  Cl21  1  0.074176  0.665390  0.936998  1
  Cl  Cl22  1  0.936998  0.074176  0.665390  1
  Cl  Cl23  1  0.334905  0.063477  0.925553  1
  Cl  Cl24  1  0.925553  0.334905  0.063477  1
  Cl  Cl25  1  0.063477  0.925553  0.334905  1
