# generated using pymatgen
data_TbTa3(PO4)6
_symmetry_space_group_name_H-M   'P 1'
_cell_length_a   8.88216744
_cell_length_b   9.15498579
_cell_length_c   8.88206000
_cell_angle_alpha   89.99761098
_cell_angle_beta   59.99918532
_cell_angle_gamma   119.01705357
_symmetry_Int_Tables_number   1
_chemical_formula_structural   TbTa3(PO4)6
_chemical_formula_sum   'Tb1 Ta3 P6 O24'
_cell_volume   518.15144483
_cell_formula_units_Z   1
loop_
 _symmetry_equiv_pos_site_id
 _symmetry_equiv_pos_as_xyz
  1  'x, y, z'
loop_
 _atom_site_type_symbol
 _atom_site_label
 _atom_site_symmetry_multiplicity
 _atom_site_fract_x
 _atom_site_fract_y
 _atom_site_fract_z
 _atom_site_occupancy
  Tb  Tb0  1  0.723786  0.085628  0.638047  1
  Ta  Ta1  1  0.284999  0.927381  0.357489  1
  Ta  Ta2  1  0.287178  0.430640  0.856403  1
  Ta  Ta3  1  0.715372  0.572975  0.142262  1
  P  P4  1  0.787759  0.747981  0.748115  1
  P  P5  1  0.480590  0.251322  0.536291  1
  P  P6  1  0.496289  0.748031  0.464025  1
  P  P7  1  0.234542  0.251401  0.229161  1
  P  P8  1  0.787739  0.251351  0.983054  1
  P  P9  1  0.212187  0.748003  0.039619  1
  O  O10  1  0.654007  0.907989  0.473768  1
  O  O11  1  0.993333  0.705800  0.100670  1
  O  O12  1  0.221239  0.584029  0.004988  1
  O  O13  1  0.227996  0.779583  0.206177  1
  O  O14  1  0.988243  0.276465  0.953666  1
  O  O15  1  0.793091  0.416216  0.026420  1
  O  O16  1  0.790399  0.239816  0.813636  1
  O  O17  1  0.806706  0.705964  0.905912  1
  O  O18  1  0.985857  0.779492  0.565755  1
  O  O19  1  0.635979  0.240006  0.550400  1
  O  O20  1  0.780039  0.907834  0.745929  1
  O  O21  1  0.589120  0.583924  0.773832  1
  O  O22  1  0.591385  0.085273  0.153458  1
  O  O23  1  0.596519  0.416113  0.376781  1
  O  O24  1  0.230103  0.276333  0.058105  1
  O  O25  1  0.334537  0.276377  0.711715  1
  O  O26  1  0.612023  0.705916  0.287353  1
  O  O27  1  0.340535  0.085151  0.506080  1
  O  O28  1  0.381807  0.907884  0.872051  1
  O  O29  1  0.358020  0.584064  0.637033  1
  O  O30  1  0.238890  0.085356  0.255216  1
  O  O31  1  0.442832  0.416339  0.180235  1
  O  O32  1  0.345376  0.779435  0.448287  1
  O  O33  1  0.053655  0.239933  0.395937  1
