# generated using pymatgen
data_Pr7NdDy2(USe10)2
_symmetry_space_group_name_H-M   'P 1'
_cell_length_a   7.92398122
_cell_length_b   8.41091317
_cell_length_c   12.57216528
_cell_angle_alpha   89.98598637
_cell_angle_beta   90.01990114
_cell_angle_gamma   90.01857750
_symmetry_Int_Tables_number   1
_chemical_formula_structural   Pr7NdDy2(USe10)2
_chemical_formula_sum   'Pr7 Nd1 Dy2 U2 Se20'
_cell_volume   837.90852202
_cell_formula_units_Z   1
loop_
 _symmetry_equiv_pos_site_id
 _symmetry_equiv_pos_as_xyz
  1  'x, y, z'
loop_
 _atom_site_type_symbol
 _atom_site_label
 _atom_site_symmetry_multiplicity
 _atom_site_fract_x
 _atom_site_fract_y
 _atom_site_fract_z
 _atom_site_occupancy
  Pr  Pr0  1  0.527740  0.501024  0.322198  1
  Pr  Pr1  1  0.972225  0.998931  0.822123  1
  Pr  Pr2  1  0.477234  0.996744  0.677808  1
  Pr  Pr3  1  0.022846  0.503241  0.177782  1
  Pr  Pr4  1  0.477184  0.503243  0.677844  1
  Pr  Pr5  1  0.022830  0.996746  0.177837  1
  Pr  Pr6  1  0.527746  0.998970  0.322218  1
  Nd  Nd7  1  0.972651  0.500965  0.821858  1
  Dy  Dy8  1  0.074254  0.749976  0.494303  1
  Dy  Dy9  1  0.425733  0.749957  0.994264  1
  U  U10  1  0.941161  0.250040  0.506129  1
  U  U11  1  0.558887  0.250125  0.006016  1
  Se  Se12  1  0.835525  0.965749  0.595574  1
  Se  Se13  1  0.664387  0.534183  0.095589  1
  Se  Se14  1  0.163485  0.454399  0.404909  1
  Se  Se15  1  0.336589  0.045665  0.904869  1
  Se  Se16  1  0.163492  0.045621  0.404912  1
  Se  Se17  1  0.335800  0.454429  0.904735  1
  Se  Se18  1  0.835896  0.534191  0.596142  1
  Se  Se19  1  0.664471  0.965855  0.095563  1
  Se  Se20  1  0.829603  0.749992  0.315126  1
  Se  Se21  1  0.670891  0.749577  0.815156  1
  Se  Se22  1  0.168548  0.250433  0.682976  1
  Se  Se23  1  0.331150  0.249989  0.182743  1
  Se  Se24  1  0.454840  0.750029  0.497722  1
  Se  Se25  1  0.044986  0.749390  0.997320  1
  Se  Se26  1  0.550458  0.249998  0.499566  1
  Se  Se27  1  0.949444  0.250641  0.999149  1
  Se  Se28  1  0.192372  0.749343  0.713426  1
  Se  Se29  1  0.307049  0.750018  0.213209  1
  Se  Se30  1  0.809003  0.249991  0.290421  1
  Se  Se31  1  0.691517  0.250543  0.790516  1
