# generated using pymatgen
data_Er2Hf4Pb5
_symmetry_space_group_name_H-M   'P 1'
_cell_length_a   6.04442046
_cell_length_b   9.14942619
_cell_length_c   11.29173772
_cell_angle_alpha   113.89979167
_cell_angle_beta   105.52435200
_cell_angle_gamma   90.00000303
_symmetry_Int_Tables_number   1
_chemical_formula_structural   Er2Hf4Pb5
_chemical_formula_sum   'Er4 Hf8 Pb10'
_cell_volume   545.90950715
_cell_formula_units_Z   2
loop_
 _symmetry_equiv_pos_site_id
 _symmetry_equiv_pos_as_xyz
  1  'x, y, z'
loop_
 _atom_site_type_symbol
 _atom_site_label
 _atom_site_symmetry_multiplicity
 _atom_site_fract_x
 _atom_site_fract_y
 _atom_site_fract_z
 _atom_site_occupancy
  Er  Er0  1  0.143869  0.253860  0.287738  1
  Er  Er1  1  0.856131  0.746140  0.712262  1
  Er  Er2  1  0.643869  0.033878  0.287738  1
  Er  Er3  1  0.356131  0.966122  0.712262  1
  Hf  Hf4  1  0.562188  0.312188  0.624375  1
  Hf  Hf5  1  0.437812  0.687812  0.375625  1
  Hf  Hf6  1  0.937812  0.687812  0.375625  1
  Hf  Hf7  1  0.062188  0.312188  0.624375  1
  Hf  Hf8  1  0.434278  0.671934  0.868555  1
  Hf  Hf9  1  0.565722  0.328066  0.131445  1
  Hf  Hf10  1  0.934278  0.196620  0.868555  1
  Hf  Hf11  1  0.065722  0.803380  0.131445  1
  Pb  Pb12  1  0.288737  0.589710  0.577473  1
  Pb  Pb13  1  0.711263  0.410290  0.422527  1
  Pb  Pb14  1  0.788737  0.987764  0.577473  1
  Pb  Pb15  1  0.211263  0.012236  0.422527  1
  Pb  Pb16  1  0.250000  0.000000  0.000000  1
  Pb  Pb17  1  0.750000  0.000000  0.000000  1
  Pb  Pb18  1  0.066940  0.461773  0.133879  1
  Pb  Pb19  1  0.933060  0.538227  0.866121  1
  Pb  Pb20  1  0.566940  0.672106  0.133879  1
  Pb  Pb21  1  0.433060  0.327894  0.866121  1
