# generated using pymatgen
data_Cs2TiZnO4
_symmetry_space_group_name_H-M   'P 1'
_cell_length_a   7.20204900
_cell_length_b   11.13823083
_cell_length_c   8.29452400
_cell_angle_alpha   90.00013889
_cell_angle_beta   90.00053302
_cell_angle_gamma   78.62799496
_symmetry_Int_Tables_number   1
_chemical_formula_structural   Cs2TiZnO4
_chemical_formula_sum   'Cs8 Ti4 Zn4 O16'
_cell_volume   652.30802082
_cell_formula_units_Z   4
loop_
 _symmetry_equiv_pos_site_id
 _symmetry_equiv_pos_as_xyz
  1  'x, y, z'
loop_
 _atom_site_type_symbol
 _atom_site_label
 _atom_site_symmetry_multiplicity
 _atom_site_fract_x
 _atom_site_fract_y
 _atom_site_fract_z
 _atom_site_occupancy
  Cs  Cs0  1  0.892386  0.964051  0.273033  1
  Cs  Cs1  1  0.392381  0.464052  0.273031  1
  Cs  Cs2  1  0.107617  0.035948  0.773030  1
  Cs  Cs3  1  0.607616  0.535950  0.773033  1
  Cs  Cs4  1  0.615912  0.205334  0.914977  1
  Cs  Cs5  1  0.115914  0.705334  0.914978  1
  Cs  Cs6  1  0.384087  0.794665  0.414978  1
  Cs  Cs7  1  0.884090  0.294665  0.414977  1
  Ti  Ti8  1  0.455754  0.151851  0.479647  1
  Ti  Ti9  1  0.955746  0.651844  0.479647  1
  Ti  Ti10  1  0.544255  0.848157  0.979649  1
  Ti  Ti11  1  0.044245  0.348149  0.979648  1
  Zn  Zn12  1  0.806224  0.602115  0.197990  1
  Zn  Zn13  1  0.693780  0.897887  0.697991  1
  Zn  Zn14  1  0.306226  0.102118  0.197994  1
  Zn  Zn15  1  0.193777  0.397882  0.697995  1
  O  O16  1  0.531022  0.176910  0.270869  1
  O  O17  1  0.031018  0.676905  0.270873  1
  O  O18  1  0.468983  0.823096  0.770871  1
  O  O19  1  0.968976  0.323092  0.770869  1
  O  O20  1  0.247999  0.082665  0.440757  1
  O  O21  1  0.747989  0.582656  0.440752  1
  O  O22  1  0.752011  0.917344  0.940754  1
  O  O23  1  0.252001  0.417334  0.940759  1
  O  O24  1  0.648122  0.053350  0.588113  1
  O  O25  1  0.148113  0.553346  0.588118  1
  O  O26  1  0.351888  0.946653  0.088116  1
  O  O27  1  0.851881  0.446650  0.088115  1
  O  O28  1  0.404130  0.297257  0.588108  1
  O  O29  1  0.904119  0.797249  0.588107  1
  O  O30  1  0.595879  0.702753  0.088107  1
  O  O31  1  0.095866  0.202743  0.088107  1
