# generated using pymatgen
data_Rb6Zn4Sn5Se17
_symmetry_space_group_name_H-M   'P 1'
_cell_length_a   11.72105146
_cell_length_b   11.72105201
_cell_length_c   11.69793780
_cell_angle_alpha   78.47279940
_cell_angle_beta   78.47279788
_cell_angle_gamma   126.70926449
_symmetry_Int_Tables_number   1
_chemical_formula_structural   Rb6Zn4Sn5Se17
_chemical_formula_sum   'Rb6 Zn4 Sn5 Se17'
_cell_volume   1153.40193468
_cell_formula_units_Z   1
loop_
 _symmetry_equiv_pos_site_id
 _symmetry_equiv_pos_as_xyz
  1  'x, y, z'
loop_
 _atom_site_type_symbol
 _atom_site_label
 _atom_site_symmetry_multiplicity
 _atom_site_fract_x
 _atom_site_fract_y
 _atom_site_fract_z
 _atom_site_occupancy
  Rb  Rb0  1  0.250290  0.749710  0.500000  1
  Rb  Rb1  1  0.583372  0.416628  0.000000  1
  Rb  Rb2  1  0.510480  0.001097  0.977827  1
  Rb  Rb3  1  0.998903  0.489520  0.022173  1
  Rb  Rb4  1  0.988482  0.011518  0.500000  1
  Rb  Rb5  1  0.509725  0.490275  0.500000  1
  Zn  Zn6  1  0.021234  0.384178  0.363682  1
  Zn  Zn7  1  0.750550  0.386236  0.634767  1
  Zn  Zn8  1  0.615822  0.978766  0.636318  1
  Zn  Zn9  1  0.613764  0.249450  0.365233  1
  Sn  Sn10  1  0.998503  0.001497  0.000000  1
  Sn  Sn11  1  0.972432  0.694716  0.276152  1
  Sn  Sn12  1  0.968631  0.246387  0.724043  1
  Sn  Sn13  1  0.753613  0.031369  0.275957  1
  Sn  Sn14  1  0.305284  0.027568  0.723848  1
  Se  Se15  1  0.169392  0.661604  0.224148  1
  Se  Se16  1  0.884759  0.394826  0.777609  1
  Se  Se17  1  0.885039  0.662141  0.506893  1
  Se  Se18  1  0.168546  0.394883  0.493837  1
  Se  Se19  1  0.605117  0.831454  0.506163  1
  Se  Se20  1  0.337859  0.114961  0.493107  1
  Se  Se21  1  0.605174  0.115241  0.222391  1
  Se  Se22  1  0.338396  0.830608  0.775852  1
  Se  Se23  1  0.138857  0.995659  0.144294  1
  Se  Se24  1  0.139259  0.284228  0.855058  1
  Se  Se25  1  0.715772  0.860741  0.144942  1
  Se  Se26  1  0.004341  0.861143  0.855706  1
  Se  Se27  1  0.739967  0.519813  0.222187  1
  Se  Se28  1  0.741408  0.961598  0.780117  1
  Se  Se29  1  0.038402  0.258592  0.219883  1
  Se  Se30  1  0.480187  0.260033  0.777813  1
  Se  Se31  1  0.750236  0.249764  0.500000  1
