# generated using pymatgen
data_Dy5Ti2Co17(As3P)3
_symmetry_space_group_name_H-M   'P 1'
_cell_length_a   12.41329136
_cell_length_b   12.40812335
_cell_length_c   3.78316700
_cell_angle_alpha   90.00000000
_cell_angle_beta   90.00000000
_cell_angle_gamma   119.98622250
_symmetry_Int_Tables_number   1
_chemical_formula_structural   Dy5Ti2Co17(As3P)3
_chemical_formula_sum   'Dy5 Ti2 Co17 As9 P3'
_cell_volume   504.70716772
_cell_formula_units_Z   1
loop_
 _symmetry_equiv_pos_site_id
 _symmetry_equiv_pos_as_xyz
  1  'x, y, z'
loop_
 _atom_site_type_symbol
 _atom_site_label
 _atom_site_symmetry_multiplicity
 _atom_site_fract_x
 _atom_site_fract_y
 _atom_site_fract_z
 _atom_site_occupancy
  Dy  Dy0  1  0.668208  0.333617  0.000000  1
  Dy  Dy1  1  0.331792  0.665410  0.000000  1
  Dy  Dy2  1  0.180351  0.177557  0.500000  1
  Dy  Dy3  1  0.819649  0.997206  0.500000  1
  Dy  Dy4  1  0.000000  0.817136  0.500000  1
  Ti  Ti5  1  0.562728  0.563295  0.000000  1
  Ti  Ti6  1  0.437272  0.000567  0.000000  1
  Co  Co7  1  0.000000  0.445965  0.000000  1
  Co  Co8  1  0.831590  0.200595  0.000000  1
  Co  Co9  1  0.803744  0.629975  0.000000  1
  Co  Co10  1  0.368185  0.172280  0.000000  1
  Co  Co11  1  0.196256  0.826231  0.000000  1
  Co  Co12  1  0.631815  0.804095  0.000000  1
  Co  Co13  1  0.168410  0.369004  0.000000  1
  Co  Co14  1  0.648145  0.126575  0.500000  1
  Co  Co15  1  0.876079  0.520302  0.500000  1
  Co  Co16  1  0.477815  0.354941  0.500000  1
  Co  Co17  1  0.123921  0.644223  0.500000  1
  Co  Co18  1  0.522185  0.877126  0.500000  1
  Co  Co19  1  0.351855  0.478430  0.500000  1
  Co  Co20  1  0.725418  0.724898  0.500000  1
  Co  Co21  1  0.274582  0.999479  0.500000  1
  Co  Co22  1  0.000000  0.272955  0.500000  1
  Co  Co23  1  0.000000  0.000289  0.000000  1
  As  As24  1  0.355066  0.358574  0.000000  1
  As  As25  1  0.644934  0.003508  0.000000  1
  As  As26  1  0.000000  0.636588  0.000000  1
  As  As27  1  0.839716  0.317893  0.500000  1
  As  As28  1  0.685837  0.518572  0.500000  1
  As  As29  1  0.480930  0.167612  0.500000  1
  As  As30  1  0.314163  0.832735  0.500000  1
  As  As31  1  0.519070  0.686683  0.500000  1
  As  As32  1  0.160284  0.478177  0.500000  1
  P  P33  1  0.823212  0.821838  0.000000  1
  P  P34  1  0.176788  0.998626  0.000000  1
  P  P35  1  0.000000  0.177043  0.000000  1
