# generated using pymatgen
data_Sm2YHo(ReB6)2
_symmetry_space_group_name_H-M   'P 1'
_cell_length_a   3.71222600
_cell_length_b   9.22378605
_cell_length_c   11.64811407
_cell_angle_alpha   90.01233525
_cell_angle_beta   90.00000000
_cell_angle_gamma   90.00000000
_symmetry_Int_Tables_number   1
_chemical_formula_structural   Sm2YHo(ReB6)2
_chemical_formula_sum   'Sm4 Y2 Ho2 Re4 B24'
_cell_volume   398.84048339
_cell_formula_units_Z   2
loop_
 _symmetry_equiv_pos_site_id
 _symmetry_equiv_pos_as_xyz
  1  'x, y, z'
loop_
 _atom_site_type_symbol
 _atom_site_label
 _atom_site_symmetry_multiplicity
 _atom_site_fract_x
 _atom_site_fract_y
 _atom_site_fract_z
 _atom_site_occupancy
  Sm  Sm0  1  0.000000  0.323433  0.414012  1
  Sm  Sm1  1  0.000000  0.676567  0.585988  1
  Sm  Sm2  1  0.000000  0.823062  0.085829  1
  Sm  Sm3  1  0.000000  0.176938  0.914171  1
  Y  Y4  1  0.000000  0.942947  0.369615  1
  Y  Y5  1  0.000000  0.057053  0.630385  1
  Ho  Ho6  1  0.000000  0.442920  0.130310  1
  Ho  Ho7  1  0.000000  0.557080  0.869690  1
  Re  Re8  1  0.000000  0.638593  0.319679  1
  Re  Re9  1  0.000000  0.361407  0.680321  1
  Re  Re10  1  0.000000  0.139543  0.179790  1
  Re  Re11  1  0.000000  0.860457  0.820210  1
  B  B12  1  0.500000  0.554125  0.431456  1
  B  B13  1  0.500000  0.445875  0.568544  1
  B  B14  1  0.500000  0.054240  0.068459  1
  B  B15  1  0.500000  0.945760  0.931541  1
  B  B16  1  0.500000  0.748931  0.416852  1
  B  B17  1  0.500000  0.251069  0.583148  1
  B  B18  1  0.500000  0.249582  0.083130  1
  B  B19  1  0.500000  0.750418  0.916870  1
  B  B20  1  0.500000  0.791180  0.265639  1
  B  B21  1  0.500000  0.208820  0.734361  1
  B  B22  1  0.500000  0.291804  0.234062  1
  B  B23  1  0.500000  0.708196  0.765938  1
  B  B24  1  0.500000  0.629863  0.185914  1
  B  B25  1  0.500000  0.370137  0.814086  1
  B  B26  1  0.500000  0.130477  0.313734  1
  B  B27  1  0.500000  0.869523  0.686266  1
  B  B28  1  0.500000  0.983447  0.212292  1
  B  B29  1  0.500000  0.016553  0.787708  1
  B  B30  1  0.500000  0.483126  0.287228  1
  B  B31  1  0.500000  0.516874  0.712772  1
  B  B32  1  0.500000  0.597405  0.027149  1
  B  B33  1  0.500000  0.402595  0.972851  1
  B  B34  1  0.500000  0.098238  0.472677  1
  B  B35  1  0.500000  0.901762  0.527323  1
