# generated using pymatgen
data_Ba4TbMnO8
_symmetry_space_group_name_H-M   'P 1'
_cell_length_a   7.42710608
_cell_length_b   7.42710634
_cell_length_c   5.93024700
_cell_angle_alpha   90.00000000
_cell_angle_beta   90.00000000
_cell_angle_gamma   133.07315077
_symmetry_Int_Tables_number   1
_chemical_formula_structural   Ba4TbMnO8
_chemical_formula_sum   'Ba4 Tb1 Mn1 O8'
_cell_volume   238.95812326
_cell_formula_units_Z   1
loop_
 _symmetry_equiv_pos_site_id
 _symmetry_equiv_pos_as_xyz
  1  'x, y, z'
loop_
 _atom_site_type_symbol
 _atom_site_label
 _atom_site_symmetry_multiplicity
 _atom_site_fract_x
 _atom_site_fract_y
 _atom_site_fract_z
 _atom_site_occupancy
  Ba  Ba0  1  0.357479  0.642521  0.000000  1
  Ba  Ba1  1  0.855665  0.144335  0.500000  1
  Ba  Ba2  1  0.144335  0.855665  0.500000  1
  Ba  Ba3  1  0.642521  0.357479  0.000000  1
  Tb  Tb4  1  0.000000  0.000000  0.000000  1
  Mn  Mn5  1  0.500000  0.500000  0.500000  1
  O  O6  1  0.266701  0.266701  0.730403  1
  O  O7  1  0.733299  0.733299  0.269597  1
  O  O8  1  0.733299  0.733299  0.730403  1
  O  O9  1  0.266701  0.266701  0.269597  1
  O  O10  1  0.166137  0.833863  0.000000  1
  O  O11  1  0.648163  0.351837  0.500000  1
  O  O12  1  0.351837  0.648163  0.500000  1
  O  O13  1  0.833863  0.166137  0.000000  1
