# generated using pymatgen
data_LiDy3Y13Cd3Pt4
_symmetry_space_group_name_H-M   'P 1'
_cell_length_a   9.73306328
_cell_length_b   9.73619421
_cell_length_c   9.73619507
_cell_angle_alpha   59.95300877
_cell_angle_beta   59.91389218
_cell_angle_gamma   59.91388624
_symmetry_Int_Tables_number   1
_chemical_formula_structural   LiDy3Y13Cd3Pt4
_chemical_formula_sum   'Li1 Dy3 Y13 Cd3 Pt4'
_cell_volume   651.31710793
_cell_formula_units_Z   1
loop_
 _symmetry_equiv_pos_site_id
 _symmetry_equiv_pos_as_xyz
  1  'x, y, z'
loop_
 _atom_site_type_symbol
 _atom_site_label
 _atom_site_symmetry_multiplicity
 _atom_site_fract_x
 _atom_site_fract_y
 _atom_site_fract_z
 _atom_site_occupancy
  Li  Li0  1  0.571468  0.571552  0.571552  1
  Dy  Dy1  1  0.350944  0.351051  0.351051  1
  Dy  Dy2  1  0.352065  0.352021  0.944889  1
  Dy  Dy3  1  0.352065  0.944889  0.352021  1
  Y  Y4  1  0.942951  0.352755  0.352755  1
  Y  Y5  1  0.809655  0.192065  0.192065  1
  Y  Y6  1  0.188568  0.812110  0.812110  1
  Y  Y7  1  0.192286  0.809573  0.192142  1
  Y  Y8  1  0.812304  0.188271  0.812331  1
  Y  Y9  1  0.192286  0.192142  0.809573  1
  Y  Y10  1  0.812304  0.812331  0.188271  1
  Y  Y11  1  0.937051  0.564853  0.564853  1
  Y  Y12  1  0.563050  0.936681  0.936681  1
  Y  Y13  1  0.564357  0.937099  0.564612  1
  Y  Y14  1  0.936565  0.563513  0.936161  1
  Y  Y15  1  0.564357  0.564612  0.937099  1
  Y  Y16  1  0.936565  0.936161  0.563513  1
  Cd  Cd17  1  0.582057  0.582206  0.253869  1
  Cd  Cd18  1  0.582057  0.253869  0.582206  1
  Cd  Cd19  1  0.253893  0.582116  0.582116  1
  Pt  Pt20  1  0.145334  0.143810  0.143810  1
  Pt  Pt21  1  0.144190  0.142832  0.570034  1
  Pt  Pt22  1  0.144190  0.570034  0.142832  1
  Pt  Pt23  1  0.569437  0.143457  0.143457  1
