# generated using pymatgen
data_HfSc3(FeB4)4
_symmetry_space_group_name_H-M   'P 1'
_cell_length_a   5.76426156
_cell_length_b   11.15647609
_cell_length_c   3.23381800
_cell_angle_alpha   90.00000000
_cell_angle_beta   90.00000000
_cell_angle_gamma   89.94931412
_symmetry_Int_Tables_number   1
_chemical_formula_structural   HfSc3(FeB4)4
_chemical_formula_sum   'Hf1 Sc3 Fe4 B16'
_cell_volume   207.96302342
_cell_formula_units_Z   1
loop_
 _symmetry_equiv_pos_site_id
 _symmetry_equiv_pos_as_xyz
  1  'x, y, z'
loop_
 _atom_site_type_symbol
 _atom_site_label
 _atom_site_symmetry_multiplicity
 _atom_site_fract_x
 _atom_site_fract_y
 _atom_site_fract_z
 _atom_site_occupancy
  Hf  Hf0  1  0.628947  0.350750  0.000000  1
  Sc  Sc1  1  0.371273  0.649578  0.000000  1
  Sc  Sc2  1  0.128683  0.149433  0.000000  1
  Sc  Sc3  1  0.870774  0.850201  0.000000  1
  Fe  Fe4  1  0.632790  0.090766  0.000000  1
  Fe  Fe5  1  0.366884  0.910925  0.000000  1
  Fe  Fe6  1  0.134030  0.409110  0.000000  1
  Fe  Fe7  1  0.865718  0.588454  0.000000  1
  B  B8  1  0.788894  0.185627  0.500000  1
  B  B9  1  0.211508  0.814637  0.500000  1
  B  B10  1  0.288414  0.313935  0.500000  1
  B  B11  1  0.712070  0.685947  0.500000  1
  B  B12  1  0.864422  0.031494  0.500000  1
  B  B13  1  0.134935  0.968757  0.500000  1
  B  B14  1  0.365512  0.468550  0.500000  1
  B  B15  1  0.634811  0.531429  0.500000  1
  B  B16  1  0.887294  0.452520  0.500000  1
  B  B17  1  0.114660  0.548189  0.500000  1
  B  B18  1  0.385450  0.047528  0.500000  1
  B  B19  1  0.613844  0.952395  0.500000  1
  B  B20  1  0.976385  0.306039  0.500000  1
  B  B21  1  0.023224  0.693661  0.500000  1
  B  B22  1  0.476192  0.193461  0.500000  1
  B  B23  1  0.523288  0.806612  0.500000  1
