# generated using pymatgen
data_Tb8Ta9Si16W3
_symmetry_space_group_name_H-M   'P 1'
_cell_length_a   7.00718445
_cell_length_b   7.00718409
_cell_length_c   12.98502296
_cell_angle_alpha   90.05850683
_cell_angle_beta   89.94149250
_cell_angle_gamma   90.11623154
_symmetry_Int_Tables_number   1
_chemical_formula_structural   Tb8Ta9Si16W3
_chemical_formula_sum   'Tb8 Ta9 Si16 W3'
_cell_volume   637.57085070
_cell_formula_units_Z   1
loop_
 _symmetry_equiv_pos_site_id
 _symmetry_equiv_pos_as_xyz
  1  'x, y, z'
loop_
 _atom_site_type_symbol
 _atom_site_label
 _atom_site_symmetry_multiplicity
 _atom_site_fract_x
 _atom_site_fract_y
 _atom_site_fract_z
 _atom_site_occupancy
  Tb  Tb0  1  0.340212  0.002424  0.467545  1
  Tb  Tb1  1  0.496730  0.841316  0.719043  1
  Tb  Tb2  1  0.501932  0.159315  0.217935  1
  Tb  Tb3  1  0.841316  0.496730  0.280957  1
  Tb  Tb4  1  0.159315  0.501932  0.782065  1
  Tb  Tb5  1  0.659324  0.998116  0.968081  1
  Tb  Tb6  1  0.002424  0.340212  0.532455  1
  Tb  Tb7  1  0.998116  0.659324  0.031919  1
  Ta  Ta8  1  0.670630  0.670630  0.500000  1
  Ta  Ta9  1  0.153012  0.005859  0.875673  1
  Ta  Ta10  1  0.492813  0.652733  0.125277  1
  Ta  Ta11  1  0.505880  0.347545  0.626341  1
  Ta  Ta12  1  0.652733  0.492813  0.874723  1
  Ta  Ta13  1  0.347545  0.505880  0.373659  1
  Ta  Ta14  1  0.846708  0.993501  0.375031  1
  Ta  Ta15  1  0.005859  0.153012  0.124327  1
  Ta  Ta16  1  0.993501  0.846708  0.624969  1
  Si  Si17  1  0.202128  0.132955  0.683234  1
  Si  Si18  1  0.367611  0.702249  0.932841  1
  Si  Si19  1  0.633222  0.296415  0.433093  1
  Si  Si20  1  0.702249  0.367611  0.067159  1
  Si  Si21  1  0.296415  0.633222  0.566907  1
  Si  Si22  1  0.797237  0.867287  0.182947  1
  Si  Si23  1  0.132955  0.202128  0.316766  1
  Si  Si24  1  0.867287  0.797237  0.817053  1
  Si  Si25  1  0.293801  0.955154  0.064951  1
  Si  Si26  1  0.543952  0.794604  0.314064  1
  Si  Si27  1  0.454494  0.206179  0.815386  1
  Si  Si28  1  0.794604  0.543952  0.685936  1
  Si  Si29  1  0.206179  0.454494  0.184614  1
  Si  Si30  1  0.705932  0.046728  0.565851  1
  Si  Si31  1  0.955154  0.293801  0.935049  1
  Si  Si32  1  0.046728  0.705932  0.434149  1
  W  W33  1  0.330230  0.330230  0.000000  1
  W  W34  1  0.170460  0.831307  0.248795  1
  W  W35  1  0.831307  0.170460  0.751205  1
