# generated using pymatgen
data_K8Al4SeS3(O4F3)4
_symmetry_space_group_name_H-M   'P 1'
_cell_length_a   6.96194000
_cell_length_b   8.47483800
_cell_length_c   11.12115000
_cell_angle_alpha   90.00000000
_cell_angle_beta   90.00000000
_cell_angle_gamma   90.00000000
_symmetry_Int_Tables_number   1
_chemical_formula_structural   K8Al4SeS3(O4F3)4
_chemical_formula_sum   'K8 Al4 Se1 S3 O16 F12'
_cell_volume   656.16245947
_cell_formula_units_Z   1
loop_
 _symmetry_equiv_pos_site_id
 _symmetry_equiv_pos_as_xyz
  1  'x, y, z'
loop_
 _atom_site_type_symbol
 _atom_site_label
 _atom_site_symmetry_multiplicity
 _atom_site_fract_x
 _atom_site_fract_y
 _atom_site_fract_z
 _atom_site_occupancy
  K  K0  1  0.698509  0.174248  0.194750  1
  K  K1  1  0.202809  0.324344  0.300593  1
  K  K2  1  0.297191  0.324344  0.699407  1
  K  K3  1  0.801491  0.174248  0.805250  1
  K  K4  1  0.302336  0.824790  0.802536  1
  K  K5  1  0.803298  0.681401  0.701896  1
  K  K6  1  0.696702  0.681401  0.298104  1
  K  K7  1  0.197664  0.824790  0.197464  1
  Al  Al8  1  0.499872  0.500161  0.999975  1
  Al  Al9  1  0.001786  0.995719  0.501687  1
  Al  Al10  1  0.498214  0.995719  0.498313  1
  Al  Al11  1  0.000128  0.500161  0.000025  1
  Se  Se12  1  0.750000  0.314898  0.500000  1
  S  S13  1  0.250000  0.191751  0.000000  1
  S  S14  1  0.250000  0.688947  0.500000  1
  S  S15  1  0.750000  0.808207  0.000000  1
  O  O16  1  0.841675  0.418233  0.388426  1
  O  O17  1  0.328208  0.097338  0.099052  1
  O  O18  1  0.171792  0.097338  0.900948  1
  O  O19  1  0.658325  0.418233  0.611574  1
  O  O20  1  0.169636  0.595104  0.598500  1
  O  O21  1  0.671424  0.902658  0.901070  1
  O  O22  1  0.828576  0.902658  0.098930  1
  O  O23  1  0.330364  0.595104  0.401500  1
  O  O24  1  0.578054  0.198260  0.437660  1
  O  O25  1  0.094168  0.297378  0.052128  1
  O  O26  1  0.405832  0.297378  0.947872  1
  O  O27  1  0.921946  0.198260  0.562340  1
  O  O28  1  0.404815  0.794864  0.553367  1
  O  O29  1  0.905648  0.702741  0.947698  1
  O  O30  1  0.594352  0.702741  0.052302  1
  O  O31  1  0.095185  0.794864  0.446633  1
  F  F32  1  0.974815  0.054804  0.348050  1
  F  F33  1  0.478286  0.447128  0.154466  1
  F  F34  1  0.021714  0.447128  0.845534  1
  F  F35  1  0.525185  0.054804  0.651950  1
  F  F36  1  0.023831  0.937908  0.655884  1
  F  F37  1  0.521067  0.554358  0.845952  1
  F  F38  1  0.978933  0.554358  0.154048  1
  F  F39  1  0.476169  0.937908  0.344116  1
  F  F40  1  0.750000  0.414753  0.000000  1
  F  F41  1  0.250000  0.078528  0.500000  1
  F  F42  1  0.250000  0.585451  0.000000  1
  F  F43  1  0.750000  0.914592  0.500000  1
