# generated using pymatgen
data_Nd5Si12Ir19
_symmetry_space_group_name_H-M   'P 1'
_cell_length_a   12.92351400
_cell_length_b   12.92351499
_cell_length_c   4.02623300
_cell_angle_alpha   90.00000000
_cell_angle_beta   90.00000000
_cell_angle_gamma   120.00000258
_symmetry_Int_Tables_number   1
_chemical_formula_structural   Nd5Si12Ir19
_chemical_formula_sum   'Nd5 Si12 Ir19'
_cell_volume   582.35900209
_cell_formula_units_Z   1
loop_
 _symmetry_equiv_pos_site_id
 _symmetry_equiv_pos_as_xyz
  1  'x, y, z'
loop_
 _atom_site_type_symbol
 _atom_site_label
 _atom_site_symmetry_multiplicity
 _atom_site_fract_x
 _atom_site_fract_y
 _atom_site_fract_z
 _atom_site_occupancy
  Nd  Nd0  1  0.000000  0.814387  0.500000  1
  Nd  Nd1  1  0.185613  0.185613  0.500000  1
  Nd  Nd2  1  0.814387  0.000000  0.500000  1
  Nd  Nd3  1  0.333333  0.666667  0.000000  1
  Nd  Nd4  1  0.666667  0.333333  0.000000  1
  Si  Si5  1  0.000000  0.183673  0.000000  1
  Si  Si6  1  0.816327  0.816327  0.000000  1
  Si  Si7  1  0.183673  0.000000  0.000000  1
  Si  Si8  1  0.520334  0.688406  0.500000  1
  Si  Si9  1  0.311594  0.831928  0.500000  1
  Si  Si10  1  0.168072  0.479666  0.500000  1
  Si  Si11  1  0.479666  0.168072  0.500000  1
  Si  Si12  1  0.688406  0.520334  0.500000  1
  Si  Si13  1  0.831928  0.311594  0.500000  1
  Si  Si14  1  0.000000  0.629935  0.000000  1
  Si  Si15  1  0.370065  0.370065  0.000000  1
  Si  Si16  1  0.629935  0.000000  0.000000  1
  Ir  Ir17  1  0.000000  0.284565  0.500000  1
  Ir  Ir18  1  0.715435  0.715435  0.500000  1
  Ir  Ir19  1  0.284565  0.000000  0.500000  1
  Ir  Ir20  1  0.621817  0.804390  0.000000  1
  Ir  Ir21  1  0.195610  0.817427  0.000000  1
  Ir  Ir22  1  0.182573  0.378183  0.000000  1
  Ir  Ir23  1  0.378183  0.182573  0.000000  1
  Ir  Ir24  1  0.804390  0.621817  0.000000  1
  Ir  Ir25  1  0.817427  0.195610  0.000000  1
  Ir  Ir26  1  0.512761  0.874780  0.500000  1
  Ir  Ir27  1  0.125220  0.637982  0.500000  1
  Ir  Ir28  1  0.362018  0.487239  0.500000  1
  Ir  Ir29  1  0.487239  0.362018  0.500000  1
  Ir  Ir30  1  0.874780  0.512761  0.500000  1
  Ir  Ir31  1  0.637982  0.125220  0.500000  1
  Ir  Ir32  1  0.000000  0.000000  0.000000  1
  Ir  Ir33  1  0.000000  0.447071  0.000000  1
  Ir  Ir34  1  0.552929  0.552929  0.000000  1
  Ir  Ir35  1  0.447071  0.000000  0.000000  1
