# generated using pymatgen
data_Sm4Y2NiI10
_symmetry_space_group_name_H-M   'P 1'
_cell_length_a   7.77466698
_cell_length_b   9.81885935
_cell_length_c   9.83336128
_cell_angle_alpha   107.40889593
_cell_angle_beta   96.80039770
_cell_angle_gamma   104.67852698
_symmetry_Int_Tables_number   1
_chemical_formula_structural   Sm4Y2NiI10
_chemical_formula_sum   'Sm4 Y2 Ni1 I10'
_cell_volume   677.38788438
_cell_formula_units_Z   1
loop_
 _symmetry_equiv_pos_site_id
 _symmetry_equiv_pos_as_xyz
  1  'x, y, z'
loop_
 _atom_site_type_symbol
 _atom_site_label
 _atom_site_symmetry_multiplicity
 _atom_site_fract_x
 _atom_site_fract_y
 _atom_site_fract_z
 _atom_site_occupancy
  Sm  Sm0  1  0.886017  0.959953  0.239391  1
  Sm  Sm1  1  0.113983  0.040047  0.760609  1
  Sm  Sm2  1  0.030552  0.716993  0.914501  1
  Sm  Sm3  1  0.969448  0.283007  0.085499  1
  Y  Y4  1  0.658382  0.878690  0.838302  1
  Y  Y5  1  0.341618  0.121310  0.161698  1
  Ni  Ni6  1  0.000000  0.000000  0.000000  1
  I  I7  1  0.643405  0.551530  0.728319  1
  I  I8  1  0.356595  0.448470  0.271681  1
  I  I9  1  0.736573  0.911091  0.540632  1
  I  I10  1  0.263427  0.088909  0.459368  1
  I  I11  1  0.085675  0.371282  0.817619  1
  I  I12  1  0.914325  0.628718  0.182381  1
  I  I13  1  0.454227  0.818178  0.091157  1
  I  I14  1  0.545773  0.181822  0.908843  1
  I  I15  1  0.230186  0.743409  0.654322  1
  I  I16  1  0.769814  0.256591  0.345678  1
