# generated using pymatgen
data_Dy3Bi3SbWO14
_symmetry_space_group_name_H-M   'P 1'
_cell_length_a   6.48726323
_cell_length_b   6.69615961
_cell_length_c   7.64089419
_cell_angle_alpha   106.69054723
_cell_angle_beta   89.90805439
_cell_angle_gamma   98.29384854
_symmetry_Int_Tables_number   1
_chemical_formula_structural   Dy3Bi3SbWO14
_chemical_formula_sum   'Dy3 Bi3 Sb1 W1 O14'
_cell_volume   314.33177006
_cell_formula_units_Z   1
loop_
 _symmetry_equiv_pos_site_id
 _symmetry_equiv_pos_as_xyz
  1  'x, y, z'
loop_
 _atom_site_type_symbol
 _atom_site_label
 _atom_site_symmetry_multiplicity
 _atom_site_fract_x
 _atom_site_fract_y
 _atom_site_fract_z
 _atom_site_occupancy
  Dy  Dy0  1  0.544626  0.993606  0.750163  1
  Dy  Dy1  1  0.458832  0.004815  0.252962  1
  Dy  Dy2  1  0.255636  0.534402  0.883746  1
  Bi  Bi3  1  0.745050  0.477731  0.114389  1
  Bi  Bi4  1  0.724933  0.459095  0.614320  1
  Bi  Bi5  1  0.264949  0.538121  0.385508  1
  Sb  Sb6  1  0.004173  0.000798  0.999796  1
  W  W7  1  0.003260  0.006788  0.502241  1
  O  O8  1  0.442431  0.651097  0.165125  1
  O  O9  1  0.543669  0.345655  0.827283  1
  O  O10  1  0.293147  0.928916  0.949990  1
  O  O11  1  0.709435  0.045342  0.048877  1
  O  O12  1  0.292756  0.918322  0.509503  1
  O  O13  1  0.708276  0.085512  0.493174  1
  O  O14  1  0.529903  0.357327  0.346485  1
  O  O15  1  0.455589  0.641277  0.660871  1
  O  O16  1  0.937364  0.680737  0.956012  1
  O  O17  1  0.083334  0.312276  0.034341  1
  O  O18  1  0.094444  0.305089  0.622583  1
  O  O19  1  0.902781  0.708364  0.381771  1
  O  O20  1  0.899331  0.946223  0.737805  1
  O  O21  1  0.106081  0.058507  0.263054  1
