# generated using pymatgen
data_LaTb2Pr3Si4
_symmetry_space_group_name_H-M   'P 1'
_cell_length_a   7.68416060
_cell_length_b   7.68416060
_cell_length_c   4.45018400
_cell_angle_alpha   90.00000000
_cell_angle_beta   90.00000000
_cell_angle_gamma   89.81887031
_symmetry_Int_Tables_number   1
_chemical_formula_structural   LaTb2Pr3Si4
_chemical_formula_sum   'La1 Tb2 Pr3 Si4'
_cell_volume   262.76569381
_cell_formula_units_Z   1
loop_
 _symmetry_equiv_pos_site_id
 _symmetry_equiv_pos_as_xyz
  1  'x, y, z'
loop_
 _atom_site_type_symbol
 _atom_site_label
 _atom_site_symmetry_multiplicity
 _atom_site_fract_x
 _atom_site_fract_y
 _atom_site_fract_z
 _atom_site_occupancy
  La  La0  1  0.677408  0.177408  0.500000  1
  Tb  Tb1  1  0.499528  0.500386  0.000000  1
  Tb  Tb2  1  0.000386  0.999528  0.000000  1
  Pr  Pr3  1  0.322634  0.822634  0.500000  1
  Pr  Pr4  1  0.177158  0.323226  0.500000  1
  Pr  Pr5  1  0.823226  0.677158  0.500000  1
  Si  Si6  1  0.112894  0.612894  0.000000  1
  Si  Si7  1  0.887729  0.387729  0.000000  1
  Si  Si8  1  0.612483  0.886555  0.000000  1
  Si  Si9  1  0.386555  0.112483  0.000000  1
