# generated using pymatgen
data_Nd6NiSn2Sb13
_symmetry_space_group_name_H-M   'P 1'
_cell_length_a   12.61778989
_cell_length_b   12.61778965
_cell_length_c   4.26626270
_cell_angle_alpha   80.25741569
_cell_angle_beta   80.25742024
_cell_angle_gamma   102.73041098
_symmetry_Int_Tables_number   1
_chemical_formula_structural   Nd6NiSn2Sb13
_chemical_formula_sum   'Nd6 Ni1 Sn2 Sb13'
_cell_volume   637.73005211
_cell_formula_units_Z   1
loop_
 _symmetry_equiv_pos_site_id
 _symmetry_equiv_pos_as_xyz
  1  'x, y, z'
loop_
 _atom_site_type_symbol
 _atom_site_label
 _atom_site_symmetry_multiplicity
 _atom_site_fract_x
 _atom_site_fract_y
 _atom_site_fract_z
 _atom_site_occupancy
  Nd  Nd0  1  0.007907  0.270792  0.946680  1
  Nd  Nd1  1  0.996583  0.724891  0.222762  1
  Nd  Nd2  1  0.724891  0.996583  0.222762  1
  Nd  Nd3  1  0.270792  0.007907  0.946680  1
  Nd  Nd4  1  0.679154  0.321161  0.085836  1
  Nd  Nd5  1  0.321161  0.679154  0.085836  1
  Ni  Ni6  1  0.280783  0.280783  0.807168  1
  Sn  Sn7  1  0.393004  0.393004  0.192899  1
  Sn  Sn8  1  0.589659  0.589659  0.996135  1
  Sb  Sb9  1  0.912732  0.511663  0.872482  1
  Sb  Sb10  1  0.077215  0.485879  0.304799  1
  Sb  Sb11  1  0.485879  0.077215  0.304799  1
  Sb  Sb12  1  0.511663  0.912732  0.872482  1
  Sb  Sb13  1  0.246182  0.471871  0.726925  1
  Sb  Sb14  1  0.744746  0.541564  0.442662  1
  Sb  Sb15  1  0.541564  0.744746  0.442662  1
  Sb  Sb16  1  0.471871  0.246182  0.726925  1
  Sb  Sb17  1  0.171165  0.171165  0.415651  1
  Sb  Sb18  1  0.854871  0.854871  0.727495  1
  Sb  Sb19  1  0.802292  0.198099  0.584868  1
  Sb  Sb20  1  0.198099  0.802292  0.584868  1
  Sb  Sb21  1  0.994987  0.994987  0.086820  1
