# generated using pymatgen
data_Zr5BeSnBi2
_symmetry_space_group_name_H-M   'P 1'
_cell_length_a   8.72752200
_cell_length_b   8.72752279
_cell_length_c   5.86409900
_cell_angle_alpha   90.00000000
_cell_angle_beta   90.00000000
_cell_angle_gamma   119.84676381
_symmetry_Int_Tables_number   1
_chemical_formula_structural   Zr5BeSnBi2
_chemical_formula_sum   'Zr10 Be2 Sn2 Bi4'
_cell_volume   387.42032275
_cell_formula_units_Z   2
loop_
 _symmetry_equiv_pos_site_id
 _symmetry_equiv_pos_as_xyz
  1  'x, y, z'
loop_
 _atom_site_type_symbol
 _atom_site_label
 _atom_site_symmetry_multiplicity
 _atom_site_fract_x
 _atom_site_fract_y
 _atom_site_fract_z
 _atom_site_occupancy
  Zr  Zr0  1  0.667032  0.331110  0.003261  1
  Zr  Zr1  1  0.331110  0.667032  0.003261  1
  Zr  Zr2  1  0.331110  0.667032  0.496739  1
  Zr  Zr3  1  0.667032  0.331110  0.496739  1
  Zr  Zr4  1  0.751090  0.751090  0.750000  1
  Zr  Zr5  1  0.249260  0.999462  0.750000  1
  Zr  Zr6  1  0.999462  0.249260  0.750000  1
  Zr  Zr7  1  0.250127  0.250127  0.250000  1
  Zr  Zr8  1  0.749465  0.004899  0.250000  1
  Zr  Zr9  1  0.004899  0.749465  0.250000  1
  Be  Be10  1  0.999923  0.999923  0.003342  1
  Be  Be11  1  0.999923  0.999923  0.496658  1
  Sn  Sn12  1  0.388892  0.000731  0.250000  1
  Sn  Sn13  1  0.000731  0.388892  0.250000  1
  Bi  Bi14  1  0.390160  0.390160  0.750000  1
  Bi  Bi15  1  0.607557  0.999223  0.750000  1
  Bi  Bi16  1  0.999223  0.607557  0.750000  1
  Bi  Bi17  1  0.613004  0.613004  0.250000  1
