# generated using pymatgen
data_CeEr15(CdRu)4
_symmetry_space_group_name_H-M   'P 1'
_cell_length_a   9.57997055
_cell_length_b   9.57996967
_cell_length_c   9.57996952
_cell_angle_alpha   59.56902641
_cell_angle_beta   59.56903000
_cell_angle_gamma   59.56902026
_symmetry_Int_Tables_number   1
_chemical_formula_structural   CeEr15(CdRu)4
_chemical_formula_sum   'Ce1 Er15 Cd4 Ru4'
_cell_volume   615.60409403
_cell_formula_units_Z   1
loop_
 _symmetry_equiv_pos_site_id
 _symmetry_equiv_pos_as_xyz
  1  'x, y, z'
loop_
 _atom_site_type_symbol
 _atom_site_label
 _atom_site_symmetry_multiplicity
 _atom_site_fract_x
 _atom_site_fract_y
 _atom_site_fract_z
 _atom_site_occupancy
  Ce  Ce0  1  0.593330  0.593330  0.593330  1
  Er  Er1  1  0.597330  0.597330  0.205585  1
  Er  Er2  1  0.597330  0.205585  0.597330  1
  Er  Er3  1  0.205585  0.597330  0.597330  1
  Er  Er4  1  0.062658  0.438617  0.438617  1
  Er  Er5  1  0.437744  0.061110  0.061110  1
  Er  Er6  1  0.438617  0.062658  0.438617  1
  Er  Er7  1  0.061110  0.437744  0.061110  1
  Er  Er8  1  0.438617  0.438617  0.062658  1
  Er  Er9  1  0.061110  0.061110  0.437744  1
  Er  Er10  1  0.187759  0.812475  0.812475  1
  Er  Er11  1  0.811662  0.188883  0.188883  1
  Er  Er12  1  0.812475  0.187759  0.812475  1
  Er  Er13  1  0.188883  0.811662  0.188883  1
  Er  Er14  1  0.812475  0.812475  0.187759  1
  Er  Er15  1  0.188883  0.188883  0.811662  1
  Cd  Cd16  1  0.830173  0.830173  0.830173  1
  Cd  Cd17  1  0.830642  0.830642  0.507602  1
  Cd  Cd18  1  0.830642  0.507602  0.830642  1
  Cd  Cd19  1  0.507602  0.830642  0.830642  1
  Ru  Ru20  1  0.390088  0.390088  0.390088  1
  Ru  Ru21  1  0.394928  0.394928  0.825429  1
  Ru  Ru22  1  0.394928  0.825429  0.394928  1
  Ru  Ru23  1  0.825429  0.394928  0.394928  1
