# generated using pymatgen
data_Ho6Zn17PPd6
_symmetry_space_group_name_H-M   'P 1'
_cell_length_a   9.03279240
_cell_length_b   9.03281356
_cell_length_c   9.03279600
_cell_angle_alpha   59.99991783
_cell_angle_beta   60.00006739
_cell_angle_gamma   60.00006175
_symmetry_Int_Tables_number   1
_chemical_formula_structural   Ho6Zn17PPd6
_chemical_formula_sum   'Ho6 Zn17 P1 Pd6'
_cell_volume   521.13763053
_cell_formula_units_Z   1
loop_
 _symmetry_equiv_pos_site_id
 _symmetry_equiv_pos_as_xyz
  1  'x, y, z'
loop_
 _atom_site_type_symbol
 _atom_site_label
 _atom_site_symmetry_multiplicity
 _atom_site_fract_x
 _atom_site_fract_y
 _atom_site_fract_z
 _atom_site_occupancy
  Ho  Ho0  1  0.714156  0.285836  0.285840  1
  Ho  Ho1  1  0.714152  0.285842  0.714161  1
  Ho  Ho2  1  0.714156  0.714167  0.285839  1
  Ho  Ho3  1  0.285844  0.714164  0.714160  1
  Ho  Ho4  1  0.285848  0.714158  0.285839  1
  Ho  Ho5  1  0.285844  0.285833  0.714161  1
  Zn  Zn6  1  0.629207  0.123599  0.123596  1
  Zn  Zn7  1  0.123589  0.629210  0.123597  1
  Zn  Zn8  1  0.123592  0.123601  0.629208  1
  Zn  Zn9  1  0.123588  0.123605  0.123596  1
  Zn  Zn10  1  0.370793  0.876401  0.876404  1
  Zn  Zn11  1  0.876411  0.370790  0.876403  1
  Zn  Zn12  1  0.876408  0.876399  0.370792  1
  Zn  Zn13  1  0.876412  0.876395  0.876404  1
  Zn  Zn14  1  0.000000  0.000000  0.000000  1
  Zn  Zn15  1  0.008345  0.330552  0.330551  1
  Zn  Zn16  1  0.330540  0.008361  0.330545  1
  Zn  Zn17  1  0.330545  0.330547  0.008359  1
  Zn  Zn18  1  0.330539  0.330552  0.330545  1
  Zn  Zn19  1  0.991655  0.669448  0.669449  1
  Zn  Zn20  1  0.669460  0.991639  0.669455  1
  Zn  Zn21  1  0.669455  0.669453  0.991641  1
  Zn  Zn22  1  0.669461  0.669448  0.669455  1
  P  P23  1  0.500000  0.500000  0.500000  1
  Pd  Pd24  1  0.500000  0.000000  0.000000  1
  Pd  Pd25  1  0.500000  0.000000  0.500000  1
  Pd  Pd26  1  0.500000  0.500000  0.000000  1
  Pd  Pd27  1  0.000000  0.500000  0.500000  1
  Pd  Pd28  1  0.000000  0.500000  0.000000  1
  Pd  Pd29  1  0.000000  0.000000  0.500000  1
