# generated using pymatgen
data_CeHo5Tm10(InRh)4
_symmetry_space_group_name_H-M   'P 1'
_cell_length_a   9.57852593
_cell_length_b   9.58295585
_cell_length_c   9.56757764
_cell_angle_alpha   60.06406193
_cell_angle_beta   60.07316372
_cell_angle_gamma   59.97790136
_symmetry_Int_Tables_number   1
_chemical_formula_structural   CeHo5Tm10(InRh)4
_chemical_formula_sum   'Ce1 Ho5 Tm10 In4 Rh4'
_cell_volume   621.52992813
_cell_formula_units_Z   1
loop_
 _symmetry_equiv_pos_site_id
 _symmetry_equiv_pos_as_xyz
  1  'x, y, z'
loop_
 _atom_site_type_symbol
 _atom_site_label
 _atom_site_symmetry_multiplicity
 _atom_site_fract_x
 _atom_site_fract_y
 _atom_site_fract_z
 _atom_site_occupancy
  Ce  Ce0  1  0.654668  0.037259  0.652171  1
  Ho  Ho1  1  0.062118  0.064116  0.435094  1
  Ho  Ho2  1  0.436074  0.065223  0.435285  1
  Ho  Ho3  1  0.059727  0.440718  0.060256  1
  Ho  Ho4  1  0.056142  0.647648  0.646115  1
  Ho  Ho5  1  0.436258  0.435795  0.063617  1
  Tm  Tm6  1  0.188717  0.811221  0.188250  1
  Tm  Tm7  1  0.185954  0.190285  0.812472  1
  Tm  Tm8  1  0.809406  0.812335  0.189592  1
  Tm  Tm9  1  0.438051  0.060058  0.058457  1
  Tm  Tm10  1  0.813391  0.189876  0.185610  1
  Tm  Tm11  1  0.059689  0.439594  0.439530  1
  Tm  Tm12  1  0.811509  0.190055  0.812242  1
  Tm  Tm13  1  0.189422  0.813559  0.809966  1
  Tm  Tm14  1  0.645929  0.646033  0.055386  1
  Tm  Tm15  1  0.648835  0.651307  0.651873  1
  In  In16  1  0.418030  0.414385  0.417498  1
  In  In17  1  0.749283  0.416184  0.419731  1
  In  In18  1  0.418704  0.749968  0.416638  1
  In  In19  1  0.419913  0.415931  0.748611  1
  Rh  Rh20  1  0.856231  0.860735  0.426959  1
  Rh  Rh21  1  0.856109  0.855610  0.859734  1
  Rh  Rh22  1  0.427606  0.862871  0.857428  1
  Rh  Rh23  1  0.858231  0.429236  0.857483  1
