# generated using pymatgen
data_Tb4Ho8Co4TcBi
_symmetry_space_group_name_H-M   'P 1'
_cell_length_a   8.32489211
_cell_length_b   8.32485336
_cell_length_c   8.32489379
_cell_angle_alpha   111.47312800
_cell_angle_beta   110.44047033
_cell_angle_gamma   106.54116129
_symmetry_Int_Tables_number   1
_chemical_formula_structural   Tb4Ho8Co4TcBi
_chemical_formula_sum   'Tb4 Ho8 Co4 Tc1 Bi1'
_cell_volume   443.22743286
_cell_formula_units_Z   1
loop_
 _symmetry_equiv_pos_site_id
 _symmetry_equiv_pos_as_xyz
  1  'x, y, z'
loop_
 _atom_site_type_symbol
 _atom_site_label
 _atom_site_symmetry_multiplicity
 _atom_site_fract_x
 _atom_site_fract_y
 _atom_site_fract_z
 _atom_site_occupancy
  Tb  Tb0  1  0.816317  0.717483  0.533818  1
  Tb  Tb1  1  0.183683  0.282517  0.466182  1
  Tb  Tb2  1  0.183666  0.717483  0.901165  1
  Tb  Tb3  1  0.816334  0.282517  0.098835  1
  Ho  Ho4  1  0.689673  0.380296  0.690623  1
  Ho  Ho5  1  0.310327  0.619704  0.309377  1
  Ho  Ho6  1  0.689665  0.999049  0.309383  1
  Ho  Ho7  1  0.310335  0.000951  0.690617  1
  Ho  Ho8  1  0.589693  0.785919  0.803770  1
  Ho  Ho9  1  0.410307  0.214081  0.196230  1
  Ho  Ho10  1  0.982149  0.785919  0.196226  1
  Ho  Ho11  1  0.017851  0.214081  0.803774  1
  Co  Co12  1  0.621216  0.000000  0.621216  1
  Co  Co13  1  0.378784  0.000000  0.378784  1
  Co  Co14  1  0.110987  0.610982  0.499995  1
  Co  Co15  1  0.889013  0.389018  0.500005  1
  Tc  Tc16  1  0.000000  0.000000  0.000000  1
  Bi  Bi17  1  0.500000  0.500000  0.000000  1
