# generated using pymatgen
data_Yb3Tm(ReN3)4
_symmetry_space_group_name_H-M   'P 1'
_cell_length_a   7.32512470
_cell_length_b   7.32512522
_cell_length_c   6.23888515
_cell_angle_alpha   74.07995339
_cell_angle_beta   74.07995761
_cell_angle_gamma   83.47815354
_symmetry_Int_Tables_number   1
_chemical_formula_structural   Yb3Tm(ReN3)4
_chemical_formula_sum   'Yb3 Tm1 Re4 N12'
_cell_volume   309.30956038
_cell_formula_units_Z   1
loop_
 _symmetry_equiv_pos_site_id
 _symmetry_equiv_pos_as_xyz
  1  'x, y, z'
loop_
 _atom_site_type_symbol
 _atom_site_label
 _atom_site_symmetry_multiplicity
 _atom_site_fract_x
 _atom_site_fract_y
 _atom_site_fract_z
 _atom_site_occupancy
  Yb  Yb0  1  0.296630  0.703370  0.750000  1
  Yb  Yb1  1  0.085618  0.914382  0.250000  1
  Yb  Yb2  1  0.704671  0.295329  0.250000  1
  Tm  Tm3  1  0.911827  0.088173  0.750000  1
  Re  Re4  1  0.621917  0.798440  0.266387  1
  Re  Re5  1  0.201560  0.378083  0.233613  1
  Re  Re6  1  0.379247  0.201812  0.729580  1
  Re  Re7  1  0.798188  0.620753  0.770420  1
  N  N8  1  0.343659  0.351381  0.942717  1
  N  N9  1  0.004138  0.222105  0.354583  1
  N  N10  1  0.777895  0.995862  0.145417  1
  N  N11  1  0.216871  0.011186  0.835411  1
  N  N12  1  0.651544  0.639479  0.061522  1
  N  N13  1  0.883683  0.379498  0.825640  1
  N  N14  1  0.121092  0.616997  0.166376  1
  N  N15  1  0.988814  0.783129  0.664589  1
  N  N16  1  0.383003  0.878908  0.333624  1
  N  N17  1  0.648619  0.656341  0.557283  1
  N  N18  1  0.620502  0.116317  0.674360  1
  N  N19  1  0.360521  0.348456  0.438478  1
