# generated using pymatgen
data_YZr2Ta3(B2Ru5)2
_symmetry_space_group_name_H-M   'P 1'
_cell_length_a   9.53695411
_cell_length_b   9.53695424
_cell_length_c   3.10250200
_cell_angle_alpha   90.00000000
_cell_angle_beta   90.00000000
_cell_angle_gamma   89.82167116
_symmetry_Int_Tables_number   1
_chemical_formula_structural   YZr2Ta3(B2Ru5)2
_chemical_formula_sum   'Y1 Zr2 Ta3 B4 Ru10'
_cell_volume   282.18203322
_cell_formula_units_Z   1
loop_
 _symmetry_equiv_pos_site_id
 _symmetry_equiv_pos_as_xyz
  1  'x, y, z'
loop_
 _atom_site_type_symbol
 _atom_site_label
 _atom_site_symmetry_multiplicity
 _atom_site_fract_x
 _atom_site_fract_y
 _atom_site_fract_z
 _atom_site_occupancy
  Y  Y0  1  0.324547  0.824547  0.000000  1
  Zr  Zr1  1  0.824435  0.676338  0.000000  1
  Zr  Zr2  1  0.176338  0.324435  0.000000  1
  Ta  Ta3  1  0.677296  0.177296  0.000000  1
  Ta  Ta4  1  0.498962  0.502137  0.000000  1
  Ta  Ta5  1  0.002137  0.998962  0.000000  1
  B  B6  1  0.624105  0.881127  0.000000  1
  B  B7  1  0.381127  0.124105  0.000000  1
  B  B8  1  0.118105  0.618105  0.000000  1
  B  B9  1  0.876570  0.376570  0.000000  1
  Ru  Ru10  1  0.577518  0.719397  0.500000  1
  Ru  Ru11  1  0.436015  0.282961  0.500000  1
  Ru  Ru12  1  0.061325  0.777201  0.500000  1
  Ru  Ru13  1  0.921619  0.214777  0.500000  1
  Ru  Ru14  1  0.277201  0.561325  0.500000  1
  Ru  Ru15  1  0.714777  0.421619  0.500000  1
  Ru  Ru16  1  0.219397  0.077518  0.500000  1
  Ru  Ru17  1  0.782961  0.936015  0.500000  1
  Ru  Ru18  1  0.510430  0.010430  0.500000  1
  Ru  Ru19  1  0.995135  0.495135  0.500000  1
