# generated using pymatgen
data_ThTc2SeO12
_symmetry_space_group_name_H-M   'P 1'
_cell_length_a   9.89972900
_cell_length_b   10.05519621
_cell_length_c   6.03960400
_cell_angle_alpha   90.00000000
_cell_angle_beta   90.00000000
_cell_angle_gamma   119.49088375
_symmetry_Int_Tables_number   1
_chemical_formula_structural   ThTc2SeO12
_chemical_formula_sum   'Th2 Tc4 Se2 O24'
_cell_volume   523.30897530
_cell_formula_units_Z   2
loop_
 _symmetry_equiv_pos_site_id
 _symmetry_equiv_pos_as_xyz
  1  'x, y, z'
loop_
 _atom_site_type_symbol
 _atom_site_label
 _atom_site_symmetry_multiplicity
 _atom_site_fract_x
 _atom_site_fract_y
 _atom_site_fract_z
 _atom_site_occupancy
  Th  Th0  1  0.658407  0.330784  0.750000  1
  Th  Th1  1  0.312114  0.636297  0.250000  1
  Tc  Tc2  1  0.619851  0.707555  0.750000  1
  Tc  Tc3  1  0.908217  0.618564  0.250000  1
  Tc  Tc4  1  0.295221  0.906340  0.750000  1
  Tc  Tc5  1  0.699469  0.080991  0.250000  1
  Se  Se6  1  0.083328  0.384873  0.750000  1
  Se  Se7  1  0.392427  0.295792  0.250000  1
  O  O8  1  0.499049  0.650386  0.518015  1
  O  O9  1  0.353610  0.843342  0.517386  1
  O  O10  1  0.832637  0.739115  0.250000  1
  O  O11  1  0.098736  0.833559  0.750000  1
  O  O12  1  0.280237  0.111926  0.250000  1
  O  O13  1  0.155997  0.271622  0.750000  1
  O  O14  1  0.515766  0.360494  0.030319  1
  O  O15  1  0.895398  0.153355  0.250000  1
  O  O16  1  0.109975  0.721867  0.250000  1
  O  O17  1  0.144345  0.508671  0.968414  1
  O  O18  1  0.144345  0.508671  0.531586  1
  O  O19  1  0.890003  0.296987  0.750000  1
  O  O20  1  0.298838  0.395995  0.250000  1
  O  O21  1  0.725405  0.611800  0.750000  1
  O  O22  1  0.848701  0.499161  0.481236  1
  O  O23  1  0.389830  0.105092  0.750000  1
  O  O24  1  0.642395  0.144642  0.015792  1
  O  O25  1  0.499049  0.650386  0.981985  1
  O  O26  1  0.353610  0.843342  0.982614  1
  O  O27  1  0.642395  0.144642  0.484208  1
  O  O28  1  0.515766  0.360494  0.469681  1
  O  O29  1  0.848701  0.499161  0.018764  1
  O  O30  1  0.741239  0.900675  0.750000  1
  O  O31  1  0.604936  0.883418  0.250000  1
