# generated using pymatgen
data_Tm9Lu3InFe3Bi
_symmetry_space_group_name_H-M   'P 1'
_cell_length_a   8.26850286
_cell_length_b   8.26580254
_cell_length_c   8.26580246
_cell_angle_alpha   108.58001518
_cell_angle_beta   108.23310434
_cell_angle_gamma   111.60864970
_symmetry_Int_Tables_number   1
_chemical_formula_structural   Tm9Lu3InFe3Bi
_chemical_formula_sum   'Tm9 Lu3 In1 Fe3 Bi1'
_cell_volume   434.49665396
_cell_formula_units_Z   1
loop_
 _symmetry_equiv_pos_site_id
 _symmetry_equiv_pos_as_xyz
  1  'x, y, z'
loop_
 _atom_site_type_symbol
 _atom_site_label
 _atom_site_symmetry_multiplicity
 _atom_site_fract_x
 _atom_site_fract_y
 _atom_site_fract_z
 _atom_site_occupancy
  Tm  Tm0  1  0.312889  0.303167  0.615885  1
  Tm  Tm1  1  0.687162  0.696769  0.383998  1
  Tm  Tm2  1  0.687162  0.303164  0.990392  1
  Tm  Tm3  1  0.312889  0.697004  0.009721  1
  Tm  Tm4  1  0.194224  0.425522  0.231495  1
  Tm  Tm5  1  0.805843  0.574623  0.768711  1
  Tm  Tm6  1  0.194224  0.962728  0.768701  1
  Tm  Tm7  1  0.954867  0.190845  0.764024  1
  Tm  Tm8  1  0.805843  0.037133  0.231220  1
  Lu  Lu9  1  0.044996  0.809216  0.235777  1
  Lu  Lu10  1  0.426582  0.190749  0.235833  1
  Lu  Lu11  1  0.573340  0.809134  0.764207  1
  In  In12  1  0.499803  0.999912  0.499891  1
  Fe  Fe13  1  0.383710  0.383641  0.000069  1
  Fe  Fe14  1  0.616454  0.616452  0.000003  1
  Fe  Fe15  1  0.000007  0.999938  0.000069  1
  Bi  Bi16  1  0.000006  0.500004  0.500002  1
