# generated using pymatgen
data_Ac5Dy(SnPd)6
_symmetry_space_group_name_H-M   'P 1'
_cell_length_a   7.86694600
_cell_length_b   7.82099597
_cell_length_c   8.52387400
_cell_angle_alpha   90.00000000
_cell_angle_beta   90.00000000
_cell_angle_gamma   119.83634757
_symmetry_Int_Tables_number   1
_chemical_formula_structural   Ac5Dy(SnPd)6
_chemical_formula_sum   'Ac5 Dy1 Sn6 Pd6'
_cell_volume   454.93537365
_cell_formula_units_Z   1
loop_
 _symmetry_equiv_pos_site_id
 _symmetry_equiv_pos_as_xyz
  1  'x, y, z'
loop_
 _atom_site_type_symbol
 _atom_site_label
 _atom_site_symmetry_multiplicity
 _atom_site_fract_x
 _atom_site_fract_y
 _atom_site_fract_z
 _atom_site_occupancy
  Ac  Ac0  1  0.416786  0.999142  0.250000  1
  Ac  Ac1  1  0.583534  0.582647  0.250000  1
  Ac  Ac2  1  0.414832  0.000281  0.750000  1
  Ac  Ac3  1  0.585219  0.586114  0.750000  1
  Ac  Ac4  1  0.999907  0.419390  0.750000  1
  Dy  Dy5  1  0.999649  0.405493  0.250000  1
  Sn  Sn6  1  0.761187  0.006581  0.002059  1
  Sn  Sn7  1  0.239729  0.245450  0.498035  1
  Sn  Sn8  1  0.999916  0.752925  0.490210  1
  Sn  Sn9  1  0.999916  0.752925  0.009790  1
  Sn  Sn10  1  0.239729  0.245450  0.001965  1
  Sn  Sn11  1  0.761187  0.006581  0.497941  1
  Pd  Pd12  1  0.321346  0.658244  0.008422  1
  Pd  Pd13  1  0.321346  0.658244  0.491578  1
  Pd  Pd14  1  0.677441  0.336429  0.007692  1
  Pd  Pd15  1  0.677441  0.336429  0.492308  1
  Pd  Pd16  1  0.000398  0.009383  0.250000  1
  Pd  Pd17  1  0.000439  0.998295  0.750000  1
