# generated using pymatgen
data_Li8Yb7CeSn8
_symmetry_space_group_name_H-M   'P 1'
_cell_length_a   9.71218011
_cell_length_b   9.69767899
_cell_length_c   7.28636460
_cell_angle_alpha   90.20320108
_cell_angle_beta   90.01729614
_cell_angle_gamma   120.05228863
_symmetry_Int_Tables_number   1
_chemical_formula_structural   Li8Yb7CeSn8
_chemical_formula_sum   'Li8 Yb7 Ce1 Sn8'
_cell_volume   594.00898011
_cell_formula_units_Z   1
loop_
 _symmetry_equiv_pos_site_id
 _symmetry_equiv_pos_as_xyz
  1  'x, y, z'
loop_
 _atom_site_type_symbol
 _atom_site_label
 _atom_site_symmetry_multiplicity
 _atom_site_fract_x
 _atom_site_fract_y
 _atom_site_fract_z
 _atom_site_occupancy
  Li  Li0  1  0.332569  0.169081  0.722433  1
  Li  Li1  1  0.836552  0.169097  0.722714  1
  Li  Li2  1  0.162940  0.831104  0.220535  1
  Li  Li3  1  0.668172  0.831165  0.220211  1
  Li  Li4  1  0.832982  0.665988  0.724810  1
  Li  Li5  1  0.167238  0.334505  0.222440  1
  Li  Li6  1  0.667978  0.336038  0.317574  1
  Li  Li7  1  0.331576  0.663042  0.809387  1
  Yb  Yb8  1  0.000817  0.001718  0.504654  1
  Yb  Yb9  1  0.000739  0.001347  0.005631  1
  Yb  Yb10  1  0.025615  0.513466  0.503088  1
  Yb  Yb11  1  0.487862  0.513510  0.503158  1
  Yb  Yb12  1  0.512935  0.487634  0.003245  1
  Yb  Yb13  1  0.974781  0.487757  0.003242  1
  Yb  Yb14  1  0.486788  0.973479  0.504515  1
  Ce  Ce15  1  0.511276  0.022695  0.003261  1
  Sn  Sn16  1  0.335087  0.165206  0.261788  1
  Sn  Sn17  1  0.830044  0.165159  0.261843  1
  Sn  Sn18  1  0.168551  0.834560  0.783306  1
  Sn  Sn19  1  0.666068  0.834617  0.783369  1
  Sn  Sn20  1  0.833336  0.666768  0.266585  1
  Sn  Sn21  1  0.167136  0.334260  0.776858  1
  Sn  Sn22  1  0.664621  0.329175  0.722485  1
  Sn  Sn23  1  0.334335  0.668627  0.210887  1
