# generated using pymatgen
data_DyLu7Zn2(SiB4)4
_symmetry_space_group_name_H-M   'P 1'
_cell_length_a   7.09166812
_cell_length_b   7.09166805
_cell_length_c   7.47883701
_cell_angle_alpha   89.99749166
_cell_angle_beta   90.00250848
_cell_angle_gamma   90.01704735
_symmetry_Int_Tables_number   1
_chemical_formula_structural   DyLu7Zn2(SiB4)4
_chemical_formula_sum   'Dy1 Lu7 Zn2 Si4 B16'
_cell_volume   376.12383017
_cell_formula_units_Z   1
loop_
 _symmetry_equiv_pos_site_id
 _symmetry_equiv_pos_as_xyz
  1  'x, y, z'
loop_
 _atom_site_type_symbol
 _atom_site_label
 _atom_site_symmetry_multiplicity
 _atom_site_fract_x
 _atom_site_fract_y
 _atom_site_fract_z
 _atom_site_occupancy
  Dy  Dy0  1  0.182978  0.317022  0.238321  1
  Lu  Lu1  1  0.682629  0.182528  0.234212  1
  Lu  Lu2  1  0.317567  0.817324  0.766185  1
  Lu  Lu3  1  0.317472  0.817371  0.234212  1
  Lu  Lu4  1  0.817234  0.682766  0.233784  1
  Lu  Lu5  1  0.817070  0.682930  0.766064  1
  Lu  Lu6  1  0.682676  0.182433  0.766185  1
  Lu  Lu7  1  0.182520  0.317480  0.765657  1
  Zn  Zn8  1  0.998892  0.997610  0.501808  1
  Zn  Zn9  1  0.502390  0.501108  0.501808  1
  Si  Si10  1  0.113699  0.617903  0.501824  1
  Si  Si11  1  0.882097  0.386301  0.501824  1
  Si  Si12  1  0.386469  0.113531  0.502565  1
  Si  Si13  1  0.616517  0.883483  0.500199  1
  B  B14  1  0.173862  0.039171  0.999258  1
  B  B15  1  0.825402  0.959882  0.999313  1
  B  B16  1  0.959558  0.173772  0.998923  1
  B  B17  1  0.326228  0.540442  0.998923  1
  B  B18  1  0.039459  0.825519  0.999103  1
  B  B19  1  0.674481  0.460541  0.999103  1
  B  B20  1  0.540118  0.674598  0.999313  1
  B  B21  1  0.460829  0.326138  0.999258  1
  B  B22  1  0.088581  0.588878  0.998305  1
  B  B23  1  0.911122  0.411419  0.998305  1
  B  B24  1  0.411449  0.088551  0.999677  1
  B  B25  1  0.588447  0.911553  0.999356  1
  B  B26  1  0.999304  0.998775  0.171017  1
  B  B27  1  0.999710  0.999985  0.827239  1
  B  B28  1  0.500015  0.500290  0.827239  1
  B  B29  1  0.501225  0.500696  0.171017  1
