# generated using pymatgen
data_Y4Ho4Re3B24Ru
_symmetry_space_group_name_H-M   'P 1'
_cell_length_a   3.67415100
_cell_length_b   9.16332194
_cell_length_c   11.55332494
_cell_angle_alpha   89.89392584
_cell_angle_beta   90.00000000
_cell_angle_gamma   90.00000000
_symmetry_Int_Tables_number   1
_chemical_formula_structural   Y4Ho4Re3B24Ru
_chemical_formula_sum   'Y4 Ho4 Re3 B24 Ru1'
_cell_volume   388.97007414
_cell_formula_units_Z   1
loop_
 _symmetry_equiv_pos_site_id
 _symmetry_equiv_pos_as_xyz
  1  'x, y, z'
loop_
 _atom_site_type_symbol
 _atom_site_label
 _atom_site_symmetry_multiplicity
 _atom_site_fract_x
 _atom_site_fract_y
 _atom_site_fract_z
 _atom_site_occupancy
  Y  Y0  1  0.000000  0.323138  0.413698  1
  Y  Y1  1  0.000000  0.675367  0.584314  1
  Y  Y2  1  0.000000  0.822666  0.087600  1
  Y  Y3  1  0.000000  0.178132  0.914159  1
  Ho  Ho4  1  0.000000  0.943150  0.371070  1
  Ho  Ho5  1  0.000000  0.056800  0.630478  1
  Ho  Ho6  1  0.000000  0.443669  0.129183  1
  Ho  Ho7  1  0.000000  0.558215  0.869748  1
  Re  Re8  1  0.000000  0.638644  0.320468  1
  Re  Re9  1  0.000000  0.361369  0.680007  1
  Re  Re10  1  0.000000  0.138207  0.178375  1
  B  B11  1  0.500000  0.552997  0.432591  1
  B  B12  1  0.500000  0.446600  0.567059  1
  B  B13  1  0.500000  0.052929  0.066991  1
  B  B14  1  0.500000  0.945979  0.932423  1
  B  B15  1  0.500000  0.748717  0.418638  1
  B  B16  1  0.500000  0.250500  0.581594  1
  B  B17  1  0.500000  0.249419  0.081254  1
  B  B18  1  0.500000  0.751551  0.918304  1
  B  B19  1  0.500000  0.792138  0.266021  1
  B  B20  1  0.500000  0.208142  0.734784  1
  B  B21  1  0.500000  0.292010  0.234042  1
  B  B22  1  0.500000  0.709180  0.765660  1
  B  B23  1  0.500000  0.631128  0.185542  1
  B  B24  1  0.500000  0.369238  0.814902  1
  B  B25  1  0.500000  0.130449  0.314013  1
  B  B26  1  0.500000  0.868681  0.685865  1
  B  B27  1  0.500000  0.981971  0.212322  1
  B  B28  1  0.500000  0.016268  0.788020  1
  B  B29  1  0.500000  0.482444  0.287366  1
  B  B30  1  0.500000  0.517504  0.712060  1
  B  B31  1  0.500000  0.602390  0.027987  1
  B  B32  1  0.500000  0.399725  0.971491  1
  B  B33  1  0.500000  0.101162  0.472335  1
  B  B34  1  0.500000  0.898208  0.528878  1
  Ru  Ru35  1  0.000000  0.861314  0.820758  1
