# generated using pymatgen
data_Tb3Y2(CoO6)2
_symmetry_space_group_name_H-M   'P 1'
_cell_length_a   6.77632418
_cell_length_b   6.77632591
_cell_length_c   7.22604353
_cell_angle_alpha   74.56270171
_cell_angle_beta   74.56268740
_cell_angle_gamma   50.47490270
_symmetry_Int_Tables_number   1
_chemical_formula_structural   Tb3Y2(CoO6)2
_chemical_formula_sum   'Tb3 Y2 Co2 O12'
_cell_volume   244.60739367
_cell_formula_units_Z   1
loop_
 _symmetry_equiv_pos_site_id
 _symmetry_equiv_pos_as_xyz
  1  'x, y, z'
loop_
 _atom_site_type_symbol
 _atom_site_label
 _atom_site_symmetry_multiplicity
 _atom_site_fract_x
 _atom_site_fract_y
 _atom_site_fract_z
 _atom_site_occupancy
  Tb  Tb0  1  0.999969  0.999969  0.000005  1
  Tb  Tb1  1  0.306214  0.306214  0.855685  1
  Tb  Tb2  1  0.307544  0.307544  0.335790  1
  Y  Y3  1  0.692259  0.692259  0.664490  1
  Y  Y4  1  0.693752  0.693752  0.144140  1
  Co  Co5  1  0.244084  0.755960  0.499964  1
  Co  Co6  1  0.755960  0.244084  0.499964  1
  O  O7  1  0.402498  0.902810  0.923444  1
  O  O8  1  0.583734  0.099202  0.578577  1
  O  O9  1  0.900234  0.416796  0.421443  1
  O  O10  1  0.096402  0.598169  0.076604  1
  O  O11  1  0.000303  0.000303  0.329693  1
  O  O12  1  0.500212  0.500212  0.673575  1
  O  O13  1  0.902810  0.402498  0.923444  1
  O  O14  1  0.099202  0.583734  0.578577  1
  O  O15  1  0.416796  0.900234  0.421443  1
  O  O16  1  0.598169  0.096402  0.076604  1
  O  O17  1  0.500107  0.500107  0.326354  1
  O  O18  1  0.999750  0.999750  0.670206  1
