# generated using pymatgen
data_Er16Sc4CuRh11
_symmetry_space_group_name_H-M   'P 1'
_cell_length_a   10.69584362
_cell_length_b   10.69584370
_cell_length_c   6.23650800
_cell_angle_alpha   90.01958456
_cell_angle_beta   90.01958456
_cell_angle_gamma   89.92534591
_symmetry_Int_Tables_number   1
_chemical_formula_structural   Er16Sc4CuRh11
_chemical_formula_sum   'Er16 Sc4 Cu1 Rh11'
_cell_volume   713.46250984
_cell_formula_units_Z   1
loop_
 _symmetry_equiv_pos_site_id
 _symmetry_equiv_pos_as_xyz
  1  'x, y, z'
loop_
 _atom_site_type_symbol
 _atom_site_label
 _atom_site_symmetry_multiplicity
 _atom_site_fract_x
 _atom_site_fract_y
 _atom_site_fract_z
 _atom_site_occupancy
  Er  Er0  1  0.287714  0.086813  0.377256  1
  Er  Er1  1  0.287557  0.915609  0.878659  1
  Er  Er2  1  0.712153  0.085964  0.877155  1
  Er  Er3  1  0.712054  0.913179  0.377555  1
  Er  Er4  1  0.588625  0.788535  0.878449  1
  Er  Er5  1  0.586913  0.212741  0.376560  1
  Er  Er6  1  0.414811  0.789661  0.374238  1
  Er  Er7  1  0.412686  0.212897  0.876872  1
  Er  Er8  1  0.211465  0.411375  0.621551  1
  Er  Er9  1  0.210339  0.585189  0.125762  1
  Er  Er10  1  0.787259  0.413087  0.123440  1
  Er  Er11  1  0.787103  0.587314  0.623128  1
  Er  Er12  1  0.913187  0.712286  0.122744  1
  Er  Er13  1  0.914036  0.287847  0.622845  1
  Er  Er14  1  0.084391  0.712443  0.621341  1
  Er  Er15  1  0.086821  0.287946  0.122445  1
  Sc  Sc16  1  0.000095  0.000097  0.499890  1
  Sc  Sc17  1  0.999903  0.999905  0.000110  1
  Sc  Sc18  1  0.501434  0.498572  0.000440  1
  Sc  Sc19  1  0.501428  0.498566  0.499560  1
  Cu  Cu20  1  0.351074  0.648926  0.750000  1
  Rh  Rh21  1  0.850811  0.149189  0.250000  1
  Rh  Rh22  1  0.850912  0.851004  0.749752  1
  Rh  Rh23  1  0.148996  0.149088  0.750248  1
  Rh  Rh24  1  0.149706  0.850294  0.250000  1
  Rh  Rh25  1  0.648885  0.351115  0.750000  1
  Rh  Rh26  1  0.648352  0.649201  0.249409  1
  Rh  Rh27  1  0.350799  0.351648  0.250591  1
  Rh  Rh28  1  0.499319  0.999346  0.122739  1
  Rh  Rh29  1  0.499861  0.999343  0.623326  1
  Rh  Rh30  1  0.000657  0.500139  0.876674  1
  Rh  Rh31  1  0.000654  0.500681  0.377261  1
