# generated using pymatgen
data_Tm2Al3Re14C3
_symmetry_space_group_name_H-M   'P 1'
_cell_length_a   6.97093230
_cell_length_b   6.97093384
_cell_length_c   6.97093273
_cell_angle_alpha   82.29121137
_cell_angle_beta   82.29121545
_cell_angle_gamma   82.29121124
_symmetry_Int_Tables_number   1
_chemical_formula_structural   Tm2Al3Re14C3
_chemical_formula_sum   'Tm2 Al3 Re14 C3'
_cell_volume   330.31497160
_cell_formula_units_Z   1
loop_
 _symmetry_equiv_pos_site_id
 _symmetry_equiv_pos_as_xyz
  1  'x, y, z'
loop_
 _atom_site_type_symbol
 _atom_site_label
 _atom_site_symmetry_multiplicity
 _atom_site_fract_x
 _atom_site_fract_y
 _atom_site_fract_z
 _atom_site_occupancy
  Tm  Tm0  1  0.659664  0.659664  0.659664  1
  Tm  Tm1  1  0.340336  0.340336  0.340336  1
  Al  Al2  1  0.000000  0.000000  0.500000  1
  Al  Al3  1  0.500000  0.000000  0.000000  1
  Al  Al4  1  0.000000  0.500000  0.000000  1
  Re  Re5  1  0.720601  0.279399  0.000000  1
  Re  Re6  1  0.000000  0.720601  0.279399  1
  Re  Re7  1  0.279399  0.000000  0.720601  1
  Re  Re8  1  0.000000  0.279399  0.720601  1
  Re  Re9  1  0.720601  0.000000  0.279399  1
  Re  Re10  1  0.279399  0.720601  0.000000  1
  Re  Re11  1  0.350692  0.350692  0.848324  1
  Re  Re12  1  0.848324  0.350692  0.350692  1
  Re  Re13  1  0.350692  0.848324  0.350692  1
  Re  Re14  1  0.649308  0.649308  0.151676  1
  Re  Re15  1  0.151676  0.649308  0.649308  1
  Re  Re16  1  0.649308  0.151676  0.649308  1
  Re  Re17  1  0.902914  0.902914  0.902914  1
  Re  Re18  1  0.097086  0.097086  0.097086  1
  C  C19  1  0.500000  0.500000  0.000000  1
  C  C20  1  0.000000  0.500000  0.500000  1
  C  C21  1  0.500000  0.000000  0.500000  1
