# generated using pymatgen
data_Tb3DyAl18(IrPt2)2
_symmetry_space_group_name_H-M   'P 1'
_cell_length_a   7.60292072
_cell_length_b   7.60243891
_cell_length_c   9.43410000
_cell_angle_alpha   90.00000000
_cell_angle_beta   90.00000000
_cell_angle_gamma   119.60433781
_symmetry_Int_Tables_number   1
_chemical_formula_structural   Tb3DyAl18(IrPt2)2
_chemical_formula_sum   'Tb3 Dy1 Al18 Ir2 Pt4'
_cell_volume   474.11342184
_cell_formula_units_Z   1
loop_
 _symmetry_equiv_pos_site_id
 _symmetry_equiv_pos_as_xyz
  1  'x, y, z'
loop_
 _atom_site_type_symbol
 _atom_site_label
 _atom_site_symmetry_multiplicity
 _atom_site_fract_x
 _atom_site_fract_y
 _atom_site_fract_z
 _atom_site_occupancy
  Tb  Tb0  1  0.006297  0.330529  0.750000  1
  Tb  Tb1  1  0.669517  0.993720  0.250000  1
  Tb  Tb2  1  0.330449  0.006144  0.750000  1
  Dy  Dy3  1  0.993718  0.669718  0.250000  1
  Al  Al4  1  0.127968  0.127847  0.250000  1
  Al  Al5  1  0.871972  0.871873  0.750000  1
  Al  Al6  1  0.999674  0.331459  0.076947  1
  Al  Al7  1  0.000267  0.668726  0.923652  1
  Al  Al8  1  0.000267  0.668726  0.576348  1
  Al  Al9  1  0.331133  0.999496  0.423073  1
  Al  Al10  1  0.999674  0.331459  0.423053  1
  Al  Al11  1  0.668748  0.000272  0.576512  1
  Al  Al12  1  0.668748  0.000272  0.923488  1
  Al  Al13  1  0.331133  0.999496  0.076927  1
  Al  Al14  1  0.329916  0.329909  0.554719  1
  Al  Al15  1  0.670205  0.670037  0.444632  1
  Al  Al16  1  0.670205  0.670037  0.055368  1
  Al  Al17  1  0.329916  0.329909  0.945281  1
  Al  Al18  1  0.341164  0.547491  0.250000  1
  Al  Al19  1  0.658770  0.452754  0.750000  1
  Al  Al20  1  0.547672  0.341545  0.250000  1
  Al  Al21  1  0.452733  0.658695  0.750000  1
  Ir  Ir22  1  0.999950  0.999866  0.000149  1
  Ir  Ir23  1  0.999950  0.999866  0.499851  1
  Pt  Pt24  1  0.672363  0.327832  0.000059  1
  Pt  Pt25  1  0.327613  0.672247  0.000052  1
  Pt  Pt26  1  0.327613  0.672247  0.499948  1
  Pt  Pt27  1  0.672363  0.327832  0.499941  1
