# generated using pymatgen
data_Ce2Dy2LuRu2
_symmetry_space_group_name_H-M   'P 1'
_cell_length_a   6.36807015
_cell_length_b   6.99861498
_cell_length_c   8.79143694
_cell_angle_alpha   95.71274080
_cell_angle_beta   111.23380970
_cell_angle_gamma   89.99999676
_symmetry_Int_Tables_number   1
_chemical_formula_structural   Ce2Dy2LuRu2
_chemical_formula_sum   'Ce4 Dy4 Lu2 Ru4'
_cell_volume   363.12524495
_cell_formula_units_Z   2
loop_
 _symmetry_equiv_pos_site_id
 _symmetry_equiv_pos_as_xyz
  1  'x, y, z'
loop_
 _atom_site_type_symbol
 _atom_site_label
 _atom_site_symmetry_multiplicity
 _atom_site_fract_x
 _atom_site_fract_y
 _atom_site_fract_z
 _atom_site_occupancy
  Ce  Ce0  1  0.522014  0.094989  0.811055  1
  Ce  Ce1  1  0.477986  0.905011  0.188945  1
  Ce  Ce2  1  0.710959  0.405011  0.188945  1
  Ce  Ce3  1  0.289041  0.594989  0.811055  1
  Dy  Dy4  1  0.294217  0.313370  0.432445  1
  Dy  Dy5  1  0.705783  0.686630  0.567555  1
  Dy  Dy6  1  0.861773  0.186630  0.567555  1
  Dy  Dy7  1  0.138227  0.813370  0.432445  1
  Lu  Lu8  1  0.080785  0.250000  0.000000  1
  Lu  Lu9  1  0.919215  0.750000  0.000000  1
  Ru  Ru10  1  0.343367  0.592384  0.217882  1
  Ru  Ru11  1  0.656633  0.407616  0.782118  1
  Ru  Ru12  1  0.125487  0.907616  0.782118  1
  Ru  Ru13  1  0.874513  0.092384  0.217882  1
