# generated using pymatgen
data_Tb4Nd3Th(ReB6)4
_symmetry_space_group_name_H-M   'P 1'
_cell_length_a   3.75668200
_cell_length_b   9.27160051
_cell_length_c   11.72010413
_cell_angle_alpha   90.06521915
_cell_angle_beta   90.00000000
_cell_angle_gamma   90.00000000
_symmetry_Int_Tables_number   1
_chemical_formula_structural   Tb4Nd3Th(ReB6)4
_chemical_formula_sum   'Tb4 Nd3 Th1 Re4 B24'
_cell_volume   408.21629237
_cell_formula_units_Z   1
loop_
 _symmetry_equiv_pos_site_id
 _symmetry_equiv_pos_as_xyz
  1  'x, y, z'
loop_
 _atom_site_type_symbol
 _atom_site_label
 _atom_site_symmetry_multiplicity
 _atom_site_fract_x
 _atom_site_fract_y
 _atom_site_fract_z
 _atom_site_occupancy
  Tb  Tb0  1  0.000000  0.941942  0.368990  1
  Tb  Tb1  1  0.000000  0.056857  0.631342  1
  Tb  Tb2  1  0.000000  0.442889  0.129605  1
  Tb  Tb3  1  0.000000  0.557598  0.869214  1
  Nd  Nd4  1  0.000000  0.677619  0.586449  1
  Nd  Nd5  1  0.000000  0.823040  0.085395  1
  Nd  Nd6  1  0.000000  0.176483  0.914059  1
  Th  Th7  1  0.000000  0.322979  0.414410  1
  Re  Re8  1  0.000000  0.637306  0.320581  1
  Re  Re9  1  0.000000  0.361579  0.679214  1
  Re  Re10  1  0.000000  0.139760  0.180716  1
  Re  Re11  1  0.000000  0.861221  0.819979  1
  B  B12  1  0.500000  0.554918  0.430525  1
  B  B13  1  0.500000  0.444869  0.569585  1
  B  B14  1  0.500000  0.054761  0.068963  1
  B  B15  1  0.500000  0.945448  0.931070  1
  B  B16  1  0.500000  0.749107  0.415869  1
  B  B17  1  0.500000  0.251226  0.584531  1
  B  B18  1  0.500000  0.248722  0.083453  1
  B  B19  1  0.500000  0.751137  0.916195  1
  B  B20  1  0.500000  0.790270  0.266191  1
  B  B21  1  0.500000  0.209662  0.734154  1
  B  B22  1  0.500000  0.290324  0.233447  1
  B  B23  1  0.500000  0.709421  0.766344  1
  B  B24  1  0.500000  0.630404  0.186336  1
  B  B25  1  0.500000  0.370123  0.813465  1
  B  B26  1  0.500000  0.130230  0.312923  1
  B  B27  1  0.500000  0.869829  0.687015  1
  B  B28  1  0.500000  0.984894  0.212376  1
  B  B29  1  0.500000  0.015188  0.787617  1
  B  B30  1  0.500000  0.485261  0.286858  1
  B  B31  1  0.500000  0.515413  0.713394  1
  B  B32  1  0.500000  0.597974  0.027026  1
  B  B33  1  0.500000  0.402279  0.972388  1
  B  B34  1  0.500000  0.097750  0.472775  1
  B  B35  1  0.500000  0.901510  0.527544  1
