# generated using pymatgen
data_RbPr4Nd2PtBr12
_symmetry_space_group_name_H-M   'P 1'
_cell_length_a   9.68908063
_cell_length_b   9.56013754
_cell_length_c   9.70422591
_cell_angle_alpha   105.14924704
_cell_angle_beta   104.42483676
_cell_angle_gamma   104.23348333
_symmetry_Int_Tables_number   1
_chemical_formula_structural   RbPr4Nd2PtBr12
_chemical_formula_sum   'Rb1 Pr4 Nd2 Pt1 Br12'
_cell_volume   792.44449319
_cell_formula_units_Z   1
loop_
 _symmetry_equiv_pos_site_id
 _symmetry_equiv_pos_as_xyz
  1  'x, y, z'
loop_
 _atom_site_type_symbol
 _atom_site_label
 _atom_site_symmetry_multiplicity
 _atom_site_fract_x
 _atom_site_fract_y
 _atom_site_fract_z
 _atom_site_occupancy
  Rb  Rb0  1  0.500369  0.499802  0.499281  1
  Pr  Pr1  1  0.009780  0.108165  0.315268  1
  Pr  Pr2  1  0.990128  0.893201  0.685389  1
  Pr  Pr3  1  0.685515  0.991115  0.895184  1
  Pr  Pr4  1  0.900131  0.695685  0.987715  1
  Nd  Nd5  1  0.100430  0.303237  0.012879  1
  Nd  Nd6  1  0.312256  0.008947  0.104730  1
  Pt  Pt7  1  0.000290  0.000655  0.000581  1
  Br  Br8  1  0.214276  0.671767  0.072779  1
  Br  Br9  1  0.422589  0.330938  0.114504  1
  Br  Br10  1  0.672253  0.077503  0.214910  1
  Br  Br11  1  0.924440  0.786353  0.323739  1
  Br  Br12  1  0.116095  0.431390  0.335053  1
  Br  Br13  1  0.331296  0.112902  0.424766  1
  Br  Br14  1  0.668517  0.886814  0.573567  1
  Br  Br15  1  0.884456  0.569148  0.662810  1
  Br  Br16  1  0.076922  0.215739  0.678917  1
  Br  Br17  1  0.325772  0.921863  0.787068  1
  Br  Br18  1  0.575537  0.665971  0.883550  1
  Br  Br19  1  0.788952  0.328808  0.927314  1
