# generated using pymatgen
data_YEr2Th3Si4
_symmetry_space_group_name_H-M   'P 1'
_cell_length_a   7.59903791
_cell_length_b   7.59903791
_cell_length_c   4.25087200
_cell_angle_alpha   90.00000000
_cell_angle_beta   90.00000000
_cell_angle_gamma   90.51218527
_symmetry_Int_Tables_number   1
_chemical_formula_structural   YEr2Th3Si4
_chemical_formula_sum   'Y1 Er2 Th3 Si4'
_cell_volume   245.45839885
_cell_formula_units_Z   1
loop_
 _symmetry_equiv_pos_site_id
 _symmetry_equiv_pos_as_xyz
  1  'x, y, z'
loop_
 _atom_site_type_symbol
 _atom_site_label
 _atom_site_symmetry_multiplicity
 _atom_site_fract_x
 _atom_site_fract_y
 _atom_site_fract_z
 _atom_site_occupancy
  Y  Y0  1  0.675780  0.175780  0.500000  1
  Er  Er1  1  0.500802  0.501239  0.000000  1
  Er  Er2  1  0.001239  0.000802  0.000000  1
  Th  Th3  1  0.323692  0.823692  0.500000  1
  Th  Th4  1  0.177686  0.320437  0.500000  1
  Th  Th5  1  0.820437  0.677686  0.500000  1
  Si  Si6  1  0.117592  0.617592  0.000000  1
  Si  Si7  1  0.879723  0.379723  0.000000  1
  Si  Si8  1  0.618344  0.884707  0.000000  1
  Si  Si9  1  0.384707  0.118344  0.000000  1
