# generated using pymatgen
data_CaErPa2Ge6Ir7
_symmetry_space_group_name_H-M   'P 1'
_cell_length_a   7.29163864
_cell_length_b   7.29163751
_cell_length_c   7.29907675
_cell_angle_alpha   109.34289093
_cell_angle_beta   109.34287716
_cell_angle_gamma   109.55940145
_symmetry_Int_Tables_number   1
_chemical_formula_structural   CaErPa2Ge6Ir7
_chemical_formula_sum   'Ca1 Er1 Pa2 Ge6 Ir7'
_cell_volume   299.36050381
_cell_formula_units_Z   1
loop_
 _symmetry_equiv_pos_site_id
 _symmetry_equiv_pos_as_xyz
  1  'x, y, z'
loop_
 _atom_site_type_symbol
 _atom_site_label
 _atom_site_symmetry_multiplicity
 _atom_site_fract_x
 _atom_site_fract_y
 _atom_site_fract_z
 _atom_site_occupancy
  Ca  Ca0  1  0.000000  0.000000  0.500000  1
  Er  Er1  1  0.500000  0.500000  0.500000  1
  Pa  Pa2  1  0.000000  0.500000  0.000000  1
  Pa  Pa3  1  0.500000  0.000000  0.000000  1
  Ge  Ge4  1  0.684628  0.684628  0.001818  1
  Ge  Ge5  1  0.315949  0.005085  0.323220  1
  Ge  Ge6  1  0.005085  0.315949  0.323220  1
  Ge  Ge7  1  0.315372  0.315372  0.998182  1
  Ge  Ge8  1  0.684051  0.994915  0.676780  1
  Ge  Ge9  1  0.994915  0.684051  0.676780  1
  Ir  Ir10  1  0.748557  0.251443  0.500000  1
  Ir  Ir11  1  0.747784  0.491759  0.243711  1
  Ir  Ir12  1  0.508241  0.252216  0.756289  1
  Ir  Ir13  1  0.252216  0.508241  0.756289  1
  Ir  Ir14  1  0.251443  0.748557  0.500000  1
  Ir  Ir15  1  0.491759  0.747784  0.243711  1
  Ir  Ir16  1  0.000000  0.000000  0.000000  1
