# generated using pymatgen
data_Yb4TlSnPd10
_symmetry_space_group_name_H-M   'P 1'
_cell_length_a   4.28480200
_cell_length_b   5.79630846
_cell_length_c   11.40612000
_cell_angle_alpha   89.79676656
_cell_angle_beta   90.00000000
_cell_angle_gamma   90.00000000
_symmetry_Int_Tables_number   1
_chemical_formula_structural   Yb4TlSnPd10
_chemical_formula_sum   'Yb4 Tl1 Sn1 Pd10'
_cell_volume   283.28100316
_cell_formula_units_Z   1
loop_
 _symmetry_equiv_pos_site_id
 _symmetry_equiv_pos_as_xyz
  1  'x, y, z'
loop_
 _atom_site_type_symbol
 _atom_site_label
 _atom_site_symmetry_multiplicity
 _atom_site_fract_x
 _atom_site_fract_y
 _atom_site_fract_z
 _atom_site_occupancy
  Yb  Yb0  1  0.500000  0.304671  0.861596  1
  Yb  Yb1  1  0.500000  0.812064  0.638985  1
  Yb  Yb2  1  0.500000  0.695329  0.138404  1
  Yb  Yb3  1  0.500000  0.187936  0.361015  1
  Tl  Tl4  1  0.000000  0.000000  0.000000  1
  Sn  Sn5  1  0.000000  0.500000  0.500000  1
  Pd  Pd6  1  0.500000  0.699183  0.388336  1
  Pd  Pd7  1  0.500000  0.300817  0.611664  1
  Pd  Pd8  1  0.000000  0.057717  0.749239  1
  Pd  Pd9  1  0.500000  0.789567  0.882409  1
  Pd  Pd10  1  0.000000  0.444940  0.253639  1
  Pd  Pd11  1  0.000000  0.942283  0.250761  1
  Pd  Pd12  1  0.000000  0.555060  0.746361  1
  Pd  Pd13  1  0.000000  0.500000  0.000000  1
  Pd  Pd14  1  0.000000  0.000000  0.500000  1
  Pd  Pd15  1  0.500000  0.210433  0.117591  1
