# generated using pymatgen
data_Tb5Tm3Lu8(InRh)4
_symmetry_space_group_name_H-M   'P 1'
_cell_length_a   9.55548559
_cell_length_b   9.53752102
_cell_length_c   9.53605904
_cell_angle_alpha   60.19633451
_cell_angle_beta   59.95292389
_cell_angle_gamma   59.98240062
_symmetry_Int_Tables_number   1
_chemical_formula_structural   Tb5Tm3Lu8(InRh)4
_chemical_formula_sum   'Tb5 Tm3 Lu8 In4 Rh4'
_cell_volume   615.13342641
_cell_formula_units_Z   1
loop_
 _symmetry_equiv_pos_site_id
 _symmetry_equiv_pos_as_xyz
  1  'x, y, z'
loop_
 _atom_site_type_symbol
 _atom_site_label
 _atom_site_symmetry_multiplicity
 _atom_site_fract_x
 _atom_site_fract_y
 _atom_site_fract_z
 _atom_site_occupancy
  Tb  Tb0  1  0.062492  0.063460  0.435303  1
  Tb  Tb1  1  0.435846  0.064651  0.434109  1
  Tb  Tb2  1  0.062882  0.434974  0.063569  1
  Tb  Tb3  1  0.049897  0.650221  0.650266  1
  Tb  Tb4  1  0.435485  0.434019  0.064869  1
  Tm  Tm5  1  0.189005  0.813435  0.813097  1
  Tm  Tm6  1  0.650260  0.644927  0.050436  1
  Tm  Tm7  1  0.649346  0.653725  0.653958  1
  Lu  Lu8  1  0.650302  0.049702  0.645203  1
  Lu  Lu9  1  0.188443  0.812604  0.188470  1
  Lu  Lu10  1  0.188992  0.188690  0.812040  1
  Lu  Lu11  1  0.809954  0.811291  0.190684  1
  Lu  Lu12  1  0.443466  0.054450  0.054250  1
  Lu  Lu13  1  0.813485  0.187384  0.187658  1
  Lu  Lu14  1  0.057219  0.441832  0.441690  1
  Lu  Lu15  1  0.809725  0.191155  0.810510  1
  In  In16  1  0.418105  0.416476  0.417031  1
  In  In17  1  0.749649  0.417748  0.417768  1
  In  In18  1  0.419568  0.747322  0.417072  1
  In  In19  1  0.419459  0.416091  0.747990  1
  Rh  Rh20  1  0.859414  0.857754  0.423693  1
  Rh  Rh21  1  0.850629  0.863266  0.861292  1
  Rh  Rh22  1  0.426562  0.861898  0.861841  1
  Rh  Rh23  1  0.859814  0.422928  0.857201  1
