# generated using pymatgen
data_Rb2WF7
_symmetry_space_group_name_H-M   'P 1'
_cell_length_a   6.16034600
_cell_length_b   6.12731000
_cell_length_c   10.47143900
_cell_angle_alpha   90.00000000
_cell_angle_beta   90.00000000
_cell_angle_gamma   90.00000000
_symmetry_Int_Tables_number   1
_chemical_formula_structural   Rb2WF7
_chemical_formula_sum   'Rb4 W2 F14'
_cell_volume   395.25859782
_cell_formula_units_Z   2
loop_
 _symmetry_equiv_pos_site_id
 _symmetry_equiv_pos_as_xyz
  1  'x, y, z'
loop_
 _atom_site_type_symbol
 _atom_site_label
 _atom_site_symmetry_multiplicity
 _atom_site_fract_x
 _atom_site_fract_y
 _atom_site_fract_z
 _atom_site_occupancy
  Rb  Rb0  1  0.000000  0.500000  0.352000  1
  Rb  Rb1  1  0.500000  0.000000  0.648000  1
  Rb  Rb2  1  0.500000  0.500000  0.997118  1
  Rb  Rb3  1  0.000000  0.000000  0.002882  1
  W  W4  1  0.000000  0.500000  0.757560  1
  W  W5  1  0.500000  0.000000  0.242440  1
  F  F6  1  0.212862  0.262348  0.799537  1
  F  F7  1  0.287138  0.237652  0.200463  1
  F  F8  1  0.712862  0.762348  0.200463  1
  F  F9  1  0.787138  0.737652  0.799537  1
  F  F10  1  0.212862  0.737652  0.799537  1
  F  F11  1  0.712862  0.237652  0.200463  1
  F  F12  1  0.287138  0.762348  0.200463  1
  F  F13  1  0.787138  0.262348  0.799537  1
  F  F14  1  0.000000  0.500000  0.949288  1
  F  F15  1  0.500000  0.000000  0.050712  1
  F  F16  1  0.190509  0.500000  0.604464  1
  F  F17  1  0.809491  0.500000  0.604464  1
  F  F18  1  0.309491  0.000000  0.395536  1
  F  F19  1  0.690509  0.000000  0.395536  1
