# generated using pymatgen
data_Dy4Sc3Cr4B24W
_symmetry_space_group_name_H-M   'P 1'
_cell_length_a   3.43952800
_cell_length_b   8.96275015
_cell_length_c   11.33835820
_cell_angle_alpha   89.97874333
_cell_angle_beta   90.00000000
_cell_angle_gamma   90.00000000
_symmetry_Int_Tables_number   1
_chemical_formula_structural   Dy4Sc3Cr4B24W
_chemical_formula_sum   'Dy4 Sc3 Cr4 B24 W1'
_cell_volume   349.53468846
_cell_formula_units_Z   1
loop_
 _symmetry_equiv_pos_site_id
 _symmetry_equiv_pos_as_xyz
  1  'x, y, z'
loop_
 _atom_site_type_symbol
 _atom_site_label
 _atom_site_symmetry_multiplicity
 _atom_site_fract_x
 _atom_site_fract_y
 _atom_site_fract_z
 _atom_site_occupancy
  Dy  Dy0  1  0.000000  0.822617  0.084974  1
  Dy  Dy1  1  0.000000  0.178364  0.914860  1
  Dy  Dy2  1  0.000000  0.321972  0.414639  1
  Dy  Dy3  1  0.000000  0.676945  0.585220  1
  Sc  Sc4  1  0.000000  0.555203  0.872451  1
  Sc  Sc5  1  0.000000  0.944150  0.368914  1
  Sc  Sc6  1  0.000000  0.055721  0.629801  1
  Cr  Cr7  1  0.000000  0.148756  0.181265  1
  Cr  Cr8  1  0.000000  0.856898  0.819494  1
  Cr  Cr9  1  0.000000  0.637095  0.312008  1
  Cr  Cr10  1  0.000000  0.358442  0.684015  1
  B  B11  1  0.500000  0.056844  0.067754  1
  B  B12  1  0.500000  0.946101  0.932484  1
  B  B13  1  0.500000  0.554391  0.431484  1
  B  B14  1  0.500000  0.445095  0.568664  1
  B  B15  1  0.500000  0.256580  0.082223  1
  B  B16  1  0.500000  0.746766  0.917785  1
  B  B17  1  0.500000  0.751727  0.415728  1
  B  B18  1  0.500000  0.246822  0.583628  1
  B  B19  1  0.500000  0.296689  0.236006  1
  B  B20  1  0.500000  0.704887  0.765103  1
  B  B21  1  0.500000  0.794809  0.263322  1
  B  B22  1  0.500000  0.204714  0.735886  1
  B  B23  1  0.500000  0.130222  0.316585  1
  B  B24  1  0.500000  0.869608  0.683659  1
  B  B25  1  0.500000  0.627465  0.181312  1
  B  B26  1  0.500000  0.370555  0.816927  1
  B  B27  1  0.500000  0.480566  0.286120  1
  B  B28  1  0.500000  0.517843  0.714344  1
  B  B29  1  0.500000  0.984403  0.212688  1
  B  B30  1  0.500000  0.016915  0.786280  1
  B  B31  1  0.500000  0.096518  0.473729  1
  B  B32  1  0.500000  0.901919  0.525169  1
  B  B33  1  0.500000  0.595419  0.028702  1
  B  B34  1  0.500000  0.402174  0.977201  1
  W  W35  1  0.000000  0.444804  0.129577  1
