# generated using pymatgen
data_Ta5Si2B
_symmetry_space_group_name_H-M   'P 1'
_cell_length_a   6.39453614
_cell_length_b   6.40825951
_cell_length_c   7.43487544
_cell_angle_alpha   115.52845729
_cell_angle_beta   115.46988684
_cell_angle_gamma   90.00000367
_symmetry_Int_Tables_number   1
_chemical_formula_structural   Ta5Si2B
_chemical_formula_sum   'Ta10 Si4 B2'
_cell_volume   241.69427488
_cell_formula_units_Z   2
loop_
 _symmetry_equiv_pos_site_id
 _symmetry_equiv_pos_as_xyz
  1  'x, y, z'
loop_
 _atom_site_type_symbol
 _atom_site_label
 _atom_site_symmetry_multiplicity
 _atom_site_fract_x
 _atom_site_fract_y
 _atom_site_fract_z
 _atom_site_occupancy
  Ta  Ta0  1  0.995208  0.007837  0.000000  1
  Ta  Ta1  1  0.495208  0.492163  0.000000  1
  Ta  Ta2  1  0.474995  0.318194  0.285828  1
  Ta  Ta3  1  0.974995  0.467635  0.285828  1
  Ta  Ta4  1  0.314212  0.805309  0.295251  1
  Ta  Ta5  1  0.814211  0.989942  0.295251  1
  Ta  Ta6  1  0.189166  0.032365  0.714171  1
  Ta  Ta7  1  0.689166  0.181806  0.714171  1
  Ta  Ta8  1  0.018960  0.510058  0.704748  1
  Ta  Ta9  1  0.518960  0.694690  0.704748  1
  Si  Si10  1  0.876837  0.622108  0.000000  1
  Si  Si11  1  0.376836  0.877892  0.000000  1
  Si  Si12  1  0.256077  0.250000  0.500000  1
  Si  Si13  1  0.756078  0.750001  0.500000  1
  B  B14  1  0.624545  0.126240  0.000000  1
  B  B15  1  0.124546  0.373760  0.000000  1
