# generated using pymatgen
data_SrLa5NdOsI12
_symmetry_space_group_name_H-M   'P 1'
_cell_length_a   10.14129411
_cell_length_b   10.25186939
_cell_length_c   10.13849158
_cell_angle_alpha   106.66542334
_cell_angle_beta   106.48535590
_cell_angle_gamma   106.28121806
_symmetry_Int_Tables_number   1
_chemical_formula_structural   SrLa5NdOsI12
_chemical_formula_sum   'Sr1 La5 Nd1 Os1 I12'
_cell_volume   890.05198421
_cell_formula_units_Z   1
loop_
 _symmetry_equiv_pos_site_id
 _symmetry_equiv_pos_as_xyz
  1  'x, y, z'
loop_
 _atom_site_type_symbol
 _atom_site_label
 _atom_site_symmetry_multiplicity
 _atom_site_fract_x
 _atom_site_fract_y
 _atom_site_fract_z
 _atom_site_occupancy
  Sr  Sr0  1  0.499625  0.500035  0.499325  1
  La  La1  1  0.296654  0.022404  0.096818  1
  La  La2  1  0.022943  0.097906  0.297769  1
  La  La3  1  0.977658  0.904023  0.702818  1
  La  La4  1  0.703490  0.977747  0.903156  1
  La  La5  1  0.898157  0.687004  0.976880  1
  Nd  Nd6  1  0.100924  0.307798  0.023554  1
  Os  Os7  1  0.000136  0.000203  0.000410  1
  I  I8  1  0.226547  0.678797  0.073771  1
  I  I9  1  0.452434  0.373575  0.144965  1
  I  I10  1  0.678637  0.074165  0.226849  1
  I  I11  1  0.927190  0.776549  0.322181  1
  I  I12  1  0.146284  0.454981  0.371063  1
  I  I13  1  0.376837  0.150660  0.458394  1
  I  I14  1  0.623208  0.849735  0.541775  1
  I  I15  1  0.853020  0.544911  0.624252  1
  I  I16  1  0.074076  0.226932  0.682983  1
  I  I17  1  0.321516  0.926148  0.773203  1
  I  I18  1  0.542981  0.626475  0.852513  1
  I  I19  1  0.777683  0.319952  0.927322  1
