# generated using pymatgen
data_YbAlCuAu4
_symmetry_space_group_name_H-M   'P 1'
_cell_length_a   5.57449984
_cell_length_b   5.57449936
_cell_length_c   5.57450014
_cell_angle_alpha   103.22670936
_cell_angle_beta   103.22671054
_cell_angle_gamma   122.84652482
_symmetry_Int_Tables_number   1
_chemical_formula_structural   YbAlCuAu4
_chemical_formula_sum   'Yb1 Al1 Cu1 Au4'
_cell_volume   127.80403183
_cell_formula_units_Z   1
loop_
 _symmetry_equiv_pos_site_id
 _symmetry_equiv_pos_as_xyz
  1  'x, y, z'
loop_
 _atom_site_type_symbol
 _atom_site_label
 _atom_site_symmetry_multiplicity
 _atom_site_fract_x
 _atom_site_fract_y
 _atom_site_fract_z
 _atom_site_occupancy
  Yb  Yb0  1  0.000000  0.000000  0.000000  1
  Al  Al1  1  0.250000  0.750000  0.500000  1
  Cu  Cu2  1  0.750000  0.250000  0.500000  1
  Au  Au3  1  0.703740  0.296260  0.000000  1
  Au  Au4  1  0.296260  0.703740  0.000000  1
  Au  Au5  1  0.296260  0.296260  0.592520  1
  Au  Au6  1  0.703740  0.703740  0.407480  1
