# generated using pymatgen
data_Nb3VNi3B7
_symmetry_space_group_name_H-M   'P 1'
_cell_length_a   9.36967185
_cell_length_b   9.36967202
_cell_length_c   9.02578401
_cell_angle_alpha   90.00694063
_cell_angle_beta   89.99305842
_cell_angle_gamma   159.94733854
_symmetry_Int_Tables_number   1
_chemical_formula_structural   Nb3VNi3B7
_chemical_formula_sum   'Nb6 V2 Ni6 B14'
_cell_volume   271.69429808
_cell_formula_units_Z   2
loop_
 _symmetry_equiv_pos_site_id
 _symmetry_equiv_pos_as_xyz
  1  'x, y, z'
loop_
 _atom_site_type_symbol
 _atom_site_label
 _atom_site_symmetry_multiplicity
 _atom_site_fract_x
 _atom_site_fract_y
 _atom_site_fract_z
 _atom_site_occupancy
  Nb  Nb0  1  0.699304  0.300697  0.250021  1
  Nb  Nb1  1  0.300691  0.699307  0.749976  1
  Nb  Nb2  1  0.582868  0.417133  0.554508  1
  Nb  Nb3  1  0.417135  0.582865  0.445469  1
  Nb  Nb4  1  0.417140  0.582861  0.054497  1
  Nb  Nb5  1  0.582852  0.417148  0.945494  1
  V  V6  1  0.542087  0.457912  0.250001  1
  V  V7  1  0.457911  0.542087  0.750011  1
  Ni  Ni8  1  0.845617  0.154384  0.249990  1
  Ni  Ni9  1  0.154384  0.845616  0.749985  1
  Ni  Ni10  1  0.800109  0.199892  0.501854  1
  Ni  Ni11  1  0.199918  0.800082  0.498273  1
  Ni  Ni12  1  0.199950  0.800050  0.001764  1
  Ni  Ni13  1  0.800041  0.199958  0.998190  1
  B  B14  1  0.956061  0.043939  0.250000  1
  B  B15  1  0.043932  0.956068  0.749992  1
  B  B16  1  0.888293  0.111706  0.648463  1
  B  B17  1  0.111715  0.888287  0.351548  1
  B  B18  1  0.111719  0.888281  0.148441  1
  B  B19  1  0.888281  0.111718  0.851557  1
  B  B20  1  0.710394  0.289607  0.648533  1
  B  B21  1  0.289607  0.710394  0.351485  1
  B  B22  1  0.289589  0.710411  0.148527  1
  B  B23  1  0.710403  0.289596  0.851456  1
  B  B24  1  0.984965  0.015035  0.590598  1
  B  B25  1  0.015037  0.984963  0.409385  1
  B  B26  1  0.015037  0.984963  0.090601  1
  B  B27  1  0.984955  0.015044  0.909381  1
