# generated using pymatgen
data_Nb11Al8V(PtC)4
_symmetry_space_group_name_H-M   'P 1'
_cell_length_a   8.37551604
_cell_length_b   8.37551699
_cell_length_c   8.37153100
_cell_angle_alpha   60.01573775
_cell_angle_beta   60.01573401
_cell_angle_gamma   59.57033371
_symmetry_Int_Tables_number   1
_chemical_formula_structural   Nb11Al8V(PtC)4
_chemical_formula_sum   'Nb11 Al8 V1 Pt4 C4'
_cell_volume   413.98591758
_cell_formula_units_Z   1
loop_
 _symmetry_equiv_pos_site_id
 _symmetry_equiv_pos_as_xyz
  1  'x, y, z'
loop_
 _atom_site_type_symbol
 _atom_site_label
 _atom_site_symmetry_multiplicity
 _atom_site_fract_x
 _atom_site_fract_y
 _atom_site_fract_z
 _atom_site_occupancy
  Nb  Nb0  1  0.685494  0.314567  0.317298  1
  Nb  Nb1  1  0.314567  0.685494  0.682642  1
  Nb  Nb2  1  0.684040  0.684040  0.315960  1
  Nb  Nb3  1  0.685494  0.314567  0.682642  1
  Nb  Nb4  1  0.314567  0.685494  0.317298  1
  Nb  Nb5  1  0.567838  0.932887  0.567583  1
  Nb  Nb6  1  0.567838  0.932887  0.931693  1
  Nb  Nb7  1  0.932887  0.567838  0.567583  1
  Nb  Nb8  1  0.932887  0.567838  0.931693  1
  Nb  Nb9  1  0.317850  0.317850  0.682150  1
  Nb  Nb10  1  0.565407  0.565407  0.934593  1
  Al  Al11  1  0.915829  0.253441  0.915365  1
  Al  Al12  1  0.334688  0.334688  0.995992  1
  Al  Al13  1  0.997536  0.332968  0.334747  1
  Al  Al14  1  0.334688  0.334688  0.334629  1
  Al  Al15  1  0.253441  0.915829  0.915365  1
  Al  Al16  1  0.916893  0.916893  0.909169  1
  Al  Al17  1  0.916893  0.916893  0.257045  1
  Al  Al18  1  0.332968  0.997536  0.334747  1
  V  V19  1  0.924919  0.924919  0.575081  1
  Pt  Pt20  1  0.123470  0.626399  0.125066  1
  Pt  Pt21  1  0.125161  0.125161  0.624340  1
  Pt  Pt22  1  0.626399  0.123470  0.125066  1
  Pt  Pt23  1  0.125161  0.125161  0.125336  1
  C  C24  1  0.634725  0.119524  0.622875  1
  C  C25  1  0.624416  0.624416  0.125892  1
  C  C26  1  0.119524  0.634725  0.622875  1
  C  C27  1  0.624416  0.624416  0.625276  1
