# generated using pymatgen
data_K7Zr(SeO4)6
_symmetry_space_group_name_H-M   'P 1'
_cell_length_a   9.82510058
_cell_length_b   9.82509962
_cell_length_c   9.82510000
_cell_angle_alpha   109.23839109
_cell_angle_beta   109.23839581
_cell_angle_gamma   109.23837964
_symmetry_Int_Tables_number   1
_chemical_formula_structural   K7Zr(SeO4)6
_chemical_formula_sum   'K7 Zr1 Se6 O24'
_cell_volume   736.33784995
_cell_formula_units_Z   1
loop_
 _symmetry_equiv_pos_site_id
 _symmetry_equiv_pos_as_xyz
  1  'x, y, z'
loop_
 _atom_site_type_symbol
 _atom_site_label
 _atom_site_symmetry_multiplicity
 _atom_site_fract_x
 _atom_site_fract_y
 _atom_site_fract_z
 _atom_site_occupancy
  K  K0  1  0.500000  0.500000  0.500000  1
  K  K1  1  0.664234  0.163053  0.323329  1
  K  K2  1  0.323329  0.664234  0.163053  1
  K  K3  1  0.163053  0.323329  0.664234  1
  K  K4  1  0.335766  0.836947  0.676671  1
  K  K5  1  0.676671  0.335766  0.836947  1
  K  K6  1  0.836947  0.676671  0.335766  1
  Zr  Zr7  1  0.000000  0.000000  0.000000  1
  Se  Se8  1  0.257116  0.032404  0.387492  1
  Se  Se9  1  0.387492  0.257116  0.032404  1
  Se  Se10  1  0.032404  0.387492  0.257116  1
  Se  Se11  1  0.742884  0.967596  0.612508  1
  Se  Se12  1  0.612508  0.742884  0.967596  1
  Se  Se13  1  0.967596  0.612508  0.742884  1
  O  O14  1  0.097651  0.556288  0.832544  1
  O  O15  1  0.832544  0.097651  0.556288  1
  O  O16  1  0.556288  0.832544  0.097651  1
  O  O17  1  0.902349  0.443712  0.167456  1
  O  O18  1  0.167456  0.902349  0.443712  1
  O  O19  1  0.443712  0.167456  0.902349  1
  O  O20  1  0.020533  0.688324  0.629096  1
  O  O21  1  0.629096  0.020533  0.688324  1
  O  O22  1  0.688324  0.629096  0.020533  1
  O  O23  1  0.979467  0.311676  0.370904  1
  O  O24  1  0.370904  0.979467  0.311676  1
  O  O25  1  0.311676  0.370904  0.979467  1
  O  O26  1  0.024811  0.237492  0.099112  1
  O  O27  1  0.099112  0.024811  0.237492  1
  O  O28  1  0.542635  0.365332  0.227312  1
  O  O29  1  0.365332  0.227312  0.542635  1
  O  O30  1  0.227312  0.542635  0.365332  1
  O  O31  1  0.457365  0.634668  0.772688  1
  O  O32  1  0.634668  0.772688  0.457365  1
  O  O33  1  0.772688  0.457365  0.634668  1
  O  O34  1  0.762508  0.900888  0.975189  1
  O  O35  1  0.900888  0.975189  0.762508  1
  O  O36  1  0.975189  0.762508  0.900888  1
  O  O37  1  0.237492  0.099112  0.024811  1
