# generated using pymatgen
data_La2LuTh(Re2Si)8
_symmetry_space_group_name_H-M   'P 1'
_cell_length_a   4.17031500
_cell_length_b   7.30570627
_cell_length_c   15.59855731
_cell_angle_alpha   90.24670066
_cell_angle_beta   90.00000000
_cell_angle_gamma   90.00000000
_symmetry_Int_Tables_number   1
_chemical_formula_structural   La2LuTh(Re2Si)8
_chemical_formula_sum   'La2 Lu1 Th1 Re16 Si8'
_cell_volume   475.23834470
_cell_formula_units_Z   1
loop_
 _symmetry_equiv_pos_site_id
 _symmetry_equiv_pos_as_xyz
  1  'x, y, z'
loop_
 _atom_site_type_symbol
 _atom_site_label
 _atom_site_symmetry_multiplicity
 _atom_site_fract_x
 _atom_site_fract_y
 _atom_site_fract_z
 _atom_site_occupancy
  La  La0  1  0.500000  0.080218  0.378694  1
  La  La1  1  0.500000  0.915585  0.617881  1
  Lu  Lu2  1  0.000000  0.585537  0.118182  1
  Th  Th3  1  0.000000  0.419394  0.884189  1
  Re  Re4  1  0.000000  0.152929  0.052833  1
  Re  Re5  1  0.000000  0.864860  0.952158  1
  Re  Re6  1  0.500000  0.634822  0.447011  1
  Re  Re7  1  0.500000  0.360930  0.551657  1
  Re  Re8  1  0.000000  0.732162  0.317962  1
  Re  Re9  1  0.000000  0.264243  0.680561  1
  Re  Re10  1  0.500000  0.241957  0.176336  1
  Re  Re11  1  0.500000  0.762445  0.823597  1
  Re  Re12  1  0.000000  0.431686  0.417543  1
  Re  Re13  1  0.000000  0.563498  0.580282  1
  Re  Re14  1  0.500000  0.935132  0.083753  1
  Re  Re15  1  0.500000  0.073163  0.922471  1
  Re  Re16  1  0.000000  0.988242  0.202720  1
  Re  Re17  1  0.000000  0.001846  0.796016  1
  Re  Re18  1  0.500000  0.495129  0.291527  1
  Re  Re19  1  0.500000  0.499989  0.708091  1
  Si  Si20  1  0.000000  0.824495  0.473679  1
  Si  Si21  1  0.000000  0.171583  0.524100  1
  Si  Si22  1  0.500000  0.341505  0.025986  1
  Si  Si23  1  0.500000  0.674401  0.979139  1
  Si  Si24  1  0.000000  0.298400  0.268936  1
  Si  Si25  1  0.000000  0.700097  0.726489  1
  Si  Si26  1  0.500000  0.788494  0.222940  1
  Si  Si27  1  0.500000  0.197258  0.775266  1
