# generated using pymatgen
data_Sc3NiSn3Rh2
_symmetry_space_group_name_H-M   'P 1'
_cell_length_a   7.56118300
_cell_length_b   7.56118363
_cell_length_c   3.36942600
_cell_angle_alpha   90.00000000
_cell_angle_beta   90.00000000
_cell_angle_gamma   120.00000162
_symmetry_Int_Tables_number   1
_chemical_formula_structural   Sc3NiSn3Rh2
_chemical_formula_sum   'Sc3 Ni1 Sn3 Rh2'
_cell_volume   166.82690088
_cell_formula_units_Z   1
loop_
 _symmetry_equiv_pos_site_id
 _symmetry_equiv_pos_as_xyz
  1  'x, y, z'
loop_
 _atom_site_type_symbol
 _atom_site_label
 _atom_site_symmetry_multiplicity
 _atom_site_fract_x
 _atom_site_fract_y
 _atom_site_fract_z
 _atom_site_occupancy
  Sc  Sc0  1  0.604099  0.000000  0.000000  1
  Sc  Sc1  1  0.000000  0.604099  0.000000  1
  Sc  Sc2  1  0.395901  0.395901  0.000000  1
  Ni  Ni3  1  0.000000  0.000000  0.000000  1
  Sn  Sn4  1  0.268171  0.000000  0.500000  1
  Sn  Sn5  1  0.000000  0.268171  0.500000  1
  Sn  Sn6  1  0.731829  0.731829  0.500000  1
  Rh  Rh7  1  0.333333  0.666667  0.500000  1
  Rh  Rh8  1  0.666667  0.333333  0.500000  1
