# generated using pymatgen
data_Tm4MnAl3O14
_symmetry_space_group_name_H-M   'P 1'
_cell_length_a   6.99094528
_cell_length_b   6.99094551
_cell_length_c   7.01524501
_cell_angle_alpha   60.11451583
_cell_angle_beta   60.11451103
_cell_angle_gamma   59.99999880
_symmetry_Int_Tables_number   1
_chemical_formula_structural   Tm4MnAl3O14
_chemical_formula_sum   'Tm4 Mn1 Al3 O14'
_cell_volume   242.85620477
_cell_formula_units_Z   1
loop_
 _symmetry_equiv_pos_site_id
 _symmetry_equiv_pos_as_xyz
  1  'x, y, z'
loop_
 _atom_site_type_symbol
 _atom_site_label
 _atom_site_symmetry_multiplicity
 _atom_site_fract_x
 _atom_site_fract_y
 _atom_site_fract_z
 _atom_site_occupancy
  Tm  Tm0  1  0.125000  0.625000  0.125000  1
  Tm  Tm1  1  0.125000  0.125000  0.625000  1
  Tm  Tm2  1  0.625000  0.125000  0.125000  1
  Tm  Tm3  1  0.125000  0.125000  0.125000  1
  Mn  Mn4  1  0.625000  0.625000  0.125000  1
  Al  Al5  1  0.625000  0.625000  0.625000  1
  Al  Al6  1  0.125000  0.625000  0.625000  1
  Al  Al7  1  0.625000  0.125000  0.625000  1
  O  O8  1  0.293446  0.705484  0.707623  1
  O  O9  1  0.543344  0.958285  0.955026  1
  O  O10  1  0.706656  0.706656  0.294974  1
  O  O11  1  0.293446  0.293446  0.707623  1
  O  O12  1  0.999978  0.999978  0.000067  1
  O  O13  1  0.291715  0.706656  0.294974  1
  O  O14  1  0.705484  0.293446  0.707623  1
  O  O15  1  0.958285  0.543344  0.955026  1
  O  O16  1  0.543344  0.543344  0.955026  1
  O  O17  1  0.956554  0.956554  0.542377  1
  O  O18  1  0.250022  0.250022  0.249933  1
  O  O19  1  0.544516  0.956554  0.542377  1
  O  O20  1  0.706656  0.291715  0.294974  1
  O  O21  1  0.956554  0.544516  0.542377  1
