# generated using pymatgen
data_Dy2Y(TmFe6)3
_symmetry_space_group_name_H-M   'P 1'
_cell_length_a   5.09258600
_cell_length_b   5.09258613
_cell_length_c   16.09104000
_cell_angle_alpha   90.00000000
_cell_angle_beta   90.00000000
_cell_angle_gamma   119.99999914
_symmetry_Int_Tables_number   1
_chemical_formula_structural   Dy2Y(TmFe6)3
_chemical_formula_sum   'Dy2 Y1 Tm3 Fe18'
_cell_volume   361.40279319
_cell_formula_units_Z   1
loop_
 _symmetry_equiv_pos_site_id
 _symmetry_equiv_pos_as_xyz
  1  'x, y, z'
loop_
 _atom_site_type_symbol
 _atom_site_label
 _atom_site_symmetry_multiplicity
 _atom_site_fract_x
 _atom_site_fract_y
 _atom_site_fract_z
 _atom_site_occupancy
  Dy  Dy0  1  0.333333  0.666667  0.536790  1
  Dy  Dy1  1  0.333333  0.666667  0.750772  1
  Y  Y2  1  0.666667  0.333333  0.249602  1
  Tm  Tm3  1  0.333333  0.666667  0.963479  1
  Tm  Tm4  1  0.666667  0.333333  0.036880  1
  Tm  Tm5  1  0.666667  0.333333  0.462663  1
  Fe  Fe6  1  0.166936  0.833064  0.372727  1
  Fe  Fe7  1  0.166936  0.333872  0.372727  1
  Fe  Fe8  1  0.666128  0.833064  0.372727  1
  Fe  Fe9  1  0.833123  0.166877  0.627321  1
  Fe  Fe10  1  0.833123  0.666244  0.627321  1
  Fe  Fe11  1  0.333756  0.166877  0.627321  1
  Fe  Fe12  1  0.832821  0.167179  0.873605  1
  Fe  Fe13  1  0.832821  0.665641  0.873605  1
  Fe  Fe14  1  0.334359  0.167179  0.873605  1
  Fe  Fe15  1  0.167173  0.832827  0.126347  1
  Fe  Fe16  1  0.167173  0.334347  0.126347  1
  Fe  Fe17  1  0.665653  0.832827  0.126347  1
  Fe  Fe18  1  0.333333  0.666667  0.249624  1
  Fe  Fe19  1  0.666667  0.333333  0.750311  1
  Fe  Fe20  1  0.000000  0.000000  0.249581  1
  Fe  Fe21  1  0.000000  0.000000  0.750458  1
  Fe  Fe22  1  0.000000  0.000000  0.499757  1
  Fe  Fe23  1  0.000000  0.000000  0.000086  1
