# generated using pymatgen
data_Ca4Pr3Nd3Ir4
_symmetry_space_group_name_H-M   'P 1'
_cell_length_a   8.82651730
_cell_length_b   8.83734426
_cell_length_c   7.45901674
_cell_angle_alpha   83.37730186
_cell_angle_beta   83.26782861
_cell_angle_gamma   44.86315646
_symmetry_Int_Tables_number   1
_chemical_formula_structural   Ca4Pr3Nd3Ir4
_chemical_formula_sum   'Ca4 Pr3 Nd3 Ir4'
_cell_volume   407.16718669
_cell_formula_units_Z   1
loop_
 _symmetry_equiv_pos_site_id
 _symmetry_equiv_pos_as_xyz
  1  'x, y, z'
loop_
 _atom_site_type_symbol
 _atom_site_label
 _atom_site_symmetry_multiplicity
 _atom_site_fract_x
 _atom_site_fract_y
 _atom_site_fract_z
 _atom_site_occupancy
  Ca  Ca0  1  0.016753  0.800541  0.917428  1
  Ca  Ca1  1  0.199251  0.983786  0.582550  1
  Ca  Ca2  1  0.983568  0.199323  0.082975  1
  Ca  Ca3  1  0.800466  0.016702  0.417129  1
  Pr  Pr4  1  0.347366  0.212395  0.815555  1
  Pr  Pr5  1  0.788190  0.652160  0.684139  1
  Pr  Pr6  1  0.652063  0.788142  0.184775  1
  Nd  Nd7  1  0.212400  0.348192  0.315978  1
  Nd  Nd8  1  0.565365  0.434667  0.749981  1
  Nd  Nd9  1  0.434458  0.565023  0.249932  1
  Ir  Ir10  1  0.185200  0.587286  0.570922  1
  Ir  Ir11  1  0.411846  0.814711  0.928115  1
  Ir  Ir12  1  0.816079  0.411549  0.427899  1
  Ir  Ir13  1  0.586994  0.185520  0.072624  1
