# generated using pymatgen
data_Zr5Ta(Si2Ru5)2
_symmetry_space_group_name_H-M   'P 1'
_cell_length_a   9.79503900
_cell_length_b   9.79503900
_cell_length_c   3.32344500
_cell_angle_alpha   90.00000000
_cell_angle_beta   90.00000000
_cell_angle_gamma   90.00000000
_symmetry_Int_Tables_number   1
_chemical_formula_structural   Zr5Ta(Si2Ru5)2
_chemical_formula_sum   'Zr5 Ta1 Si4 Ru10'
_cell_volume   318.86058243
_cell_formula_units_Z   1
loop_
 _symmetry_equiv_pos_site_id
 _symmetry_equiv_pos_as_xyz
  1  'x, y, z'
loop_
 _atom_site_type_symbol
 _atom_site_label
 _atom_site_symmetry_multiplicity
 _atom_site_fract_x
 _atom_site_fract_y
 _atom_site_fract_z
 _atom_site_occupancy
  Zr  Zr0  1  0.826959  0.672750  0.000000  1
  Zr  Zr1  1  0.173041  0.327250  0.000000  1
  Zr  Zr2  1  0.327250  0.826959  0.000000  1
  Zr  Zr3  1  0.672750  0.173041  0.000000  1
  Zr  Zr4  1  0.500000  0.500000  0.000000  1
  Ta  Ta5  1  0.000000  0.000000  0.000000  1
  Si  Si6  1  0.624429  0.876657  0.000000  1
  Si  Si7  1  0.375571  0.123343  0.000000  1
  Si  Si8  1  0.123343  0.624429  0.000000  1
  Si  Si9  1  0.876657  0.375571  0.000000  1
  Ru  Ru10  1  0.572936  0.713273  0.500000  1
  Ru  Ru11  1  0.427064  0.286727  0.500000  1
  Ru  Ru12  1  0.066993  0.791753  0.500000  1
  Ru  Ru13  1  0.933007  0.208247  0.500000  1
  Ru  Ru14  1  0.286727  0.572936  0.500000  1
  Ru  Ru15  1  0.713273  0.427064  0.500000  1
  Ru  Ru16  1  0.208247  0.066993  0.500000  1
  Ru  Ru17  1  0.791753  0.933007  0.500000  1
  Ru  Ru18  1  0.500000  0.000000  0.500000  1
  Ru  Ru19  1  0.000000  0.500000  0.500000  1
