# generated using pymatgen
data_TiNb8CoSe16
_symmetry_space_group_name_H-M   'P 1'
_cell_length_a   6.99208300
_cell_length_b   6.99208195
_cell_length_c   12.79140300
_cell_angle_alpha   90.00000000
_cell_angle_beta   90.00000000
_cell_angle_gamma   120.00000971
_symmetry_Int_Tables_number   1
_chemical_formula_structural   TiNb8CoSe16
_chemical_formula_sum   'Ti1 Nb8 Co1 Se16'
_cell_volume   541.57904944
_cell_formula_units_Z   1
loop_
 _symmetry_equiv_pos_site_id
 _symmetry_equiv_pos_as_xyz
  1  'x, y, z'
loop_
 _atom_site_type_symbol
 _atom_site_label
 _atom_site_symmetry_multiplicity
 _atom_site_fract_x
 _atom_site_fract_y
 _atom_site_fract_z
 _atom_site_occupancy
  Ti  Ti0  1  0.000000  0.000000  0.500000  1
  Nb  Nb1  1  0.000000  0.000000  0.247311  1
  Nb  Nb2  1  0.000000  0.000000  0.752689  1
  Nb  Nb3  1  0.507196  0.014393  0.246764  1
  Nb  Nb4  1  0.985607  0.492804  0.246764  1
  Nb  Nb5  1  0.507196  0.492804  0.246764  1
  Nb  Nb6  1  0.492804  0.985607  0.753236  1
  Nb  Nb7  1  0.014393  0.507196  0.753236  1
  Nb  Nb8  1  0.492804  0.507196  0.753236  1
  Co  Co9  1  0.000000  0.000000  0.000000  1
  Se  Se10  1  0.333333  0.666667  0.887563  1
  Se  Se11  1  0.666667  0.333333  0.112437  1
  Se  Se12  1  0.666667  0.333333  0.382323  1
  Se  Se13  1  0.333333  0.666667  0.617677  1
  Se  Se14  1  0.168364  0.831636  0.378236  1
  Se  Se15  1  0.168364  0.336728  0.378236  1
  Se  Se16  1  0.663272  0.831636  0.378236  1
  Se  Se17  1  0.831636  0.168364  0.621764  1
  Se  Se18  1  0.831636  0.663272  0.621764  1
  Se  Se19  1  0.336728  0.168364  0.621764  1
  Se  Se20  1  0.832351  0.167649  0.882646  1
  Se  Se21  1  0.832351  0.664702  0.882646  1
  Se  Se22  1  0.335298  0.167649  0.882646  1
  Se  Se23  1  0.167649  0.832351  0.117354  1
  Se  Se24  1  0.167649  0.335298  0.117354  1
  Se  Se25  1  0.664702  0.832351  0.117354  1
