# generated using pymatgen
data_TbNd9(TmIn10)2
_symmetry_space_group_name_H-M   'P 1'
_cell_length_a   6.68559016
_cell_length_b   10.56222400
_cell_length_c   12.47361800
_cell_angle_alpha   90.00000000
_cell_angle_beta   89.95398745
_cell_angle_gamma   90.00000000
_symmetry_Int_Tables_number   1
_chemical_formula_structural   TbNd9(TmIn10)2
_chemical_formula_sum   'Tb1 Nd9 Tm2 In20'
_cell_volume   880.82051891
_cell_formula_units_Z   1
loop_
 _symmetry_equiv_pos_site_id
 _symmetry_equiv_pos_as_xyz
  1  'x, y, z'
loop_
 _atom_site_type_symbol
 _atom_site_label
 _atom_site_symmetry_multiplicity
 _atom_site_fract_x
 _atom_site_fract_y
 _atom_site_fract_z
 _atom_site_occupancy
  Tb  Tb0  1  0.150191  0.750000  0.558563  1
  Nd  Nd1  1  0.350058  0.750000  0.059715  1
  Nd  Nd2  1  0.887577  0.490051  0.143477  1
  Nd  Nd3  1  0.612711  0.011628  0.642885  1
  Nd  Nd4  1  0.109963  0.991099  0.855409  1
  Nd  Nd5  1  0.389677  0.509464  0.356198  1
  Nd  Nd6  1  0.109963  0.508901  0.855409  1
  Nd  Nd7  1  0.389677  0.990536  0.356198  1
  Nd  Nd8  1  0.887577  0.009949  0.143477  1
  Nd  Nd9  1  0.612711  0.488372  0.642885  1
  Tm  Tm10  1  0.650263  0.250000  0.940233  1
  Tm  Tm11  1  0.849366  0.250000  0.441003  1
  In  In12  1  0.617976  0.750000  0.505800  1
  In  In13  1  0.876336  0.750000  0.002574  1
  In  In14  1  0.385360  0.250000  0.496128  1
  In  In15  1  0.112348  0.250000  0.995916  1
  In  In16  1  0.660054  0.750000  0.246143  1
  In  In17  1  0.846120  0.750000  0.743271  1
  In  In18  1  0.347648  0.250000  0.756030  1
  In  In19  1  0.152423  0.250000  0.256624  1
  In  In20  1  0.111512  0.750000  0.287632  1
  In  In21  1  0.389411  0.750000  0.782299  1
  In  In22  1  0.889789  0.250000  0.716372  1
  In  In23  1  0.612559  0.250000  0.217320  1
  In  In24  1  0.874156  0.543809  0.404715  1
  In  In25  1  0.624722  0.957199  0.902579  1
  In  In26  1  0.126922  0.045365  0.595761  1
  In  In27  1  0.373566  0.451068  0.096163  1
  In  In28  1  0.126922  0.454635  0.595761  1
  In  In29  1  0.373566  0.048932  0.096163  1
  In  In30  1  0.874156  0.956191  0.404715  1
  In  In31  1  0.624722  0.542801  0.902579  1
