# generated using pymatgen
data_NdDyTeO6
_symmetry_space_group_name_H-M   'P 1'
_cell_length_a   5.43249600
_cell_length_b   9.29120800
_cell_length_c   10.16488500
_cell_angle_alpha   90.00000000
_cell_angle_beta   90.00000000
_cell_angle_gamma   90.00000000
_symmetry_Int_Tables_number   1
_chemical_formula_structural   NdDyTeO6
_chemical_formula_sum   'Nd4 Dy4 Te4 O24'
_cell_volume   513.06698269
_cell_formula_units_Z   4
loop_
 _symmetry_equiv_pos_site_id
 _symmetry_equiv_pos_as_xyz
  1  'x, y, z'
loop_
 _atom_site_type_symbol
 _atom_site_label
 _atom_site_symmetry_multiplicity
 _atom_site_fract_x
 _atom_site_fract_y
 _atom_site_fract_z
 _atom_site_occupancy
  Nd  Nd0  1  0.033662  0.219090  0.861177  1
  Nd  Nd1  1  0.533662  0.280910  0.138823  1
  Nd  Nd2  1  0.966338  0.719090  0.638823  1
  Nd  Nd3  1  0.466338  0.780910  0.361177  1
  Dy  Dy4  1  0.022854  0.103606  0.457919  1
  Dy  Dy5  1  0.522854  0.396394  0.542081  1
  Dy  Dy6  1  0.977146  0.603606  0.042081  1
  Dy  Dy7  1  0.477146  0.896394  0.957919  1
  Te  Te8  1  0.538394  0.008704  0.643970  1
  Te  Te9  1  0.038394  0.491296  0.356030  1
  Te  Te10  1  0.461606  0.508704  0.856030  1
  Te  Te11  1  0.961606  0.991296  0.143970  1
  O  O12  1  0.252350  0.421510  0.994808  1
  O  O13  1  0.752350  0.078490  0.005192  1
  O  O14  1  0.747650  0.921510  0.505192  1
  O  O15  1  0.247650  0.578490  0.494808  1
  O  O16  1  0.224309  0.109342  0.064142  1
  O  O17  1  0.724309  0.390658  0.935858  1
  O  O18  1  0.775691  0.609342  0.435858  1
  O  O19  1  0.275691  0.890658  0.564142  1
  O  O20  1  0.312301  0.357775  0.328764  1
  O  O21  1  0.812301  0.142225  0.671236  1
  O  O22  1  0.687699  0.857775  0.171236  1
  O  O23  1  0.187699  0.642225  0.828764  1
  O  O24  1  0.164568  0.949395  0.294788  1
  O  O25  1  0.664568  0.550605  0.705212  1
  O  O26  1  0.835432  0.449395  0.205212  1
  O  O27  1  0.335432  0.050605  0.794788  1
  O  O28  1  0.178225  0.635448  0.240541  1
  O  O29  1  0.678225  0.864552  0.759459  1
  O  O30  1  0.821775  0.135448  0.259459  1
  O  O31  1  0.321775  0.364552  0.740541  1
  O  O32  1  0.094522  0.841103  0.030372  1
  O  O33  1  0.594522  0.658897  0.969628  1
  O  O34  1  0.905478  0.341103  0.469628  1
  O  O35  1  0.405478  0.158897  0.530372  1
