# generated using pymatgen
data_Er4B12IrRu
_symmetry_space_group_name_H-M   'P 1'
_cell_length_a   3.63078800
_cell_length_b   9.13366231
_cell_length_c   11.45566069
_cell_angle_alpha   90.06181345
_cell_angle_beta   90.00000000
_cell_angle_gamma   90.00000000
_symmetry_Int_Tables_number   1
_chemical_formula_structural   Er4B12IrRu
_chemical_formula_sum   'Er8 B24 Ir2 Ru2'
_cell_volume   379.89688375
_cell_formula_units_Z   2
loop_
 _symmetry_equiv_pos_site_id
 _symmetry_equiv_pos_as_xyz
  1  'x, y, z'
loop_
 _atom_site_type_symbol
 _atom_site_label
 _atom_site_symmetry_multiplicity
 _atom_site_fract_x
 _atom_site_fract_y
 _atom_site_fract_z
 _atom_site_occupancy
  Er  Er0  1  0.000000  0.318915  0.412078  1
  Er  Er1  1  0.000000  0.681085  0.587922  1
  Er  Er2  1  0.000000  0.823095  0.084977  1
  Er  Er3  1  0.000000  0.176905  0.915023  1
  Er  Er4  1  0.000000  0.946055  0.372849  1
  Er  Er5  1  0.000000  0.053945  0.627151  1
  Er  Er6  1  0.000000  0.442633  0.125775  1
  Er  Er7  1  0.000000  0.557367  0.874225  1
  B  B8  1  0.500000  0.552978  0.433963  1
  B  B9  1  0.500000  0.447022  0.566037  1
  B  B10  1  0.500000  0.054060  0.066562  1
  B  B11  1  0.500000  0.945940  0.933438  1
  B  B12  1  0.500000  0.750598  0.420535  1
  B  B13  1  0.500000  0.249402  0.579465  1
  B  B14  1  0.500000  0.248236  0.079778  1
  B  B15  1  0.500000  0.751764  0.920222  1
  B  B16  1  0.500000  0.793274  0.265539  1
  B  B17  1  0.500000  0.206726  0.734461  1
  B  B18  1  0.500000  0.292287  0.234397  1
  B  B19  1  0.500000  0.707713  0.765603  1
  B  B20  1  0.500000  0.632048  0.183986  1
  B  B21  1  0.500000  0.367952  0.816014  1
  B  B22  1  0.500000  0.132393  0.314999  1
  B  B23  1  0.500000  0.867607  0.685001  1
  B  B24  1  0.500000  0.983474  0.212814  1
  B  B25  1  0.500000  0.016526  0.787186  1
  B  B26  1  0.500000  0.481692  0.286616  1
  B  B27  1  0.500000  0.518308  0.713384  1
  B  B28  1  0.500000  0.610034  0.030455  1
  B  B29  1  0.500000  0.389966  0.969545  1
  B  B30  1  0.500000  0.109735  0.470219  1
  B  B31  1  0.500000  0.890265  0.529781  1
  Ir  Ir32  1  0.000000  0.637769  0.322010  1
  Ir  Ir33  1  0.000000  0.362231  0.677990  1
  Ru  Ru34  1  0.000000  0.138057  0.178960  1
  Ru  Ru35  1  0.000000  0.861943  0.821040  1
