# generated using pymatgen
data_YbCd3(PbO4)2
_symmetry_space_group_name_H-M   'P 1'
_cell_length_a   3.37699400
_cell_length_b   5.76676841
_cell_length_c   10.03987851
_cell_angle_alpha   89.48764491
_cell_angle_beta   90.00000000
_cell_angle_gamma   90.00000000
_symmetry_Int_Tables_number   1
_chemical_formula_structural   YbCd3(PbO4)2
_chemical_formula_sum   'Yb1 Cd3 Pb2 O8'
_cell_volume   195.51221391
_cell_formula_units_Z   1
loop_
 _symmetry_equiv_pos_site_id
 _symmetry_equiv_pos_as_xyz
  1  'x, y, z'
loop_
 _atom_site_type_symbol
 _atom_site_label
 _atom_site_symmetry_multiplicity
 _atom_site_fract_x
 _atom_site_fract_y
 _atom_site_fract_z
 _atom_site_occupancy
  Yb  Yb0  1  0.500000  0.569152  0.315264  1
  Cd  Cd1  1  0.500000  0.937103  0.824701  1
  Cd  Cd2  1  0.500000  0.067260  0.180433  1
  Cd  Cd3  1  0.500000  0.438031  0.675039  1
  Pb  Pb4  1  0.000000  0.497142  0.000946  1
  Pb  Pb5  1  0.000000  0.000821  0.498827  1
  O  O6  1  0.000000  0.644317  0.800440  1
  O  O7  1  0.500000  0.737761  0.048118  1
  O  O8  1  0.500000  0.750320  0.533553  1
  O  O9  1  0.000000  0.856333  0.298502  1
  O  O10  1  0.000000  0.142944  0.700335  1
  O  O11  1  0.500000  0.247527  0.457233  1
  O  O12  1  0.500000  0.250255  0.962628  1
  O  O13  1  0.000000  0.361034  0.203981  1
