# generated using pymatgen
data_Ho3Zn2In3Ir
_symmetry_space_group_name_H-M   'P 1'
_cell_length_a   7.73645500
_cell_length_b   7.73645563
_cell_length_c   3.81527400
_cell_angle_alpha   90.00000000
_cell_angle_beta   90.00000000
_cell_angle_gamma   119.99999419
_symmetry_Int_Tables_number   1
_chemical_formula_structural   Ho3Zn2In3Ir
_chemical_formula_sum   'Ho3 Zn2 In3 Ir1'
_cell_volume   197.76090132
_cell_formula_units_Z   1
loop_
 _symmetry_equiv_pos_site_id
 _symmetry_equiv_pos_as_xyz
  1  'x, y, z'
loop_
 _atom_site_type_symbol
 _atom_site_label
 _atom_site_symmetry_multiplicity
 _atom_site_fract_x
 _atom_site_fract_y
 _atom_site_fract_z
 _atom_site_occupancy
  Ho  Ho0  1  0.585268  0.610472  0.000000  1
  Ho  Ho1  1  0.389528  0.974796  0.000000  1
  Ho  Ho2  1  0.025204  0.414732  0.000000  1
  Zn  Zn3  1  0.000000  0.000000  0.000000  1
  Zn  Zn4  1  0.666667  0.333333  0.500000  1
  In  In5  1  0.993427  0.732749  0.500000  1
  In  In6  1  0.267251  0.260678  0.500000  1
  In  In7  1  0.739322  0.006573  0.500000  1
  Ir  Ir8  1  0.333333  0.666667  0.500000  1
