# generated using pymatgen
data_Tm10InSb5
_symmetry_space_group_name_H-M   'P 1'
_cell_length_a   8.83277100
_cell_length_b   8.84082768
_cell_length_c   6.31508800
_cell_angle_alpha   90.00000000
_cell_angle_beta   90.00000000
_cell_angle_gamma   119.96985515
_symmetry_Int_Tables_number   1
_chemical_formula_structural   Tm10InSb5
_chemical_formula_sum   'Tm10 In1 Sb5'
_cell_volume   427.20052333
_cell_formula_units_Z   1
loop_
 _symmetry_equiv_pos_site_id
 _symmetry_equiv_pos_as_xyz
  1  'x, y, z'
loop_
 _atom_site_type_symbol
 _atom_site_label
 _atom_site_symmetry_multiplicity
 _atom_site_fract_x
 _atom_site_fract_y
 _atom_site_fract_z
 _atom_site_occupancy
  Tm  Tm0  1  0.335088  0.668994  0.999584  1
  Tm  Tm1  1  0.666094  0.331006  0.500416  1
  Tm  Tm2  1  0.666094  0.331006  0.999584  1
  Tm  Tm3  1  0.335088  0.668994  0.500416  1
  Tm  Tm4  1  0.243020  0.000000  0.250000  1
  Tm  Tm5  1  0.757632  0.000000  0.750000  1
  Tm  Tm6  1  0.996507  0.240620  0.250000  1
  Tm  Tm7  1  0.755887  0.759380  0.250000  1
  Tm  Tm8  1  0.244311  0.242694  0.750000  1
  Tm  Tm9  1  0.001617  0.757306  0.750000  1
  In  In10  1  0.606171  0.000000  0.250000  1
  Sb  Sb11  1  0.391412  0.000000  0.750000  1
  Sb  Sb12  1  0.999368  0.609487  0.250000  1
  Sb  Sb13  1  0.389881  0.390513  0.250000  1
  Sb  Sb14  1  0.610389  0.608949  0.750000  1
  Sb  Sb15  1  0.001440  0.391051  0.750000  1
