# generated using pymatgen
data_Nd2SmTh(Zn5Sn)2
_symmetry_space_group_name_H-M   'P 1'
_cell_length_a   8.56023801
_cell_length_b   8.56023829
_cell_length_c   9.06778900
_cell_angle_alpha   90.00000000
_cell_angle_beta   90.00000000
_cell_angle_gamma   149.59757443
_symmetry_Int_Tables_number   1
_chemical_formula_structural   Nd2SmTh(Zn5Sn)2
_chemical_formula_sum   'Nd2 Sm1 Th1 Zn10 Sn2'
_cell_volume   336.26675354
_cell_formula_units_Z   1
loop_
 _symmetry_equiv_pos_site_id
 _symmetry_equiv_pos_as_xyz
  1  'x, y, z'
loop_
 _atom_site_type_symbol
 _atom_site_label
 _atom_site_symmetry_multiplicity
 _atom_site_fract_x
 _atom_site_fract_y
 _atom_site_fract_z
 _atom_site_occupancy
  Nd  Nd0  1  0.000001  0.999999  0.497705  1
  Nd  Nd1  1  0.000001  0.999999  0.002295  1
  Sm  Sm2  1  0.204770  0.795230  0.250000  1
  Th  Th3  1  0.795013  0.204987  0.750000  1
  Zn  Zn4  1  0.813987  0.186013  0.390688  1
  Zn  Zn5  1  0.186639  0.813361  0.607083  1
  Zn  Zn6  1  0.813987  0.186013  0.109312  1
  Zn  Zn7  1  0.186639  0.813361  0.892917  1
  Zn  Zn8  1  0.656776  0.343224  0.482196  1
  Zn  Zn9  1  0.342355  0.657645  0.516837  1
  Zn  Zn10  1  0.656776  0.343224  0.017804  1
  Zn  Zn11  1  0.342355  0.657645  0.983163  1
  Zn  Zn12  1  0.394066  0.605934  0.250000  1
  Zn  Zn13  1  0.605467  0.394533  0.750000  1
  Sn  Sn14  1  0.555430  0.444570  0.250000  1
  Sn  Sn15  1  0.445738  0.554262  0.750000  1
