# generated using pymatgen
data_DyZrTiFe9
_symmetry_space_group_name_H-M   'P 1'
_cell_length_a   4.95912285
_cell_length_b   4.95912286
_cell_length_c   8.41740301
_cell_angle_alpha   72.86789955
_cell_angle_beta   72.86789831
_cell_angle_gamma   59.99999469
_symmetry_Int_Tables_number   1
_chemical_formula_structural   DyZrTiFe9
_chemical_formula_sum   'Dy1 Zr1 Ti1 Fe9'
_cell_volume   168.58476072
_cell_formula_units_Z   1
loop_
 _symmetry_equiv_pos_site_id
 _symmetry_equiv_pos_as_xyz
  1  'x, y, z'
loop_
 _atom_site_type_symbol
 _atom_site_label
 _atom_site_symmetry_multiplicity
 _atom_site_fract_x
 _atom_site_fract_y
 _atom_site_fract_z
 _atom_site_occupancy
  Dy  Dy0  1  0.001355  0.001355  0.995935  1
  Zr  Zr1  1  0.855726  0.855726  0.432822  1
  Ti  Ti2  1  0.143169  0.143169  0.570494  1
  Fe  Fe3  1  0.083216  0.586166  0.744452  1
  Fe  Fe4  1  0.586166  0.586166  0.744452  1
  Fe  Fe5  1  0.586166  0.083216  0.744452  1
  Fe  Fe6  1  0.917821  0.413275  0.255630  1
  Fe  Fe7  1  0.413275  0.413275  0.255630  1
  Fe  Fe8  1  0.413275  0.917821  0.255630  1
  Fe  Fe9  1  0.332938  0.332938  0.001186  1
  Fe  Fe10  1  0.667067  0.667067  0.998796  1
  Fe  Fe11  1  0.499827  0.499827  0.500520  1
