# generated using pymatgen
data_Hf3Zr(ScIr)4
_symmetry_space_group_name_H-M   'P 1'
_cell_length_a   4.47821800
_cell_length_b   6.74897166
_cell_length_c   8.09089052
_cell_angle_alpha   89.87721819
_cell_angle_beta   90.00000000
_cell_angle_gamma   90.00000000
_symmetry_Int_Tables_number   1
_chemical_formula_structural   Hf3Zr(ScIr)4
_chemical_formula_sum   'Hf3 Zr1 Sc4 Ir4'
_cell_volume   244.53338706
_cell_formula_units_Z   1
loop_
 _symmetry_equiv_pos_site_id
 _symmetry_equiv_pos_as_xyz
  1  'x, y, z'
loop_
 _atom_site_type_symbol
 _atom_site_label
 _atom_site_symmetry_multiplicity
 _atom_site_fract_x
 _atom_site_fract_y
 _atom_site_fract_z
 _atom_site_occupancy
  Hf  Hf0  1  0.250000  0.356058  0.577569  1
  Hf  Hf1  1  0.250000  0.848742  0.921704  1
  Hf  Hf2  1  0.750000  0.650261  0.423365  1
  Zr  Zr3  1  0.750000  0.145165  0.078373  1
  Sc  Sc4  1  0.250000  0.989273  0.326403  1
  Sc  Sc5  1  0.250000  0.487619  0.173992  1
  Sc  Sc6  1  0.750000  0.015887  0.674647  1
  Sc  Sc7  1  0.750000  0.510512  0.823861  1
  Ir  Ir8  1  0.250000  0.243090  0.906407  1
  Ir  Ir9  1  0.250000  0.748763  0.591636  1
  Ir  Ir10  1  0.750000  0.747470  0.090423  1
  Ir  Ir11  1  0.750000  0.257160  0.411621  1
