# generated using pymatgen
data_Cs4SmPaTe6
_symmetry_space_group_name_H-M   'P 1'
_cell_length_a   8.41249385
_cell_length_b   8.41249570
_cell_length_c   9.35640746
_cell_angle_alpha   81.19425211
_cell_angle_beta   81.19424823
_cell_angle_gamma   119.90579509
_symmetry_Int_Tables_number   1
_chemical_formula_structural   Cs4SmPaTe6
_chemical_formula_sum   'Cs4 Sm1 Pa1 Te6'
_cell_volume   546.50110544
_cell_formula_units_Z   1
loop_
 _symmetry_equiv_pos_site_id
 _symmetry_equiv_pos_as_xyz
  1  'x, y, z'
loop_
 _atom_site_type_symbol
 _atom_site_label
 _atom_site_symmetry_multiplicity
 _atom_site_fract_x
 _atom_site_fract_y
 _atom_site_fract_z
 _atom_site_occupancy
  Cs  Cs0  1  0.499874  0.500126  0.000000  1
  Cs  Cs1  1  0.651994  0.348006  0.500000  1
  Cs  Cs2  1  0.347026  0.652974  0.500000  1
  Cs  Cs3  1  0.001194  0.998806  0.500000  1
  Sm  Sm4  1  0.168074  0.831926  0.000000  1
  Pa  Pa5  1  0.832000  0.168000  0.000000  1
  Te  Te6  1  0.815011  0.827651  0.191470  1
  Te  Te7  1  0.172349  0.184989  0.808530  1
  Te  Te8  1  0.445777  0.051860  0.196745  1
  Te  Te9  1  0.580719  0.962158  0.803475  1
  Te  Te10  1  0.948140  0.554223  0.803255  1
  Te  Te11  1  0.037842  0.419281  0.196525  1
