# generated using pymatgen
data_Zr10Tl4InGa2Sn
_symmetry_space_group_name_H-M   'P 1'
_cell_length_a   8.79242544
_cell_length_b   8.78934750
_cell_length_c   5.94887400
_cell_angle_alpha   90.00000000
_cell_angle_beta   90.00000000
_cell_angle_gamma   119.86798350
_symmetry_Int_Tables_number   1
_chemical_formula_structural   Zr10Tl4InGa2Sn
_chemical_formula_sum   'Zr10 Tl4 In1 Ga2 Sn1'
_cell_volume   398.66391873
_cell_formula_units_Z   1
loop_
 _symmetry_equiv_pos_site_id
 _symmetry_equiv_pos_as_xyz
  1  'x, y, z'
loop_
 _atom_site_type_symbol
 _atom_site_label
 _atom_site_symmetry_multiplicity
 _atom_site_fract_x
 _atom_site_fract_y
 _atom_site_fract_z
 _atom_site_occupancy
  Zr  Zr0  1  0.999543  0.263362  0.250000  1
  Zr  Zr1  1  0.736457  0.997099  0.750000  1
  Zr  Zr2  1  0.736933  0.737179  0.250000  1
  Zr  Zr3  1  0.667242  0.335281  0.501459  1
  Zr  Zr4  1  0.995571  0.735007  0.750000  1
  Zr  Zr5  1  0.264477  0.265918  0.750000  1
  Zr  Zr6  1  0.334269  0.665444  0.998530  1
  Zr  Zr7  1  0.667242  0.335281  0.998541  1
  Zr  Zr8  1  0.334269  0.665444  0.501470  1
  Zr  Zr9  1  0.263248  0.999843  0.250000  1
  Tl  Tl10  1  0.614952  0.000474  0.250000  1
  Tl  Tl11  1  0.384498  0.998982  0.750000  1
  Tl  Tl12  1  0.385117  0.384989  0.250000  1
  Tl  Tl13  1  0.000537  0.614376  0.250000  1
  In  In14  1  0.998778  0.384060  0.750000  1
  Ga  Ga15  1  0.001606  0.001709  0.000579  1
  Ga  Ga16  1  0.001606  0.001709  0.499421  1
  Sn  Sn17  1  0.613654  0.613844  0.750000  1
