# generated using pymatgen
data_PaBrN
_symmetry_space_group_name_H-M   'P 1'
_cell_length_a   10.96442609
_cell_length_b   10.96442606
_cell_length_c   10.96442692
_cell_angle_alpha   20.65835196
_cell_angle_beta   20.65835091
_cell_angle_gamma   20.65834794
_symmetry_Int_Tables_number   1
_chemical_formula_structural   PaBrN
_chemical_formula_sum   'Pa2 Br2 N2'
_cell_volume   143.61861139
_cell_formula_units_Z   2
loop_
 _symmetry_equiv_pos_site_id
 _symmetry_equiv_pos_as_xyz
  1  'x, y, z'
loop_
 _atom_site_type_symbol
 _atom_site_label
 _atom_site_symmetry_multiplicity
 _atom_site_fract_x
 _atom_site_fract_y
 _atom_site_fract_z
 _atom_site_occupancy
  Pa  Pa0  1  0.791043  0.791043  0.791043  1
  Pa  Pa1  1  0.208957  0.208957  0.208957  1
  Br  Br2  1  0.606316  0.606316  0.606316  1
  Br  Br3  1  0.393684  0.393684  0.393684  1
  N  N4  1  0.859717  0.859717  0.859717  1
  N  N5  1  0.140283  0.140283  0.140283  1
