# generated using pymatgen
data_AcTlSiS4
_symmetry_space_group_name_H-M   'P 1'
_cell_length_a   6.77845300
_cell_length_b   6.79041667
_cell_length_c   17.86552500
_cell_angle_alpha   73.34628429
_cell_angle_beta   90.00000000
_cell_angle_gamma   90.00000000
_symmetry_Int_Tables_number   1
_chemical_formula_structural   AcTlSiS4
_chemical_formula_sum   'Ac4 Tl4 Si4 S16'
_cell_volume   787.83075024
_cell_formula_units_Z   4
loop_
 _symmetry_equiv_pos_site_id
 _symmetry_equiv_pos_as_xyz
  1  'x, y, z'
loop_
 _atom_site_type_symbol
 _atom_site_label
 _atom_site_symmetry_multiplicity
 _atom_site_fract_x
 _atom_site_fract_y
 _atom_site_fract_z
 _atom_site_occupancy
  Ac  Ac0  1  0.765285  0.764474  0.776692  1
  Ac  Ac1  1  0.265285  0.235526  0.723308  1
  Ac  Ac2  1  0.234715  0.235526  0.223308  1
  Ac  Ac3  1  0.734715  0.764474  0.276692  1
  Tl  Tl4  1  0.250398  0.272754  0.965970  1
  Tl  Tl5  1  0.750398  0.727246  0.534030  1
  Tl  Tl6  1  0.749602  0.727246  0.034030  1
  Tl  Tl7  1  0.249602  0.272754  0.465970  1
  Si  Si8  1  0.742380  0.211354  0.844575  1
  Si  Si9  1  0.242380  0.788646  0.655425  1
  Si  Si10  1  0.257620  0.788646  0.155425  1
  Si  Si11  1  0.757620  0.211354  0.344575  1
  S  S12  1  0.504994  0.994714  0.866979  1
  S  S13  1  0.004994  0.005286  0.633021  1
  S  S14  1  0.495006  0.005286  0.133021  1
  S  S15  1  0.995006  0.994714  0.366979  1
  S  S16  1  0.739809  0.403828  0.918827  1
  S  S17  1  0.239809  0.596172  0.581173  1
  S  S18  1  0.260191  0.596172  0.081173  1
  S  S19  1  0.760191  0.403828  0.418827  1
  S  S20  1  0.001742  0.024237  0.861262  1
  S  S21  1  0.501742  0.975763  0.638738  1
  S  S22  1  0.998258  0.975763  0.138738  1
  S  S23  1  0.498258  0.024237  0.361262  1
  S  S24  1  0.718120  0.381790  0.722827  1
  S  S25  1  0.218120  0.618210  0.777173  1
  S  S26  1  0.281880  0.618210  0.277173  1
  S  S27  1  0.781880  0.381790  0.222827  1
