# generated using pymatgen
data_Yb3Ho5(B6Ru)4
_symmetry_space_group_name_H-M   'P 1'
_cell_length_a   3.65066000
_cell_length_b   9.13100014
_cell_length_c   11.51731170
_cell_angle_alpha   89.92159229
_cell_angle_beta   90.00000000
_cell_angle_gamma   90.00000000
_symmetry_Int_Tables_number   1
_chemical_formula_structural   Yb3Ho5(B6Ru)4
_chemical_formula_sum   'Yb3 Ho5 B24 Ru4'
_cell_volume   383.91974672
_cell_formula_units_Z   1
loop_
 _symmetry_equiv_pos_site_id
 _symmetry_equiv_pos_as_xyz
  1  'x, y, z'
loop_
 _atom_site_type_symbol
 _atom_site_label
 _atom_site_symmetry_multiplicity
 _atom_site_fract_x
 _atom_site_fract_y
 _atom_site_fract_z
 _atom_site_occupancy
  Yb  Yb0  1  0.000000  0.325110  0.414640  1
  Yb  Yb1  1  0.000000  0.674858  0.584741  1
  Yb  Yb2  1  0.000000  0.823784  0.086031  1
  Ho  Ho3  1  0.000000  0.175457  0.915198  1
  Ho  Ho4  1  0.000000  0.940857  0.366452  1
  Ho  Ho5  1  0.000000  0.058235  0.631542  1
  Ho  Ho6  1  0.000000  0.442763  0.133128  1
  Ho  Ho7  1  0.000000  0.558873  0.867699  1
  B  B8  1  0.500000  0.553368  0.432945  1
  B  B9  1  0.500000  0.446017  0.567784  1
  B  B10  1  0.500000  0.053871  0.066799  1
  B  B11  1  0.500000  0.946070  0.933298  1
  B  B12  1  0.500000  0.748232  0.417474  1
  B  B13  1  0.500000  0.251678  0.582641  1
  B  B14  1  0.500000  0.248688  0.081919  1
  B  B15  1  0.500000  0.752072  0.917810  1
  B  B16  1  0.500000  0.790383  0.264289  1
  B  B17  1  0.500000  0.208967  0.736017  1
  B  B18  1  0.500000  0.290560  0.234903  1
  B  B19  1  0.500000  0.710465  0.764908  1
  B  B20  1  0.500000  0.631013  0.186059  1
  B  B21  1  0.500000  0.368884  0.814995  1
  B  B22  1  0.500000  0.131074  0.313395  1
  B  B23  1  0.500000  0.869383  0.685582  1
  B  B24  1  0.500000  0.983357  0.210365  1
  B  B25  1  0.500000  0.016878  0.788960  1
  B  B26  1  0.500000  0.483997  0.289379  1
  B  B27  1  0.500000  0.515848  0.711373  1
  B  B28  1  0.500000  0.599424  0.027538  1
  B  B29  1  0.500000  0.399836  0.972519  1
  B  B30  1  0.500000  0.097185  0.472577  1
  B  B31  1  0.500000  0.902496  0.526414  1
  Ru  Ru32  1  0.000000  0.638851  0.320562  1
  Ru  Ru33  1  0.000000  0.359902  0.680900  1
  Ru  Ru34  1  0.000000  0.138477  0.178726  1
  Ru  Ru35  1  0.000000  0.863086  0.820435  1
