# generated using pymatgen
data_Hf8Al15Fe
_symmetry_space_group_name_H-M   'P 1'
_cell_length_a   5.25985200
_cell_length_b   5.25985297
_cell_length_c   17.16347200
_cell_angle_alpha   90.00000000
_cell_angle_beta   90.00000000
_cell_angle_gamma   120.00000645
_symmetry_Int_Tables_number   1
_chemical_formula_structural   Hf8Al15Fe
_chemical_formula_sum   'Hf8 Al15 Fe1'
_cell_volume   411.22819014
_cell_formula_units_Z   1
loop_
 _symmetry_equiv_pos_site_id
 _symmetry_equiv_pos_as_xyz
  1  'x, y, z'
loop_
 _atom_site_type_symbol
 _atom_site_label
 _atom_site_symmetry_multiplicity
 _atom_site_fract_x
 _atom_site_fract_y
 _atom_site_fract_z
 _atom_site_occupancy
  Hf  Hf0  1  0.000000  0.000000  0.404287  1
  Hf  Hf1  1  0.000000  0.000000  0.591498  1
  Hf  Hf2  1  0.000000  0.000000  0.909066  1
  Hf  Hf3  1  0.000000  0.000000  0.091516  1
  Hf  Hf4  1  0.333333  0.666667  0.655952  1
  Hf  Hf5  1  0.666667  0.333333  0.343090  1
  Hf  Hf6  1  0.666667  0.333333  0.156933  1
  Hf  Hf7  1  0.333333  0.666667  0.845097  1
  Al  Al8  1  0.333333  0.666667  0.369577  1
  Al  Al9  1  0.666667  0.333333  0.625954  1
  Al  Al10  1  0.666667  0.333333  0.879163  1
  Al  Al11  1  0.500035  0.499965  0.498110  1
  Al  Al12  1  0.500035  0.000069  0.498110  1
  Al  Al13  1  0.999931  0.499965  0.498110  1
  Al  Al14  1  0.497261  0.502739  0.008055  1
  Al  Al15  1  0.497261  0.994522  0.008055  1
  Al  Al16  1  0.005478  0.502739  0.008055  1
  Al  Al17  1  0.164006  0.835994  0.241896  1
  Al  Al18  1  0.164006  0.328011  0.241896  1
  Al  Al19  1  0.671989  0.835994  0.241896  1
  Al  Al20  1  0.837240  0.162760  0.752096  1
  Al  Al21  1  0.837240  0.674479  0.752096  1
  Al  Al22  1  0.325521  0.162760  0.752096  1
  Fe  Fe23  1  0.333333  0.666667  0.127397  1
