# generated using pymatgen
data_HoFe2Co2P3Ru
_symmetry_space_group_name_H-M   'P 1'
_cell_length_a   3.70639400
_cell_length_b   10.23648800
_cell_length_c   11.84108600
_cell_angle_alpha   90.00000000
_cell_angle_beta   90.00000000
_cell_angle_gamma   90.00000000
_symmetry_Int_Tables_number   1
_chemical_formula_structural   HoFe2Co2P3Ru
_chemical_formula_sum   'Ho4 Fe8 Co8 P12 Ru4'
_cell_volume   449.25622256
_cell_formula_units_Z   4
loop_
 _symmetry_equiv_pos_site_id
 _symmetry_equiv_pos_as_xyz
  1  'x, y, z'
loop_
 _atom_site_type_symbol
 _atom_site_label
 _atom_site_symmetry_multiplicity
 _atom_site_fract_x
 _atom_site_fract_y
 _atom_site_fract_z
 _atom_site_occupancy
  Ho  Ho0  1  0.250000  0.581402  0.704825  1
  Ho  Ho1  1  0.250000  0.918598  0.204825  1
  Ho  Ho2  1  0.750000  0.418598  0.295175  1
  Ho  Ho3  1  0.750000  0.081402  0.795175  1
  Fe  Fe4  1  0.250000  0.880377  0.702635  1
  Fe  Fe5  1  0.250000  0.619623  0.202635  1
  Fe  Fe6  1  0.750000  0.119623  0.297365  1
  Fe  Fe7  1  0.750000  0.380377  0.797365  1
  Fe  Fe8  1  0.250000  0.462560  0.934184  1
  Fe  Fe9  1  0.250000  0.037440  0.434184  1
  Fe  Fe10  1  0.750000  0.537440  0.065816  1
  Fe  Fe11  1  0.750000  0.962560  0.565816  1
  Co  Co12  1  0.250000  0.406516  0.487437  1
  Co  Co13  1  0.250000  0.093484  0.987437  1
  Co  Co14  1  0.750000  0.593484  0.512563  1
  Co  Co15  1  0.750000  0.906516  0.012563  1
  Co  Co16  1  0.250000  0.225125  0.172353  1
  Co  Co17  1  0.250000  0.274875  0.672353  1
  Co  Co18  1  0.750000  0.774875  0.827647  1
  Co  Co19  1  0.750000  0.725125  0.327647  1
  P  P20  1  0.250000  0.427475  0.114621  1
  P  P21  1  0.250000  0.072525  0.614621  1
  P  P22  1  0.750000  0.572525  0.885379  1
  P  P23  1  0.750000  0.927475  0.385379  1
  P  P24  1  0.250000  0.270593  0.860903  1
  P  P25  1  0.250000  0.229407  0.360903  1
  P  P26  1  0.750000  0.729407  0.139097  1
  P  P27  1  0.750000  0.770593  0.639097  1
  P  P28  1  0.250000  0.597870  0.389750  1
  P  P29  1  0.250000  0.902130  0.889750  1
  P  P30  1  0.750000  0.402130  0.610250  1
  P  P31  1  0.750000  0.097870  0.110250  1
  Ru  Ru32  1  0.250000  0.709407  0.988955  1
  Ru  Ru33  1  0.250000  0.790593  0.488955  1
  Ru  Ru34  1  0.750000  0.290593  0.011045  1
  Ru  Ru35  1  0.750000  0.209407  0.511045  1
