# generated using pymatgen
data_Cs3K8Rb5(SnSe4)4
_symmetry_space_group_name_H-M   'P 1'
_cell_length_a   8.36923921
_cell_length_b   10.72308835
_cell_length_c   15.97545943
_cell_angle_alpha   90.20707122
_cell_angle_beta   90.42028920
_cell_angle_gamma   90.24446243
_symmetry_Int_Tables_number   1
_chemical_formula_structural   Cs3K8Rb5(SnSe4)4
_chemical_formula_sum   'Cs3 K8 Rb5 Sn4 Se16'
_cell_volume   1433.64194463
_cell_formula_units_Z   1
loop_
 _symmetry_equiv_pos_site_id
 _symmetry_equiv_pos_as_xyz
  1  'x, y, z'
loop_
 _atom_site_type_symbol
 _atom_site_label
 _atom_site_symmetry_multiplicity
 _atom_site_fract_x
 _atom_site_fract_y
 _atom_site_fract_z
 _atom_site_occupancy
  Cs  Cs0  1  0.000000  0.000000  0.000000  1
  Cs  Cs1  1  0.500000  0.000000  0.500000  1
  Cs  Cs2  1  0.000000  0.500000  0.000000  1
  K  K3  1  0.831252  0.054145  0.265177  1
  K  K4  1  0.330653  0.949907  0.236984  1
  K  K5  1  0.164723  0.546832  0.731389  1
  K  K6  1  0.667732  0.447437  0.763443  1
  K  K7  1  0.168748  0.945855  0.734823  1
  K  K8  1  0.669347  0.050093  0.763016  1
  K  K9  1  0.835277  0.453168  0.268611  1
  K  K10  1  0.332268  0.552563  0.236557  1
  Rb  Rb11  1  0.500000  0.500000  0.500000  1
  Rb  Rb12  1  0.982384  0.750982  0.426193  1
  Rb  Rb13  1  0.479843  0.250799  0.075289  1
  Rb  Rb14  1  0.017616  0.249018  0.573807  1
  Rb  Rb15  1  0.520157  0.749201  0.924711  1
  Sn  Sn16  1  0.772267  0.746970  0.670160  1
  Sn  Sn17  1  0.227733  0.253030  0.329840  1
  Sn  Sn18  1  0.721114  0.749983  0.174114  1
  Sn  Sn19  1  0.278886  0.250017  0.825886  1
  Se  Se20  1  0.971678  0.249049  0.818373  1
  Se  Se21  1  0.534901  0.253310  0.324928  1
  Se  Se22  1  0.465099  0.746690  0.675072  1
  Se  Se23  1  0.028322  0.750951  0.181627  1
  Se  Se24  1  0.621401  0.555387  0.097355  1
  Se  Se25  1  0.132566  0.447311  0.407317  1
  Se  Se26  1  0.378966  0.056355  0.902284  1
  Se  Se27  1  0.877310  0.941289  0.596452  1
  Se  Se28  1  0.378599  0.444613  0.902645  1
  Se  Se29  1  0.867434  0.552689  0.592683  1
  Se  Se30  1  0.621034  0.943645  0.097716  1
  Se  Se31  1  0.122690  0.058711  0.403548  1
  Se  Se32  1  0.606287  0.751255  0.324500  1
  Se  Se33  1  0.109635  0.254794  0.178988  1
  Se  Se34  1  0.393713  0.248745  0.675500  1
  Se  Se35  1  0.890365  0.745206  0.821012  1
