# generated using pymatgen
data_Th2Fe3Si5
_symmetry_space_group_name_H-M   'P 1'
_cell_length_a   5.65937592
_cell_length_b   8.03847242
_cell_length_c   8.03847278
_cell_angle_alpha   93.71351793
_cell_angle_beta   109.66114551
_cell_angle_gamma   109.66113939
_symmetry_Int_Tables_number   1
_chemical_formula_structural   Th2Fe3Si5
_chemical_formula_sum   'Th4 Fe6 Si10'
_cell_volume   317.69683942
_cell_formula_units_Z   2
loop_
 _symmetry_equiv_pos_site_id
 _symmetry_equiv_pos_as_xyz
  1  'x, y, z'
loop_
 _atom_site_type_symbol
 _atom_site_label
 _atom_site_symmetry_multiplicity
 _atom_site_fract_x
 _atom_site_fract_y
 _atom_site_fract_z
 _atom_site_occupancy
  Th  Th0  1  0.234324  0.866776  0.599609  1
  Th  Th1  1  0.265676  0.400391  0.133224  1
  Th  Th2  1  0.765676  0.133224  0.400391  1
  Th  Th3  1  0.734324  0.599609  0.866776  1
  Fe  Fe4  1  0.367787  0.257938  0.540894  1
  Fe  Fe5  1  0.132213  0.459106  0.742062  1
  Fe  Fe6  1  0.632213  0.742062  0.459106  1
  Fe  Fe7  1  0.867787  0.540894  0.257938  1
  Fe  Fe8  1  0.250000  0.004452  0.995548  1
  Fe  Fe9  1  0.750000  0.995548  0.004452  1
  Si  Si10  1  0.161243  0.057934  0.256013  1
  Si  Si11  1  0.338757  0.743987  0.942066  1
  Si  Si12  1  0.838757  0.942066  0.743987  1
  Si  Si13  1  0.661243  0.256013  0.057934  1
  Si  Si14  1  0.250000  0.213569  0.786431  1
  Si  Si15  1  0.750000  0.786431  0.213569  1
  Si  Si16  1  0.250000  0.509290  0.490710  1
  Si  Si17  1  0.750000  0.490710  0.509290  1
  Si  Si18  1  0.250000  0.770895  0.229105  1
  Si  Si19  1  0.750000  0.229105  0.770895  1
