# generated using pymatgen
data_Tb2(ReB2)3
_symmetry_space_group_name_H-M   'P 1'
_cell_length_a   6.23320183
_cell_length_b   6.23320239
_cell_length_c   7.51991130
_cell_angle_alpha   89.40523820
_cell_angle_beta   89.40523970
_cell_angle_gamma   113.84236774
_symmetry_Int_Tables_number   1
_chemical_formula_structural   Tb2(ReB2)3
_chemical_formula_sum   'Tb4 Re6 B12'
_cell_volume   267.18787393
_cell_formula_units_Z   2
loop_
 _symmetry_equiv_pos_site_id
 _symmetry_equiv_pos_as_xyz
  1  'x, y, z'
loop_
 _atom_site_type_symbol
 _atom_site_label
 _atom_site_symmetry_multiplicity
 _atom_site_fract_x
 _atom_site_fract_y
 _atom_site_fract_z
 _atom_site_occupancy
  Tb  Tb0  1  0.899809  0.556977  0.322682  1
  Tb  Tb1  1  0.443023  0.100191  0.177318  1
  Tb  Tb2  1  0.100191  0.443023  0.677318  1
  Tb  Tb3  1  0.556977  0.899809  0.822682  1
  Re  Re4  1  0.411716  0.588284  0.250000  1
  Re  Re5  1  0.588284  0.411716  0.750000  1
  Re  Re6  1  0.009477  0.192948  0.088610  1
  Re  Re7  1  0.807052  0.990523  0.411390  1
  Re  Re8  1  0.990523  0.807052  0.911390  1
  Re  Re9  1  0.192948  0.009477  0.588610  1
  B  B10  1  0.750894  0.848555  0.130367  1
  B  B11  1  0.151445  0.249106  0.369633  1
  B  B12  1  0.249106  0.151445  0.869633  1
  B  B13  1  0.848555  0.750894  0.630367  1
  B  B14  1  0.413203  0.840521  0.479731  1
  B  B15  1  0.159479  0.586797  0.020269  1
  B  B16  1  0.586797  0.159479  0.520269  1
  B  B17  1  0.840521  0.413203  0.979731  1
  B  B18  1  0.557443  0.649821  0.535317  1
  B  B19  1  0.350179  0.442557  0.964683  1
  B  B20  1  0.442557  0.350179  0.464683  1
  B  B21  1  0.649821  0.557443  0.035317  1
