# generated using pymatgen
data_Ta5VS
_symmetry_space_group_name_H-M   'P 1'
_cell_length_a   5.13488158
_cell_length_b   7.48862535
_cell_length_c   7.52462182
_cell_angle_alpha   114.15573134
_cell_angle_beta   98.27117165
_cell_angle_gamma   108.61700142
_symmetry_Int_Tables_number   1
_chemical_formula_structural   Ta5VS
_chemical_formula_sum   'Ta10 V2 S2'
_cell_volume   237.25364689
_cell_formula_units_Z   2
loop_
 _symmetry_equiv_pos_site_id
 _symmetry_equiv_pos_as_xyz
  1  'x, y, z'
loop_
 _atom_site_type_symbol
 _atom_site_label
 _atom_site_symmetry_multiplicity
 _atom_site_fract_x
 _atom_site_fract_y
 _atom_site_fract_z
 _atom_site_occupancy
  Ta  Ta0  1  0.559756  0.780143  0.598098  1
  Ta  Ta1  1  0.440244  0.219857  0.401902  1
  Ta  Ta2  1  0.993521  0.360165  0.285543  1
  Ta  Ta3  1  0.149202  0.724792  0.146687  1
  Ta  Ta4  1  0.227973  0.063242  0.699348  1
  Ta  Ta5  1  0.530433  0.581851  0.867347  1
  Ta  Ta6  1  0.772027  0.936758  0.300652  1
  Ta  Ta7  1  0.850798  0.275208  0.853313  1
  Ta  Ta8  1  0.006479  0.639835  0.714457  1
  Ta  Ta9  1  0.469567  0.418149  0.132653  1
  V  V10  1  0.500000  0.000000  0.000000  1
  V  V11  1  0.000000  0.000000  0.000000  1
  S  S12  1  0.071810  0.300616  0.585141  1
  S  S13  1  0.928190  0.699384  0.414859  1
