# generated using pymatgen
data_CeNiBr18
_symmetry_space_group_name_H-M   'P 1'
_cell_length_a   9.34969731
_cell_length_b   9.34055226
_cell_length_c   9.35208865
_cell_angle_alpha   89.26143900
_cell_angle_beta   89.28439971
_cell_angle_gamma   89.40451484
_symmetry_Int_Tables_number   1
_chemical_formula_structural   CeNiBr18
_chemical_formula_sum   'Ce1 Ni1 Br18'
_cell_volume   816.55609008
_cell_formula_units_Z   1
loop_
 _symmetry_equiv_pos_site_id
 _symmetry_equiv_pos_as_xyz
  1  'x, y, z'
loop_
 _atom_site_type_symbol
 _atom_site_label
 _atom_site_symmetry_multiplicity
 _atom_site_fract_x
 _atom_site_fract_y
 _atom_site_fract_z
 _atom_site_occupancy
  Ce  Ce0  1  0.000000  0.000000  0.000000  1
  Ni  Ni1  1  0.500000  0.500000  0.500000  1
  Br  Br2  1  0.766214  0.458632  0.514058  1
  Br  Br3  1  0.514953  0.766493  0.458038  1
  Br  Br4  1  0.459302  0.514834  0.766329  1
  Br  Br5  1  0.233786  0.541368  0.485942  1
  Br  Br6  1  0.485047  0.233507  0.541962  1
  Br  Br7  1  0.540698  0.485166  0.233671  1
  Br  Br8  1  0.879013  0.381251  0.740197  1
  Br  Br9  1  0.741551  0.879206  0.381014  1
  Br  Br10  1  0.381375  0.741131  0.878515  1
  Br  Br11  1  0.120987  0.618749  0.259803  1
  Br  Br12  1  0.258449  0.120794  0.618986  1
  Br  Br13  1  0.618625  0.258869  0.121485  1
  Br  Br14  1  0.026747  0.964982  0.701101  1
  Br  Br15  1  0.701040  0.027479  0.966074  1
  Br  Br16  1  0.965334  0.700724  0.028703  1
  Br  Br17  1  0.973253  0.035018  0.298899  1
  Br  Br18  1  0.298960  0.972521  0.033926  1
  Br  Br19  1  0.034666  0.299276  0.971297  1
