# generated using pymatgen
data_La8Ga3Co
_symmetry_space_group_name_H-M   'P 1'
_cell_length_a   10.68555000
_cell_length_b   10.68566490
_cell_length_c   7.03783100
_cell_angle_alpha   90.00000000
_cell_angle_beta   90.00000000
_cell_angle_gamma   119.99963813
_symmetry_Int_Tables_number   1
_chemical_formula_structural   La8Ga3Co
_chemical_formula_sum   'La16 Ga6 Co2'
_cell_volume   695.93628500
_cell_formula_units_Z   2
loop_
 _symmetry_equiv_pos_site_id
 _symmetry_equiv_pos_as_xyz
  1  'x, y, z'
loop_
 _atom_site_type_symbol
 _atom_site_label
 _atom_site_symmetry_multiplicity
 _atom_site_fract_x
 _atom_site_fract_y
 _atom_site_fract_z
 _atom_site_occupancy
  La  La0  1  0.666666  0.333332  0.181667  1
  La  La1  1  0.999996  0.999992  0.280825  1
  La  La2  1  0.460129  0.920257  0.286391  1
  La  La3  1  0.079747  0.539865  0.286390  1
  La  La4  1  0.460117  0.539865  0.286390  1
  La  La5  1  0.342409  0.171211  0.495407  1
  La  La6  1  0.828802  0.171211  0.495407  1
  La  La7  1  0.828799  0.657598  0.495397  1
  La  La8  1  0.333334  0.666669  0.681667  1
  La  La9  1  0.000004  0.000008  0.780825  1
  La  La10  1  0.539871  0.079742  0.786389  1
  La  La11  1  0.539883  0.460135  0.786390  1
  La  La12  1  0.920253  0.460135  0.786390  1
  La  La13  1  0.171198  0.828789  0.995409  1
  La  La14  1  0.657591  0.828789  0.995409  1
  La  La15  1  0.171202  0.342403  0.995397  1
  Ga  Ga16  1  0.835420  0.670839  0.032990  1
  Ga  Ga17  1  0.329172  0.164587  0.032983  1
  Ga  Ga18  1  0.835415  0.164587  0.032983  1
  Ga  Ga19  1  0.164581  0.329161  0.532990  1
  Ga  Ga20  1  0.164586  0.835413  0.532984  1
  Ga  Ga21  1  0.670827  0.835413  0.532984  1
  Co  Co22  1  0.333327  0.666656  0.056167  1
  Co  Co23  1  0.666673  0.333343  0.556167  1
