# generated using pymatgen
data_MgZr4Ga17Rh6
_symmetry_space_group_name_H-M   'P 1'
_cell_length_a   7.50582313
_cell_length_b   7.50587509
_cell_length_c   9.33414514
_cell_angle_alpha   90.11581285
_cell_angle_beta   90.11555241
_cell_angle_gamma   120.12356632
_symmetry_Int_Tables_number   1
_chemical_formula_structural   MgZr4Ga17Rh6
_chemical_formula_sum   'Mg1 Zr4 Ga17 Rh6'
_cell_volume   454.84055724
_cell_formula_units_Z   1
loop_
 _symmetry_equiv_pos_site_id
 _symmetry_equiv_pos_as_xyz
  1  'x, y, z'
loop_
 _atom_site_type_symbol
 _atom_site_label
 _atom_site_symmetry_multiplicity
 _atom_site_fract_x
 _atom_site_fract_y
 _atom_site_fract_z
 _atom_site_occupancy
  Mg  Mg0  1  0.332901  0.332901  0.559929  1
  Zr  Zr1  1  0.996009  0.669143  0.249913  1
  Zr  Zr2  1  0.999873  0.331382  0.753267  1
  Zr  Zr3  1  0.669143  0.996008  0.249913  1
  Zr  Zr4  1  0.331383  0.999875  0.753267  1
  Ga  Ga5  1  0.667306  0.667306  0.429054  1
  Ga  Ga6  1  0.668122  0.668123  0.071536  1
  Ga  Ga7  1  0.330262  0.330263  0.925034  1
  Ga  Ga8  1  0.336563  0.551108  0.251358  1
  Ga  Ga9  1  0.660996  0.447107  0.748973  1
  Ga  Ga10  1  0.551110  0.336564  0.251357  1
  Ga  Ga11  1  0.447108  0.660997  0.748975  1
  Ga  Ga12  1  0.997223  0.333887  0.080946  1
  Ga  Ga13  1  0.002673  0.666036  0.919962  1
  Ga  Ga14  1  0.003561  0.666542  0.579721  1
  Ga  Ga15  1  0.333988  0.000593  0.422985  1
  Ga  Ga16  1  0.000594  0.333990  0.422985  1
  Ga  Ga17  1  0.666542  0.003562  0.579721  1
  Ga  Ga18  1  0.666034  0.002671  0.919963  1
  Ga  Ga19  1  0.333888  0.997224  0.080946  1
  Ga  Ga20  1  0.123300  0.123300  0.251202  1
  Ga  Ga21  1  0.879630  0.879629  0.749795  1
  Rh  Rh22  1  0.999455  0.999457  0.001450  1
  Rh  Rh23  1  0.991645  0.991646  0.497441  1
  Rh  Rh24  1  0.672682  0.328369  0.001226  1
  Rh  Rh25  1  0.328367  0.672682  0.001226  1
  Rh  Rh26  1  0.329056  0.680585  0.498928  1
  Rh  Rh27  1  0.680583  0.329051  0.498928  1
