# generated using pymatgen
data_Pr4NdP12Pd2Ru17
_symmetry_space_group_name_H-M   'P 1'
_cell_length_a   12.77094100
_cell_length_b   12.67225538
_cell_length_c   4.02807600
_cell_angle_alpha   90.00000000
_cell_angle_beta   90.00000000
_cell_angle_gamma   120.25730596
_symmetry_Int_Tables_number   1
_chemical_formula_structural   Pr4NdP12Pd2Ru17
_chemical_formula_sum   'Pr4 Nd1 P12 Pd2 Ru17'
_cell_volume   563.08404402
_cell_formula_units_Z   1
loop_
 _symmetry_equiv_pos_site_id
 _symmetry_equiv_pos_as_xyz
  1  'x, y, z'
loop_
 _atom_site_type_symbol
 _atom_site_label
 _atom_site_symmetry_multiplicity
 _atom_site_fract_x
 _atom_site_fract_y
 _atom_site_fract_z
 _atom_site_occupancy
  Pr  Pr0  1  0.001054  0.182760  0.500000  1
  Pr  Pr1  1  0.818288  0.817251  0.500000  1
  Pr  Pr2  1  0.184112  0.999976  0.500000  1
  Pr  Pr3  1  0.664103  0.328323  0.000000  1
  Nd  Nd4  1  0.335880  0.671794  0.000000  1
  P  P5  1  0.998749  0.809083  0.000000  1
  P  P6  1  0.189553  0.191022  0.000000  1
  P  P7  1  0.814311  0.999902  0.000000  1
  P  P8  1  0.693866  0.169000  0.500000  1
  P  P9  1  0.819158  0.519807  0.500000  1
  P  P10  1  0.474853  0.297929  0.500000  1
  P  P11  1  0.177400  0.701885  0.500000  1
  P  P12  1  0.524271  0.830453  0.500000  1
  P  P13  1  0.299528  0.480897  0.500000  1
  P  P14  1  0.000037  0.368787  0.000000  1
  P  P15  1  0.631259  0.631186  0.000000  1
  P  P16  1  0.376726  0.999981  0.000000  1
  Pd  Pd17  1  0.999246  0.552616  0.000000  1
  Pd  Pd18  1  0.446622  0.447393  0.000000  1
  Ru  Ru19  1  0.555720  0.999953  0.000000  1
  Ru  Ru20  1  0.998081  0.709493  0.500000  1
  Ru  Ru21  1  0.288431  0.290676  0.500000  1
  Ru  Ru22  1  0.715931  0.999806  0.500000  1
  Ru  Ru23  1  0.806829  0.184452  0.000000  1
  Ru  Ru24  1  0.813019  0.617581  0.000000  1
  Ru  Ru25  1  0.377519  0.193282  0.000000  1
  Ru  Ru26  1  0.184489  0.806536  0.000000  1
  Ru  Ru27  1  0.621935  0.815258  0.000000  1
  Ru  Ru28  1  0.195638  0.382903  0.000000  1
  Ru  Ru29  1  0.873789  0.366108  0.500000  1
  Ru  Ru30  1  0.629186  0.508360  0.500000  1
  Ru  Ru31  1  0.490832  0.122369  0.500000  1
  Ru  Ru32  1  0.368536  0.877069  0.500000  1
  Ru  Ru33  1  0.507062  0.633838  0.500000  1
  Ru  Ru34  1  0.121379  0.492275  0.500000  1
  Ru  Ru35  1  0.002606  0.999996  0.000000  1
