# generated using pymatgen
data_LiPr8AlPd23
_symmetry_space_group_name_H-M   'P 1'
_cell_length_a   8.43864900
_cell_length_b   8.51101000
_cell_length_c   8.53953300
_cell_angle_alpha   90.00000000
_cell_angle_beta   90.00000000
_cell_angle_gamma   90.00000000
_symmetry_Int_Tables_number   1
_chemical_formula_structural   LiPr8AlPd23
_chemical_formula_sum   'Li1 Pr8 Al1 Pd23'
_cell_volume   613.32143765
_cell_formula_units_Z   1
loop_
 _symmetry_equiv_pos_site_id
 _symmetry_equiv_pos_as_xyz
  1  'x, y, z'
loop_
 _atom_site_type_symbol
 _atom_site_label
 _atom_site_symmetry_multiplicity
 _atom_site_fract_x
 _atom_site_fract_y
 _atom_site_fract_z
 _atom_site_occupancy
  Li  Li0  1  0.269055  0.500000  0.000000  1
  Pr  Pr1  1  0.251616  0.247496  0.257529  1
  Pr  Pr2  1  0.747945  0.747189  0.749700  1
  Pr  Pr3  1  0.747945  0.747189  0.250300  1
  Pr  Pr4  1  0.747945  0.252811  0.749700  1
  Pr  Pr5  1  0.251616  0.247496  0.742471  1
  Pr  Pr6  1  0.251616  0.752504  0.257529  1
  Pr  Pr7  1  0.251616  0.752504  0.742471  1
  Pr  Pr8  1  0.747945  0.252811  0.250300  1
  Al  Al9  1  0.997683  0.000000  0.000000  1
  Pd  Pd10  1  0.741008  0.500000  0.000000  1
  Pd  Pd11  1  0.997854  0.259801  0.500000  1
  Pd  Pd12  1  0.494718  0.263754  0.000000  1
  Pd  Pd13  1  0.997854  0.740199  0.500000  1
  Pd  Pd14  1  0.494718  0.736246  0.000000  1
  Pd  Pd15  1  0.500487  0.000000  0.260086  1
  Pd  Pd16  1  0.259252  0.000000  0.500000  1
  Pd  Pd17  1  0.500487  0.000000  0.739914  1
  Pd  Pd18  1  0.739345  0.000000  0.500000  1
  Pd  Pd19  1  0.002691  0.500000  0.260700  1
  Pd  Pd20  1  0.002691  0.500000  0.739300  1
  Pd  Pd21  1  0.253375  0.500000  0.500000  1
  Pd  Pd22  1  0.746755  0.500000  0.500000  1
  Pd  Pd23  1  0.501477  0.253892  0.500000  1
  Pd  Pd24  1  0.501477  0.746108  0.500000  1
  Pd  Pd25  1  0.496237  0.500000  0.252309  1
  Pd  Pd26  1  0.496237  0.500000  0.747691  1
  Pd  Pd27  1  0.289750  0.000000  0.000000  1
  Pd  Pd28  1  0.705218  0.000000  0.000000  1
  Pd  Pd29  1  0.008897  0.294573  0.000000  1
  Pd  Pd30  1  0.008897  0.705427  0.000000  1
  Pd  Pd31  1  0.997798  0.000000  0.289576  1
  Pd  Pd32  1  0.997798  0.000000  0.710424  1
