# generated using pymatgen
data_Cs2ScV3F12
_symmetry_space_group_name_H-M   'P 1'
_cell_length_a   7.69496777
_cell_length_b   7.69496826
_cell_length_c   7.69496731
_cell_angle_alpha   59.24064623
_cell_angle_beta   59.24064912
_cell_angle_gamma   59.24064230
_symmetry_Int_Tables_number   1
_chemical_formula_structural   Cs2ScV3F12
_chemical_formula_sum   'Cs2 Sc1 V3 F12'
_cell_volume   316.61234467
_cell_formula_units_Z   1
loop_
 _symmetry_equiv_pos_site_id
 _symmetry_equiv_pos_as_xyz
  1  'x, y, z'
loop_
 _atom_site_type_symbol
 _atom_site_label
 _atom_site_symmetry_multiplicity
 _atom_site_fract_x
 _atom_site_fract_y
 _atom_site_fract_z
 _atom_site_occupancy
  Cs  Cs0  1  0.372083  0.372083  0.372083  1
  Cs  Cs1  1  0.627917  0.627917  0.627917  1
  Sc  Sc2  1  0.000000  0.000000  0.000000  1
  V  V3  1  0.500000  0.000000  0.000000  1
  V  V4  1  0.000000  0.000000  0.500000  1
  V  V5  1  0.000000  0.500000  0.000000  1
  F  F6  1  0.935691  0.319728  0.319728  1
  F  F7  1  0.315201  0.932040  0.932040  1
  F  F8  1  0.319728  0.319728  0.935691  1
  F  F9  1  0.932040  0.932040  0.315201  1
  F  F10  1  0.932040  0.315201  0.932040  1
  F  F11  1  0.319728  0.935691  0.319728  1
  F  F12  1  0.064309  0.680272  0.680272  1
  F  F13  1  0.684799  0.067960  0.067960  1
  F  F14  1  0.680272  0.680272  0.064309  1
  F  F15  1  0.067960  0.067960  0.684799  1
  F  F16  1  0.067960  0.684799  0.067960  1
  F  F17  1  0.680272  0.064309  0.680272  1
