# generated using pymatgen
data_NaEr4Si6P6Ir19
_symmetry_space_group_name_H-M   'P 1'
_cell_length_a   12.79619948
_cell_length_b   12.76298285
_cell_length_c   3.94129100
_cell_angle_alpha   90.00000000
_cell_angle_beta   90.00000000
_cell_angle_gamma   119.90200912
_symmetry_Int_Tables_number   1
_chemical_formula_structural   NaEr4Si6P6Ir19
_chemical_formula_sum   'Na1 Er4 Si6 P6 Ir19'
_cell_volume   557.99499817
_cell_formula_units_Z   1
loop_
 _symmetry_equiv_pos_site_id
 _symmetry_equiv_pos_as_xyz
  1  'x, y, z'
loop_
 _atom_site_type_symbol
 _atom_site_label
 _atom_site_symmetry_multiplicity
 _atom_site_fract_x
 _atom_site_fract_y
 _atom_site_fract_z
 _atom_site_occupancy
  Na  Na0  1  0.816608  0.814897  0.500000  1
  Er  Er1  1  0.666799  0.333017  0.000000  1
  Er  Er2  1  0.332473  0.666691  0.000000  1
  Er  Er3  1  0.184037  0.001102  0.500000  1
  Er  Er4  1  0.997586  0.182076  0.500000  1
  Si  Si5  1  0.682439  0.162604  0.500000  1
  Si  Si6  1  0.836516  0.520953  0.500000  1
  Si  Si7  1  0.480687  0.318248  0.500000  1
  Si  Si8  1  0.637983  0.637114  0.000000  1
  Si  Si9  1  0.364510  0.000801  0.000000  1
  Si  Si10  1  0.998926  0.363419  0.000000  1
  P  P11  1  0.177793  0.694308  0.500000  1
  P  P12  1  0.517409  0.822171  0.500000  1
  P  P13  1  0.305853  0.483643  0.500000  1
  P  P14  1  0.176654  0.180638  0.000000  1
  P  P15  1  0.818896  0.993603  0.000000  1
  P  P16  1  0.998534  0.820832  0.000000  1
  Ir  Ir17  1  0.810136  0.176235  0.000000  1
  Ir  Ir18  1  0.822199  0.628870  0.000000  1
  Ir  Ir19  1  0.366967  0.191045  0.000000  1
  Ir  Ir20  1  0.183134  0.800956  0.000000  1
  Ir  Ir21  1  0.614193  0.815416  0.000000  1
  Ir  Ir22  1  0.199000  0.382328  0.000000  1
  Ir  Ir23  1  0.458100  0.443948  0.000000  1
  Ir  Ir24  1  0.557570  0.016767  0.000000  1
  Ir  Ir25  1  0.991483  0.544777  0.000000  1
  Ir  Ir26  1  0.277461  0.284024  0.500000  1
  Ir  Ir27  1  0.716494  0.994349  0.500000  1
  Ir  Ir28  1  0.008334  0.722409  0.500000  1
  Ir  Ir29  1  0.868728  0.354602  0.500000  1
  Ir  Ir30  1  0.645196  0.515505  0.500000  1
  Ir  Ir31  1  0.484745  0.131615  0.500000  1
  Ir  Ir32  1  0.369362  0.873016  0.500000  1
  Ir  Ir33  1  0.503466  0.630706  0.500000  1
  Ir  Ir34  1  0.127096  0.494945  0.500000  1
  Ir  Ir35  1  0.002632  0.002370  0.000000  1
