# generated using pymatgen
data_Hf4Ti2BI12
_symmetry_space_group_name_H-M   'P 1'
_cell_length_a   9.20822985
_cell_length_b   9.24051983
_cell_length_c   9.17961948
_cell_angle_alpha   106.69082989
_cell_angle_beta   106.78670117
_cell_angle_gamma   106.80861431
_symmetry_Int_Tables_number   1
_chemical_formula_structural   Hf4Ti2BI12
_chemical_formula_sum   'Hf4 Ti2 B1 I12'
_cell_volume   654.66935640
_cell_formula_units_Z   1
loop_
 _symmetry_equiv_pos_site_id
 _symmetry_equiv_pos_as_xyz
  1  'x, y, z'
loop_
 _atom_site_type_symbol
 _atom_site_label
 _atom_site_symmetry_multiplicity
 _atom_site_fract_x
 _atom_site_fract_y
 _atom_site_fract_z
 _atom_site_occupancy
  Hf  Hf0  1  0.972138  0.731060  0.912873  1
  Hf  Hf1  1  0.271245  0.088975  0.026617  1
  Hf  Hf2  1  0.085715  0.027889  0.268516  1
  Hf  Hf3  1  0.911545  0.975310  0.731106  1
  Ti  Ti4  1  0.746330  0.919498  0.975973  1
  Ti  Ti5  1  0.021665  0.252101  0.081735  1
  B  B6  1  0.003428  0.998290  0.998645  1
  I  I7  1  0.923962  0.305225  0.785111  1
  I  I8  1  0.697728  0.214825  0.074706  1
  I  I9  1  0.438214  0.140130  0.365377  1
  I  I10  1  0.860085  0.637500  0.561053  1
  I  I11  1  0.223908  0.078557  0.693713  1
  I  I12  1  0.636864  0.573462  0.865180  1
  I  I13  1  0.354268  0.433628  0.137654  1
  I  I14  1  0.774268  0.922408  0.300293  1
  I  I15  1  0.133904  0.361917  0.427795  1
  I  I16  1  0.565363  0.862678  0.644484  1
  I  I17  1  0.301278  0.775520  0.922356  1
  I  I18  1  0.078091  0.701026  0.226814  1
