# generated using pymatgen
data_NdSm6Th(Si3Pd)4
_symmetry_space_group_name_H-M   'P 1'
_cell_length_a   8.23373000
_cell_length_b   8.23373056
_cell_length_c   8.42870400
_cell_angle_alpha   90.00000000
_cell_angle_beta   90.00000000
_cell_angle_gamma   119.99999773
_symmetry_Int_Tables_number   1
_chemical_formula_structural   NdSm6Th(Si3Pd)4
_chemical_formula_sum   'Nd1 Sm6 Th1 Si12 Pd4'
_cell_volume   494.86269619
_cell_formula_units_Z   1
loop_
 _symmetry_equiv_pos_site_id
 _symmetry_equiv_pos_as_xyz
  1  'x, y, z'
loop_
 _atom_site_type_symbol
 _atom_site_label
 _atom_site_symmetry_multiplicity
 _atom_site_fract_x
 _atom_site_fract_y
 _atom_site_fract_z
 _atom_site_occupancy
  Nd  Nd0  1  0.000000  0.000000  0.250000  1
  Sm  Sm1  1  0.499628  0.500372  0.750000  1
  Sm  Sm2  1  0.500747  0.499253  0.250000  1
  Sm  Sm3  1  0.000742  0.500372  0.750000  1
  Sm  Sm4  1  0.998505  0.499253  0.250000  1
  Sm  Sm5  1  0.499628  0.999258  0.750000  1
  Sm  Sm6  1  0.500747  0.001495  0.250000  1
  Th  Th7  1  0.000000  0.000000  0.750000  1
  Si  Si8  1  0.833859  0.166141  0.999698  1
  Si  Si9  1  0.166120  0.833880  0.000406  1
  Si  Si10  1  0.332282  0.166141  0.999698  1
  Si  Si11  1  0.166120  0.833880  0.499594  1
  Si  Si12  1  0.667758  0.833880  0.000406  1
  Si  Si13  1  0.833859  0.166141  0.500302  1
  Si  Si14  1  0.833859  0.667718  0.999698  1
  Si  Si15  1  0.667758  0.833880  0.499594  1
  Si  Si16  1  0.166120  0.332242  0.000406  1
  Si  Si17  1  0.332282  0.166141  0.500302  1
  Si  Si18  1  0.166120  0.332242  0.499594  1
  Si  Si19  1  0.833859  0.667718  0.500302  1
  Pd  Pd20  1  0.666667  0.333333  0.998108  1
  Pd  Pd21  1  0.333333  0.666667  0.001594  1
  Pd  Pd22  1  0.333333  0.666667  0.498406  1
  Pd  Pd23  1  0.666667  0.333333  0.501892  1
