# generated using pymatgen
data_TmLu7Tc2(B12Os)2
_symmetry_space_group_name_H-M   'P 1'
_cell_length_a   3.60822000
_cell_length_b   9.04694839
_cell_length_c   11.41307901
_cell_angle_alpha   89.92472643
_cell_angle_beta   90.00000000
_cell_angle_gamma   90.00000000
_symmetry_Int_Tables_number   1
_chemical_formula_structural   TmLu7Tc2(B12Os)2
_chemical_formula_sum   'Tm1 Lu7 Tc2 B24 Os2'
_cell_volume   372.56115483
_cell_formula_units_Z   1
loop_
 _symmetry_equiv_pos_site_id
 _symmetry_equiv_pos_as_xyz
  1  'x, y, z'
loop_
 _atom_site_type_symbol
 _atom_site_label
 _atom_site_symmetry_multiplicity
 _atom_site_fract_x
 _atom_site_fract_y
 _atom_site_fract_z
 _atom_site_occupancy
  Tm  Tm0  1  0.000000  0.324370  0.415273  1
  Lu  Lu1  1  0.000000  0.675572  0.584643  1
  Lu  Lu2  1  0.000000  0.820132  0.087670  1
  Lu  Lu3  1  0.000000  0.179856  0.912313  1
  Lu  Lu4  1  0.000000  0.942031  0.371461  1
  Lu  Lu5  1  0.000000  0.057806  0.628606  1
  Lu  Lu6  1  0.000000  0.444131  0.129362  1
  Lu  Lu7  1  0.000000  0.555944  0.870595  1
  Tc  Tc8  1  0.000000  0.638783  0.320120  1
  Tc  Tc9  1  0.000000  0.361466  0.680000  1
  B  B10  1  0.500000  0.553073  0.433635  1
  B  B11  1  0.500000  0.447224  0.566528  1
  B  B12  1  0.500000  0.053431  0.066109  1
  B  B13  1  0.500000  0.946549  0.933877  1
  B  B14  1  0.500000  0.749567  0.419891  1
  B  B15  1  0.500000  0.250406  0.580375  1
  B  B16  1  0.500000  0.249918  0.080265  1
  B  B17  1  0.500000  0.750079  0.919709  1
  B  B18  1  0.500000  0.792717  0.264903  1
  B  B19  1  0.500000  0.207281  0.735125  1
  B  B20  1  0.500000  0.291854  0.234534  1
  B  B21  1  0.500000  0.708062  0.765283  1
  B  B22  1  0.500000  0.631092  0.184269  1
  B  B23  1  0.500000  0.368938  0.815720  1
  B  B24  1  0.500000  0.130436  0.314848  1
  B  B25  1  0.500000  0.869382  0.685031  1
  B  B26  1  0.500000  0.981516  0.212170  1
  B  B27  1  0.500000  0.018454  0.787828  1
  B  B28  1  0.500000  0.481496  0.287232  1
  B  B29  1  0.500000  0.518793  0.712653  1
  B  B30  1  0.500000  0.602468  0.028129  1
  B  B31  1  0.500000  0.397538  0.971859  1
  B  B32  1  0.500000  0.102226  0.471381  1
  B  B33  1  0.500000  0.897488  0.528716  1
  Os  Os34  1  0.000000  0.137528  0.178130  1
  Os  Os35  1  0.000000  0.862394  0.821760  1
