# generated using pymatgen
data_La20AlSi10Sn
_symmetry_space_group_name_H-M   'P 1'
_cell_length_a   7.90621200
_cell_length_b   7.90621200
_cell_length_c   14.53922200
_cell_angle_alpha   90.00000000
_cell_angle_beta   90.00000000
_cell_angle_gamma   90.00000000
_symmetry_Int_Tables_number   1
_chemical_formula_structural   La20AlSi10Sn
_chemical_formula_sum   'La20 Al1 Si10 Sn1'
_cell_volume   908.82042490
_cell_formula_units_Z   1
loop_
 _symmetry_equiv_pos_site_id
 _symmetry_equiv_pos_as_xyz
  1  'x, y, z'
loop_
 _atom_site_type_symbol
 _atom_site_label
 _atom_site_symmetry_multiplicity
 _atom_site_fract_x
 _atom_site_fract_y
 _atom_site_fract_z
 _atom_site_occupancy
  La  La0  1  0.500000  0.000000  0.774882  1
  La  La1  1  0.334701  0.310039  0.106996  1
  La  La2  1  0.822536  0.823368  0.892128  1
  La  La3  1  0.000000  0.500000  0.236364  1
  La  La4  1  0.823312  0.178863  0.393035  1
  La  La5  1  0.177464  0.176632  0.892128  1
  La  La6  1  0.665299  0.689961  0.106996  1
  La  La7  1  0.000000  0.500000  0.724307  1
  La  La8  1  0.810209  0.834170  0.606795  1
  La  La9  1  0.321137  0.323312  0.393035  1
  La  La10  1  0.189961  0.834701  0.106996  1
  La  La11  1  0.189791  0.165830  0.606795  1
  La  La12  1  0.810039  0.165299  0.106996  1
  La  La13  1  0.334170  0.689791  0.606795  1
  La  La14  1  0.500000  0.000000  0.277547  1
  La  La15  1  0.676632  0.322536  0.892128  1
  La  La16  1  0.665830  0.310209  0.606795  1
  La  La17  1  0.323368  0.677464  0.892128  1
  La  La18  1  0.176688  0.821137  0.393035  1
  La  La19  1  0.678863  0.676688  0.393035  1
  Al  Al20  1  0.000000  0.500000  0.500967  1
  Si  Si21  1  0.614198  0.388666  0.249614  1
  Si  Si22  1  0.888579  0.114613  0.750383  1
  Si  Si23  1  0.500000  0.000000  0.493991  1
  Si  Si24  1  0.888666  0.885802  0.249614  1
  Si  Si25  1  0.111421  0.885387  0.750383  1
  Si  Si26  1  0.385387  0.388579  0.750383  1
  Si  Si27  1  0.111334  0.114198  0.249614  1
  Si  Si28  1  0.385802  0.611334  0.249614  1
  Si  Si29  1  0.614613  0.611421  0.750383  1
  Si  Si30  1  0.500000  0.000000  0.992990  1
  Sn  Sn31  1  0.000000  0.500000  0.003141  1
