# generated using pymatgen
data_Be4CoCu2Rh
_symmetry_space_group_name_H-M   'P 1'
_cell_length_a   5.29749450
_cell_length_b   5.30976500
_cell_length_c   5.51671652
_cell_angle_alpha   90.00000000
_cell_angle_beta   89.95012487
_cell_angle_gamma   90.00000000
_symmetry_Int_Tables_number   1
_chemical_formula_structural   Be4CoCu2Rh
_chemical_formula_sum   'Be8 Co2 Cu4 Rh2'
_cell_volume   155.17663100
_cell_formula_units_Z   2
loop_
 _symmetry_equiv_pos_site_id
 _symmetry_equiv_pos_as_xyz
  1  'x, y, z'
loop_
 _atom_site_type_symbol
 _atom_site_label
 _atom_site_symmetry_multiplicity
 _atom_site_fract_x
 _atom_site_fract_y
 _atom_site_fract_z
 _atom_site_occupancy
  Be  Be0  1  0.000012  0.999999  0.234973  1
  Be  Be1  1  0.000012  0.500001  0.234973  1
  Be  Be2  1  0.499987  0.500018  0.235556  1
  Be  Be3  1  0.499987  0.999984  0.235556  1
  Be  Be4  1  0.500012  0.000016  0.764444  1
  Be  Be5  1  0.500012  0.499982  0.764444  1
  Be  Be6  1  0.999989  0.499999  0.765027  1
  Be  Be7  1  0.999989  0.000002  0.765027  1
  Co  Co8  1  0.250382  0.250000  0.000000  1
  Co  Co9  1  0.749620  0.750000  0.000000  1
  Cu  Cu10  1  0.749545  0.250000  0.000571  1
  Cu  Cu11  1  0.250455  0.750000  0.999429  1
  Cu  Cu12  1  0.749423  0.250000  0.500546  1
  Cu  Cu13  1  0.250578  0.750000  0.499454  1
  Rh  Rh14  1  0.249704  0.250000  0.499977  1
  Rh  Rh15  1  0.750298  0.750000  0.500024  1
