# generated using pymatgen
data_YbEuUIr3
_symmetry_space_group_name_H-M   'P 1'
_cell_length_a   5.32336195
_cell_length_b   5.32336271
_cell_length_c   5.32336300
_cell_angle_alpha   65.77629136
_cell_angle_beta   65.77628770
_cell_angle_gamma   65.77628142
_symmetry_Int_Tables_number   1
_chemical_formula_structural   YbEuUIr3
_chemical_formula_sum   'Yb1 Eu1 U1 Ir3'
_cell_volume   120.03179028
_cell_formula_units_Z   1
loop_
 _symmetry_equiv_pos_site_id
 _symmetry_equiv_pos_as_xyz
  1  'x, y, z'
loop_
 _atom_site_type_symbol
 _atom_site_label
 _atom_site_symmetry_multiplicity
 _atom_site_fract_x
 _atom_site_fract_y
 _atom_site_fract_z
 _atom_site_occupancy
  Yb  Yb0  1  0.001936  0.001936  0.001936  1
  Eu  Eu1  1  0.243686  0.243686  0.243686  1
  U  U2  1  0.625691  0.625691  0.625691  1
  Ir  Ir3  1  0.626703  0.626703  0.125280  1
  Ir  Ir4  1  0.626703  0.125280  0.626703  1
  Ir  Ir5  1  0.125280  0.626703  0.626703  1
