# generated using pymatgen
data_Na2Tc5(NiP)7
_symmetry_space_group_name_H-M   'P 1'
_cell_length_a   9.13444600
_cell_length_b   9.23746769
_cell_length_c   3.75890800
_cell_angle_alpha   90.00000000
_cell_angle_beta   90.00000000
_cell_angle_gamma   119.71172238
_symmetry_Int_Tables_number   1
_chemical_formula_structural   Na2Tc5(NiP)7
_chemical_formula_sum   'Na2 Tc5 Ni7 P7'
_cell_volume   275.47470700
_cell_formula_units_Z   1
loop_
 _symmetry_equiv_pos_site_id
 _symmetry_equiv_pos_as_xyz
  1  'x, y, z'
loop_
 _atom_site_type_symbol
 _atom_site_label
 _atom_site_symmetry_multiplicity
 _atom_site_fract_x
 _atom_site_fract_y
 _atom_site_fract_z
 _atom_site_occupancy
  Na  Na0  1  0.667207  0.329273  0.500000  1
  Na  Na1  1  0.337127  0.670577  0.000000  1
  Tc  Tc2  1  0.392295  0.434331  0.500000  1
  Tc  Tc3  1  0.046517  0.608604  0.500000  1
  Tc  Tc4  1  0.208779  0.085917  0.500000  1
  Tc  Tc5  1  0.880026  0.797387  0.500000  1
  Tc  Tc6  1  0.898354  0.123489  0.500000  1
  Ni  Ni7  1  0.718619  0.882236  0.000000  1
  Ni  Ni8  1  0.122397  0.843018  0.000000  1
  Ni  Ni9  1  0.154087  0.269988  0.000000  1
  Ni  Ni10  1  0.935832  0.364387  0.000000  1
  Ni  Ni11  1  0.637850  0.576314  0.000000  1
  Ni  Ni12  1  0.434933  0.065173  0.000000  1
  Ni  Ni13  1  0.560271  0.953319  0.500000  1
  P  P14  1  0.998697  0.997872  0.000000  1
  P  P15  1  0.414701  0.297016  0.000000  1
  P  P16  1  0.593106  0.717162  0.500000  1
  P  P17  1  0.288897  0.879543  0.500000  1
  P  P18  1  0.121842  0.403158  0.500000  1
  P  P19  1  0.702316  0.113124  0.000000  1
  P  P20  1  0.886146  0.588111  0.000000  1
