# generated using pymatgen
data_SmTmNb2(SnPt)4
_symmetry_space_group_name_H-M   'P 1'
_cell_length_a   6.47889254
_cell_length_b   4.55510300
_cell_length_c   9.14419906
_cell_angle_alpha   90.00000000
_cell_angle_beta   89.93808764
_cell_angle_gamma   90.00000000
_symmetry_Int_Tables_number   1
_chemical_formula_structural   SmTmNb2(SnPt)4
_chemical_formula_sum   'Sm1 Tm1 Nb2 Sn4 Pt4'
_cell_volume   269.86365413
_cell_formula_units_Z   1
loop_
 _symmetry_equiv_pos_site_id
 _symmetry_equiv_pos_as_xyz
  1  'x, y, z'
loop_
 _atom_site_type_symbol
 _atom_site_label
 _atom_site_symmetry_multiplicity
 _atom_site_fract_x
 _atom_site_fract_y
 _atom_site_fract_z
 _atom_site_occupancy
  Sm  Sm0  1  0.502217  0.500001  0.624137  1
  Tm  Tm1  1  0.003140  0.000000  0.376006  1
  Nb  Nb2  1  0.497133  0.500001  0.124030  1
  Nb  Nb3  1  0.997685  0.000000  0.875990  1
  Sn  Sn4  1  0.986374  0.500001  0.124802  1
  Sn  Sn5  1  0.509402  0.000000  0.369572  1
  Sn  Sn6  1  0.009805  0.500001  0.627226  1
  Sn  Sn7  1  0.487664  0.000000  0.878573  1
  Pt  Pt8  1  0.738490  0.000000  0.113101  1
  Pt  Pt9  1  0.261292  0.500001  0.355890  1
  Pt  Pt10  1  0.771245  0.000000  0.641140  1
  Pt  Pt11  1  0.235545  0.500001  0.889534  1
