# generated using pymatgen
data_Zr4TaTi3Re4
_symmetry_space_group_name_H-M   'P 1'
_cell_length_a   5.32788000
_cell_length_b   5.35449185
_cell_length_c   8.75820300
_cell_angle_alpha   90.00000000
_cell_angle_beta   90.00000000
_cell_angle_gamma   120.18236861
_symmetry_Int_Tables_number   1
_chemical_formula_structural   Zr4TaTi3Re4
_chemical_formula_sum   'Zr4 Ta1 Ti3 Re4'
_cell_volume   215.98187649
_cell_formula_units_Z   1
loop_
 _symmetry_equiv_pos_site_id
 _symmetry_equiv_pos_as_xyz
  1  'x, y, z'
loop_
 _atom_site_type_symbol
 _atom_site_label
 _atom_site_symmetry_multiplicity
 _atom_site_fract_x
 _atom_site_fract_y
 _atom_site_fract_z
 _atom_site_occupancy
  Zr  Zr0  1  0.333595  0.664064  0.062783  1
  Zr  Zr1  1  0.665648  0.330237  0.562481  1
  Zr  Zr2  1  0.665648  0.330237  0.937519  1
  Zr  Zr3  1  0.333595  0.664064  0.437217  1
  Ta  Ta4  1  0.169853  0.829933  0.750000  1
  Ti  Ti5  1  0.998690  0.006875  0.002933  1
  Ti  Ti6  1  0.998690  0.006875  0.497067  1
  Ti  Ti7  1  0.831149  0.661644  0.250000  1
  Re  Re8  1  0.663300  0.829454  0.750000  1
  Re  Re9  1  0.340617  0.169152  0.250000  1
  Re  Re10  1  0.828093  0.169563  0.250000  1
  Re  Re11  1  0.171123  0.337902  0.750000  1
