# generated using pymatgen
data_Li8Dy7Ho(SnSb3)2
_symmetry_space_group_name_H-M   'P 1'
_cell_length_a   9.45558200
_cell_length_b   9.45196899
_cell_length_c   7.03147701
_cell_angle_alpha   90.00425051
_cell_angle_beta   90.00000000
_cell_angle_gamma   120.01264552
_symmetry_Int_Tables_number   1
_chemical_formula_structural   Li8Dy7Ho(SnSb3)2
_chemical_formula_sum   'Li8 Dy7 Ho1 Sn2 Sb6'
_cell_volume   544.16723699
_cell_formula_units_Z   1
loop_
 _symmetry_equiv_pos_site_id
 _symmetry_equiv_pos_as_xyz
  1  'x, y, z'
loop_
 _atom_site_type_symbol
 _atom_site_label
 _atom_site_symmetry_multiplicity
 _atom_site_fract_x
 _atom_site_fract_y
 _atom_site_fract_z
 _atom_site_occupancy
  Li  Li0  1  0.167006  0.334011  0.274350  1
  Li  Li1  1  0.167086  0.832964  0.274405  1
  Li  Li2  1  0.665878  0.832964  0.274405  1
  Li  Li3  1  0.832977  0.665955  0.774325  1
  Li  Li4  1  0.832950  0.167045  0.774254  1
  Li  Li5  1  0.334095  0.167045  0.774254  1
  Li  Li6  1  0.333399  0.666800  0.692954  1
  Li  Li7  1  0.666638  0.333274  0.193085  1
  Dy  Dy8  1  0.508458  0.491564  0.494135  1
  Dy  Dy9  1  0.983106  0.491564  0.494135  1
  Dy  Dy10  1  0.491506  0.983013  0.994152  1
  Dy  Dy11  1  0.491561  0.508437  0.994123  1
  Dy  Dy12  1  0.016875  0.508437  0.994123  1
  Dy  Dy13  1  0.000008  0.000016  0.501136  1
  Dy  Dy14  1  0.000028  0.000056  0.001120  1
  Ho  Ho15  1  0.508459  0.016917  0.494181  1
  Sn  Sn16  1  0.333486  0.666973  0.258933  1
  Sn  Sn17  1  0.666533  0.333065  0.758389  1
  Sb  Sb18  1  0.166332  0.332662  0.737585  1
  Sb  Sb19  1  0.166574  0.833778  0.737344  1
  Sb  Sb20  1  0.667205  0.833778  0.737344  1
  Sb  Sb21  1  0.833644  0.667288  0.237540  1
  Sb  Sb22  1  0.833411  0.166197  0.237860  1
  Sb  Sb23  1  0.332785  0.166197  0.237860  1
