# generated using pymatgen
data_Ti8Al15Cu2Ru5
_symmetry_space_group_name_H-M   'P 1'
_cell_length_a   8.65526011
_cell_length_b   8.61680332
_cell_length_c   8.65525977
_cell_angle_alpha   120.15857084
_cell_angle_beta   119.82566269
_cell_angle_gamma   90.14243259
_symmetry_Int_Tables_number   1
_chemical_formula_structural   Ti8Al15Cu2Ru5
_chemical_formula_sum   'Ti8 Al15 Cu2 Ru5'
_cell_volume   455.98290947
_cell_formula_units_Z   1
loop_
 _symmetry_equiv_pos_site_id
 _symmetry_equiv_pos_as_xyz
  1  'x, y, z'
loop_
 _atom_site_type_symbol
 _atom_site_label
 _atom_site_symmetry_multiplicity
 _atom_site_fract_x
 _atom_site_fract_y
 _atom_site_fract_z
 _atom_site_occupancy
  Ti  Ti0  1  0.786926  0.284278  0.065977  1
  Ti  Ti1  1  0.218301  0.284278  0.497351  1
  Ti  Ti2  1  0.211816  0.714313  0.502497  1
  Ti  Ti3  1  0.212618  0.717792  0.927319  1
  Ti  Ti4  1  0.790472  0.717792  0.505174  1
  Ti  Ti5  1  0.779736  0.280540  0.500804  1
  Ti  Ti6  1  0.386289  0.128609  0.742320  1
  Ti  Ti7  1  0.378552  0.634899  0.256347  1
  Al  Al8  1  0.996346  0.493980  0.497633  1
  Al  Al9  1  0.154267  0.347448  0.193180  1
  Al  Al10  1  0.158985  0.972082  0.813097  1
  Al  Al11  1  0.150925  0.344421  0.803748  1
  Al  Al12  1  0.540671  0.344421  0.193497  1
  Al  Al13  1  0.844992  0.652104  0.807113  1
  Al  Al14  1  0.846012  0.039551  0.193540  1
  Al  Al15  1  0.845215  0.653047  0.190947  1
  Al  Al16  1  0.462101  0.653047  0.807832  1
  Al  Al17  1  0.375809  0.123539  0.260117  1
  Al  Al18  1  0.863423  0.123539  0.747730  1
  Al  Al19  1  0.617829  0.873400  0.255571  1
  Al  Al20  1  0.622366  0.367740  0.745373  1
  Al  Al21  1  0.621707  0.875387  0.738963  1
  Al  Al22  1  0.136424  0.875387  0.253680  1
  Cu  Cu23  1  0.000192  0.999722  0.499280  1
  Cu  Cu24  1  0.500442  0.999722  0.999530  1
  Ru  Ru25  1  0.498430  0.500304  0.001874  1
  Ru  Ru26  1  0.498402  0.499075  0.498138  1
  Ru  Ru27  1  0.000937  0.499075  0.000674  1
  Ru  Ru28  1  0.999775  0.000341  0.000565  1
  Ru  Ru29  1  0.500037  0.000164  0.500127  1
