# generated using pymatgen
data_Dy3Y(B2Ir5)2
_symmetry_space_group_name_H-M   'P 1'
_cell_length_a   11.02266857
_cell_length_b   11.02266834
_cell_length_c   11.02266903
_cell_angle_alpha   28.75348691
_cell_angle_beta   28.75348596
_cell_angle_gamma   28.75349831
_symmetry_Int_Tables_number   1
_chemical_formula_structural   Dy3Y(B2Ir5)2
_chemical_formula_sum   'Dy3 Y1 B4 Ir10'
_cell_volume   274.01009111
_cell_formula_units_Z   1
loop_
 _symmetry_equiv_pos_site_id
 _symmetry_equiv_pos_as_xyz
  1  'x, y, z'
loop_
 _atom_site_type_symbol
 _atom_site_label
 _atom_site_symmetry_multiplicity
 _atom_site_fract_x
 _atom_site_fract_y
 _atom_site_fract_z
 _atom_site_occupancy
  Dy  Dy0  1  0.950215  0.950215  0.950215  1
  Dy  Dy1  1  0.848061  0.848061  0.848061  1
  Dy  Dy2  1  0.049699  0.049699  0.049699  1
  Y  Y3  1  0.151931  0.151931  0.151931  1
  B  B4  1  0.617481  0.617481  0.617481  1
  B  B5  1  0.716094  0.716094  0.716094  1
  B  B6  1  0.382545  0.382545  0.382545  1
  B  B7  1  0.283908  0.283908  0.283908  1
  Ir  Ir8  1  0.405847  0.899613  0.405847  1
  Ir  Ir9  1  0.899613  0.405847  0.405847  1
  Ir  Ir10  1  0.499990  0.499990  0.999996  1
  Ir  Ir11  1  0.499990  0.999996  0.499990  1
  Ir  Ir12  1  0.999996  0.499990  0.499990  1
  Ir  Ir13  1  0.500017  0.500017  0.500017  1
  Ir  Ir14  1  0.594210  0.100346  0.594210  1
  Ir  Ir15  1  0.594210  0.594210  0.100346  1
  Ir  Ir16  1  0.100346  0.594210  0.594210  1
  Ir  Ir17  1  0.405847  0.405847  0.899613  1
