# generated using pymatgen
data_CeLu9(SiPb3)2
_symmetry_space_group_name_H-M   'P 1'
_cell_length_a   9.20150100
_cell_length_b   9.19763801
_cell_length_c   6.41715100
_cell_angle_alpha   90.00000000
_cell_angle_beta   90.00000000
_cell_angle_gamma   120.01389080
_symmetry_Int_Tables_number   1
_chemical_formula_structural   CeLu9(SiPb3)2
_chemical_formula_sum   'Ce1 Lu9 Si2 Pb6'
_cell_volume   470.26978353
_cell_formula_units_Z   1
loop_
 _symmetry_equiv_pos_site_id
 _symmetry_equiv_pos_as_xyz
  1  'x, y, z'
loop_
 _atom_site_type_symbol
 _atom_site_label
 _atom_site_symmetry_multiplicity
 _atom_site_fract_x
 _atom_site_fract_y
 _atom_site_fract_z
 _atom_site_occupancy
  Ce  Ce0  1  0.247825  0.000000  0.750000  1
  Lu  Lu1  1  0.745191  0.000000  0.250000  1
  Lu  Lu2  1  0.001853  0.245919  0.750000  1
  Lu  Lu3  1  0.997178  0.744628  0.250000  1
  Lu  Lu4  1  0.755934  0.754081  0.750000  1
  Lu  Lu5  1  0.252550  0.255372  0.250000  1
  Lu  Lu6  1  0.333615  0.666871  0.499682  1
  Lu  Lu7  1  0.666745  0.333129  0.499682  1
  Lu  Lu8  1  0.666745  0.333129  0.000318  1
  Lu  Lu9  1  0.333615  0.666871  0.000318  1
  Si  Si10  1  0.998928  0.000000  0.484527  1
  Si  Si11  1  0.998928  0.000000  0.015473  1
  Pb  Pb12  1  0.611098  0.000000  0.750000  1
  Pb  Pb13  1  0.389384  0.000000  0.250000  1
  Pb  Pb14  1  0.997715  0.600522  0.750000  1
  Pb  Pb15  1  0.998890  0.392276  0.250000  1
  Pb  Pb16  1  0.397193  0.399478  0.750000  1
  Pb  Pb17  1  0.606613  0.607724  0.250000  1
