# generated using pymatgen
data_Lu6B4Ir9Ru
_symmetry_space_group_name_H-M   'P 1'
_cell_length_a   3.14068300
_cell_length_b   9.84087207
_cell_length_c   9.84087236
_cell_angle_alpha   90.45536019
_cell_angle_beta   90.00000000
_cell_angle_gamma   90.00000000
_symmetry_Int_Tables_number   1
_chemical_formula_structural   Lu6B4Ir9Ru
_chemical_formula_sum   'Lu6 B4 Ir9 Ru1'
_cell_volume   304.14282293
_cell_formula_units_Z   1
loop_
 _symmetry_equiv_pos_site_id
 _symmetry_equiv_pos_as_xyz
  1  'x, y, z'
loop_
 _atom_site_type_symbol
 _atom_site_label
 _atom_site_symmetry_multiplicity
 _atom_site_fract_x
 _atom_site_fract_y
 _atom_site_fract_z
 _atom_site_occupancy
  Lu  Lu0  1  0.000000  0.173181  0.673181  1
  Lu  Lu1  1  0.000000  0.826819  0.326819  1
  Lu  Lu2  1  0.000000  0.323187  0.176813  1
  Lu  Lu3  1  0.000000  0.676813  0.823187  1
  Lu  Lu4  1  0.000000  0.000000  0.000000  1
  Lu  Lu5  1  0.000000  0.500000  0.500000  1
  B  B6  1  0.000000  0.621955  0.121955  1
  B  B7  1  0.000000  0.378045  0.878045  1
  B  B8  1  0.000000  0.881993  0.618007  1
  B  B9  1  0.000000  0.118007  0.381993  1
  Ir  Ir10  1  0.500000  0.071547  0.227320  1
  Ir  Ir11  1  0.500000  0.928453  0.772680  1
  Ir  Ir12  1  0.500000  0.772143  0.071473  1
  Ir  Ir13  1  0.500000  0.428527  0.727857  1
  Ir  Ir14  1  0.500000  0.227857  0.928527  1
  Ir  Ir15  1  0.500000  0.571473  0.272143  1
  Ir  Ir16  1  0.500000  0.727320  0.571547  1
  Ir  Ir17  1  0.500000  0.272680  0.428453  1
  Ir  Ir18  1  0.500000  0.500000  0.000000  1
  Ru  Ru19  1  0.500000  0.000000  0.500000  1
