# generated using pymatgen
data_Dy3Tl2InAg2Ir
_symmetry_space_group_name_H-M   'P 1'
_cell_length_a   8.04062567
_cell_length_b   8.11055198
_cell_length_c   3.73132100
_cell_angle_alpha   90.00000000
_cell_angle_beta   90.00000000
_cell_angle_gamma   119.91640565
_symmetry_Int_Tables_number   1
_chemical_formula_structural   Dy3Tl2InAg2Ir
_chemical_formula_sum   'Dy3 Tl2 In1 Ag2 Ir1'
_cell_volume   210.91074854
_cell_formula_units_Z   1
loop_
 _symmetry_equiv_pos_site_id
 _symmetry_equiv_pos_as_xyz
  1  'x, y, z'
loop_
 _atom_site_type_symbol
 _atom_site_label
 _atom_site_symmetry_multiplicity
 _atom_site_fract_x
 _atom_site_fract_y
 _atom_site_fract_z
 _atom_site_occupancy
  Dy  Dy0  1  0.579422  0.614305  0.000000  1
  Dy  Dy1  1  0.384364  0.963331  0.000000  1
  Dy  Dy2  1  0.039545  0.425368  0.000000  1
  Tl  Tl3  1  0.983528  0.717874  0.500000  1
  Tl  Tl4  1  0.279971  0.268475  0.500000  1
  In  In5  1  0.730824  0.009741  0.500000  1
  Ag  Ag6  1  0.992692  0.000638  0.000000  1
  Ag  Ag7  1  0.668395  0.326929  0.500000  1
  Ir  Ir8  1  0.341258  0.673340  0.500000  1
