# generated using pymatgen
data_Ta12VB12Os11
_symmetry_space_group_name_H-M   'P 1'
_cell_length_a   3.11904500
_cell_length_b   9.07893469
_cell_length_c   15.76292446
_cell_angle_alpha   90.17658744
_cell_angle_beta   90.00000000
_cell_angle_gamma   90.00000000
_symmetry_Int_Tables_number   1
_chemical_formula_structural   Ta12VB12Os11
_chemical_formula_sum   'Ta12 V1 B12 Os11'
_cell_volume   446.36616199
_cell_formula_units_Z   1
loop_
 _symmetry_equiv_pos_site_id
 _symmetry_equiv_pos_as_xyz
  1  'x, y, z'
loop_
 _atom_site_type_symbol
 _atom_site_label
 _atom_site_symmetry_multiplicity
 _atom_site_fract_x
 _atom_site_fract_y
 _atom_site_fract_z
 _atom_site_occupancy
  Ta  Ta0  1  0.000000  0.800590  0.493652  1
  Ta  Ta1  1  0.000000  0.199839  0.503993  1
  Ta  Ta2  1  0.000000  0.300049  0.004737  1
  Ta  Ta3  1  0.000000  0.700726  0.997283  1
  Ta  Ta4  1  0.000000  0.516736  0.593188  1
  Ta  Ta5  1  0.000000  0.484231  0.405839  1
  Ta  Ta6  1  0.000000  0.017028  0.907303  1
  Ta  Ta7  1  0.000000  0.983823  0.095974  1
  Ta  Ta8  1  0.000000  0.691120  0.204432  1
  Ta  Ta9  1  0.000000  0.312485  0.797976  1
  Ta  Ta10  1  0.000000  0.179273  0.294320  1
  Ta  Ta11  1  0.000000  0.811954  0.702602  1
  V  V12  1  0.500000  0.932743  0.231426  1
  B  B13  1  0.500000  0.606376  0.496019  1
  B  B14  1  0.500000  0.393806  0.502772  1
  B  B15  1  0.500000  0.106907  0.004700  1
  B  B16  1  0.500000  0.895070  0.996242  1
  B  B17  1  0.000000  0.610062  0.833263  1
  B  B18  1  0.000000  0.390819  0.167632  1
  B  B19  1  0.000000  0.109474  0.667125  1
  B  B20  1  0.000000  0.892614  0.327544  1
  B  B21  1  0.500000  0.716461  0.597616  1
  B  B22  1  0.500000  0.283592  0.400194  1
  B  B23  1  0.500000  0.216611  0.902140  1
  B  B24  1  0.500000  0.787824  0.103527  1
  Os  Os25  1  0.500000  0.717954  0.355354  1
  Os  Os26  1  0.500000  0.281461  0.644419  1
  Os  Os27  1  0.500000  0.219985  0.143382  1
  Os  Os28  1  0.500000  0.781604  0.857011  1
  Os  Os29  1  0.500000  0.517898  0.094806  1
  Os  Os30  1  0.500000  0.484991  0.906954  1
  Os  Os31  1  0.500000  0.015548  0.405561  1
  Os  Os32  1  0.500000  0.984221  0.593793  1
  Os  Os33  1  0.500000  0.561375  0.734730  1
  Os  Os34  1  0.500000  0.433426  0.266441  1
  Os  Os35  1  0.500000  0.061322  0.766049  1
