# generated using pymatgen
data_Ti2Nb8(SiP)3
_symmetry_space_group_name_H-M   'P 1'
_cell_length_a   7.48538685
_cell_length_b   7.48538609
_cell_length_c   7.46916674
_cell_angle_alpha   128.13423371
_cell_angle_beta   128.13422574
_cell_angle_gamma   76.56537760
_symmetry_Int_Tables_number   1
_chemical_formula_structural   Ti2Nb8(SiP)3
_chemical_formula_sum   'Ti2 Nb8 Si3 P3'
_cell_volume   251.30466578
_cell_formula_units_Z   1
loop_
 _symmetry_equiv_pos_site_id
 _symmetry_equiv_pos_as_xyz
  1  'x, y, z'
loop_
 _atom_site_type_symbol
 _atom_site_label
 _atom_site_symmetry_multiplicity
 _atom_site_fract_x
 _atom_site_fract_y
 _atom_site_fract_z
 _atom_site_occupancy
  Ti  Ti0  1  0.498146  0.501071  0.999217  1
  Ti  Ti1  1  0.001071  0.998146  0.999217  1
  Nb  Nb2  1  0.019535  0.190233  0.502247  1
  Nb  Nb3  1  0.516097  0.016097  0.823548  1
  Nb  Nb4  1  0.191598  0.691598  0.171783  1
  Nb  Nb5  1  0.480186  0.980186  0.171783  1
  Nb  Nb6  1  0.690233  0.519535  0.502247  1
  Nb  Nb7  1  0.982712  0.812014  0.502247  1
  Nb  Nb8  1  0.312014  0.482712  0.502247  1
  Nb  Nb9  1  0.807450  0.307450  0.823548  1
  Si  Si10  1  0.866535  0.366535  0.233069  1
  Si  Si11  1  0.751178  0.751178  0.002356  1
  Si  Si12  1  0.251178  0.251178  0.002356  1
  P  P13  1  0.131503  0.631503  0.763008  1
  P  P14  1  0.637343  0.863221  0.500564  1
  P  P15  1  0.363221  0.137343  0.500564  1
