# generated using pymatgen
data_Nd12Cu2OsRu
_symmetry_space_group_name_H-M   'P 1'
_cell_length_a   6.55287532
_cell_length_b   7.33853615
_cell_length_c   9.92492800
_cell_angle_alpha   90.00000000
_cell_angle_beta   90.00000000
_cell_angle_gamma   89.83650850
_symmetry_Int_Tables_number   1
_chemical_formula_structural   Nd12Cu2OsRu
_chemical_formula_sum   'Nd12 Cu2 Os1 Ru1'
_cell_volume   477.27308040
_cell_formula_units_Z   1
loop_
 _symmetry_equiv_pos_site_id
 _symmetry_equiv_pos_as_xyz
  1  'x, y, z'
loop_
 _atom_site_type_symbol
 _atom_site_label
 _atom_site_symmetry_multiplicity
 _atom_site_fract_x
 _atom_site_fract_y
 _atom_site_fract_z
 _atom_site_occupancy
  Nd  Nd0  1  0.326323  0.681630  0.061682  1
  Nd  Nd1  1  0.164369  0.173274  0.433848  1
  Nd  Nd2  1  0.663611  0.327465  0.567411  1
  Nd  Nd3  1  0.828321  0.819095  0.940094  1
  Nd  Nd4  1  0.663611  0.327465  0.932589  1
  Nd  Nd5  1  0.828321  0.819095  0.559906  1
  Nd  Nd6  1  0.326323  0.681630  0.438318  1
  Nd  Nd7  1  0.164369  0.173274  0.066152  1
  Nd  Nd8  1  0.868434  0.542540  0.250000  1
  Nd  Nd9  1  0.643585  0.027090  0.250000  1
  Nd  Nd10  1  0.146642  0.472396  0.750000  1
  Nd  Nd11  1  0.369828  0.955468  0.750000  1
  Cu  Cu12  1  0.441127  0.387667  0.250000  1
  Cu  Cu13  1  0.940740  0.111510  0.750000  1
  Os  Os14  1  0.061082  0.884554  0.250000  1
  Ru  Ru15  1  0.563311  0.615845  0.750000  1
