# generated using pymatgen
data_TmLu2Mg(GaPt)4
_symmetry_space_group_name_H-M   'P 1'
_cell_length_a   4.26857800
_cell_length_b   6.78358357
_cell_length_c   7.77363360
_cell_angle_alpha   93.84087721
_cell_angle_beta   90.00000000
_cell_angle_gamma   90.00000000
_symmetry_Int_Tables_number   1
_chemical_formula_structural   TmLu2Mg(GaPt)4
_chemical_formula_sum   'Tm1 Lu2 Mg1 Ga4 Pt4'
_cell_volume   224.58974183
_cell_formula_units_Z   1
loop_
 _symmetry_equiv_pos_site_id
 _symmetry_equiv_pos_as_xyz
  1  'x, y, z'
loop_
 _atom_site_type_symbol
 _atom_site_label
 _atom_site_symmetry_multiplicity
 _atom_site_fract_x
 _atom_site_fract_y
 _atom_site_fract_z
 _atom_site_occupancy
  Tm  Tm0  1  0.250000  0.475712  0.187489  1
  Lu  Lu1  1  0.750000  0.023252  0.678676  1
  Lu  Lu2  1  0.750000  0.530357  0.813313  1
  Mg  Mg3  1  0.250000  0.971544  0.323136  1
  Ga  Ga4  1  0.250000  0.338405  0.560913  1
  Ga  Ga5  1  0.250000  0.854445  0.942606  1
  Ga  Ga6  1  0.750000  0.652333  0.432103  1
  Ga  Ga7  1  0.750000  0.151990  0.063088  1
  Pt  Pt8  1  0.250000  0.235594  0.874586  1
  Pt  Pt9  1  0.250000  0.730425  0.616629  1
  Pt  Pt10  1  0.750000  0.776605  0.124767  1
  Pt  Pt11  1  0.750000  0.259335  0.382690  1
