# generated using pymatgen
data_Th3Mg2SnPt3
_symmetry_space_group_name_H-M   'P 1'
_cell_length_a   7.49860930
_cell_length_b   7.61747241
_cell_length_c   4.22991300
_cell_angle_alpha   90.00000000
_cell_angle_beta   90.00000000
_cell_angle_gamma   120.52576868
_symmetry_Int_Tables_number   1
_chemical_formula_structural   Th3Mg2SnPt3
_chemical_formula_sum   'Th3 Mg2 Sn1 Pt3'
_cell_volume   208.12695322
_cell_formula_units_Z   1
loop_
 _symmetry_equiv_pos_site_id
 _symmetry_equiv_pos_as_xyz
  1  'x, y, z'
loop_
 _atom_site_type_symbol
 _atom_site_label
 _atom_site_symmetry_multiplicity
 _atom_site_fract_x
 _atom_site_fract_y
 _atom_site_fract_z
 _atom_site_occupancy
  Th  Th0  1  0.418033  0.410814  0.500000  1
  Th  Th1  1  0.581967  0.992781  0.500000  1
  Th  Th2  1  0.000000  0.587078  0.500000  1
  Mg  Mg3  1  0.761063  0.760527  0.000000  1
  Mg  Mg4  1  0.238937  0.999464  0.000000  1
  Sn  Sn5  1  0.000000  0.243878  0.000000  1
  Pt  Pt6  1  0.661849  0.341324  0.000000  1
  Pt  Pt7  1  0.338151  0.679475  0.000000  1
  Pt  Pt8  1  0.000000  0.984658  0.500000  1
