# generated using pymatgen
data_Ho2FeCo3
_symmetry_space_group_name_H-M   'P 1'
_cell_length_a   4.97496494
_cell_length_b   4.97496469
_cell_length_c   4.97496542
_cell_angle_alpha   62.81002781
_cell_angle_beta   62.81003065
_cell_angle_gamma   62.81004334
_symmetry_Int_Tables_number   1
_chemical_formula_structural   Ho2FeCo3
_chemical_formula_sum   'Ho2 Fe1 Co3'
_cell_volume   92.50687778
_cell_formula_units_Z   1
loop_
 _symmetry_equiv_pos_site_id
 _symmetry_equiv_pos_as_xyz
  1  'x, y, z'
loop_
 _atom_site_type_symbol
 _atom_site_label
 _atom_site_symmetry_multiplicity
 _atom_site_fract_x
 _atom_site_fract_y
 _atom_site_fract_z
 _atom_site_occupancy
  Ho  Ho0  1  0.627391  0.627391  0.627391  1
  Ho  Ho1  1  0.372609  0.372609  0.372609  1
  Fe  Fe2  1  0.000000  0.000000  0.000000  1
  Co  Co3  1  0.000000  0.500000  0.000000  1
  Co  Co4  1  0.500000  0.000000  0.000000  1
  Co  Co5  1  0.000000  0.000000  0.500000  1
