# generated using pymatgen
data_Tb4Dy(SiBi)2
_symmetry_space_group_name_H-M   'P 1'
_cell_length_a   8.69004013
_cell_length_b   8.69003970
_cell_length_c   7.95739400
_cell_angle_alpha   90.00000000
_cell_angle_beta   90.00000000
_cell_angle_gamma   125.61308951
_symmetry_Int_Tables_number   1
_chemical_formula_structural   Tb4Dy(SiBi)2
_chemical_formula_sum   'Tb8 Dy2 Si4 Bi4'
_cell_volume   488.52604534
_cell_formula_units_Z   2
loop_
 _symmetry_equiv_pos_site_id
 _symmetry_equiv_pos_as_xyz
  1  'x, y, z'
loop_
 _atom_site_type_symbol
 _atom_site_label
 _atom_site_symmetry_multiplicity
 _atom_site_fract_x
 _atom_site_fract_y
 _atom_site_fract_z
 _atom_site_occupancy
  Tb  Tb0  1  0.043970  0.288546  0.334197  1
  Tb  Tb1  1  0.956030  0.711454  0.665803  1
  Tb  Tb2  1  0.456030  0.211454  0.834197  1
  Tb  Tb3  1  0.788546  0.543970  0.165803  1
  Tb  Tb4  1  0.543970  0.788546  0.165803  1
  Tb  Tb5  1  0.211454  0.456030  0.834197  1
  Tb  Tb6  1  0.711454  0.956030  0.665803  1
  Tb  Tb7  1  0.288546  0.043970  0.334197  1
  Dy  Dy8  1  0.000000  0.000000  0.000000  1
  Dy  Dy9  1  0.500000  0.500000  0.500000  1
  Si  Si10  1  0.367601  0.367601  0.131361  1
  Si  Si11  1  0.632399  0.632399  0.868639  1
  Si  Si12  1  0.132399  0.132399  0.631361  1
  Si  Si13  1  0.867601  0.867601  0.368639  1
  Bi  Bi14  1  0.792202  0.207798  0.000000  1
  Bi  Bi15  1  0.207798  0.792202  0.000000  1
  Bi  Bi16  1  0.707798  0.292202  0.500000  1
  Bi  Bi17  1  0.292202  0.707798  0.500000  1
