# generated using pymatgen
data_Er16Al4NiRu3
_symmetry_space_group_name_H-M   'P 1'
_cell_length_a   9.42232389
_cell_length_b   9.41108843
_cell_length_c   9.41108800
_cell_angle_alpha   59.99999447
_cell_angle_beta   60.03943191
_cell_angle_gamma   60.03943931
_symmetry_Int_Tables_number   1
_chemical_formula_structural   Er16Al4NiRu3
_chemical_formula_sum   'Er16 Al4 Ni1 Ru3'
_cell_volume   590.44753481
_cell_formula_units_Z   1
loop_
 _symmetry_equiv_pos_site_id
 _symmetry_equiv_pos_as_xyz
  1  'x, y, z'
loop_
 _atom_site_type_symbol
 _atom_site_label
 _atom_site_symmetry_multiplicity
 _atom_site_fract_x
 _atom_site_fract_y
 _atom_site_fract_z
 _atom_site_occupancy
  Er  Er0  1  0.356775  0.348548  0.348548  1
  Er  Er1  1  0.356775  0.348548  0.946129  1
  Er  Er2  1  0.356775  0.946129  0.348548  1
  Er  Er3  1  0.931515  0.356162  0.356162  1
  Er  Er4  1  0.809688  0.191806  0.191806  1
  Er  Er5  1  0.193381  0.806528  0.806528  1
  Er  Er6  1  0.193381  0.806528  0.193565  1
  Er  Er7  1  0.809688  0.191806  0.806701  1
  Er  Er8  1  0.193381  0.193565  0.806528  1
  Er  Er9  1  0.809688  0.806701  0.191806  1
  Er  Er10  1  0.941147  0.559312  0.559312  1
  Er  Er11  1  0.562081  0.935651  0.935651  1
  Er  Er12  1  0.562081  0.935651  0.566616  1
  Er  Er13  1  0.941147  0.559312  0.940229  1
  Er  Er14  1  0.562081  0.566616  0.935651  1
  Er  Er15  1  0.941147  0.940229  0.559312  1
  Al  Al16  1  0.573510  0.580058  0.580058  1
  Al  Al17  1  0.573510  0.580058  0.266374  1
  Al  Al18  1  0.573510  0.266374  0.580058  1
  Al  Al19  1  0.265926  0.578024  0.578024  1
  Ni  Ni20  1  0.577940  0.140687  0.140687  1
  Ru  Ru21  1  0.138291  0.145910  0.145910  1
  Ru  Ru22  1  0.138291  0.145910  0.569891  1
  Ru  Ru23  1  0.138291  0.569891  0.145910  1
