# generated using pymatgen
data_ErB3W
_symmetry_space_group_name_H-M   'P 1'
_cell_length_a   3.15627100
_cell_length_b   5.42722253
_cell_length_c   6.79927966
_cell_angle_alpha   78.16258884
_cell_angle_beta   90.00000000
_cell_angle_gamma   90.00000000
_symmetry_Int_Tables_number   1
_chemical_formula_structural   ErB3W
_chemical_formula_sum   'Er2 B6 W2'
_cell_volume   113.99330372
_cell_formula_units_Z   2
loop_
 _symmetry_equiv_pos_site_id
 _symmetry_equiv_pos_as_xyz
  1  'x, y, z'
loop_
 _atom_site_type_symbol
 _atom_site_label
 _atom_site_symmetry_multiplicity
 _atom_site_fract_x
 _atom_site_fract_y
 _atom_site_fract_z
 _atom_site_occupancy
  Er  Er0  1  0.750000  0.823640  0.708850  1
  Er  Er1  1  0.250000  0.176360  0.291150  1
  B  B2  1  0.250000  0.583775  0.475823  1
  B  B3  1  0.750000  0.416225  0.524177  1
  B  B4  1  0.250000  0.587496  0.994638  1
  B  B5  1  0.750000  0.412504  0.005362  1
  B  B6  1  0.250000  0.916812  0.992510  1
  B  B7  1  0.750000  0.083188  0.007490  1
  W  W8  1  0.750000  0.688755  0.220479  1
  W  W9  1  0.250000  0.311245  0.779521  1
