# generated using pymatgen
data_CeNd9Sn20RuRh7
_symmetry_space_group_name_H-M   'P 1'
_cell_length_a   14.19859314
_cell_length_b   14.24591112
_cell_length_c   4.62035926
_cell_angle_alpha   89.98486487
_cell_angle_beta   89.98529160
_cell_angle_gamma   89.98229196
_symmetry_Int_Tables_number   1
_chemical_formula_structural   CeNd9Sn20RuRh7
_chemical_formula_sum   'Ce1 Nd9 Sn20 Ru1 Rh7'
_cell_volume   934.56871995
_cell_formula_units_Z   1
loop_
 _symmetry_equiv_pos_site_id
 _symmetry_equiv_pos_as_xyz
  1  'x, y, z'
loop_
 _atom_site_type_symbol
 _atom_site_label
 _atom_site_symmetry_multiplicity
 _atom_site_fract_x
 _atom_site_fract_y
 _atom_site_fract_z
 _atom_site_occupancy
  Ce  Ce0  1  0.999605  0.999855  0.999992  1
  Nd  Nd1  1  0.501153  0.501147  0.999974  1
  Nd  Nd2  1  0.678728  0.178075  0.500350  1
  Nd  Nd3  1  0.321000  0.821617  0.499626  1
  Nd  Nd4  1  0.179139  0.321155  0.499929  1
  Nd  Nd5  1  0.820060  0.678446  0.500116  1
  Nd  Nd6  1  0.889094  0.387241  0.500158  1
  Nd  Nd7  1  0.111539  0.612722  0.500015  1
  Nd  Nd8  1  0.388179  0.110961  0.499927  1
  Nd  Nd9  1  0.610635  0.888565  0.500044  1
  Sn  Sn10  1  0.569650  0.069449  0.000536  1
  Sn  Sn11  1  0.430156  0.930714  0.999480  1
  Sn  Sn12  1  0.070205  0.430371  0.999970  1
  Sn  Sn13  1  0.930255  0.570659  0.000111  1
  Sn  Sn14  1  0.652444  0.698562  0.999986  1
  Sn  Sn15  1  0.347899  0.300573  0.000088  1
  Sn  Sn16  1  0.152369  0.800667  0.999961  1
  Sn  Sn17  1  0.847735  0.198431  0.000001  1
  Sn  Sn18  1  0.300865  0.652856  0.000044  1
  Sn  Sn19  1  0.699885  0.347125  0.000015  1
  Sn  Sn20  1  0.199232  0.152168  0.999812  1
  Sn  Sn21  1  0.800032  0.847955  0.000162  1
  Sn  Sn22  1  0.661353  0.505534  0.499838  1
  Sn  Sn23  1  0.337393  0.496245  0.500075  1
  Sn  Sn24  1  0.161995  0.995483  0.499732  1
  Sn  Sn25  1  0.838145  0.004239  0.500275  1
  Sn  Sn26  1  0.495567  0.663902  0.499820  1
  Sn  Sn27  1  0.504323  0.335542  0.500126  1
  Sn  Sn28  1  0.004876  0.161035  0.499855  1
  Sn  Sn29  1  0.994943  0.838194  0.500151  1
  Ru  Ru30  1  0.747149  0.528501  0.999619  1
  Rh  Rh31  1  0.254871  0.470581  0.000231  1
  Rh  Rh32  1  0.244591  0.969833  0.999575  1
  Rh  Rh33  1  0.755021  0.030084  0.000413  1
  Rh  Rh34  1  0.469826  0.746762  0.999716  1
  Rh  Rh35  1  0.530685  0.253495  0.000267  1
  Rh  Rh36  1  0.029428  0.246075  0.999682  1
  Rh  Rh37  1  0.969981  0.755178  0.000329  1
