# generated using pymatgen
data_Ba2SnHg3
_symmetry_space_group_name_H-M   'P 1'
_cell_length_a   5.18562349
_cell_length_b   6.73708822
_cell_length_c   6.71094371
_cell_angle_alpha   94.33987335
_cell_angle_beta   112.72793120
_cell_angle_gamma   67.36517073
_symmetry_Int_Tables_number   1
_chemical_formula_structural   Ba2SnHg3
_chemical_formula_sum   'Ba2 Sn1 Hg3'
_cell_volume   198.85644209
_cell_formula_units_Z   1
loop_
 _symmetry_equiv_pos_site_id
 _symmetry_equiv_pos_as_xyz
  1  'x, y, z'
loop_
 _atom_site_type_symbol
 _atom_site_label
 _atom_site_symmetry_multiplicity
 _atom_site_fract_x
 _atom_site_fract_y
 _atom_site_fract_z
 _atom_site_occupancy
  Ba  Ba0  1  0.754751  0.711636  0.221139  1
  Ba  Ba1  1  0.246041  0.286421  0.778504  1
  Sn  Sn2  1  0.048952  0.112476  0.210381  1
  Hg  Hg3  1  0.541559  0.293946  0.377066  1
  Hg  Hg4  1  0.450794  0.717481  0.619072  1
  Hg  Hg5  1  0.957899  0.878038  0.793838  1
