# generated using pymatgen
data_Pr6EuRhBr12
_symmetry_space_group_name_H-M   'P 1'
_cell_length_a   9.71777914
_cell_length_b   9.60491790
_cell_length_c   9.71660414
_cell_angle_alpha   106.71106185
_cell_angle_beta   106.87629304
_cell_angle_gamma   106.70874121
_symmetry_Int_Tables_number   1
_chemical_formula_structural   Pr6EuRhBr12
_chemical_formula_sum   'Pr6 Eu1 Rh1 Br12'
_cell_volume   760.08334895
_cell_formula_units_Z   1
loop_
 _symmetry_equiv_pos_site_id
 _symmetry_equiv_pos_as_xyz
  1  'x, y, z'
loop_
 _atom_site_type_symbol
 _atom_site_label
 _atom_site_symmetry_multiplicity
 _atom_site_fract_x
 _atom_site_fract_y
 _atom_site_fract_z
 _atom_site_occupancy
  Pr  Pr0  1  0.103301  0.306408  0.022921  1
  Pr  Pr1  1  0.318329  0.023300  0.107812  1
  Pr  Pr2  1  0.024019  0.107628  0.317605  1
  Pr  Pr3  1  0.975982  0.892372  0.682396  1
  Pr  Pr4  1  0.681671  0.976701  0.892188  1
  Pr  Pr5  1  0.896699  0.693592  0.977079  1
  Eu  Eu6  1  0.500000  0.500000  0.500000  1
  Rh  Rh7  1  0.000000  0.000000  0.000000  1
  Br  Br8  1  0.216101  0.682165  0.071739  1
  Br  Br9  1  0.453537  0.373302  0.158590  1
  Br  Br10  1  0.683827  0.072660  0.217001  1
  Br  Br11  1  0.927046  0.781516  0.315947  1
  Br  Br12  1  0.158896  0.454923  0.372238  1
  Br  Br13  1  0.371791  0.155704  0.453410  1
  Br  Br14  1  0.628209  0.844296  0.546591  1
  Br  Br15  1  0.841105  0.545077  0.627762  1
  Br  Br16  1  0.072955  0.218484  0.684054  1
  Br  Br17  1  0.316174  0.927341  0.782999  1
  Br  Br18  1  0.546463  0.626698  0.841411  1
  Br  Br19  1  0.783899  0.317835  0.928261  1
