# generated using pymatgen
data_Er12Ga7SiIr8
_symmetry_space_group_name_H-M   'P 1'
_cell_length_a   5.52222700
_cell_length_b   7.79083706
_cell_length_c   13.44265400
_cell_angle_alpha   90.00000000
_cell_angle_beta   90.00000000
_cell_angle_gamma   90.00714098
_symmetry_Int_Tables_number   1
_chemical_formula_structural   Er12Ga7SiIr8
_chemical_formula_sum   'Er12 Ga7 Si1 Ir8'
_cell_volume   578.34021707
_cell_formula_units_Z   1
loop_
 _symmetry_equiv_pos_site_id
 _symmetry_equiv_pos_as_xyz
  1  'x, y, z'
loop_
 _atom_site_type_symbol
 _atom_site_label
 _atom_site_symmetry_multiplicity
 _atom_site_fract_x
 _atom_site_fract_y
 _atom_site_fract_z
 _atom_site_occupancy
  Er  Er0  1  0.622119  0.265963  0.250000  1
  Er  Er1  1  0.372783  0.733109  0.750000  1
  Er  Er2  1  0.374257  0.768339  0.250000  1
  Er  Er3  1  0.632172  0.235559  0.750000  1
  Er  Er4  1  0.153102  0.399697  0.096024  1
  Er  Er5  1  0.847702  0.598869  0.899677  1
  Er  Er6  1  0.847702  0.598869  0.600323  1
  Er  Er7  1  0.847289  0.899630  0.403994  1
  Er  Er8  1  0.153102  0.399697  0.403976  1
  Er  Er9  1  0.153672  0.100498  0.600148  1
  Er  Er10  1  0.153672  0.100498  0.899852  1
  Er  Er11  1  0.847289  0.899630  0.096006  1
  Ga  Ga12  1  0.116249  0.112549  0.250000  1
  Ga  Ga13  1  0.879203  0.885368  0.750000  1
  Ga  Ga14  1  0.879503  0.610421  0.250000  1
  Ga  Ga15  1  0.646128  0.251480  0.998698  1
  Ga  Ga16  1  0.354080  0.749579  0.997972  1
  Ga  Ga17  1  0.354080  0.749579  0.502028  1
  Ga  Ga18  1  0.646128  0.251480  0.501302  1
  Si  Si19  1  0.129391  0.387272  0.750000  1
  Ir  Ir20  1  0.353769  0.039524  0.093668  1
  Ir  Ir21  1  0.646179  0.962264  0.905463  1
  Ir  Ir22  1  0.646179  0.962264  0.594537  1
  Ir  Ir23  1  0.643888  0.539866  0.407044  1
  Ir  Ir24  1  0.353769  0.039524  0.406332  1
  Ir  Ir25  1  0.351352  0.459304  0.598726  1
  Ir  Ir26  1  0.351352  0.459304  0.901274  1
  Ir  Ir27  1  0.643888  0.539866  0.092956  1
