# generated using pymatgen
data_NaY6CoBr12
_symmetry_space_group_name_H-M   'P 1'
_cell_length_a   9.20131819
_cell_length_b   9.20131920
_cell_length_c   9.20131937
_cell_angle_alpha   106.92628972
_cell_angle_beta   106.92628816
_cell_angle_gamma   106.92629150
_symmetry_Int_Tables_number   1
_chemical_formula_structural   NaY6CoBr12
_chemical_formula_sum   'Na1 Y6 Co1 Br12'
_cell_volume   650.07787304
_cell_formula_units_Z   1
loop_
 _symmetry_equiv_pos_site_id
 _symmetry_equiv_pos_as_xyz
  1  'x, y, z'
loop_
 _atom_site_type_symbol
 _atom_site_label
 _atom_site_symmetry_multiplicity
 _atom_site_fract_x
 _atom_site_fract_y
 _atom_site_fract_z
 _atom_site_occupancy
  Na  Na0  1  0.500000  0.500000  0.500000  1
  Y  Y1  1  0.972830  0.896951  0.689694  1
  Y  Y2  1  0.027170  0.103049  0.310306  1
  Y  Y3  1  0.103049  0.310306  0.027170  1
  Y  Y4  1  0.310306  0.027170  0.103049  1
  Y  Y5  1  0.896951  0.689694  0.972830  1
  Y  Y6  1  0.689694  0.972830  0.896951  1
  Co  Co7  1  0.000000  0.000000  0.000000  1
  Br  Br8  1  0.553461  0.631499  0.855824  1
  Br  Br9  1  0.446539  0.368501  0.144176  1
  Br  Br10  1  0.320368  0.926531  0.780335  1
  Br  Br11  1  0.368501  0.144176  0.446539  1
  Br  Br12  1  0.926531  0.780335  0.320368  1
  Br  Br13  1  0.679632  0.073469  0.219665  1
  Br  Br14  1  0.073469  0.219665  0.679632  1
  Br  Br15  1  0.780335  0.320368  0.926531  1
  Br  Br16  1  0.219665  0.679632  0.073469  1
  Br  Br17  1  0.855824  0.553461  0.631499  1
  Br  Br18  1  0.144176  0.446539  0.368501  1
  Br  Br19  1  0.631499  0.855824  0.553461  1
