# generated using pymatgen
data_Tb9Nd(In2Ir)4
_symmetry_space_group_name_H-M   'P 1'
_cell_length_a   7.99700900
_cell_length_b   18.34888915
_cell_length_c   3.65495600
_cell_angle_alpha   90.00000000
_cell_angle_beta   90.00000000
_cell_angle_gamma   90.28696895
_symmetry_Int_Tables_number   1
_chemical_formula_structural   Tb9Nd(In2Ir)4
_chemical_formula_sum   'Tb9 Nd1 In8 Ir4'
_cell_volume   536.30774338
_cell_formula_units_Z   1
loop_
 _symmetry_equiv_pos_site_id
 _symmetry_equiv_pos_as_xyz
  1  'x, y, z'
loop_
 _atom_site_type_symbol
 _atom_site_label
 _atom_site_symmetry_multiplicity
 _atom_site_fract_x
 _atom_site_fract_y
 _atom_site_fract_z
 _atom_site_occupancy
  Tb  Tb0  1  0.000000  0.000000  0.000000  1
  Tb  Tb1  1  0.749929  0.276146  0.000000  1
  Tb  Tb2  1  0.250071  0.723854  0.000000  1
  Tb  Tb3  1  0.752056  0.779438  0.000000  1
  Tb  Tb4  1  0.247944  0.220562  0.000000  1
  Tb  Tb5  1  0.618897  0.088529  0.000000  1
  Tb  Tb6  1  0.381103  0.911471  0.000000  1
  Tb  Tb7  1  0.877679  0.590294  0.000000  1
  Tb  Tb8  1  0.122321  0.409706  0.000000  1
  Nd  Nd9  1  0.500000  0.500000  0.000000  1
  In  In10  1  0.705072  0.932974  0.500000  1
  In  In11  1  0.294928  0.067026  0.500000  1
  In  In12  1  0.798920  0.429780  0.500000  1
  In  In13  1  0.201080  0.570220  0.500000  1
  In  In14  1  0.563599  0.652017  0.500000  1
  In  In15  1  0.436401  0.347983  0.500000  1
  In  In16  1  0.935076  0.147899  0.500000  1
  In  In17  1  0.064924  0.852101  0.500000  1
  Ir  Ir18  1  0.521490  0.194610  0.500000  1
  Ir  Ir19  1  0.478510  0.805390  0.500000  1
  Ir  Ir20  1  0.976459  0.697086  0.500000  1
  Ir  Ir21  1  0.023541  0.302914  0.500000  1
