# generated using pymatgen
data_Ce6FeCo17P12
_symmetry_space_group_name_H-M   'P 1'
_cell_length_a   3.76069800
_cell_length_b   10.52338600
_cell_length_c   12.32560600
_cell_angle_alpha   90.00000000
_cell_angle_beta   90.00000000
_cell_angle_gamma   90.00000000
_symmetry_Int_Tables_number   1
_chemical_formula_structural   Ce6FeCo17P12
_chemical_formula_sum   'Ce6 Fe1 Co17 P12'
_cell_volume   487.78926774
_cell_formula_units_Z   1
loop_
 _symmetry_equiv_pos_site_id
 _symmetry_equiv_pos_as_xyz
  1  'x, y, z'
loop_
 _atom_site_type_symbol
 _atom_site_label
 _atom_site_symmetry_multiplicity
 _atom_site_fract_x
 _atom_site_fract_y
 _atom_site_fract_z
 _atom_site_occupancy
  Ce  Ce0  1  0.000000  0.500000  0.521809  1
  Ce  Ce1  1  0.500000  0.000000  0.477301  1
  Ce  Ce2  1  0.500000  0.817252  0.207972  1
  Ce  Ce3  1  0.500000  0.182748  0.207972  1
  Ce  Ce4  1  0.000000  0.682646  0.792794  1
  Ce  Ce5  1  0.000000  0.317354  0.792794  1
  Fe  Fe6  1  0.500000  0.500000  0.155460  1
  Co  Co7  1  0.000000  0.000000  0.841165  1
  Co  Co8  1  0.500000  0.500000  0.703759  1
  Co  Co9  1  0.000000  0.000000  0.296261  1
  Co  Co10  1  0.000000  0.500000  0.986084  1
  Co  Co11  1  0.500000  0.000000  0.015311  1
  Co  Co12  1  0.500000  0.333270  0.995889  1
  Co  Co13  1  0.500000  0.666730  0.995889  1
  Co  Co14  1  0.000000  0.166404  0.004277  1
  Co  Co15  1  0.000000  0.833596  0.004277  1
  Co  Co16  1  0.500000  0.300539  0.429041  1
  Co  Co17  1  0.500000  0.699461  0.429041  1
  Co  Co18  1  0.000000  0.199240  0.571508  1
  Co  Co19  1  0.000000  0.800760  0.571508  1
  Co  Co20  1  0.500000  0.879835  0.712877  1
  Co  Co21  1  0.500000  0.120165  0.712877  1
  Co  Co22  1  0.000000  0.620807  0.287249  1
  Co  Co23  1  0.000000  0.379193  0.287249  1
  P  P24  1  0.500000  0.500000  0.885670  1
  P  P25  1  0.000000  0.000000  0.114307  1
  P  P26  1  0.500000  0.500000  0.339204  1
  P  P27  1  0.000000  0.000000  0.659305  1
  P  P28  1  0.500000  0.307124  0.613085  1
  P  P29  1  0.500000  0.692876  0.613085  1
  P  P30  1  0.000000  0.193476  0.387318  1
  P  P31  1  0.000000  0.806524  0.387318  1
  P  P32  1  0.500000  0.848282  0.895566  1
  P  P33  1  0.500000  0.151718  0.895566  1
  P  P34  1  0.000000  0.652541  0.104607  1
  P  P35  1  0.000000  0.347459  0.104607  1
