# generated using pymatgen
data_Na2Ca2(NiH4)3
_symmetry_space_group_name_H-M   'P 1'
_cell_length_a   6.06330886
_cell_length_b   6.00508934
_cell_length_c   6.00508921
_cell_angle_alpha   108.38213098
_cell_angle_beta   109.81818089
_cell_angle_gamma   109.81817627
_symmetry_Int_Tables_number   1
_chemical_formula_structural   Na2Ca2(NiH4)3
_chemical_formula_sum   'Na2 Ca2 Ni3 H12'
_cell_volume   169.10591230
_cell_formula_units_Z   1
loop_
 _symmetry_equiv_pos_site_id
 _symmetry_equiv_pos_as_xyz
  1  'x, y, z'
loop_
 _atom_site_type_symbol
 _atom_site_label
 _atom_site_symmetry_multiplicity
 _atom_site_fract_x
 _atom_site_fract_y
 _atom_site_fract_z
 _atom_site_occupancy
  Na  Na0  1  0.000000  0.000000  0.500000  1
  Na  Na1  1  0.000000  0.500000  0.000000  1
  Ca  Ca2  1  0.500000  0.000000  0.000000  1
  Ca  Ca3  1  0.500000  0.500000  0.500000  1
  Ni  Ni4  1  0.000000  0.500000  0.500000  1
  Ni  Ni5  1  0.500000  0.500000  0.000000  1
  Ni  Ni6  1  0.500000  0.000000  0.500000  1
  H  H7  1  0.717019  0.724429  0.992591  1
  H  H8  1  0.282981  0.007409  0.275571  1
  H  H9  1  0.000000  0.277906  0.277906  1
  H  H10  1  0.282981  0.275571  0.007409  1
  H  H11  1  0.717019  0.992591  0.724429  1
  H  H12  1  0.000000  0.722094  0.722094  1
  H  H13  1  0.744784  0.248875  0.495909  1
  H  H14  1  0.744784  0.495909  0.248875  1
  H  H15  1  0.500000  0.250000  0.750000  1
  H  H16  1  0.255216  0.504091  0.751125  1
  H  H17  1  0.255216  0.751125  0.504091  1
  H  H18  1  0.500000  0.750000  0.250000  1
