# generated using pymatgen
data_DyTm3Si4(NiRu)2
_symmetry_space_group_name_H-M   'P 1'
_cell_length_a   4.21248400
_cell_length_b   6.85365691
_cell_length_c   7.15766421
_cell_angle_alpha   91.42282358
_cell_angle_beta   90.00000000
_cell_angle_gamma   90.00000000
_symmetry_Int_Tables_number   1
_chemical_formula_structural   DyTm3Si4(NiRu)2
_chemical_formula_sum   'Dy1 Tm3 Si4 Ni2 Ru2'
_cell_volume   206.58463720
_cell_formula_units_Z   1
loop_
 _symmetry_equiv_pos_site_id
 _symmetry_equiv_pos_as_xyz
  1  'x, y, z'
loop_
 _atom_site_type_symbol
 _atom_site_label
 _atom_site_symmetry_multiplicity
 _atom_site_fract_x
 _atom_site_fract_y
 _atom_site_fract_z
 _atom_site_occupancy
  Dy  Dy0  1  0.250000  0.991869  0.799752  1
  Tm  Tm1  1  0.750000  0.008786  0.201976  1
  Tm  Tm2  1  0.250000  0.489983  0.684761  1
  Tm  Tm3  1  0.750000  0.510493  0.315008  1
  Si  Si4  1  0.250000  0.298683  0.101438  1
  Si  Si5  1  0.750000  0.700126  0.901340  1
  Si  Si6  1  0.250000  0.803013  0.398121  1
  Si  Si7  1  0.750000  0.198495  0.599304  1
  Ni  Ni8  1  0.750000  0.833470  0.572896  1
  Ni  Ni9  1  0.250000  0.166809  0.423216  1
  Ru  Ru10  1  0.750000  0.342749  0.931929  1
  Ru  Ru11  1  0.250000  0.655525  0.070258  1
