# generated using pymatgen
data_ErThB6Mo
_symmetry_space_group_name_H-M   'P 1'
_cell_length_a   3.79896200
_cell_length_b   9.25553500
_cell_length_c   11.70176300
_cell_angle_alpha   90.00000000
_cell_angle_beta   90.00000000
_cell_angle_gamma   90.00000000
_symmetry_Int_Tables_number   1
_chemical_formula_structural   ErThB6Mo
_chemical_formula_sum   'Er4 Th4 B24 Mo4'
_cell_volume   411.45067092
_cell_formula_units_Z   4
loop_
 _symmetry_equiv_pos_site_id
 _symmetry_equiv_pos_as_xyz
  1  'x, y, z'
loop_
 _atom_site_type_symbol
 _atom_site_label
 _atom_site_symmetry_multiplicity
 _atom_site_fract_x
 _atom_site_fract_y
 _atom_site_fract_z
 _atom_site_occupancy
  Er  Er0  1  0.000000  0.943323  0.370020  1
  Er  Er1  1  0.000000  0.056677  0.629980  1
  Er  Er2  1  0.000000  0.443323  0.129980  1
  Er  Er3  1  0.000000  0.556677  0.870020  1
  Th  Th4  1  0.000000  0.321825  0.414432  1
  Th  Th5  1  0.000000  0.678175  0.585568  1
  Th  Th6  1  0.000000  0.821825  0.085568  1
  Th  Th7  1  0.000000  0.178175  0.914432  1
  B  B8  1  0.500000  0.554716  0.431006  1
  B  B9  1  0.500000  0.445284  0.568994  1
  B  B10  1  0.500000  0.054716  0.068994  1
  B  B11  1  0.500000  0.945284  0.931006  1
  B  B12  1  0.500000  0.751532  0.416292  1
  B  B13  1  0.500000  0.248468  0.583708  1
  B  B14  1  0.500000  0.251532  0.083708  1
  B  B15  1  0.500000  0.748468  0.916292  1
  B  B16  1  0.500000  0.792896  0.265438  1
  B  B17  1  0.500000  0.207104  0.734562  1
  B  B18  1  0.500000  0.292896  0.234562  1
  B  B19  1  0.500000  0.707104  0.765438  1
  B  B20  1  0.500000  0.629417  0.185027  1
  B  B21  1  0.500000  0.370583  0.814973  1
  B  B22  1  0.500000  0.129417  0.314973  1
  B  B23  1  0.500000  0.870583  0.685027  1
  B  B24  1  0.500000  0.982979  0.213870  1
  B  B25  1  0.500000  0.017021  0.786130  1
  B  B26  1  0.500000  0.482979  0.286130  1
  B  B27  1  0.500000  0.517021  0.713870  1
  B  B28  1  0.500000  0.596840  0.026936  1
  B  B29  1  0.500000  0.403160  0.973064  1
  B  B30  1  0.500000  0.096840  0.473064  1
  B  B31  1  0.500000  0.903160  0.526936  1
  Mo  Mo32  1  0.000000  0.639491  0.319529  1
  Mo  Mo33  1  0.000000  0.360509  0.680471  1
  Mo  Mo34  1  0.000000  0.139491  0.180471  1
  Mo  Mo35  1  0.000000  0.860509  0.819529  1
