# generated using pymatgen
data_Ce2HoAl12Os3Ru
_symmetry_space_group_name_H-M   'P 1'
_cell_length_a   8.87075001
_cell_length_b   8.87002340
_cell_length_c   9.55651400
_cell_angle_alpha   90.00000000
_cell_angle_beta   90.00000000
_cell_angle_gamma   119.99728848
_symmetry_Int_Tables_number   1
_chemical_formula_structural   Ce2HoAl12Os3Ru
_chemical_formula_sum   'Ce4 Ho2 Al24 Os6 Ru2'
_cell_volume   651.21906076
_cell_formula_units_Z   2
loop_
 _symmetry_equiv_pos_site_id
 _symmetry_equiv_pos_as_xyz
  1  'x, y, z'
loop_
 _atom_site_type_symbol
 _atom_site_label
 _atom_site_symmetry_multiplicity
 _atom_site_fract_x
 _atom_site_fract_y
 _atom_site_fract_z
 _atom_site_occupancy
  Ce  Ce0  1  0.611771  0.801760  0.250000  1
  Ce  Ce1  1  0.388229  0.189989  0.750000  1
  Ce  Ce2  1  0.801814  0.192363  0.750000  1
  Ce  Ce3  1  0.198186  0.390548  0.250000  1
  Ho  Ho4  1  0.808063  0.613456  0.750000  1
  Ho  Ho5  1  0.191937  0.805392  0.250000  1
  Al  Al6  1  0.332207  0.669372  0.487521  1
  Al  Al7  1  0.667793  0.337164  0.987521  1
  Al  Al8  1  0.667793  0.337164  0.512479  1
  Al  Al9  1  0.332207  0.669372  0.012479  1
  Al  Al10  1  0.162326  0.324759  0.578735  1
  Al  Al11  1  0.675632  0.836832  0.577554  1
  Al  Al12  1  0.160457  0.836524  0.577017  1
  Al  Al13  1  0.837674  0.162434  0.078735  1
  Al  Al14  1  0.837674  0.162434  0.421265  1
  Al  Al15  1  0.839543  0.676067  0.077017  1
  Al  Al16  1  0.324368  0.161201  0.077554  1
  Al  Al17  1  0.675632  0.836832  0.922446  1
  Al  Al18  1  0.162326  0.324759  0.921265  1
  Al  Al19  1  0.839543  0.676067  0.422983  1
  Al  Al20  1  0.000855  0.999983  0.250000  1
  Al  Al21  1  0.999145  0.999129  0.750000  1
  Al  Al22  1  0.560059  0.120756  0.250000  1
  Al  Al23  1  0.439941  0.560697  0.750000  1
  Al  Al24  1  0.122154  0.561110  0.750000  1
  Al  Al25  1  0.877846  0.438956  0.250000  1
  Al  Al26  1  0.564160  0.435301  0.250000  1
  Al  Al27  1  0.435840  0.871140  0.750000  1
  Al  Al28  1  0.160457  0.836524  0.922983  1
  Al  Al29  1  0.324368  0.161201  0.422446  1
  Os  Os30  1  0.500658  0.002773  0.502862  1
  Os  Os31  1  0.499342  0.502115  0.002862  1
  Os  Os32  1  0.000000  0.500569  0.000000  1
  Os  Os33  1  0.000000  0.500569  0.500000  1
  Os  Os34  1  0.499342  0.502115  0.497138  1
  Os  Os35  1  0.500658  0.002773  0.997138  1
  Ru  Ru36  1  0.000000  0.999902  0.500000  1
  Ru  Ru37  1  0.000000  0.999902  0.000000  1
