# generated using pymatgen
data_Hf18Cr2Re6GeIr
_symmetry_space_group_name_H-M   'P 1'
_cell_length_a   8.60780700
_cell_length_b   8.60780658
_cell_length_c   8.51623600
_cell_angle_alpha   90.00000000
_cell_angle_beta   90.00000000
_cell_angle_gamma   120.00028171
_symmetry_Int_Tables_number   1
_chemical_formula_structural   Hf18Cr2Re6GeIr
_chemical_formula_sum   'Hf18 Cr2 Re6 Ge1 Ir1'
_cell_volume   546.46469280
_cell_formula_units_Z   1
loop_
 _symmetry_equiv_pos_site_id
 _symmetry_equiv_pos_as_xyz
  1  'x, y, z'
loop_
 _atom_site_type_symbol
 _atom_site_label
 _atom_site_symmetry_multiplicity
 _atom_site_fract_x
 _atom_site_fract_y
 _atom_site_fract_z
 _atom_site_occupancy
  Hf  Hf0  1  0.808768  0.617516  0.547370  1
  Hf  Hf1  1  0.808760  0.191240  0.547380  1
  Hf  Hf2  1  0.382484  0.191232  0.547370  1
  Hf  Hf3  1  0.194987  0.389998  0.447584  1
  Hf  Hf4  1  0.194997  0.805003  0.447572  1
  Hf  Hf5  1  0.610002  0.805013  0.447584  1
  Hf  Hf6  1  0.194987  0.389998  0.052416  1
  Hf  Hf7  1  0.194997  0.805003  0.052428  1
  Hf  Hf8  1  0.610002  0.805013  0.052416  1
  Hf  Hf9  1  0.808768  0.617516  0.952630  1
  Hf  Hf10  1  0.808760  0.191240  0.952620  1
  Hf  Hf11  1  0.382484  0.191232  0.952630  1
  Hf  Hf12  1  0.459558  0.919064  0.750000  1
  Hf  Hf13  1  0.459569  0.540431  0.750000  1
  Hf  Hf14  1  0.080936  0.540442  0.750000  1
  Hf  Hf15  1  0.540989  0.082031  0.250000  1
  Hf  Hf16  1  0.540977  0.459023  0.250000  1
  Hf  Hf17  1  0.917969  0.459011  0.250000  1
  Cr  Cr18  1  0.000000  0.000000  0.499016  1
  Cr  Cr19  1  0.000000  0.000000  0.000984  1
  Re  Re20  1  0.107685  0.215304  0.750000  1
  Re  Re21  1  0.107699  0.892301  0.750000  1
  Re  Re22  1  0.784696  0.892315  0.750000  1
  Re  Re23  1  0.892010  0.784076  0.250000  1
  Re  Re24  1  0.892001  0.107999  0.250000  1
  Re  Re25  1  0.215924  0.107990  0.250000  1
  Ge  Ge26  1  0.666661  0.333339  0.750000  1
  Ir  Ir27  1  0.333331  0.666669  0.250000  1
