# generated using pymatgen
data_Y2HoNb3(B2Ru5)2
_symmetry_space_group_name_H-M   'P 1'
_cell_length_a   9.61082980
_cell_length_b   9.61083026
_cell_length_c   3.12684900
_cell_angle_alpha   90.00000000
_cell_angle_beta   90.00000000
_cell_angle_gamma   90.47851139
_symmetry_Int_Tables_number   1
_chemical_formula_structural   Y2HoNb3(B2Ru5)2
_chemical_formula_sum   'Y2 Ho1 Nb3 B4 Ru10'
_cell_volume   288.81088427
_cell_formula_units_Z   1
loop_
 _symmetry_equiv_pos_site_id
 _symmetry_equiv_pos_as_xyz
  1  'x, y, z'
loop_
 _atom_site_type_symbol
 _atom_site_label
 _atom_site_symmetry_multiplicity
 _atom_site_fract_x
 _atom_site_fract_y
 _atom_site_fract_z
 _atom_site_occupancy
  Y  Y0  1  0.823864  0.675529  0.000000  1
  Y  Y1  1  0.175529  0.323864  0.000000  1
  Ho  Ho2  1  0.325563  0.825563  0.000000  1
  Nb  Nb3  1  0.675697  0.175697  0.000000  1
  Nb  Nb4  1  0.498345  0.502471  0.000000  1
  Nb  Nb5  1  0.002471  0.998345  0.000000  1
  B  B6  1  0.622498  0.880843  0.000000  1
  B  B7  1  0.380843  0.122498  0.000000  1
  B  B8  1  0.119562  0.619562  0.000000  1
  B  B9  1  0.876615  0.376615  0.000000  1
  Ru  Ru10  1  0.570049  0.722390  0.500000  1
  Ru  Ru11  1  0.441514  0.279508  0.500000  1
  Ru  Ru12  1  0.070214  0.780687  0.500000  1
  Ru  Ru13  1  0.915475  0.213787  0.500000  1
  Ru  Ru14  1  0.280687  0.570214  0.500000  1
  Ru  Ru15  1  0.713787  0.415475  0.500000  1
  Ru  Ru16  1  0.222390  0.070049  0.500000  1
  Ru  Ru17  1  0.779508  0.941514  0.500000  1
  Ru  Ru18  1  0.509043  0.009043  0.500000  1
  Ru  Ru19  1  0.996345  0.496345  0.500000  1
