# generated using pymatgen
data_YHo19Pt16
_symmetry_space_group_name_H-M   'P 1'
_cell_length_a   7.44954307
_cell_length_b   7.53060307
_cell_length_c   14.73490204
_cell_angle_alpha   89.99396140
_cell_angle_beta   89.99394044
_cell_angle_gamma   90.01397563
_symmetry_Int_Tables_number   1
_chemical_formula_structural   YHo19Pt16
_chemical_formula_sum   'Y1 Ho19 Pt16'
_cell_volume   826.62136733
_cell_formula_units_Z   1
loop_
 _symmetry_equiv_pos_site_id
 _symmetry_equiv_pos_as_xyz
  1  'x, y, z'
loop_
 _atom_site_type_symbol
 _atom_site_label
 _atom_site_symmetry_multiplicity
 _atom_site_fract_x
 _atom_site_fract_y
 _atom_site_fract_z
 _atom_site_occupancy
  Y  Y0  1  0.999078  0.821128  0.092891  1
  Ho  Ho1  1  0.681315  0.988104  0.250080  1
  Ho  Ho2  1  0.180834  0.511815  0.250169  1
  Ho  Ho3  1  0.818779  0.488262  0.749910  1
  Ho  Ho4  1  0.318921  0.011729  0.750057  1
  Ho  Ho5  1  0.655705  0.832198  0.622161  1
  Ho  Ho6  1  0.156021  0.667764  0.877846  1
  Ho  Ho7  1  0.844194  0.332101  0.378053  1
  Ho  Ho8  1  0.344613  0.168096  0.122197  1
  Ho  Ho9  1  0.344326  0.167790  0.377932  1
  Ho  Ho10  1  0.844372  0.332140  0.122011  1
  Ho  Ho11  1  0.155760  0.667928  0.622049  1
  Ho  Ho12  1  0.655873  0.831949  0.877970  1
  Ho  Ho13  1  0.997954  0.820371  0.406790  1
  Ho  Ho14  1  0.497983  0.679688  0.093049  1
  Ho  Ho15  1  0.501986  0.320072  0.593037  1
  Ho  Ho16  1  0.002376  0.180353  0.906848  1
  Ho  Ho17  1  0.002066  0.179785  0.593078  1
  Ho  Ho18  1  0.501904  0.320168  0.906964  1
  Ho  Ho19  1  0.497879  0.679832  0.407038  1
  Pt  Pt20  1  0.816996  0.642935  0.250694  1
  Pt  Pt21  1  0.318492  0.856369  0.250126  1
  Pt  Pt22  1  0.681834  0.143522  0.750019  1
  Pt  Pt23  1  0.181706  0.356299  0.749979  1
  Pt  Pt24  1  0.546990  0.387236  0.249961  1
  Pt  Pt25  1  0.047527  0.113318  0.250284  1
  Pt  Pt26  1  0.952680  0.887387  0.750054  1
  Pt  Pt27  1  0.452640  0.612502  0.750034  1
  Pt  Pt28  1  0.815834  0.531936  0.541849  1
  Pt  Pt29  1  0.316227  0.968348  0.957982  1
  Pt  Pt30  1  0.684086  0.031788  0.458181  1
  Pt  Pt31  1  0.184599  0.466884  0.041342  1
  Pt  Pt32  1  0.184098  0.467958  0.458243  1
  Pt  Pt33  1  0.682748  0.032928  0.041489  1
  Pt  Pt34  1  0.315871  0.968127  0.541831  1
  Pt  Pt35  1  0.815729  0.531192  0.957805  1
