# generated using pymatgen
data_Ho4HfRh5
_symmetry_space_group_name_H-M   'P 1'
_cell_length_a   3.38441000
_cell_length_b   3.38441000
_cell_length_c   16.97831800
_cell_angle_alpha   90.00000000
_cell_angle_beta   90.00000000
_cell_angle_gamma   90.00000000
_symmetry_Int_Tables_number   1
_chemical_formula_structural   Ho4HfRh5
_chemical_formula_sum   'Ho4 Hf1 Rh5'
_cell_volume   194.47357718
_cell_formula_units_Z   1
loop_
 _symmetry_equiv_pos_site_id
 _symmetry_equiv_pos_as_xyz
  1  'x, y, z'
loop_
 _atom_site_type_symbol
 _atom_site_label
 _atom_site_symmetry_multiplicity
 _atom_site_fract_x
 _atom_site_fract_y
 _atom_site_fract_z
 _atom_site_occupancy
  Ho  Ho0  1  0.000000  0.000000  0.197781  1
  Ho  Ho1  1  0.000000  0.000000  0.399163  1
  Ho  Ho2  1  0.000000  0.000000  0.600837  1
  Ho  Ho3  1  0.000000  0.000000  0.802219  1
  Hf  Hf4  1  0.000000  0.000000  0.000000  1
  Rh  Rh5  1  0.500000  0.500000  0.088198  1
  Rh  Rh6  1  0.500000  0.500000  0.296132  1
  Rh  Rh7  1  0.500000  0.500000  0.500000  1
  Rh  Rh8  1  0.500000  0.500000  0.703868  1
  Rh  Rh9  1  0.500000  0.500000  0.911802  1
