# generated using pymatgen
data_Ti4CoTe4
_symmetry_space_group_name_H-M   'P 1'
_cell_length_a   4.92643000
_cell_length_b   10.67756500
_cell_length_c   19.22563900
_cell_angle_alpha   90.00000000
_cell_angle_beta   90.00000000
_cell_angle_gamma   90.00000000
_symmetry_Int_Tables_number   1
_chemical_formula_structural   Ti4CoTe4
_chemical_formula_sum   'Ti16 Co4 Te16'
_cell_volume   1011.31237939
_cell_formula_units_Z   4
loop_
 _symmetry_equiv_pos_site_id
 _symmetry_equiv_pos_as_xyz
  1  'x, y, z'
loop_
 _atom_site_type_symbol
 _atom_site_label
 _atom_site_symmetry_multiplicity
 _atom_site_fract_x
 _atom_site_fract_y
 _atom_site_fract_z
 _atom_site_occupancy
  Ti  Ti0  1  0.500000  0.565801  0.389384  1
  Ti  Ti1  1  0.500000  0.434199  0.610616  1
  Ti  Ti2  1  0.500000  0.065801  0.110616  1
  Ti  Ti3  1  0.500000  0.934199  0.889384  1
  Ti  Ti4  1  0.500000  0.699754  0.536594  1
  Ti  Ti5  1  0.500000  0.300246  0.463406  1
  Ti  Ti6  1  0.500000  0.199754  0.963406  1
  Ti  Ti7  1  0.500000  0.800246  0.036594  1
  Ti  Ti8  1  0.000000  0.687491  0.447871  1
  Ti  Ti9  1  0.000000  0.312509  0.552129  1
  Ti  Ti10  1  0.000000  0.187491  0.052129  1
  Ti  Ti11  1  0.000000  0.812509  0.947871  1
  Ti  Ti12  1  0.000000  0.405883  0.396022  1
  Ti  Ti13  1  0.000000  0.594117  0.603978  1
  Ti  Ti14  1  0.000000  0.905883  0.103978  1
  Ti  Ti15  1  0.000000  0.094117  0.896022  1
  Co  Co16  1  0.250172  0.500000  0.500000  1
  Co  Co17  1  0.749828  0.000000  0.000000  1
  Co  Co18  1  0.749828  0.500000  0.500000  1
  Co  Co19  1  0.250172  0.000000  0.000000  1
  Te  Te20  1  0.000000  0.842978  0.563252  1
  Te  Te21  1  0.000000  0.157022  0.436748  1
  Te  Te22  1  0.000000  0.342978  0.936748  1
  Te  Te23  1  0.000000  0.657022  0.063252  1
  Te  Te24  1  0.500000  0.338089  0.320914  1
  Te  Te25  1  0.500000  0.661911  0.679086  1
  Te  Te26  1  0.500000  0.838089  0.179086  1
  Te  Te27  1  0.500000  0.161911  0.820914  1
  Te  Te28  1  0.500000  0.822596  0.409765  1
  Te  Te29  1  0.500000  0.177404  0.590235  1
  Te  Te30  1  0.500000  0.322596  0.090235  1
  Te  Te31  1  0.500000  0.677404  0.909765  1
  Te  Te32  1  0.000000  0.614012  0.309857  1
  Te  Te33  1  0.000000  0.385988  0.690143  1
  Te  Te34  1  0.000000  0.114012  0.190143  1
  Te  Te35  1  0.000000  0.885988  0.809857  1
