# generated using pymatgen
data_ThSn6IrRu3
_symmetry_space_group_name_H-M   'P 1'
_cell_length_a   6.97587030
_cell_length_b   6.97586952
_cell_length_c   6.96534000
_cell_angle_alpha   120.20612492
_cell_angle_beta   120.20612120
_cell_angle_gamma   89.64765840
_symmetry_Int_Tables_number   1
_chemical_formula_structural   ThSn6IrRu3
_chemical_formula_sum   'Th1 Sn6 Ir1 Ru3'
_cell_volume   238.91507636
_cell_formula_units_Z   1
loop_
 _symmetry_equiv_pos_site_id
 _symmetry_equiv_pos_as_xyz
  1  'x, y, z'
loop_
 _atom_site_type_symbol
 _atom_site_label
 _atom_site_symmetry_multiplicity
 _atom_site_fract_x
 _atom_site_fract_y
 _atom_site_fract_z
 _atom_site_occupancy
  Th  Th0  1  0.000388  0.000388  0.998987  1
  Sn  Sn1  1  0.995467  0.499410  0.500651  1
  Sn  Sn2  1  0.470069  0.470069  0.341514  1
  Sn  Sn3  1  0.532908  0.877923  0.004615  1
  Sn  Sn4  1  0.877923  0.532908  0.004615  1
  Sn  Sn5  1  0.125156  0.125156  0.657773  1
  Sn  Sn6  1  0.499410  0.995467  0.500651  1
  Ir  Ir7  1  0.390997  0.390997  0.628358  1
  Ru  Ru8  1  0.760271  0.760271  0.365873  1
  Ru  Ru9  1  0.244550  0.602860  0.998481  1
  Ru  Ru10  1  0.602860  0.244550  0.998481  1
