# generated using pymatgen
data_ErTm19(IrPt2)4
_symmetry_space_group_name_H-M   'P 1'
_cell_length_a   10.91776802
_cell_length_b   10.91678902
_cell_length_c   6.28788001
_cell_angle_alpha   89.99636540
_cell_angle_beta   90.00397688
_cell_angle_gamma   90.00567859
_symmetry_Int_Tables_number   1
_chemical_formula_structural   ErTm19(IrPt2)4
_chemical_formula_sum   'Er1 Tm19 Ir4 Pt8'
_cell_volume   749.43335896
_cell_formula_units_Z   1
loop_
 _symmetry_equiv_pos_site_id
 _symmetry_equiv_pos_as_xyz
  1  'x, y, z'
loop_
 _atom_site_type_symbol
 _atom_site_label
 _atom_site_symmetry_multiplicity
 _atom_site_fract_x
 _atom_site_fract_y
 _atom_site_fract_z
 _atom_site_occupancy
  Er  Er0  1  0.294998  0.086944  0.373910  1
  Tm  Tm1  1  0.295248  0.912897  0.874067  1
  Tm  Tm2  1  0.704738  0.086998  0.874155  1
  Tm  Tm3  1  0.704747  0.913025  0.374134  1
  Tm  Tm4  1  0.586931  0.795225  0.874123  1
  Tm  Tm5  1  0.587158  0.204823  0.374170  1
  Tm  Tm6  1  0.413134  0.795038  0.374136  1
  Tm  Tm7  1  0.413175  0.204846  0.874080  1
  Tm  Tm8  1  0.204753  0.413064  0.625912  1
  Tm  Tm9  1  0.204768  0.586962  0.125879  1
  Tm  Tm10  1  0.795242  0.413073  0.125842  1
  Tm  Tm11  1  0.795243  0.586977  0.625858  1
  Tm  Tm12  1  0.913031  0.704733  0.125885  1
  Tm  Tm13  1  0.913046  0.295284  0.625822  1
  Tm  Tm14  1  0.086935  0.704744  0.625884  1
  Tm  Tm15  1  0.086847  0.295344  0.125718  1
  Tm  Tm16  1  0.999807  0.999925  0.500056  1
  Tm  Tm17  1  0.999961  0.999983  0.999964  1
  Tm  Tm18  1  0.500005  0.500023  0.000035  1
  Tm  Tm19  1  0.500003  0.499978  0.500046  1
  Ir  Ir20  1  0.500198  0.999904  0.120437  1
  Ir  Ir21  1  0.500205  0.999914  0.620789  1
  Ir  Ir22  1  0.999997  0.500020  0.879381  1
  Ir  Ir23  1  0.999995  0.500046  0.379409  1
  Pt  Pt24  1  0.846244  0.153806  0.249992  1
  Pt  Pt25  1  0.846191  0.846212  0.750021  1
  Pt  Pt26  1  0.153638  0.153873  0.750434  1
  Pt  Pt27  1  0.153702  0.846089  0.249934  1
  Pt  Pt28  1  0.653799  0.346231  0.750000  1
  Pt  Pt29  1  0.653795  0.653782  0.250034  1
  Pt  Pt30  1  0.346255  0.346460  0.249886  1
  Pt  Pt31  1  0.346213  0.653777  0.750008  1
