# generated using pymatgen
data_PrEu3(PIr)4
_symmetry_space_group_name_H-M   'P 1'
_cell_length_a   6.29341199
_cell_length_b   6.29341199
_cell_length_c   6.29341199
_cell_angle_alpha   90.19922447
_cell_angle_beta   90.19922447
_cell_angle_gamma   89.80077553
_symmetry_Int_Tables_number   1
_chemical_formula_structural   PrEu3(PIr)4
_chemical_formula_sum   'Pr1 Eu3 P4 Ir4'
_cell_volume   249.25887552
_cell_formula_units_Z   1
loop_
 _symmetry_equiv_pos_site_id
 _symmetry_equiv_pos_as_xyz
  1  'x, y, z'
loop_
 _atom_site_type_symbol
 _atom_site_label
 _atom_site_symmetry_multiplicity
 _atom_site_fract_x
 _atom_site_fract_y
 _atom_site_fract_z
 _atom_site_occupancy
  Pr  Pr0  1  0.400152  0.900152  0.599848  1
  Eu  Eu1  1  0.897503  0.602249  0.395867  1
  Eu  Eu2  1  0.604133  0.397503  0.897751  1
  Eu  Eu3  1  0.102249  0.104133  0.102497  1
  P  P4  1  0.673591  0.173591  0.326409  1
  P  P5  1  0.170717  0.327719  0.672783  1
  P  P6  1  0.327217  0.670717  0.172281  1
  P  P7  1  0.827719  0.827217  0.829283  1
  Ir  Ir8  1  0.081408  0.581408  0.918592  1
  Ir  Ir9  1  0.578710  0.918049  0.081449  1
  Ir  Ir10  1  0.918551  0.078710  0.581951  1
  Ir  Ir11  1  0.418049  0.418551  0.421290  1
