# generated using pymatgen
data_Lu12TlCo3Rh2
_symmetry_space_group_name_H-M   'P 1'
_cell_length_a   8.14943369
_cell_length_b   8.14930201
_cell_length_c   8.14943400
_cell_angle_alpha   111.76682474
_cell_angle_beta   110.42685788
_cell_angle_gamma   106.27030162
_symmetry_Int_Tables_number   1
_chemical_formula_structural   Lu12TlCo3Rh2
_chemical_formula_sum   'Lu12 Tl1 Co3 Rh2'
_cell_volume   415.60059303
_cell_formula_units_Z   1
loop_
 _symmetry_equiv_pos_site_id
 _symmetry_equiv_pos_as_xyz
  1  'x, y, z'
loop_
 _atom_site_type_symbol
 _atom_site_label
 _atom_site_symmetry_multiplicity
 _atom_site_fract_x
 _atom_site_fract_y
 _atom_site_fract_z
 _atom_site_occupancy
  Lu  Lu0  1  0.818172  0.714794  0.532969  1
  Lu  Lu1  1  0.182506  0.281770  0.464271  1
  Lu  Lu2  1  0.182500  0.718230  0.900737  1
  Lu  Lu3  1  0.818175  0.285206  0.103376  1
  Lu  Lu4  1  0.680238  0.371421  0.686559  1
  Lu  Lu5  1  0.315137  0.628579  0.308818  1
  Lu  Lu6  1  0.680245  0.993682  0.308815  1
  Lu  Lu7  1  0.315134  0.006318  0.686564  1
  Lu  Lu8  1  0.582766  0.771528  0.811242  1
  Lu  Lu9  1  0.413466  0.221466  0.191996  1
  Lu  Lu10  1  0.970530  0.778534  0.191999  1
  Lu  Lu11  1  0.039716  0.228472  0.811239  1
  Tl  Tl12  1  0.502223  0.500000  0.002223  1
  Co  Co13  1  0.352300  0.000000  0.352300  1
  Co  Co14  1  0.113079  0.612901  0.500165  1
  Co  Co15  1  0.887263  0.387099  0.500177  1
  Rh  Rh16  1  0.648180  0.000000  0.648180  1
  Rh  Rh17  1  0.998368  0.000000  0.998368  1
