# generated using pymatgen
data_KRb2Se3
_symmetry_space_group_name_H-M   'P 1'
_cell_length_a   9.27745700
_cell_length_b   9.26088472
_cell_length_c   6.34155700
_cell_angle_alpha   90.00000000
_cell_angle_beta   90.00000000
_cell_angle_gamma   120.05921003
_symmetry_Int_Tables_number   1
_chemical_formula_structural   KRb2Se3
_chemical_formula_sum   'K2 Rb4 Se6'
_cell_volume   471.57256795
_cell_formula_units_Z   2
loop_
 _symmetry_equiv_pos_site_id
 _symmetry_equiv_pos_as_xyz
  1  'x, y, z'
loop_
 _atom_site_type_symbol
 _atom_site_label
 _atom_site_symmetry_multiplicity
 _atom_site_fract_x
 _atom_site_fract_y
 _atom_site_fract_z
 _atom_site_occupancy
  K  K0  1  0.999846  0.315595  0.500000  1
  K  K1  1  0.684251  0.684405  0.500000  1
  Rb  Rb2  1  0.312499  0.000000  0.500000  1
  Rb  Rb3  1  0.999777  0.646426  0.000000  1
  Rb  Rb4  1  0.353350  0.353574  0.000000  1
  Rb  Rb5  1  0.646787  0.000000  0.000000  1
  Se  Se6  1  0.672779  0.339101  0.307303  1
  Se  Se7  1  0.672779  0.339101  0.692697  1
  Se  Se8  1  0.333678  0.660899  0.692697  1
  Se  Se9  1  0.333678  0.660899  0.307303  1
  Se  Se10  1  0.995288  0.000000  0.807997  1
  Se  Se11  1  0.995288  0.000000  0.192003  1
