# generated using pymatgen
data_SrSmGa2(Ni3B)2
_symmetry_space_group_name_H-M   'P 1'
_cell_length_a   5.29692800
_cell_length_b   5.29765270
_cell_length_c   6.77412400
_cell_angle_alpha   90.00000000
_cell_angle_beta   90.00000000
_cell_angle_gamma   119.99547493
_symmetry_Int_Tables_number   1
_chemical_formula_structural   SrSmGa2(Ni3B)2
_chemical_formula_sum   'Sr1 Sm1 Ga2 Ni6 B2'
_cell_volume   164.63081496
_cell_formula_units_Z   1
loop_
 _symmetry_equiv_pos_site_id
 _symmetry_equiv_pos_as_xyz
  1  'x, y, z'
loop_
 _atom_site_type_symbol
 _atom_site_label
 _atom_site_symmetry_multiplicity
 _atom_site_fract_x
 _atom_site_fract_y
 _atom_site_fract_z
 _atom_site_occupancy
  Sr  Sr0  1  0.999981  0.000000  0.000000  1
  Sm  Sm1  1  0.999983  0.000000  0.500000  1
  Ga  Ga2  1  0.333280  0.666596  0.000000  1
  Ga  Ga3  1  0.666685  0.333404  0.000000  1
  Ni  Ni4  1  0.499983  0.000000  0.301857  1
  Ni  Ni5  1  0.499983  0.499999  0.301893  1
  Ni  Ni6  1  0.999984  0.500001  0.301893  1
  Ni  Ni7  1  0.499983  0.000000  0.698143  1
  Ni  Ni8  1  0.499983  0.499999  0.698107  1
  Ni  Ni9  1  0.999984  0.500001  0.698107  1
  B  B10  1  0.333340  0.666713  0.500000  1
  B  B11  1  0.666628  0.333287  0.500000  1
