# generated using pymatgen
data_Tb8Lu7Sc5Si15Ru
_symmetry_space_group_name_H-M   'P 1'
_cell_length_a   7.18008236
_cell_length_b   7.60925946
_cell_length_c   14.20527939
_cell_angle_alpha   90.07323378
_cell_angle_beta   90.02872331
_cell_angle_gamma   90.17739737
_symmetry_Int_Tables_number   1
_chemical_formula_structural   Tb8Lu7Sc5Si15Ru
_chemical_formula_sum   'Tb8 Lu7 Sc5 Si15 Ru1'
_cell_volume   776.10254377
_cell_formula_units_Z   1
loop_
 _symmetry_equiv_pos_site_id
 _symmetry_equiv_pos_as_xyz
  1  'x, y, z'
loop_
 _atom_site_type_symbol
 _atom_site_label
 _atom_site_symmetry_multiplicity
 _atom_site_fract_x
 _atom_site_fract_y
 _atom_site_fract_z
 _atom_site_occupancy
  Tb  Tb0  1  0.015567  0.181643  0.097030  1
  Tb  Tb1  1  0.987830  0.825143  0.906143  1
  Tb  Tb2  1  0.485655  0.679678  0.904361  1
  Tb  Tb3  1  0.986965  0.825788  0.595567  1
  Tb  Tb4  1  0.513784  0.321227  0.095901  1
  Tb  Tb5  1  0.015542  0.182921  0.401650  1
  Tb  Tb6  1  0.514464  0.320854  0.402552  1
  Tb  Tb7  1  0.486229  0.679160  0.595778  1
  Lu  Lu8  1  0.310209  0.171938  0.628824  1
  Lu  Lu9  1  0.676520  0.826051  0.372713  1
  Lu  Lu10  1  0.176443  0.677760  0.373102  1
  Lu  Lu11  1  0.676111  0.825862  0.125790  1
  Lu  Lu12  1  0.834702  0.316798  0.628461  1
  Lu  Lu13  1  0.310056  0.172160  0.872362  1
  Lu  Lu14  1  0.834514  0.318218  0.873024  1
  Sc  Sc15  1  0.156712  0.512816  0.750510  1
  Sc  Sc16  1  0.842648  0.490700  0.248762  1
  Sc  Sc17  1  0.341715  0.011598  0.248699  1
  Sc  Sc18  1  0.668069  0.990506  0.750351  1
  Sc  Sc19  1  0.176076  0.677827  0.127275  1
  Si  Si20  1  0.979036  0.892515  0.247876  1
  Si  Si21  1  0.475897  0.604163  0.247566  1
  Si  Si22  1  0.521972  0.397821  0.750529  1
  Si  Si23  1  0.282831  0.861844  0.750449  1
  Si  Si24  1  0.715134  0.135653  0.249181  1
  Si  Si25  1  0.217013  0.368577  0.248575  1
  Si  Si26  1  0.777286  0.630055  0.750382  1
  Si  Si27  1  0.157416  0.471829  0.538246  1
  Si  Si28  1  0.845495  0.533017  0.460840  1
  Si  Si29  1  0.345559  0.968986  0.459134  1
  Si  Si30  1  0.851467  0.533328  0.041139  1
  Si  Si31  1  0.650897  0.032684  0.539101  1
  Si  Si32  1  0.159854  0.473684  0.965244  1
  Si  Si33  1  0.650248  0.032182  0.960788  1
  Si  Si34  1  0.341989  0.964074  0.041391  1
  Ru  Ru35  1  0.018094  0.090937  0.750702  1
