# generated using pymatgen
data_ErTm4Re2BC6
_symmetry_space_group_name_H-M   'P 1'
_cell_length_a   8.23382831
_cell_length_b   8.22804513
_cell_length_c   3.37263600
_cell_angle_alpha   90.00000000
_cell_angle_beta   90.00000000
_cell_angle_gamma   121.98692164
_symmetry_Int_Tables_number   1
_chemical_formula_structural   ErTm4Re2BC6
_chemical_formula_sum   'Er1 Tm4 Re2 B1 C6'
_cell_volume   193.79847546
_cell_formula_units_Z   1
loop_
 _symmetry_equiv_pos_site_id
 _symmetry_equiv_pos_as_xyz
  1  'x, y, z'
loop_
 _atom_site_type_symbol
 _atom_site_label
 _atom_site_symmetry_multiplicity
 _atom_site_fract_x
 _atom_site_fract_y
 _atom_site_fract_z
 _atom_site_occupancy
  Er  Er0  1  0.078562  0.329607  0.500000  1
  Tm  Tm1  1  0.499856  0.500037  0.000000  1
  Tm  Tm2  1  0.920358  0.669740  0.500000  1
  Tm  Tm3  1  0.668968  0.920516  0.500000  1
  Tm  Tm4  1  0.331038  0.079206  0.500000  1
  Re  Re5  1  0.715111  0.285256  0.000000  1
  Re  Re6  1  0.284992  0.715300  0.000000  1
  B  B7  1  0.000364  0.999443  0.000000  1
  C  C8  1  0.625893  0.374382  0.500000  1
  C  C9  1  0.374036  0.626111  0.500000  1
  C  C10  1  0.184708  0.182908  0.000000  1
  C  C11  1  0.815878  0.816262  0.000000  1
  C  C12  1  0.999936  0.500953  0.000000  1
  C  C13  1  0.500300  0.000279  0.000000  1
