# generated using pymatgen
data_Pr6GaAsBr6
_symmetry_space_group_name_H-M   'P 1'
_cell_length_a   10.51217121
_cell_length_b   10.51217078
_cell_length_c   10.57353479
_cell_angle_alpha   109.46229038
_cell_angle_beta   109.46229224
_cell_angle_gamma   109.25283254
_symmetry_Int_Tables_number   1
_chemical_formula_structural   Pr6GaAsBr6
_chemical_formula_sum   'Pr12 Ga2 As2 Br12'
_cell_volume   902.07259359
_cell_formula_units_Z   2
loop_
 _symmetry_equiv_pos_site_id
 _symmetry_equiv_pos_as_xyz
  1  'x, y, z'
loop_
 _atom_site_type_symbol
 _atom_site_label
 _atom_site_symmetry_multiplicity
 _atom_site_fract_x
 _atom_site_fract_y
 _atom_site_fract_z
 _atom_site_occupancy
  Pr  Pr0  1  0.479535  0.489966  0.239532  1
  Pr  Pr1  1  0.750434  0.240003  0.260468  1
  Pr  Pr2  1  0.750416  0.010193  0.490087  1
  Pr  Pr3  1  0.239671  0.479894  0.490087  1
  Pr  Pr4  1  0.259997  0.749566  0.239532  1
  Pr  Pr5  1  0.020106  0.260329  0.009913  1
  Pr  Pr6  1  0.010034  0.020465  0.260468  1
  Pr  Pr7  1  0.489807  0.749584  0.009913  1
  Pr  Pr8  1  0.491398  0.241398  0.482796  1
  Pr  Pr9  1  0.012134  0.487866  0.750000  1
  Pr  Pr10  1  0.258602  0.008602  0.017204  1
  Pr  Pr11  1  0.237866  0.262134  0.750000  1
  Ga  Ga12  1  0.249689  0.250311  0.250000  1
  Ga  Ga13  1  0.500311  0.999689  0.250000  1
  As  As14  1  0.000043  0.250043  0.500087  1
  As  As15  1  0.249957  0.499957  0.999913  1
  Br  Br16  1  0.249489  0.753439  0.745913  1
  Br  Br17  1  0.507525  0.503576  0.754087  1
  Br  Br18  1  0.990337  0.744428  0.994866  1
  Br  Br19  1  0.746561  0.250511  0.754087  1
  Br  Br20  1  0.996424  0.992475  0.745913  1
  Br  Br21  1  0.249562  0.995470  0.505134  1
  Br  Br22  1  0.755572  0.509663  0.505134  1
  Br  Br23  1  0.504530  0.250438  0.994866  1
  Br  Br24  1  0.754225  0.745775  0.250000  1
  Br  Br25  1  0.745690  0.995690  0.991382  1
  Br  Br26  1  0.995775  0.504225  0.250000  1
  Br  Br27  1  0.504310  0.754310  0.508618  1
