# generated using pymatgen
data_YTm9(GaSb)3
_symmetry_space_group_name_H-M   'P 1'
_cell_length_a   8.65863887
_cell_length_b   8.67434145
_cell_length_c   6.38117700
_cell_angle_alpha   90.00000000
_cell_angle_beta   90.00000000
_cell_angle_gamma   120.01541853
_symmetry_Int_Tables_number   1
_chemical_formula_structural   YTm9(GaSb)3
_chemical_formula_sum   'Y1 Tm9 Ga3 Sb3'
_cell_volume   415.00188253
_cell_formula_units_Z   1
loop_
 _symmetry_equiv_pos_site_id
 _symmetry_equiv_pos_as_xyz
  1  'x, y, z'
loop_
 _atom_site_type_symbol
 _atom_site_label
 _atom_site_symmetry_multiplicity
 _atom_site_fract_x
 _atom_site_fract_y
 _atom_site_fract_z
 _atom_site_occupancy
  Y  Y0  1  0.764614  0.752412  0.250000  1
  Tm  Tm1  1  0.326631  0.666756  0.003333  1
  Tm  Tm2  1  0.659854  0.332848  0.496837  1
  Tm  Tm3  1  0.659854  0.332848  0.003163  1
  Tm  Tm4  1  0.326631  0.666756  0.496667  1
  Tm  Tm5  1  0.235128  0.000389  0.250000  1
  Tm  Tm6  1  0.241932  0.229757  0.750000  1
  Tm  Tm7  1  0.012607  0.769671  0.750000  1
  Tm  Tm8  1  0.013296  0.248818  0.250000  1
  Tm  Tm9  1  0.754649  0.000306  0.750000  1
  Ga  Ga10  1  0.999142  0.601893  0.250000  1
  Ga  Ga11  1  0.395459  0.396860  0.250000  1
  Ga  Ga12  1  0.398481  0.000039  0.750000  1
  Sb  Sb13  1  0.609462  0.000860  0.250000  1
  Sb  Sb14  1  0.604932  0.607379  0.750000  1
  Sb  Sb15  1  0.997329  0.392407  0.750000  1
