# generated using pymatgen
data_K2Zr7Ti5(BI14)2
_symmetry_space_group_name_H-M   'P 1'
_cell_length_a   11.12398183
_cell_length_b   11.10482768
_cell_length_c   12.89928410
_cell_angle_alpha   90.04346050
_cell_angle_beta   90.08834966
_cell_angle_gamma   91.03759802
_symmetry_Int_Tables_number   1
_chemical_formula_structural   K2Zr7Ti5(BI14)2
_chemical_formula_sum   'K2 Zr7 Ti5 B2 I28'
_cell_volume   1593.18362416
_cell_formula_units_Z   1
loop_
 _symmetry_equiv_pos_site_id
 _symmetry_equiv_pos_as_xyz
  1  'x, y, z'
loop_
 _atom_site_type_symbol
 _atom_site_label
 _atom_site_symmetry_multiplicity
 _atom_site_fract_x
 _atom_site_fract_y
 _atom_site_fract_z
 _atom_site_occupancy
  K  K0  1  0.002561  0.996347  0.000718  1
  K  K1  1  0.498763  0.499473  0.497486  1
  Zr  Zr2  1  0.164899  0.951558  0.610953  1
  Zr  Zr3  1  0.451097  0.665547  0.889661  1
  Zr  Zr4  1  0.665973  0.450819  0.889408  1
  Zr  Zr5  1  0.950931  0.165427  0.610746  1
  Zr  Zr6  1  0.833793  0.048923  0.389736  1
  Zr  Zr7  1  0.548388  0.334770  0.111169  1
  Zr  Zr8  1  0.048466  0.833364  0.388785  1
  Ti  Ti9  1  0.880819  0.880990  0.590506  1
  Ti  Ti10  1  0.381247  0.381454  0.910222  1
  Ti  Ti11  1  0.344798  0.545831  0.103421  1
  Ti  Ti12  1  0.117555  0.119193  0.409965  1
  Ti  Ti13  1  0.618676  0.618940  0.090762  1
  B  B14  1  0.501007  0.499919  0.999694  1
  B  B15  1  0.999511  0.999354  0.499845  1
  I  I16  1  0.463923  0.704177  0.239676  1
  I  I17  1  0.529054  0.288922  0.754877  1
  I  I18  1  0.891231  0.391419  0.751127  1
  I  I19  1  0.341741  0.102181  0.504969  1
  I  I20  1  0.356665  0.367764  0.259139  1
  I  I21  1  0.164689  0.405945  0.009785  1
  I  I22  1  0.141097  0.142292  0.766106  1
  I  I23  1  0.744855  0.255169  0.500482  1
  I  I24  1  0.641156  0.641397  0.734270  1
  I  I25  1  0.898455  0.656943  0.495681  1
  I  I26  1  0.254939  0.745813  0.500422  1
  I  I27  1  0.029530  0.789356  0.745934  1
  I  I28  1  0.601783  0.842843  0.995509  1
  I  I29  1  0.108809  0.611320  0.249933  1
  I  I30  1  0.710929  0.471301  0.245610  1
  I  I31  1  0.754442  0.244490  0.000670  1
  I  I32  1  0.389560  0.891432  0.752547  1
  I  I33  1  0.842716  0.601442  0.995877  1
  I  I34  1  0.289672  0.528831  0.754546  1
  I  I35  1  0.100487  0.343355  0.504898  1
  I  I36  1  0.248958  0.745795  0.004676  1
  I  I37  1  0.789399  0.029173  0.745500  1
  I  I38  1  0.656813  0.898075  0.494910  1
  I  I39  1  0.209731  0.971436  0.254642  1
  I  I40  1  0.856862  0.858699  0.234548  1
  I  I41  1  0.969460  0.210724  0.254738  1
  I  I42  1  0.398480  0.157290  0.004691  1
  I  I43  1  0.606079  0.110509  0.251160  1
