# generated using pymatgen
data_Ho3Tm5In3Os
_symmetry_space_group_name_H-M   'P 1'
_cell_length_a   10.28235400
_cell_length_b   10.28235333
_cell_length_c   7.05068600
_cell_angle_alpha   90.00000000
_cell_angle_beta   90.00000000
_cell_angle_gamma   120.00000216
_symmetry_Int_Tables_number   1
_chemical_formula_structural   Ho3Tm5In3Os
_chemical_formula_sum   'Ho6 Tm10 In6 Os2'
_cell_volume   645.57554588
_cell_formula_units_Z   2
loop_
 _symmetry_equiv_pos_site_id
 _symmetry_equiv_pos_as_xyz
  1  'x, y, z'
loop_
 _atom_site_type_symbol
 _atom_site_label
 _atom_site_symmetry_multiplicity
 _atom_site_fract_x
 _atom_site_fract_y
 _atom_site_fract_z
 _atom_site_occupancy
  Ho  Ho0  1  0.532841  0.065684  0.515222  1
  Ho  Ho1  1  0.934316  0.467159  0.515222  1
  Ho  Ho2  1  0.532841  0.467159  0.515222  1
  Ho  Ho3  1  0.467159  0.934316  0.015222  1
  Ho  Ho4  1  0.065684  0.532841  0.015222  1
  Ho  Ho5  1  0.467159  0.532841  0.015222  1
  Tm  Tm6  1  0.177245  0.354491  0.719802  1
  Tm  Tm7  1  0.645509  0.822755  0.719802  1
  Tm  Tm8  1  0.177245  0.822755  0.719802  1
  Tm  Tm9  1  0.822755  0.645509  0.219802  1
  Tm  Tm10  1  0.354491  0.177245  0.219802  1
  Tm  Tm11  1  0.822755  0.177245  0.219802  1
  Tm  Tm12  1  0.666667  0.333333  0.895110  1
  Tm  Tm13  1  0.333333  0.666667  0.395110  1
  Tm  Tm14  1  0.000000  0.000000  0.499834  1
  Tm  Tm15  1  0.000000  0.000000  0.999834  1
  In  In16  1  0.837021  0.674042  0.762886  1
  In  In17  1  0.325958  0.162979  0.762886  1
  In  In18  1  0.837021  0.162979  0.762886  1
  In  In19  1  0.162979  0.325958  0.262886  1
  In  In20  1  0.674042  0.837021  0.262886  1
  In  In21  1  0.162979  0.837021  0.262886  1
  Os  Os22  1  0.666667  0.333333  0.290327  1
  Os  Os23  1  0.333333  0.666667  0.790327  1
