# generated using pymatgen
data_Cs6TbHoBr12
_symmetry_space_group_name_H-M   'P 1'
_cell_length_a   10.00775024
_cell_length_b   10.00902824
_cell_length_c   8.30010900
_cell_angle_alpha   90.00000000
_cell_angle_beta   90.00000000
_cell_angle_gamma   89.97478809
_symmetry_Int_Tables_number   1
_chemical_formula_structural   Cs6TbHoBr12
_chemical_formula_sum   'Cs6 Tb1 Ho1 Br12'
_cell_volume   831.40403278
_cell_formula_units_Z   1
loop_
 _symmetry_equiv_pos_site_id
 _symmetry_equiv_pos_as_xyz
  1  'x, y, z'
loop_
 _atom_site_type_symbol
 _atom_site_label
 _atom_site_symmetry_multiplicity
 _atom_site_fract_x
 _atom_site_fract_y
 _atom_site_fract_z
 _atom_site_occupancy
  Cs  Cs0  1  0.000000  0.000000  0.500000  1
  Cs  Cs1  1  0.000000  0.000000  0.000000  1
  Cs  Cs2  1  0.235886  0.580916  0.500000  1
  Cs  Cs3  1  0.764114  0.419084  0.500000  1
  Cs  Cs4  1  0.419065  0.235973  0.000000  1
  Cs  Cs5  1  0.580935  0.764027  0.000000  1
  Tb  Tb6  1  0.500000  0.000000  0.500000  1
  Ho  Ho7  1  0.000000  0.500000  0.000000  1
  Br  Br8  1  0.692940  0.056132  0.741229  1
  Br  Br9  1  0.307060  0.943868  0.741229  1
  Br  Br10  1  0.944182  0.691849  0.239878  1
  Br  Br11  1  0.055818  0.308151  0.239878  1
  Br  Br12  1  0.307060  0.943868  0.258771  1
  Br  Br13  1  0.692940  0.056132  0.258771  1
  Br  Br14  1  0.055818  0.308151  0.760122  1
  Br  Br15  1  0.944182  0.691849  0.760122  1
  Br  Br16  1  0.571230  0.727752  0.500000  1
  Br  Br17  1  0.428770  0.272248  0.500000  1
  Br  Br18  1  0.270641  0.570762  0.000000  1
  Br  Br19  1  0.729359  0.429238  0.000000  1
