# generated using pymatgen
data_CaDy3RuRh3O14
_symmetry_space_group_name_H-M   'P 1'
_cell_length_a   7.27835360
_cell_length_b   7.24627984
_cell_length_c   7.27835286
_cell_angle_alpha   59.41483644
_cell_angle_beta   59.64253750
_cell_angle_gamma   59.41483189
_symmetry_Int_Tables_number   1
_chemical_formula_structural   CaDy3RuRh3O14
_chemical_formula_sum   'Ca1 Dy3 Ru1 Rh3 O14'
_cell_volume   268.28849539
_cell_formula_units_Z   1
loop_
 _symmetry_equiv_pos_site_id
 _symmetry_equiv_pos_as_xyz
  1  'x, y, z'
loop_
 _atom_site_type_symbol
 _atom_site_label
 _atom_site_symmetry_multiplicity
 _atom_site_fract_x
 _atom_site_fract_y
 _atom_site_fract_z
 _atom_site_occupancy
  Ca  Ca0  1  0.125000  0.625000  0.125000  1
  Dy  Dy1  1  0.125000  0.125000  0.625000  1
  Dy  Dy2  1  0.625000  0.125000  0.125000  1
  Dy  Dy3  1  0.125000  0.125000  0.125000  1
  Ru  Ru4  1  0.625000  0.625000  0.625000  1
  Rh  Rh5  1  0.625000  0.625000  0.125000  1
  Rh  Rh6  1  0.625000  0.125000  0.625000  1
  Rh  Rh7  1  0.125000  0.625000  0.625000  1
  O  O8  1  0.252837  0.242271  0.252837  1
  O  O9  1  0.997163  0.007729  0.997163  1
  O  O10  1  0.291316  0.710839  0.291316  1
  O  O11  1  0.543277  0.955460  0.543277  1
  O  O12  1  0.288482  0.286475  0.708333  1
  O  O13  1  0.708333  0.286475  0.288482  1
  O  O14  1  0.300483  0.708455  0.696567  1
  O  O15  1  0.696567  0.708455  0.300483  1
  O  O16  1  0.706723  0.294540  0.706723  1
  O  O17  1  0.949517  0.541545  0.553433  1
  O  O18  1  0.541667  0.963525  0.961518  1
  O  O19  1  0.958684  0.539161  0.958684  1
  O  O20  1  0.553433  0.541545  0.949517  1
  O  O21  1  0.961518  0.963525  0.541667  1
