# generated using pymatgen
data_Yb(Er3Ir2)3
_symmetry_space_group_name_H-M   'P 1'
_cell_length_a   10.78794216
_cell_length_b   10.82151400
_cell_length_c   6.33217602
_cell_angle_alpha   90.00000000
_cell_angle_beta   90.23903940
_cell_angle_gamma   90.00000000
_symmetry_Int_Tables_number   1
_chemical_formula_structural   Yb(Er3Ir2)3
_chemical_formula_sum   'Yb2 Er18 Ir12'
_cell_volume   739.22361781
_cell_formula_units_Z   2
loop_
 _symmetry_equiv_pos_site_id
 _symmetry_equiv_pos_as_xyz
  1  'x, y, z'
loop_
 _atom_site_type_symbol
 _atom_site_label
 _atom_site_symmetry_multiplicity
 _atom_site_fract_x
 _atom_site_fract_y
 _atom_site_fract_z
 _atom_site_occupancy
  Yb  Yb0  1  0.289097  0.087803  0.374387  1
  Yb  Yb1  1  0.289097  0.912197  0.874387  1
  Er  Er2  1  0.708828  0.086260  0.878145  1
  Er  Er3  1  0.708828  0.913740  0.378145  1
  Er  Er4  1  0.586876  0.792556  0.876727  1
  Er  Er5  1  0.586876  0.207444  0.376727  1
  Er  Er6  1  0.412612  0.792956  0.377973  1
  Er  Er7  1  0.412612  0.207044  0.877973  1
  Er  Er8  1  0.209466  0.413454  0.623610  1
  Er  Er9  1  0.209466  0.586546  0.123610  1
  Er  Er10  1  0.791407  0.412652  0.121624  1
  Er  Er11  1  0.791407  0.587348  0.621624  1
  Er  Er12  1  0.912846  0.709307  0.123743  1
  Er  Er13  1  0.912846  0.290693  0.623743  1
  Er  Er14  1  0.087257  0.708502  0.622194  1
  Er  Er15  1  0.087257  0.291498  0.122194  1
  Er  Er16  1  0.000663  0.999563  0.499917  1
  Er  Er17  1  0.000663  0.000437  0.999917  1
  Er  Er18  1  0.500250  0.499893  0.998805  1
  Er  Er19  1  0.500250  0.500107  0.498805  1
  Ir  Ir20  1  0.848373  0.153812  0.250180  1
  Ir  Ir21  1  0.848373  0.846188  0.750180  1
  Ir  Ir22  1  0.148007  0.159783  0.753827  1
  Ir  Ir23  1  0.148007  0.840217  0.253827  1
  Ir  Ir24  1  0.652263  0.345628  0.750407  1
  Ir  Ir25  1  0.652263  0.654372  0.250407  1
  Ir  Ir26  1  0.347230  0.351194  0.246316  1
  Ir  Ir27  1  0.347230  0.648806  0.746316  1
  Ir  Ir28  1  0.504749  0.000251  0.123407  1
  Ir  Ir29  1  0.504749  0.999749  0.623407  1
  Ir  Ir30  1  0.000077  0.500314  0.878739  1
  Ir  Ir31  1  0.000077  0.499686  0.378739  1
