# generated using pymatgen
data_Np(GaI2)3
_symmetry_space_group_name_H-M   'P 1'
_cell_length_a   8.07127904
_cell_length_b   8.07127954
_cell_length_c   8.00957900
_cell_angle_alpha   80.07383985
_cell_angle_beta   80.07384644
_cell_angle_gamma   119.54934242
_symmetry_Int_Tables_number   1
_chemical_formula_structural   Np(GaI2)3
_chemical_formula_sum   'Np1 Ga3 I6'
_cell_volume   426.47796476
_cell_formula_units_Z   1
loop_
 _symmetry_equiv_pos_site_id
 _symmetry_equiv_pos_as_xyz
  1  'x, y, z'
loop_
 _atom_site_type_symbol
 _atom_site_label
 _atom_site_symmetry_multiplicity
 _atom_site_fract_x
 _atom_site_fract_y
 _atom_site_fract_z
 _atom_site_occupancy
  Np  Np0  1  0.000646  0.999354  0.000000  1
  Ga  Ga1  1  0.330852  0.669148  0.000000  1
  Ga  Ga2  1  0.833833  0.166167  0.500000  1
  Ga  Ga3  1  0.666748  0.333252  0.000000  1
  I  I4  1  0.766659  0.771927  0.758248  1
  I  I5  1  0.397859  0.080255  0.762976  1
  I  I6  1  0.077329  0.394143  0.760394  1
  I  I7  1  0.919745  0.602141  0.237024  1
  I  I8  1  0.605857  0.922671  0.239606  1
  I  I9  1  0.228073  0.233341  0.241752  1
