# generated using pymatgen
data_Pr4Re11Si8Tc5
_symmetry_space_group_name_H-M   'P 1'
_cell_length_a   4.17929300
_cell_length_b   7.33954848
_cell_length_c   15.54616189
_cell_angle_alpha   89.99874757
_cell_angle_beta   90.00000000
_cell_angle_gamma   90.00000000
_symmetry_Int_Tables_number   1
_chemical_formula_structural   Pr4Re11Si8Tc5
_chemical_formula_sum   'Pr4 Re11 Si8 Tc5'
_cell_volume   476.86489092
_cell_formula_units_Z   1
loop_
 _symmetry_equiv_pos_site_id
 _symmetry_equiv_pos_as_xyz
  1  'x, y, z'
loop_
 _atom_site_type_symbol
 _atom_site_label
 _atom_site_symmetry_multiplicity
 _atom_site_fract_x
 _atom_site_fract_y
 _atom_site_fract_z
 _atom_site_occupancy
  Pr  Pr0  1  0.000000  0.579622  0.118464  1
  Pr  Pr1  1  0.000000  0.420614  0.881937  1
  Pr  Pr2  1  0.500000  0.079509  0.382266  1
  Pr  Pr3  1  0.500000  0.920604  0.617927  1
  Re  Re4  1  0.000000  0.267085  0.679635  1
  Re  Re5  1  0.500000  0.232740  0.179585  1
  Re  Re6  1  0.500000  0.767195  0.820337  1
  Re  Re7  1  0.000000  0.437231  0.418016  1
  Re  Re8  1  0.000000  0.563313  0.581060  1
  Re  Re9  1  0.500000  0.936193  0.081871  1
  Re  Re10  1  0.500000  0.063275  0.918829  1
  Re  Re11  1  0.000000  0.992770  0.204778  1
  Re  Re12  1  0.000000  0.007499  0.794375  1
  Re  Re13  1  0.500000  0.489855  0.294792  1
  Re  Re14  1  0.500000  0.507599  0.705633  1
  Si  Si15  1  0.000000  0.823838  0.474878  1
  Si  Si16  1  0.000000  0.176281  0.524597  1
  Si  Si17  1  0.500000  0.324637  0.024717  1
  Si  Si18  1  0.500000  0.675968  0.975381  1
  Si  Si19  1  0.000000  0.293451  0.273641  1
  Si  Si20  1  0.000000  0.705752  0.726166  1
  Si  Si21  1  0.500000  0.792683  0.227432  1
  Si  Si22  1  0.500000  0.205853  0.773696  1
  Tc  Tc23  1  0.000000  0.139808  0.051775  1
  Tc  Tc24  1  0.000000  0.861024  0.948569  1
  Tc  Tc25  1  0.500000  0.638860  0.447799  1
  Tc  Tc26  1  0.500000  0.361272  0.551502  1
  Tc  Tc27  1  0.000000  0.735471  0.320340  1
