# generated using pymatgen
data_La5Tb5(SnSb)4
_symmetry_space_group_name_H-M   'P 1'
_cell_length_a   9.27651305
_cell_length_b   8.57192050
_cell_length_c   8.36399600
_cell_angle_alpha   90.11079611
_cell_angle_beta   90.27908949
_cell_angle_gamma   124.55950680
_symmetry_Int_Tables_number   1
_chemical_formula_structural   La5Tb5(SnSb)4
_chemical_formula_sum   'La5 Tb5 Sn4 Sb4'
_cell_volume   547.70646173
_cell_formula_units_Z   1
loop_
 _symmetry_equiv_pos_site_id
 _symmetry_equiv_pos_as_xyz
  1  'x, y, z'
loop_
 _atom_site_type_symbol
 _atom_site_label
 _atom_site_symmetry_multiplicity
 _atom_site_fract_x
 _atom_site_fract_y
 _atom_site_fract_z
 _atom_site_occupancy
  La  La0  1  0.051679  0.345834  0.325587  1
  La  La1  1  0.946853  0.653650  0.675732  1
  La  La2  1  0.447614  0.153841  0.820810  1
  La  La3  1  0.779731  0.512650  0.161697  1
  La  La4  1  0.553883  0.849571  0.177737  1
  Tb  Tb5  1  0.226165  0.486931  0.840948  1
  Tb  Tb6  1  0.724484  0.982127  0.658563  1
  Tb  Tb7  1  0.271600  0.014392  0.340619  1
  Tb  Tb8  1  0.001531  0.000230  0.998881  1
  Tb  Tb9  1  0.497160  0.499190  0.500478  1
  Sn  Sn10  1  0.363524  0.366398  0.134628  1
  Sn  Sn11  1  0.631584  0.634005  0.863506  1
  Sn  Sn12  1  0.132322  0.134192  0.634252  1
  Sn  Sn13  1  0.867662  0.871153  0.367939  1
  Sb  Sb14  1  0.826290  0.226655  0.960947  1
  Sb  Sb15  1  0.185344  0.775662  0.030200  1
  Sb  Sb16  1  0.670683  0.260793  0.472581  1
  Sb  Sb17  1  0.321891  0.732724  0.534896  1
