# generated using pymatgen
data_Dy7Er2Cd(SiB4)4
_symmetry_space_group_name_H-M   'P 1'
_cell_length_a   7.18660302
_cell_length_b   7.18649602
_cell_length_c   7.97754502
_cell_angle_alpha   90.00629513
_cell_angle_beta   89.99455119
_cell_angle_gamma   90.00586801
_symmetry_Int_Tables_number   1
_chemical_formula_structural   Dy7Er2Cd(SiB4)4
_chemical_formula_sum   'Dy7 Er2 Cd1 Si4 B16'
_cell_volume   412.01222443
_cell_formula_units_Z   1
loop_
 _symmetry_equiv_pos_site_id
 _symmetry_equiv_pos_as_xyz
  1  'x, y, z'
loop_
 _atom_site_type_symbol
 _atom_site_label
 _atom_site_symmetry_multiplicity
 _atom_site_fract_x
 _atom_site_fract_y
 _atom_site_fract_z
 _atom_site_occupancy
  Dy  Dy0  1  0.318144  0.819886  0.770929  1
  Dy  Dy1  1  0.318214  0.819925  0.229148  1
  Dy  Dy2  1  0.819789  0.681874  0.229281  1
  Dy  Dy3  1  0.819836  0.681885  0.770638  1
  Dy  Dy4  1  0.681921  0.180144  0.771004  1
  Dy  Dy5  1  0.180090  0.318091  0.770646  1
  Dy  Dy6  1  0.180174  0.318020  0.229298  1
  Er  Er7  1  0.681712  0.180234  0.227566  1
  Er  Er8  1  0.500188  0.499818  0.499784  1
  Cd  Cd9  1  0.999721  0.000120  0.499717  1
  Si  Si10  1  0.117866  0.612020  0.499915  1
  Si  Si11  1  0.881555  0.387237  0.499311  1
  Si  Si12  1  0.388328  0.118433  0.499418  1
  Si  Si13  1  0.612550  0.882252  0.499504  1
  B  B14  1  0.175237  0.038743  0.000246  1
  B  B15  1  0.824484  0.961631  0.000302  1
  B  B16  1  0.960959  0.175384  0.000261  1
  B  B17  1  0.327341  0.539570  0.000164  1
  B  B18  1  0.038613  0.824850  0.000179  1
  B  B19  1  0.672897  0.460085  0.000165  1
  B  B20  1  0.539798  0.672756  0.000173  1
  B  B21  1  0.460571  0.326996  0.000298  1
  B  B22  1  0.089599  0.588304  0.000139  1
  B  B23  1  0.910360  0.411659  0.000071  1
  B  B24  1  0.411966  0.089525  0.000442  1
  B  B25  1  0.588226  0.910722  0.000472  1
  B  B26  1  0.999554  0.000275  0.156653  1
  B  B27  1  0.999936  0.000070  0.843895  1
  B  B28  1  0.500079  0.499990  0.836591  1
  B  B29  1  0.500291  0.499499  0.163790  1
