# generated using pymatgen
data_La9Nd7Cd4Co3Pd
_symmetry_space_group_name_H-M   'P 1'
_cell_length_a   9.98696959
_cell_length_b   9.95468075
_cell_length_c   9.97593900
_cell_angle_alpha   59.92933629
_cell_angle_beta   60.03653309
_cell_angle_gamma   60.42752685
_symmetry_Int_Tables_number   1
_chemical_formula_structural   La9Nd7Cd4Co3Pd
_chemical_formula_sum   'La9 Nd7 Cd4 Co3 Pd1'
_cell_volume   703.34741873
_cell_formula_units_Z   1
loop_
 _symmetry_equiv_pos_site_id
 _symmetry_equiv_pos_as_xyz
  1  'x, y, z'
loop_
 _atom_site_type_symbol
 _atom_site_label
 _atom_site_symmetry_multiplicity
 _atom_site_fract_x
 _atom_site_fract_y
 _atom_site_fract_z
 _atom_site_occupancy
  La  La0  1  0.336071  0.351812  0.351958  1
  La  La1  1  0.336071  0.351812  0.960159  1
  La  La2  1  0.338030  0.958876  0.351547  1
  La  La3  1  0.965636  0.348571  0.342896  1
  La  La4  1  0.822531  0.188805  0.192345  1
  La  La5  1  0.188871  0.808447  0.812465  1
  La  La6  1  0.188871  0.808447  0.190217  1
  La  La7  1  0.822531  0.188805  0.796319  1
  La  La8  1  0.191382  0.187693  0.810463  1
  Nd  Nd9  1  0.816181  0.796250  0.193785  1
  Nd  Nd10  1  0.932869  0.565852  0.565997  1
  Nd  Nd11  1  0.563466  0.936966  0.936476  1
  Nd  Nd12  1  0.563466  0.936966  0.563091  1
  Nd  Nd13  1  0.932869  0.565852  0.935281  1
  Nd  Nd14  1  0.562790  0.563066  0.937072  1
  Nd  Nd15  1  0.933522  0.936950  0.564764  1
  Cd  Cd16  1  0.580705  0.580372  0.578915  1
  Cd  Cd17  1  0.580705  0.580372  0.260009  1
  Cd  Cd18  1  0.580801  0.259981  0.579610  1
  Cd  Cd19  1  0.256528  0.581470  0.581001  1
  Co  Co20  1  0.139713  0.142025  0.140109  1
  Co  Co21  1  0.139713  0.142025  0.578151  1
  Co  Co22  1  0.147763  0.576615  0.137810  1
  Pd  Pd23  1  0.578913  0.141970  0.139558  1
