# generated using pymatgen
data_Bi4Pt3PbF28
_symmetry_space_group_name_H-M   'P 1'
_cell_length_a   5.65894430
_cell_length_b   9.20892600
_cell_length_c   12.33234596
_cell_angle_alpha   62.10289982
_cell_angle_beta   89.76071667
_cell_angle_gamma   90.00536224
_symmetry_Int_Tables_number   1
_chemical_formula_structural   Bi4Pt3PbF28
_chemical_formula_sum   'Bi4 Pt3 Pb1 F28'
_cell_volume   567.98111277
_cell_formula_units_Z   1
loop_
 _symmetry_equiv_pos_site_id
 _symmetry_equiv_pos_as_xyz
  1  'x, y, z'
loop_
 _atom_site_type_symbol
 _atom_site_label
 _atom_site_symmetry_multiplicity
 _atom_site_fract_x
 _atom_site_fract_y
 _atom_site_fract_z
 _atom_site_occupancy
  Bi  Bi0  1  0.762328  0.818872  0.760451  1
  Bi  Bi1  1  0.260802  0.185986  0.732856  1
  Bi  Bi2  1  0.239300  0.183581  0.242642  1
  Bi  Bi3  1  0.737398  0.810356  0.264249  1
  Pt  Pt4  1  0.257807  0.729259  0.541390  1
  Pt  Pt5  1  0.239179  0.729526  0.040894  1
  Pt  Pt6  1  0.742292  0.271093  0.458867  1
  Pb  Pb7  1  0.755429  0.271776  0.960440  1
  F  F8  1  0.426960  0.707262  0.914241  1
  F  F9  1  0.926801  0.293428  0.585415  1
  F  F10  1  0.554860  0.294952  0.094388  1
  F  F11  1  0.071322  0.708020  0.414404  1
  F  F12  1  0.441241  0.278198  0.538405  1
  F  F13  1  0.941909  0.726686  0.957000  1
  F  F14  1  0.556801  0.722499  0.459586  1
  F  F15  1  0.076228  0.273420  0.047891  1
  F  F16  1  0.783023  0.526053  0.857223  1
  F  F17  1  0.268155  0.488407  0.636358  1
  F  F18  1  0.221419  0.489050  0.139979  1
  F  F19  1  0.731125  0.511524  0.361747  1
  F  F20  1  0.760784  0.012900  0.058491  1
  F  F21  1  0.255339  0.972838  0.450462  1
  F  F22  1  0.244427  0.973251  0.945537  1
  F  F23  1  0.743594  0.027527  0.551432  1
  F  F24  1  0.965284  0.729871  0.628665  1
  F  F25  1  0.452325  0.273084  0.861399  1
  F  F26  1  0.036876  0.272025  0.373208  1
  F  F27  1  0.528611  0.724839  0.131221  1
  F  F28  1  0.059905  0.745021  0.173425  1
  F  F29  1  0.564611  0.254447  0.327490  1
  F  F30  1  0.944023  0.249224  0.821657  1
  F  F31  1  0.440157  0.744683  0.672417  1
  F  F32  1  0.410433  0.970886  0.231170  1
  F  F33  1  0.905283  0.028603  0.268290  1
  F  F34  1  0.596803  0.033683  0.769379  1
  F  F35  1  0.097164  0.967170  0.727330  1
