# generated using pymatgen
data_Na2Ir2O7
_symmetry_space_group_name_H-M   'P 1'
_cell_length_a   7.28229314
_cell_length_b   7.28229365
_cell_length_c   7.28229365
_cell_angle_alpha   120.30533646
_cell_angle_beta   116.82556267
_cell_angle_gamma   92.52849559
_symmetry_Int_Tables_number   1
_chemical_formula_structural   Na2Ir2O7
_chemical_formula_sum   'Na4 Ir4 O14'
_cell_volume   278.40282185
_cell_formula_units_Z   2
loop_
 _symmetry_equiv_pos_site_id
 _symmetry_equiv_pos_as_xyz
  1  'x, y, z'
loop_
 _atom_site_type_symbol
 _atom_site_label
 _atom_site_symmetry_multiplicity
 _atom_site_fract_x
 _atom_site_fract_y
 _atom_site_fract_z
 _atom_site_occupancy
  Na  Na0  1  0.500000  0.000000  0.500000  1
  Na  Na1  1  0.000000  0.500000  0.500000  1
  Na  Na2  1  0.500000  0.000000  0.000000  1
  Na  Na3  1  0.500000  0.500000  0.500000  1
  Ir  Ir4  1  0.000000  0.000000  0.000000  1
  Ir  Ir5  1  0.500000  0.500000  0.000000  1
  Ir  Ir6  1  0.000000  0.000000  0.500000  1
  Ir  Ir7  1  0.000000  0.500000  0.000000  1
  O  O8  1  0.043507  0.910524  0.723144  1
  O  O9  1  0.956493  0.679637  0.867016  1
  O  O10  1  0.312621  0.589476  0.132984  1
  O  O11  1  0.687379  0.820363  0.276856  1
  O  O12  1  0.956493  0.089476  0.276856  1
  O  O13  1  0.043507  0.320363  0.132984  1
  O  O14  1  0.687379  0.410524  0.867016  1
  O  O15  1  0.312621  0.179637  0.723144  1
  O  O16  1  0.086202  0.750000  0.336202  1
  O  O17  1  0.913798  0.250000  0.663798  1
  O  O18  1  0.699272  0.915205  0.784067  1
  O  O19  1  0.300728  0.084795  0.215933  1
  O  O20  1  0.368863  0.584795  0.784067  1
  O  O21  1  0.631137  0.415205  0.215933  1
