# generated using pymatgen
data_AgSbF7
_symmetry_space_group_name_H-M   'P 1'
_cell_length_a   8.04645210
_cell_length_b   8.04645171
_cell_length_c   8.04645116
_cell_angle_alpha   124.75293759
_cell_angle_beta   121.62559893
_cell_angle_gamma   84.58290888
_symmetry_Int_Tables_number   1
_chemical_formula_structural   AgSbF7
_chemical_formula_sum   'Ag2 Sb2 F14'
_cell_volume   348.55246817
_cell_formula_units_Z   2
loop_
 _symmetry_equiv_pos_site_id
 _symmetry_equiv_pos_as_xyz
  1  'x, y, z'
loop_
 _atom_site_type_symbol
 _atom_site_label
 _atom_site_symmetry_multiplicity
 _atom_site_fract_x
 _atom_site_fract_y
 _atom_site_fract_z
 _atom_site_occupancy
  Ag  Ag0  1  0.500000  0.000000  0.000000  1
  Ag  Ag1  1  0.000000  0.000000  0.500000  1
  Sb  Sb2  1  0.500000  0.000000  0.500000  1
  Sb  Sb3  1  0.000000  0.500000  0.500000  1
  F  F4  1  0.250000  0.076497  0.826497  1
  F  F5  1  0.750000  0.923503  0.173503  1
  F  F6  1  0.528402  0.278026  0.749624  1
  F  F7  1  0.971598  0.721221  0.749624  1
  F  F8  1  0.061197  0.353041  0.641762  1
  F  F9  1  0.438803  0.080566  0.291844  1
  F  F10  1  0.288723  0.646959  0.708156  1
  F  F11  1  0.211277  0.919434  0.358238  1
  F  F12  1  0.938803  0.646959  0.358238  1
  F  F13  1  0.561197  0.919434  0.708156  1
  F  F14  1  0.711277  0.353041  0.291844  1
  F  F15  1  0.788723  0.080566  0.641762  1
  F  F16  1  0.028402  0.278779  0.250376  1
  F  F17  1  0.471598  0.721974  0.250376  1
