# generated using pymatgen
data_Sr4YbTm(MoO6)2
_symmetry_space_group_name_H-M   'P 1'
_cell_length_a   5.81418332
_cell_length_b   8.19298981
_cell_length_c   5.92743100
_cell_angle_alpha   90.06511424
_cell_angle_beta   90.02122330
_cell_angle_gamma   90.06432253
_symmetry_Int_Tables_number   1
_chemical_formula_structural   Sr4YbTm(MoO6)2
_chemical_formula_sum   'Sr4 Yb1 Tm1 Mo2 O12'
_cell_volume   282.35602475
_cell_formula_units_Z   1
loop_
 _symmetry_equiv_pos_site_id
 _symmetry_equiv_pos_as_xyz
  1  'x, y, z'
loop_
 _atom_site_type_symbol
 _atom_site_label
 _atom_site_symmetry_multiplicity
 _atom_site_fract_x
 _atom_site_fract_y
 _atom_site_fract_z
 _atom_site_occupancy
  Sr  Sr0  1  0.488821  0.252380  0.542880  1
  Sr  Sr1  1  0.010518  0.254051  0.039399  1
  Sr  Sr2  1  0.989482  0.745947  0.960600  1
  Sr  Sr3  1  0.511180  0.747619  0.457119  1
  Yb  Yb4  1  0.500000  0.000001  0.000000  1
  Tm  Tm5  1  0.000001  0.500000  0.500001  1
  Mo  Mo6  1  0.000000  0.999999  0.500000  1
  Mo  Mo7  1  0.500000  0.500002  0.999999  1
  O  O8  1  0.780051  0.541499  0.203090  1
  O  O9  1  0.219948  0.458501  0.796910  1
  O  O10  1  0.267042  0.039305  0.309645  1
  O  O11  1  0.732959  0.960694  0.690356  1
  O  O12  1  0.580915  0.271646  0.976000  1
  O  O13  1  0.919258  0.233447  0.476452  1
  O  O14  1  0.080743  0.766554  0.523548  1
  O  O15  1  0.419083  0.728355  0.024000  1
  O  O16  1  0.299173  0.453077  0.279495  1
  O  O17  1  0.812723  0.955083  0.233267  1
  O  O18  1  0.187278  0.044917  0.766733  1
  O  O19  1  0.700826  0.546922  0.720504  1
