# generated using pymatgen
data_Eu5Ge2Sb
_symmetry_space_group_name_H-M   'P 1'
_cell_length_a   9.48764249
_cell_length_b   9.48764168
_cell_length_c   9.48764200
_cell_angle_alpha   128.88267083
_cell_angle_beta   128.88267464
_cell_angle_gamma   75.19942987
_symmetry_Int_Tables_number   1
_chemical_formula_structural   Eu5Ge2Sb
_chemical_formula_sum   'Eu10 Ge4 Sb2'
_cell_volume   503.79199868
_cell_formula_units_Z   2
loop_
 _symmetry_equiv_pos_site_id
 _symmetry_equiv_pos_as_xyz
  1  'x, y, z'
loop_
 _atom_site_type_symbol
 _atom_site_label
 _atom_site_symmetry_multiplicity
 _atom_site_fract_x
 _atom_site_fract_y
 _atom_site_fract_z
 _atom_site_occupancy
  Eu  Eu0  1  0.000000  0.000000  0.000000  1
  Eu  Eu1  1  0.500000  0.500000  0.000000  1
  Eu  Eu2  1  0.809459  0.309459  0.837156  1
  Eu  Eu3  1  0.190541  0.690541  0.162844  1
  Eu  Eu4  1  0.472303  0.972303  0.162844  1
  Eu  Eu5  1  0.309459  0.472303  0.500000  1
  Eu  Eu6  1  0.027697  0.190541  0.500000  1
  Eu  Eu7  1  0.527697  0.027697  0.837156  1
  Eu  Eu8  1  0.690541  0.527697  0.500000  1
  Eu  Eu9  1  0.972303  0.809459  0.500000  1
  Ge  Ge10  1  0.120495  0.620495  0.740989  1
  Ge  Ge11  1  0.879505  0.379505  0.259011  1
  Ge  Ge12  1  0.620495  0.879505  0.500000  1
  Ge  Ge13  1  0.379505  0.120495  0.500000  1
  Sb  Sb14  1  0.250000  0.250000  0.000000  1
  Sb  Sb15  1  0.750000  0.750000  0.000000  1
