# generated using pymatgen
data_Ho5In4
_symmetry_space_group_name_H-M   'P 1'
_cell_length_a   9.25564700
_cell_length_b   9.25564811
_cell_length_c   6.66703400
_cell_angle_alpha   90.00000000
_cell_angle_beta   90.00000000
_cell_angle_gamma   119.99999246
_symmetry_Int_Tables_number   1
_chemical_formula_structural   Ho5In4
_chemical_formula_sum   'Ho10 In8'
_cell_volume   494.62601236
_cell_formula_units_Z   2
loop_
 _symmetry_equiv_pos_site_id
 _symmetry_equiv_pos_as_xyz
  1  'x, y, z'
loop_
 _atom_site_type_symbol
 _atom_site_label
 _atom_site_symmetry_multiplicity
 _atom_site_fract_x
 _atom_site_fract_y
 _atom_site_fract_z
 _atom_site_occupancy
  Ho  Ho0  1  0.333333  0.666667  0.500000  1
  Ho  Ho1  1  0.666667  0.333333  0.500000  1
  Ho  Ho2  1  0.666667  0.333333  0.000000  1
  Ho  Ho3  1  0.333333  0.666667  0.000000  1
  Ho  Ho4  1  0.288534  0.000000  0.750000  1
  Ho  Ho5  1  0.711466  0.000000  0.250000  1
  Ho  Ho6  1  0.000000  0.288534  0.750000  1
  Ho  Ho7  1  0.000000  0.711466  0.250000  1
  Ho  Ho8  1  0.711466  0.711466  0.750000  1
  Ho  Ho9  1  0.288534  0.288534  0.250000  1
  In  In10  1  0.000000  0.000000  0.500000  1
  In  In11  1  0.000000  0.000000  0.000000  1
  In  In12  1  0.627441  0.000000  0.750000  1
  In  In13  1  0.372559  0.000000  0.250000  1
  In  In14  1  0.000000  0.627441  0.750000  1
  In  In15  1  0.000000  0.372559  0.250000  1
  In  In16  1  0.372559  0.372559  0.750000  1
  In  In17  1  0.627441  0.627441  0.250000  1
