# generated using pymatgen
data_TmLu5Al24(NiOs3)2
_symmetry_space_group_name_H-M   'P 1'
_cell_length_a   8.81078354
_cell_length_b   8.70030841
_cell_length_c   9.44706000
_cell_angle_alpha   90.00012988
_cell_angle_beta   90.00003123
_cell_angle_gamma   120.38079001
_symmetry_Int_Tables_number   1
_chemical_formula_structural   TmLu5Al24(NiOs3)2
_chemical_formula_sum   'Tm1 Lu5 Al24 Ni2 Os6'
_cell_volume   624.73701111
_cell_formula_units_Z   1
loop_
 _symmetry_equiv_pos_site_id
 _symmetry_equiv_pos_as_xyz
  1  'x, y, z'
loop_
 _atom_site_type_symbol
 _atom_site_label
 _atom_site_symmetry_multiplicity
 _atom_site_fract_x
 _atom_site_fract_y
 _atom_site_fract_z
 _atom_site_occupancy
  Tm  Tm0  1  0.816847  0.203697  0.749992  1
  Lu  Lu1  1  0.196942  0.393950  0.250020  1
  Lu  Lu2  1  0.802961  0.606129  0.749984  1
  Lu  Lu3  1  0.612523  0.795649  0.250012  1
  Lu  Lu4  1  0.387488  0.204329  0.749990  1
  Lu  Lu5  1  0.183278  0.795561  0.250011  1
  Al  Al6  1  0.335801  0.671641  0.024286  1
  Al  Al7  1  0.664100  0.328517  0.975876  1
  Al  Al8  1  0.664097  0.328514  0.524118  1
  Al  Al9  1  0.335804  0.671645  0.475719  1
  Al  Al10  1  0.165531  0.330520  0.574584  1
  Al  Al11  1  0.834679  0.669587  0.425279  1
  Al  Al12  1  0.673223  0.838759  0.576885  1
  Al  Al13  1  0.834684  0.669593  0.074718  1
  Al  Al14  1  0.326688  0.161049  0.422996  1
  Al  Al15  1  0.165525  0.330516  0.925419  1
  Al  Al16  1  0.165534  0.838966  0.576768  1
  Al  Al17  1  0.326679  0.161044  0.077001  1
  Al  Al18  1  0.834418  0.161050  0.423028  1
  Al  Al19  1  0.673227  0.838762  0.923114  1
  Al  Al20  1  0.834420  0.161051  0.076968  1
  Al  Al21  1  0.165534  0.838968  0.923236  1
  Al  Al22  1  0.554823  0.109722  0.250002  1
  Al  Al23  1  0.444764  0.889894  0.750000  1
  Al  Al24  1  0.872527  0.433212  0.250001  1
  Al  Al25  1  0.127765  0.567151  0.750000  1
  Al  Al26  1  0.560688  0.433129  0.250003  1
  Al  Al27  1  0.439300  0.566845  0.749997  1
  Al  Al28  1  0.998711  0.997533  0.250002  1
  Al  Al29  1  0.001501  0.002262  0.750002  1
  Ni  Ni30  1  0.499917  0.999968  0.000055  1
  Ni  Ni31  1  0.499913  0.999973  0.499940  1
  Os  Os32  1  0.000156  0.500303  0.000214  1
  Os  Os33  1  0.499927  0.500062  0.000038  1
  Os  Os34  1  0.000146  0.500290  0.499785  1
  Os  Os35  1  0.499923  0.500043  0.499961  1
  Os  Os36  1  0.999987  0.000060  0.000020  1
  Os  Os37  1  0.999969  0.000057  0.499978  1
