# generated using pymatgen
data_UNbCo6
_symmetry_space_group_name_H-M   'P 1'
_cell_length_a   5.24330900
_cell_length_b   5.24330843
_cell_length_c   4.24361400
_cell_angle_alpha   90.00000000
_cell_angle_beta   90.00000000
_cell_angle_gamma   119.99998468
_symmetry_Int_Tables_number   1
_chemical_formula_structural   UNbCo6
_chemical_formula_sum   'U1 Nb1 Co6'
_cell_volume   101.03629907
_cell_formula_units_Z   1
loop_
 _symmetry_equiv_pos_site_id
 _symmetry_equiv_pos_as_xyz
  1  'x, y, z'
loop_
 _atom_site_type_symbol
 _atom_site_label
 _atom_site_symmetry_multiplicity
 _atom_site_fract_x
 _atom_site_fract_y
 _atom_site_fract_z
 _atom_site_occupancy
  U  U0  1  0.333334  0.666668  0.750000  1
  Nb  Nb1  1  0.666668  0.333334  0.250000  1
  Co  Co2  1  0.160349  0.320700  0.250000  1
  Co  Co3  1  0.160349  0.839651  0.250000  1
  Co  Co4  1  0.679301  0.839651  0.250000  1
  Co  Co5  1  0.320880  0.160440  0.750000  1
  Co  Co6  1  0.839561  0.160440  0.750000  1
  Co  Co7  1  0.839560  0.679121  0.750000  1
