# generated using pymatgen
data_Li2CuB5Pt9
_symmetry_space_group_name_H-M   'P 1'
_cell_length_a   9.11771249
_cell_length_b   9.11771258
_cell_length_c   2.94667100
_cell_angle_alpha   90.00000000
_cell_angle_beta   90.00000000
_cell_angle_gamma   120.24296473
_symmetry_Int_Tables_number   1
_chemical_formula_structural   Li2CuB5Pt9
_chemical_formula_sum   'Li2 Cu1 B5 Pt9'
_cell_volume   211.62432481
_cell_formula_units_Z   1
loop_
 _symmetry_equiv_pos_site_id
 _symmetry_equiv_pos_as_xyz
  1  'x, y, z'
loop_
 _atom_site_type_symbol
 _atom_site_label
 _atom_site_symmetry_multiplicity
 _atom_site_fract_x
 _atom_site_fract_y
 _atom_site_fract_z
 _atom_site_occupancy
  Li  Li0  1  0.456939  0.000108  0.000000  1
  Li  Li1  1  0.000108  0.456939  0.000000  1
  Cu  Cu2  1  0.542649  0.542649  0.000000  1
  B  B3  1  0.811112  0.000438  0.500000  1
  B  B4  1  0.000438  0.811112  0.500000  1
  B  B5  1  0.189632  0.189632  0.500000  1
  B  B6  1  0.667188  0.331071  0.000000  1
  B  B7  1  0.331071  0.667188  0.000000  1
  Pt  Pt8  1  0.806648  0.537059  0.500000  1
  Pt  Pt9  1  0.462437  0.266528  0.500000  1
  Pt  Pt10  1  0.732118  0.193637  0.500000  1
  Pt  Pt11  1  0.266528  0.462437  0.500000  1
  Pt  Pt12  1  0.193637  0.732118  0.500000  1
  Pt  Pt13  1  0.537059  0.806648  0.500000  1
  Pt  Pt14  1  0.178571  0.000552  0.000000  1
  Pt  Pt15  1  0.000552  0.178571  0.000000  1
  Pt  Pt16  1  0.823314  0.823314  0.000000  1
