# generated using pymatgen
data_Si(Tc4P)3
_symmetry_space_group_name_H-M   'P 1'
_cell_length_a   7.22727283
_cell_length_b   7.16429236
_cell_length_c   7.22893159
_cell_angle_alpha   96.94884739
_cell_angle_beta   96.60887474
_cell_angle_gamma   140.49933646
_symmetry_Int_Tables_number   1
_chemical_formula_structural   Si(Tc4P)3
_chemical_formula_sum   'Si1 Tc12 P3'
_cell_volume   223.09009215
_cell_formula_units_Z   1
loop_
 _symmetry_equiv_pos_site_id
 _symmetry_equiv_pos_as_xyz
  1  'x, y, z'
loop_
 _atom_site_type_symbol
 _atom_site_label
 _atom_site_symmetry_multiplicity
 _atom_site_fract_x
 _atom_site_fract_y
 _atom_site_fract_z
 _atom_site_occupancy
  Si  Si0  1  0.209959  0.502316  0.710655  1
  Tc  Tc1  1  0.350208  0.000384  0.348607  1
  Tc  Tc2  1  0.997571  0.351225  0.345845  1
  Tc  Tc3  1  0.991475  0.647954  0.644454  1
  Tc  Tc4  1  0.651497  0.001494  0.651136  1
  Tc  Tc5  1  0.493025  0.081285  0.996170  1
  Tc  Tc6  1  0.915626  0.916265  0.411369  1
  Tc  Tc7  1  0.512312  0.507044  0.593044  1
  Tc  Tc8  1  0.086951  0.493218  0.008404  1
  Tc  Tc9  1  0.707111  0.900411  0.999396  1
  Tc  Tc10  1  0.098247  0.099651  0.806505  1
  Tc  Tc11  1  0.291146  0.293347  0.199099  1
  Tc  Tc12  1  0.905726  0.706395  0.997502  1
  P  P13  1  0.496028  0.204336  0.708541  1
  P  P14  1  0.506122  0.795778  0.293650  1
  P  P15  1  0.786995  0.498898  0.285621  1
