# generated using pymatgen
data_Li2La3(MgPb2)2
_symmetry_space_group_name_H-M   'P 1'
_cell_length_a   4.83141895
_cell_length_b   7.66537563
_cell_length_c   8.99549500
_cell_angle_alpha   113.65252656
_cell_angle_beta   105.57779774
_cell_angle_gamma   90.00000932
_symmetry_Int_Tables_number   1
_chemical_formula_structural   Li2La3(MgPb2)2
_chemical_formula_sum   'Li2 La3 Mg2 Pb4'
_cell_volume   291.75016246
_cell_formula_units_Z   1
loop_
 _symmetry_equiv_pos_site_id
 _symmetry_equiv_pos_as_xyz
  1  'x, y, z'
loop_
 _atom_site_type_symbol
 _atom_site_label
 _atom_site_symmetry_multiplicity
 _atom_site_fract_x
 _atom_site_fract_y
 _atom_site_fract_z
 _atom_site_occupancy
  Li  Li0  1  0.325662  0.636653  0.651323  1
  Li  Li1  1  0.674338  0.363347  0.348677  1
  La  La2  1  0.000000  0.000000  0.000000  1
  La  La3  1  0.121808  0.612537  0.243615  1
  La  La4  1  0.878192  0.387463  0.756385  1
  Mg  Mg5  1  0.672417  0.982850  0.344833  1
  Mg  Mg6  1  0.327583  0.017150  0.655167  1
  Pb  Pb7  1  0.495350  0.702002  0.990701  1
  Pb  Pb8  1  0.504650  0.297998  0.009299  1
  Pb  Pb9  1  0.782672  0.764045  0.565344  1
  Pb  Pb10  1  0.217328  0.235955  0.434656  1
