# generated using pymatgen
data_Yb4Si10(OsPt)3
_symmetry_space_group_name_H-M   'P 1'
_cell_length_a   8.26611063
_cell_length_b   8.24742155
_cell_length_c   8.24742152
_cell_angle_alpha   138.80641493
_cell_angle_beta   107.15955147
_cell_angle_gamma   87.24405603
_symmetry_Int_Tables_number   1
_chemical_formula_structural   Yb4Si10(OsPt)3
_chemical_formula_sum   'Yb4 Si10 Os3 Pt3'
_cell_volume   340.04137234
_cell_formula_units_Z   1
loop_
 _symmetry_equiv_pos_site_id
 _symmetry_equiv_pos_as_xyz
  1  'x, y, z'
loop_
 _atom_site_type_symbol
 _atom_site_label
 _atom_site_symmetry_multiplicity
 _atom_site_fract_x
 _atom_site_fract_y
 _atom_site_fract_z
 _atom_site_occupancy
  Yb  Yb0  1  0.863348  0.632877  0.230470  1
  Yb  Yb1  1  0.136350  0.366775  0.769575  1
  Yb  Yb2  1  0.401899  0.134523  0.267376  1
  Yb  Yb3  1  0.598901  0.867780  0.731120  1
  Si  Si4  1  0.496445  0.756605  0.251068  1
  Si  Si5  1  0.496445  0.245376  0.739839  1
  Si  Si6  1  0.209104  0.969748  0.747509  1
  Si  Si7  1  0.784947  0.533477  0.750427  1
  Si  Si8  1  0.784947  0.034520  0.251470  1
  Si  Si9  1  0.209104  0.461594  0.239355  1
  Si  Si10  1  0.064671  0.899903  0.164768  1
  Si  Si11  1  0.944299  0.097270  0.847029  1
  Si  Si12  1  0.746490  0.399366  0.347123  1
  Si  Si13  1  0.251490  0.598692  0.652798  1
  Os  Os14  1  0.000153  0.748869  0.753107  1
  Os  Os15  1  0.000153  0.247046  0.251284  1
  Os  Os16  1  0.257091  0.858373  0.398719  1
  Pt  Pt17  1  0.751856  0.142674  0.609181  1
  Pt  Pt18  1  0.467226  0.360211  0.107015  1
  Pt  Pt19  1  0.535086  0.644320  0.890767  1
