# generated using pymatgen
data_Ac2Cu2SbAsP2
_symmetry_space_group_name_H-M   'P 1'
_cell_length_a   4.08131200
_cell_length_b   4.08131200
_cell_length_c   10.74931100
_cell_angle_alpha   90.00000000
_cell_angle_beta   90.00000000
_cell_angle_gamma   90.00000000
_symmetry_Int_Tables_number   1
_chemical_formula_structural   Ac2Cu2SbAsP2
_chemical_formula_sum   'Ac2 Cu2 Sb1 As1 P2'
_cell_volume   179.05243040
_cell_formula_units_Z   1
loop_
 _symmetry_equiv_pos_site_id
 _symmetry_equiv_pos_as_xyz
  1  'x, y, z'
loop_
 _atom_site_type_symbol
 _atom_site_label
 _atom_site_symmetry_multiplicity
 _atom_site_fract_x
 _atom_site_fract_y
 _atom_site_fract_z
 _atom_site_occupancy
  Ac  Ac0  1  0.000000  0.500000  0.741018  1
  Ac  Ac1  1  0.500000  0.000000  0.258982  1
  Cu  Cu2  1  0.500000  0.500000  0.500000  1
  Cu  Cu3  1  0.000000  0.000000  0.500000  1
  Sb  Sb4  1  0.000000  0.000000  0.000000  1
  As  As5  1  0.500000  0.500000  0.000000  1
  P  P6  1  0.000000  0.500000  0.371844  1
  P  P7  1  0.500000  0.000000  0.628156  1
