# generated using pymatgen
data_DyAl5Pt3
_symmetry_space_group_name_H-M   'P 1'
_cell_length_a   4.07820900
_cell_length_b   7.41222700
_cell_length_c   20.61335100
_cell_angle_alpha   90.00000000
_cell_angle_beta   90.00000000
_cell_angle_gamma   90.00000000
_symmetry_Int_Tables_number   1
_chemical_formula_structural   DyAl5Pt3
_chemical_formula_sum   'Dy4 Al20 Pt12'
_cell_volume   623.11296593
_cell_formula_units_Z   4
loop_
 _symmetry_equiv_pos_site_id
 _symmetry_equiv_pos_as_xyz
  1  'x, y, z'
loop_
 _atom_site_type_symbol
 _atom_site_label
 _atom_site_symmetry_multiplicity
 _atom_site_fract_x
 _atom_site_fract_y
 _atom_site_fract_z
 _atom_site_occupancy
  Dy  Dy0  1  0.250000  0.116141  0.639768  1
  Dy  Dy1  1  0.750000  0.883859  0.360232  1
  Dy  Dy2  1  0.250000  0.383859  0.139768  1
  Dy  Dy3  1  0.750000  0.616141  0.860232  1
  Al  Al4  1  0.750000  0.354594  0.382119  1
  Al  Al5  1  0.750000  0.883923  0.983802  1
  Al  Al6  1  0.750000  0.685819  0.200232  1
  Al  Al7  1  0.250000  0.869589  0.491106  1
  Al  Al8  1  0.250000  0.630411  0.991106  1
  Al  Al9  1  0.250000  0.314181  0.799768  1
  Al  Al10  1  0.750000  0.074469  0.209062  1
  Al  Al11  1  0.250000  0.645406  0.617881  1
  Al  Al12  1  0.250000  0.574469  0.290938  1
  Al  Al13  1  0.250000  0.185819  0.299768  1
  Al  Al14  1  0.750000  0.145406  0.882119  1
  Al  Al15  1  0.250000  0.925531  0.790938  1
  Al  Al16  1  0.750000  0.369589  0.008894  1
  Al  Al17  1  0.750000  0.616077  0.483802  1
  Al  Al18  1  0.750000  0.130411  0.508894  1
  Al  Al19  1  0.250000  0.116077  0.016198  1
  Al  Al20  1  0.250000  0.854594  0.117881  1
  Al  Al21  1  0.250000  0.383923  0.516198  1
  Al  Al22  1  0.750000  0.425531  0.709062  1
  Al  Al23  1  0.750000  0.814181  0.700232  1
  Pt  Pt24  1  0.750000  0.382449  0.259434  1
  Pt  Pt25  1  0.250000  0.882449  0.240566  1
  Pt  Pt26  1  0.250000  0.617551  0.740566  1
  Pt  Pt27  1  0.750000  0.117551  0.759434  1
  Pt  Pt28  1  0.250000  0.159729  0.425928  1
  Pt  Pt29  1  0.750000  0.418131  0.585622  1
  Pt  Pt30  1  0.750000  0.081869  0.085622  1
  Pt  Pt31  1  0.250000  0.918131  0.914378  1
  Pt  Pt32  1  0.750000  0.840271  0.574072  1
  Pt  Pt33  1  0.250000  0.340271  0.925928  1
  Pt  Pt34  1  0.750000  0.659729  0.074072  1
  Pt  Pt35  1  0.250000  0.581869  0.414378  1
