# generated using pymatgen
data_Li4Ac3PrRh4
_symmetry_space_group_name_H-M   'P 1'
_cell_length_a   4.13646000
_cell_length_b   7.35073709
_cell_length_c   8.95253800
_cell_angle_alpha   90.46501311
_cell_angle_beta   90.00000000
_cell_angle_gamma   90.00000000
_symmetry_Int_Tables_number   1
_chemical_formula_structural   Li4Ac3PrRh4
_chemical_formula_sum   'Li4 Ac3 Pr1 Rh4'
_cell_volume   272.20217346
_cell_formula_units_Z   1
loop_
 _symmetry_equiv_pos_site_id
 _symmetry_equiv_pos_as_xyz
  1  'x, y, z'
loop_
 _atom_site_type_symbol
 _atom_site_label
 _atom_site_symmetry_multiplicity
 _atom_site_fract_x
 _atom_site_fract_y
 _atom_site_fract_z
 _atom_site_occupancy
  Li  Li0  1  0.750000  0.378448  0.044153  1
  Li  Li1  1  0.250000  0.618189  0.948011  1
  Li  Li2  1  0.750000  0.877977  0.451420  1
  Li  Li3  1  0.250000  0.130033  0.549900  1
  Ac  Ac4  1  0.250000  0.046648  0.181556  1
  Ac  Ac5  1  0.750000  0.952665  0.815644  1
  Ac  Ac6  1  0.250000  0.547329  0.322494  1
  Pr  Pr7  1  0.750000  0.451445  0.680970  1
  Rh  Rh8  1  0.250000  0.738446  0.633516  1
  Rh  Rh9  1  0.750000  0.258887  0.372925  1
  Rh  Rh10  1  0.250000  0.241399  0.867485  1
  Rh  Rh11  1  0.750000  0.758533  0.131925  1
