# generated using pymatgen
data_Dy4Ho2VFeB14
_symmetry_space_group_name_H-M   'P 1'
_cell_length_a   8.09867162
_cell_length_b   8.09867223
_cell_length_c   9.33748156
_cell_angle_alpha   90.03869268
_cell_angle_beta   89.96130831
_cell_angle_gamma   155.53240942
_symmetry_Int_Tables_number   1
_chemical_formula_structural   Dy4Ho2VFeB14
_chemical_formula_sum   'Dy4 Ho2 V1 Fe1 B14'
_cell_volume   253.65578445
_cell_formula_units_Z   1
loop_
 _symmetry_equiv_pos_site_id
 _symmetry_equiv_pos_as_xyz
  1  'x, y, z'
loop_
 _atom_site_type_symbol
 _atom_site_label
 _atom_site_symmetry_multiplicity
 _atom_site_fract_x
 _atom_site_fract_y
 _atom_site_fract_z
 _atom_site_occupancy
  Dy  Dy0  1  0.105241  0.894759  0.563655  1
  Dy  Dy1  1  0.893712  0.106288  0.058518  1
  Dy  Dy2  1  0.105032  0.894968  0.936328  1
  Dy  Dy3  1  0.243625  0.756375  0.249880  1
  Ho  Ho4  1  0.894075  0.105925  0.442105  1
  Ho  Ho5  1  0.759385  0.240615  0.749907  1
  V  V6  1  0.052523  0.947477  0.250223  1
  Fe  Fe7  1  0.945154  0.054846  0.749879  1
  B  B8  1  0.728367  0.271633  0.469146  1
  B  B9  1  0.273545  0.726455  0.535055  1
  B  B10  1  0.727878  0.272122  0.030554  1
  B  B11  1  0.273098  0.726902  0.964492  1
  B  B12  1  0.632821  0.367179  0.148813  1
  B  B13  1  0.370576  0.629424  0.846661  1
  B  B14  1  0.632934  0.367066  0.351259  1
  B  B15  1  0.370628  0.629372  0.652746  1
  B  B16  1  0.520475  0.479525  0.093737  1
  B  B17  1  0.477788  0.522212  0.902423  1
  B  B18  1  0.520487  0.479513  0.406929  1
  B  B19  1  0.477910  0.522090  0.597248  1
  B  B20  1  0.457599  0.542401  0.250542  1
  B  B21  1  0.537150  0.462850  0.749900  1
