# generated using pymatgen
data_Y2TiBe2Rh5
_symmetry_space_group_name_H-M   'P 1'
_cell_length_a   9.64896100
_cell_length_b   9.64896100
_cell_length_c   3.23884000
_cell_angle_alpha   90.00000000
_cell_angle_beta   90.00000000
_cell_angle_gamma   90.00000000
_symmetry_Int_Tables_number   1
_chemical_formula_structural   Y2TiBe2Rh5
_chemical_formula_sum   'Y4 Ti2 Be4 Rh10'
_cell_volume   301.54393391
_cell_formula_units_Z   2
loop_
 _symmetry_equiv_pos_site_id
 _symmetry_equiv_pos_as_xyz
  1  'x, y, z'
loop_
 _atom_site_type_symbol
 _atom_site_label
 _atom_site_symmetry_multiplicity
 _atom_site_fract_x
 _atom_site_fract_y
 _atom_site_fract_z
 _atom_site_occupancy
  Y  Y0  1  0.824063  0.324063  0.000000  1
  Y  Y1  1  0.324063  0.175937  0.000000  1
  Y  Y2  1  0.675937  0.824063  0.000000  1
  Y  Y3  1  0.175937  0.675937  0.000000  1
  Ti  Ti4  1  0.000000  0.000000  0.000000  1
  Ti  Ti5  1  0.500000  0.500000  0.000000  1
  Be  Be6  1  0.621258  0.121258  0.000000  1
  Be  Be7  1  0.121258  0.378742  0.000000  1
  Be  Be8  1  0.878742  0.621258  0.000000  1
  Be  Be9  1  0.378742  0.878742  0.000000  1
  Rh  Rh10  1  0.066901  0.211213  0.500000  1
  Rh  Rh11  1  0.211213  0.933099  0.500000  1
  Rh  Rh12  1  0.788787  0.066901  0.500000  1
  Rh  Rh13  1  0.933099  0.788787  0.500000  1
  Rh  Rh14  1  0.433099  0.711213  0.500000  1
  Rh  Rh15  1  0.566901  0.288787  0.500000  1
  Rh  Rh16  1  0.711213  0.566901  0.500000  1
  Rh  Rh17  1  0.288787  0.433099  0.500000  1
  Rh  Rh18  1  0.500000  0.000000  0.500000  1
  Rh  Rh19  1  0.000000  0.500000  0.500000  1
