# generated using pymatgen
data_ThNpB8
_symmetry_space_group_name_H-M   'P 1'
_cell_length_a   7.16799100
_cell_length_b   7.18303100
_cell_length_c   4.07125000
_cell_angle_alpha   90.00000000
_cell_angle_beta   90.00000000
_cell_angle_gamma   90.00000000
_symmetry_Int_Tables_number   1
_chemical_formula_structural   ThNpB8
_chemical_formula_sum   'Th2 Np2 B16'
_cell_volume   209.62011923
_cell_formula_units_Z   2
loop_
 _symmetry_equiv_pos_site_id
 _symmetry_equiv_pos_as_xyz
  1  'x, y, z'
loop_
 _atom_site_type_symbol
 _atom_site_label
 _atom_site_symmetry_multiplicity
 _atom_site_fract_x
 _atom_site_fract_y
 _atom_site_fract_z
 _atom_site_occupancy
  Th  Th0  1  0.684861  0.815062  0.000000  1
  Th  Th1  1  0.184861  0.684938  0.000000  1
  Np  Np2  1  0.812667  0.311743  0.000000  1
  Np  Np3  1  0.312667  0.188257  0.000000  1
  B  B4  1  0.000624  0.005255  0.201046  1
  B  B5  1  0.500624  0.494745  0.798954  1
  B  B6  1  0.000624  0.005255  0.798954  1
  B  B7  1  0.500624  0.494745  0.201046  1
  B  B8  1  0.587127  0.086952  0.500000  1
  B  B9  1  0.087127  0.413048  0.500000  1
  B  B10  1  0.910871  0.589316  0.500000  1
  B  B11  1  0.410871  0.910684  0.500000  1
  B  B12  1  0.039569  0.180808  0.500000  1
  B  B13  1  0.177545  0.966000  0.500000  1
  B  B14  1  0.824289  0.044141  0.500000  1
  B  B15  1  0.961822  0.828285  0.500000  1
  B  B16  1  0.461822  0.671715  0.500000  1
  B  B17  1  0.539569  0.319192  0.500000  1
  B  B18  1  0.677545  0.534000  0.500000  1
  B  B19  1  0.324289  0.455859  0.500000  1
