# generated using pymatgen
data_Yb12Ce3Tm5Ge16
_symmetry_space_group_name_H-M   'P 1'
_cell_length_a   7.33891413
_cell_length_b   7.85821020
_cell_length_c   15.05483900
_cell_angle_alpha   90.00230402
_cell_angle_beta   89.98924179
_cell_angle_gamma   90.01264337
_symmetry_Int_Tables_number   1
_chemical_formula_structural   Yb12Ce3Tm5Ge16
_chemical_formula_sum   'Yb12 Ce3 Tm5 Ge16'
_cell_volume   868.22351578
_cell_formula_units_Z   1
loop_
 _symmetry_equiv_pos_site_id
 _symmetry_equiv_pos_as_xyz
  1  'x, y, z'
loop_
 _atom_site_type_symbol
 _atom_site_label
 _atom_site_symmetry_multiplicity
 _atom_site_fract_x
 _atom_site_fract_y
 _atom_site_fract_z
 _atom_site_occupancy
  Yb  Yb0  1  0.982471  0.813836  0.405372  1
  Yb  Yb1  1  0.482102  0.684950  0.095650  1
  Yb  Yb2  1  0.516962  0.315117  0.593236  1
  Yb  Yb3  1  0.017409  0.185166  0.905458  1
  Yb  Yb4  1  0.015119  0.183996  0.592577  1
  Yb  Yb5  1  0.513648  0.316827  0.907377  1
  Yb  Yb6  1  0.484372  0.684799  0.406944  1
  Yb  Yb7  1  0.987783  0.817449  0.093971  1
  Yb  Yb8  1  0.344308  0.020246  0.750962  1
  Yb  Yb9  1  0.844712  0.480932  0.748223  1
  Yb  Yb10  1  0.156036  0.519472  0.249503  1
  Yb  Yb11  1  0.656020  0.979884  0.251755  1
  Ce  Ce12  1  0.819722  0.328584  0.120941  1
  Ce  Ce13  1  0.180294  0.671653  0.619510  1
  Ce  Ce14  1  0.679911  0.829437  0.880059  1
  Tm  Tm15  1  0.317833  0.170998  0.123042  1
  Tm  Tm16  1  0.818646  0.327689  0.378146  1
  Tm  Tm17  1  0.181815  0.672075  0.878553  1
  Tm  Tm18  1  0.680876  0.829025  0.619574  1
  Tm  Tm19  1  0.320130  0.171029  0.378597  1
  Ge  Ge20  1  0.835787  0.532889  0.537387  1
  Ge  Ge21  1  0.332443  0.965588  0.962664  1
  Ge  Ge22  1  0.660994  0.035368  0.459837  1
  Ge  Ge23  1  0.166983  0.465303  0.038759  1
  Ge  Ge24  1  0.154145  0.463765  0.457276  1
  Ge  Ge25  1  0.648576  0.034134  0.042406  1
  Ge  Ge26  1  0.349364  0.967551  0.538781  1
  Ge  Ge27  1  0.851727  0.533810  0.958605  1
  Ge  Ge28  1  0.976560  0.883414  0.745991  1
  Ge  Ge29  1  0.477377  0.618174  0.752523  1
  Ge  Ge30  1  0.521470  0.377993  0.253037  1
  Ge  Ge31  1  0.024564  0.118238  0.250141  1
  Ge  Ge32  1  0.236215  0.382872  0.750342  1
  Ge  Ge33  1  0.735110  0.118572  0.748935  1
  Ge  Ge34  1  0.266266  0.883298  0.251700  1
  Ge  Ge35  1  0.762253  0.615867  0.252168  1
