# generated using pymatgen
data_Zr3Sc(CrRe3)2
_symmetry_space_group_name_H-M   'P 1'
_cell_length_a   5.17378705
_cell_length_b   5.27566927
_cell_length_c   8.57522200
_cell_angle_alpha   90.00000000
_cell_angle_beta   89.93776274
_cell_angle_gamma   120.65357923
_symmetry_Int_Tables_number   1
_chemical_formula_structural   Zr3Sc(CrRe3)2
_chemical_formula_sum   'Zr3 Sc1 Cr2 Re6'
_cell_volume   201.35559825
_cell_formula_units_Z   1
loop_
 _symmetry_equiv_pos_site_id
 _symmetry_equiv_pos_as_xyz
  1  'x, y, z'
loop_
 _atom_site_type_symbol
 _atom_site_label
 _atom_site_symmetry_multiplicity
 _atom_site_fract_x
 _atom_site_fract_y
 _atom_site_fract_z
 _atom_site_occupancy
  Zr  Zr0  1  0.335360  0.667681  0.437180  1
  Zr  Zr1  1  0.665272  0.332636  0.940300  1
  Zr  Zr2  1  0.664722  0.332361  0.561338  1
  Sc  Sc3  1  0.334590  0.667295  0.061314  1
  Cr  Cr4  1  0.660502  0.830250  0.749828  1
  Cr  Cr5  1  0.338751  0.169376  0.249952  1
  Re  Re6  1  0.825902  0.170533  0.249387  1
  Re  Re7  1  0.174429  0.345447  0.750594  1
  Re  Re8  1  0.174429  0.828982  0.750594  1
  Re  Re9  1  0.825902  0.655369  0.249387  1
  Re  Re10  1  0.000664  0.000331  0.500498  1
  Re  Re11  1  0.999479  0.999739  0.999626  1
