# generated using pymatgen
data_LiDyGePt3
_symmetry_space_group_name_H-M   'P 1'
_cell_length_a   5.12203652
_cell_length_b   5.12203582
_cell_length_c   5.12203600
_cell_angle_alpha   65.01899217
_cell_angle_beta   65.01899579
_cell_angle_gamma   65.01899272
_symmetry_Int_Tables_number   1
_chemical_formula_structural   LiDyGePt3
_chemical_formula_sum   'Li1 Dy1 Ge1 Pt3'
_cell_volume   105.43193790
_cell_formula_units_Z   1
loop_
 _symmetry_equiv_pos_site_id
 _symmetry_equiv_pos_as_xyz
  1  'x, y, z'
loop_
 _atom_site_type_symbol
 _atom_site_label
 _atom_site_symmetry_multiplicity
 _atom_site_fract_x
 _atom_site_fract_y
 _atom_site_fract_z
 _atom_site_occupancy
  Li  Li0  1  0.990198  0.990198  0.990198  1
  Dy  Dy1  1  0.244901  0.244901  0.244901  1
  Ge  Ge2  1  0.629060  0.629060  0.629060  1
  Pt  Pt3  1  0.629687  0.629687  0.126468  1
  Pt  Pt4  1  0.629687  0.126468  0.629687  1
  Pt  Pt5  1  0.126468  0.629687  0.629687  1
