# generated using pymatgen
data_Ta3AlFeSiC
_symmetry_space_group_name_H-M   'P 1'
_cell_length_a   8.26755860
_cell_length_b   8.26755876
_cell_length_c   8.26755900
_cell_angle_alpha   60.13626876
_cell_angle_beta   60.13626814
_cell_angle_gamma   60.13626294
_symmetry_Int_Tables_number   1
_chemical_formula_structural   Ta3AlFeSiC
_chemical_formula_sum   'Ta12 Al4 Fe4 Si4 C4'
_cell_volume   400.82556173
_cell_formula_units_Z   4
loop_
 _symmetry_equiv_pos_site_id
 _symmetry_equiv_pos_as_xyz
  1  'x, y, z'
loop_
 _atom_site_type_symbol
 _atom_site_label
 _atom_site_symmetry_multiplicity
 _atom_site_fract_x
 _atom_site_fract_y
 _atom_site_fract_z
 _atom_site_occupancy
  Ta  Ta0  1  0.556561  0.943239  0.556561  1
  Ta  Ta1  1  0.309667  0.690594  0.690594  1
  Ta  Ta2  1  0.693828  0.309462  0.309462  1
  Ta  Ta3  1  0.309462  0.693828  0.309462  1
  Ta  Ta4  1  0.690594  0.690594  0.309667  1
  Ta  Ta5  1  0.309462  0.309462  0.693828  1
  Ta  Ta6  1  0.556561  0.556561  0.943239  1
  Ta  Ta7  1  0.943239  0.556561  0.556561  1
  Ta  Ta8  1  0.562114  0.942250  0.942250  1
  Ta  Ta9  1  0.942250  0.942250  0.562114  1
  Ta  Ta10  1  0.690594  0.309667  0.690594  1
  Ta  Ta11  1  0.942250  0.562114  0.942250  1
  Al  Al12  1  0.918838  0.245442  0.918838  1
  Al  Al13  1  0.918838  0.918838  0.245442  1
  Al  Al14  1  0.245442  0.918838  0.918838  1
  Al  Al15  1  0.331304  0.331304  0.331304  1
  Fe  Fe16  1  0.131773  0.131773  0.131773  1
  Fe  Fe17  1  0.617742  0.121102  0.121102  1
  Fe  Fe18  1  0.121102  0.617742  0.121102  1
  Fe  Fe19  1  0.121102  0.121102  0.617742  1
  Si  Si20  1  0.917974  0.917974  0.917974  1
  Si  Si21  1  0.999663  0.334871  0.334871  1
  Si  Si22  1  0.334871  0.999663  0.334871  1
  Si  Si23  1  0.334871  0.334871  0.999663  1
  C  C24  1  0.625398  0.625398  0.625398  1
  C  C25  1  0.122980  0.625759  0.625759  1
  C  C26  1  0.625759  0.122980  0.625759  1
  C  C27  1  0.625759  0.625759  0.122980  1
