# generated using pymatgen
data_Sc12Ru3I16
_symmetry_space_group_name_H-M   'P 1'
_cell_length_a   9.21236412
_cell_length_b   12.07817776
_cell_length_c   12.75591975
_cell_angle_alpha   117.10511841
_cell_angle_beta   101.14825133
_cell_angle_gamma   100.58198567
_symmetry_Int_Tables_number   1
_chemical_formula_structural   Sc12Ru3I16
_chemical_formula_sum   'Sc12 Ru3 I16'
_cell_volume   1178.08285495
_cell_formula_units_Z   1
loop_
 _symmetry_equiv_pos_site_id
 _symmetry_equiv_pos_as_xyz
  1  'x, y, z'
loop_
 _atom_site_type_symbol
 _atom_site_label
 _atom_site_symmetry_multiplicity
 _atom_site_fract_x
 _atom_site_fract_y
 _atom_site_fract_z
 _atom_site_occupancy
  Sc  Sc0  1  0.086501  0.278087  0.364359  1
  Sc  Sc1  1  0.913499  0.721913  0.635641  1
  Sc  Sc2  1  0.785587  0.534769  0.334923  1
  Sc  Sc3  1  0.214413  0.465231  0.665077  1
  Sc  Sc4  1  0.268348  0.722942  0.636231  1
  Sc  Sc5  1  0.731652  0.277058  0.363769  1
  Sc  Sc6  1  0.140705  0.535437  0.335713  1
  Sc  Sc7  1  0.859295  0.464563  0.664287  1
  Sc  Sc8  1  0.410711  0.366458  0.285910  1
  Sc  Sc9  1  0.589289  0.633542  0.714090  1
  Sc  Sc10  1  0.460876  0.317210  0.520279  1
  Sc  Sc11  1  0.539124  0.682790  0.479721  1
  Ru  Ru12  1  0.000000  0.500000  0.500000  1
  Ru  Ru13  1  0.336434  0.500258  0.499909  1
  Ru  Ru14  1  0.663567  0.499742  0.500091  1
  I  I15  1  0.392559  0.735842  0.877006  1
  I  I16  1  0.607441  0.264158  0.122994  1
  I  I17  1  0.185422  0.958892  0.778877  1
  I  I18  1  0.814578  0.041108  0.221123  1
  I  I19  1  0.340679  0.102184  0.255539  1
  I  I20  1  0.659321  0.897816  0.744461  1
  I  I21  1  0.559322  0.438896  0.795138  1
  I  I22  1  0.440678  0.561104  0.204862  1
  I  I23  1  0.307035  0.822322  0.462798  1
  I  I24  1  0.692965  0.177678  0.537202  1
  I  I25  1  0.169457  0.176852  0.534837  1
  I  I26  1  0.830543  0.823148  0.465163  1
  I  I27  1  0.926409  0.574957  0.163067  1
  I  I28  1  0.073591  0.425043  0.836933  1
  I  I29  1  0.921030  0.733630  0.876227  1
  I  I30  1  0.078970  0.266370  0.123773  1
