# generated using pymatgen
data_Pr2Tm3Lu3(WO6)4
_symmetry_space_group_name_H-M   'P 1'
_cell_length_a   5.40477406
_cell_length_b   7.71481414
_cell_length_c   11.45011291
_cell_angle_alpha   75.47948872
_cell_angle_beta   90.00816370
_cell_angle_gamma   90.01590618
_symmetry_Int_Tables_number   1
_chemical_formula_structural   Pr2Tm3Lu3(WO6)4
_chemical_formula_sum   'Pr2 Tm3 Lu3 W4 O24'
_cell_volume   462.18315851
_cell_formula_units_Z   1
loop_
 _symmetry_equiv_pos_site_id
 _symmetry_equiv_pos_as_xyz
  1  'x, y, z'
loop_
 _atom_site_type_symbol
 _atom_site_label
 _atom_site_symmetry_multiplicity
 _atom_site_fract_x
 _atom_site_fract_y
 _atom_site_fract_z
 _atom_site_occupancy
  Pr  Pr0  1  0.313425  0.499933  0.749981  1
  Pr  Pr1  1  0.686653  0.499745  0.250213  1
  Tm  Tm2  1  0.255659  0.000159  0.749770  1
  Tm  Tm3  1  0.185080  0.798466  0.077157  1
  Tm  Tm4  1  0.744388  0.000158  0.250261  1
  Lu  Lu5  1  0.184888  0.201861  0.422456  1
  Lu  Lu6  1  0.814929  0.202118  0.922387  1
  Lu  Lu7  1  0.815006  0.798160  0.577464  1
  W  W8  1  0.745855  0.729617  0.883893  1
  W  W9  1  0.254530  0.729770  0.384318  1
  W  W10  1  0.745651  0.270155  0.615831  1
  W  W11  1  0.254377  0.270020  0.115881  1
  O  O12  1  0.541167  0.156179  0.068834  1
  O  O13  1  0.041497  0.056854  0.103577  1
  O  O14  1  0.013862  0.724323  0.767249  1
  O  O15  1  0.458584  0.156477  0.568857  1
  O  O16  1  0.343595  0.491846  0.387741  1
  O  O17  1  0.957211  0.055600  0.603438  1
  O  O18  1  0.545156  0.799404  0.724226  1
  O  O19  1  0.456095  0.799327  0.225257  1
  O  O20  1  0.140324  0.643602  0.546217  1
  O  O21  1  0.042890  0.944481  0.396568  1
  O  O22  1  0.459958  0.844179  0.930195  1
  O  O23  1  0.454830  0.200340  0.275611  1
  O  O24  1  0.859677  0.356306  0.453950  1
  O  O25  1  0.656131  0.491631  0.887561  1
  O  O26  1  0.344443  0.507460  0.112341  1
  O  O27  1  0.956974  0.944631  0.896260  1
  O  O28  1  0.541469  0.843643  0.431449  1
  O  O29  1  0.986516  0.275891  0.232854  1
  O  O30  1  0.545094  0.200508  0.775533  1
  O  O31  1  0.857723  0.642803  0.045969  1
  O  O32  1  0.013548  0.275677  0.732671  1
  O  O33  1  0.140437  0.356433  0.953841  1
  O  O34  1  0.986008  0.724143  0.267932  1
  O  O35  1  0.656371  0.508101  0.612259  1
