# generated using pymatgen
data_Y6Er14Cd6FeRu
_symmetry_space_group_name_H-M   'P 1'
_cell_length_a   9.53141500
_cell_length_b   9.53141566
_cell_length_c   9.75685400
_cell_angle_alpha   90.00000000
_cell_angle_beta   90.00000000
_cell_angle_gamma   120.00000117
_symmetry_Int_Tables_number   1
_chemical_formula_structural   Y6Er14Cd6FeRu
_chemical_formula_sum   'Y6 Er14 Cd6 Fe1 Ru1'
_cell_volume   767.63580168
_cell_formula_units_Z   1
loop_
 _symmetry_equiv_pos_site_id
 _symmetry_equiv_pos_as_xyz
  1  'x, y, z'
loop_
 _atom_site_type_symbol
 _atom_site_label
 _atom_site_symmetry_multiplicity
 _atom_site_fract_x
 _atom_site_fract_y
 _atom_site_fract_z
 _atom_site_occupancy
  Y  Y0  1  0.539778  0.460222  0.250000  1
  Y  Y1  1  0.539778  0.079557  0.250000  1
  Y  Y2  1  0.920443  0.460222  0.250000  1
  Y  Y3  1  0.459189  0.540811  0.750000  1
  Y  Y4  1  0.459189  0.918377  0.750000  1
  Y  Y5  1  0.081623  0.540811  0.750000  1
  Er  Er6  1  0.000000  0.000000  0.499882  1
  Er  Er7  1  0.000000  0.000000  0.000118  1
  Er  Er8  1  0.212235  0.787765  0.436609  1
  Er  Er9  1  0.212235  0.424472  0.436609  1
  Er  Er10  1  0.575528  0.787765  0.436609  1
  Er  Er11  1  0.790304  0.209696  0.559937  1
  Er  Er12  1  0.790304  0.580605  0.559937  1
  Er  Er13  1  0.419395  0.209696  0.559937  1
  Er  Er14  1  0.790304  0.209696  0.940063  1
  Er  Er15  1  0.790304  0.580605  0.940063  1
  Er  Er16  1  0.419395  0.209696  0.940063  1
  Er  Er17  1  0.212235  0.787765  0.063391  1
  Er  Er18  1  0.212235  0.424472  0.063391  1
  Er  Er19  1  0.575528  0.787765  0.063391  1
  Cd  Cd20  1  0.886234  0.113766  0.250000  1
  Cd  Cd21  1  0.886234  0.772468  0.250000  1
  Cd  Cd22  1  0.227532  0.113766  0.250000  1
  Cd  Cd23  1  0.113997  0.886003  0.750000  1
  Cd  Cd24  1  0.113997  0.227993  0.750000  1
  Cd  Cd25  1  0.772007  0.886003  0.750000  1
  Fe  Fe26  1  0.333333  0.666667  0.250000  1
  Ru  Ru27  1  0.666667  0.333333  0.750000  1
