# generated using pymatgen
data_Tb2Y7Th3Ru4
_symmetry_space_group_name_H-M   'P 1'
_cell_length_a   6.38862040
_cell_length_b   7.25243947
_cell_length_c   9.58387255
_cell_angle_alpha   89.96189979
_cell_angle_beta   90.00653636
_cell_angle_gamma   89.56127441
_symmetry_Int_Tables_number   1
_chemical_formula_structural   Tb2Y7Th3Ru4
_chemical_formula_sum   'Tb2 Y7 Th3 Ru4'
_cell_volume   444.03724092
_cell_formula_units_Z   1
loop_
 _symmetry_equiv_pos_site_id
 _symmetry_equiv_pos_as_xyz
  1  'x, y, z'
loop_
 _atom_site_type_symbol
 _atom_site_label
 _atom_site_symmetry_multiplicity
 _atom_site_fract_x
 _atom_site_fract_y
 _atom_site_fract_z
 _atom_site_occupancy
  Tb  Tb0  1  0.859366  0.539054  0.250193  1
  Tb  Tb1  1  0.170973  0.174806  0.067773  1
  Y  Y2  1  0.832225  0.824205  0.935602  1
  Y  Y3  1  0.666569  0.324714  0.934357  1
  Y  Y4  1  0.831987  0.824079  0.564318  1
  Y  Y5  1  0.328847  0.675506  0.068645  1
  Y  Y6  1  0.170237  0.175035  0.433138  1
  Y  Y7  1  0.328898  0.675859  0.431351  1
  Y  Y8  1  0.666748  0.325038  0.565423  1
  Th  Th9  1  0.654032  0.049150  0.250203  1
  Th  Th10  1  0.346372  0.950254  0.750091  1
  Th  Th11  1  0.150352  0.452394  0.750006  1
  Ru  Ru12  1  0.466710  0.366234  0.249637  1
  Ru  Ru13  1  0.526814  0.629133  0.750062  1
  Ru  Ru14  1  0.973058  0.131352  0.749698  1
  Ru  Ru15  1  0.026812  0.883186  0.249504  1
