# generated using pymatgen
data_Dy3HoIn3Co2
_symmetry_space_group_name_H-M   'P 1'
_cell_length_a   3.64780100
_cell_length_b   7.35888807
_cell_length_c   8.14746169
_cell_angle_alpha   71.73665195
_cell_angle_beta   90.00000000
_cell_angle_gamma   90.00000000
_symmetry_Int_Tables_number   1
_chemical_formula_structural   Dy3HoIn3Co2
_chemical_formula_sum   'Dy3 Ho1 In3 Co2'
_cell_volume   207.69130941
_cell_formula_units_Z   1
loop_
 _symmetry_equiv_pos_site_id
 _symmetry_equiv_pos_as_xyz
  1  'x, y, z'
loop_
 _atom_site_type_symbol
 _atom_site_label
 _atom_site_symmetry_multiplicity
 _atom_site_fract_x
 _atom_site_fract_y
 _atom_site_fract_z
 _atom_site_occupancy
  Dy  Dy0  1  0.500000  0.090900  0.778033  1
  Dy  Dy1  1  0.500000  0.392078  0.318940  1
  Dy  Dy2  1  0.500000  0.608200  0.680882  1
  Ho  Ho3  1  0.500000  0.908687  0.222328  1
  In  In4  1  0.000000  0.704805  0.006630  1
  In  In5  1  0.000000  0.295120  0.993858  1
  In  In6  1  0.000000  0.999921  0.499556  1
  Co  Co7  1  0.000000  0.650595  0.396560  1
  Co  Co8  1  0.000000  0.349694  0.603212  1
