# generated using pymatgen
data_Sr4Dy2NbRuO12
_symmetry_space_group_name_H-M   'P 1'
_cell_length_a   5.91809134
_cell_length_b   5.83652043
_cell_length_c   10.11511096
_cell_angle_alpha   55.07829919
_cell_angle_beta   89.77747672
_cell_angle_gamma   89.93318436
_symmetry_Int_Tables_number   1
_chemical_formula_structural   Sr4Dy2NbRuO12
_chemical_formula_sum   'Sr4 Dy2 Nb1 Ru1 O12'
_cell_volume   286.47199738
_cell_formula_units_Z   1
loop_
 _symmetry_equiv_pos_site_id
 _symmetry_equiv_pos_as_xyz
  1  'x, y, z'
loop_
 _atom_site_type_symbol
 _atom_site_label
 _atom_site_symmetry_multiplicity
 _atom_site_fract_x
 _atom_site_fract_y
 _atom_site_fract_z
 _atom_site_occupancy
  Sr  Sr0  1  0.535734  0.744020  0.745605  1
  Sr  Sr1  1  0.039789  0.261636  0.745836  1
  Sr  Sr2  1  0.960211  0.738364  0.254164  1
  Sr  Sr3  1  0.464266  0.255980  0.254395  1
  Dy  Dy4  1  0.000000  0.000000  0.500000  1
  Dy  Dy5  1  0.500000  0.000000  0.000000  1
  Nb  Nb6  1  0.000000  0.500000  0.000000  1
  Ru  Ru7  1  0.500000  0.500000  0.500000  1
  O  O8  1  0.522050  0.811115  0.266847  1
  O  O9  1  0.024393  0.181185  0.236472  1
  O  O10  1  0.477950  0.188885  0.733153  1
  O  O11  1  0.975607  0.818815  0.763528  1
  O  O12  1  0.769883  0.656633  0.541338  1
  O  O13  1  0.279238  0.354635  0.953027  1
  O  O14  1  0.230117  0.343367  0.458662  1
  O  O15  1  0.720762  0.645365  0.046973  1
  O  O16  1  0.195049  0.735899  0.042470  1
  O  O17  1  0.700835  0.270217  0.460607  1
  O  O18  1  0.804951  0.264101  0.957530  1
  O  O19  1  0.299165  0.729783  0.539393  1
