# generated using pymatgen
data_LaTbHo2(Sn5Rh3)2
_symmetry_space_group_name_H-M   'P 1'
_cell_length_a   13.51710259
_cell_length_b   13.51710313
_cell_length_c   7.27363601
_cell_angle_alpha   89.97044728
_cell_angle_beta   90.02955167
_cell_angle_gamma   160.96483313
_symmetry_Int_Tables_number   1
_chemical_formula_structural   LaTbHo2(Sn5Rh3)2
_chemical_formula_sum   'La1 Tb1 Ho2 Sn10 Rh6'
_cell_volume   433.44503808
_cell_formula_units_Z   1
loop_
 _symmetry_equiv_pos_site_id
 _symmetry_equiv_pos_as_xyz
  1  'x, y, z'
loop_
 _atom_site_type_symbol
 _atom_site_label
 _atom_site_symmetry_multiplicity
 _atom_site_fract_x
 _atom_site_fract_y
 _atom_site_fract_z
 _atom_site_occupancy
  La  La0  1  0.172503  0.827497  0.745506  1
  Tb  Tb1  1  0.829075  0.170925  0.244590  1
  Ho  Ho2  1  0.475356  0.524644  0.761017  1
  Ho  Ho3  1  0.522745  0.477255  0.263598  1
  Sn  Sn4  1  0.881424  0.118576  0.770851  1
  Sn  Sn5  1  0.119051  0.880949  0.266554  1
  Sn  Sn6  1  0.705389  0.294611  0.447033  1
  Sn  Sn7  1  0.296136  0.703864  0.952207  1
  Sn  Sn8  1  0.593781  0.406219  0.887373  1
  Sn  Sn9  1  0.403449  0.596551  0.387461  1
  Sn  Sn10  1  0.952353  0.047647  0.101109  1
  Sn  Sn11  1  0.046369  0.953631  0.601208  1
  Sn  Sn12  1  0.291871  0.708129  0.521427  1
  Sn  Sn13  1  0.710836  0.289164  0.026810  1
  Rh  Rh14  1  0.048987  0.951013  0.983171  1
  Rh  Rh15  1  0.949376  0.050624  0.481422  1
  Rh  Rh16  1  0.779078  0.220922  0.736448  1
  Rh  Rh17  1  0.223502  0.776498  0.236511  1
  Rh  Rh18  1  0.394447  0.605553  0.017571  1
  Rh  Rh19  1  0.604272  0.395728  0.512133  1
