# generated using pymatgen
data_Nd7SmSc11Si16Mo
_symmetry_space_group_name_H-M   'P 1'
_cell_length_a   7.20901924
_cell_length_b   7.45366889
_cell_length_c   14.09673175
_cell_angle_alpha   90.13826870
_cell_angle_beta   89.80176720
_cell_angle_gamma   89.66976425
_symmetry_Int_Tables_number   1
_chemical_formula_structural   Nd7SmSc11Si16Mo
_chemical_formula_sum   'Nd7 Sm1 Sc11 Si16 Mo1'
_cell_volume   757.44938567
_cell_formula_units_Z   1
loop_
 _symmetry_equiv_pos_site_id
 _symmetry_equiv_pos_as_xyz
  1  'x, y, z'
loop_
 _atom_site_type_symbol
 _atom_site_label
 _atom_site_symmetry_multiplicity
 _atom_site_fract_x
 _atom_site_fract_y
 _atom_site_fract_z
 _atom_site_occupancy
  Nd  Nd0  1  0.011937  0.171617  0.097258  1
  Nd  Nd1  1  0.988952  0.827880  0.898283  1
  Nd  Nd2  1  0.486507  0.674102  0.898532  1
  Nd  Nd3  1  0.992426  0.830988  0.595889  1
  Nd  Nd4  1  0.513604  0.326357  0.096950  1
  Nd  Nd5  1  0.011809  0.172855  0.403408  1
  Nd  Nd6  1  0.508068  0.327431  0.409079  1
  Sm  Sm7  1  0.486308  0.674687  0.597849  1
  Sc  Sc8  1  0.163189  0.489983  0.744307  1
  Sc  Sc9  1  0.838416  0.499889  0.252130  1
  Sc  Sc10  1  0.338500  0.000203  0.251621  1
  Sc  Sc11  1  0.656307  0.004004  0.747202  1
  Sc  Sc12  1  0.665878  0.826177  0.378852  1
  Sc  Sc13  1  0.169662  0.676589  0.377820  1
  Sc  Sc14  1  0.669757  0.824261  0.124662  1
  Sc  Sc15  1  0.832015  0.325294  0.624114  1
  Sc  Sc16  1  0.332401  0.177352  0.875127  1
  Sc  Sc17  1  0.828900  0.323307  0.870751  1
  Sc  Sc18  1  0.170751  0.675801  0.125790  1
  Si  Si19  1  0.044144  0.125785  0.744763  1
  Si  Si20  1  0.963550  0.877573  0.251747  1
  Si  Si21  1  0.466394  0.624985  0.251162  1
  Si  Si22  1  0.529702  0.368788  0.744697  1
  Si  Si23  1  0.289040  0.890074  0.745975  1
  Si  Si24  1  0.710233  0.119165  0.251051  1
  Si  Si25  1  0.213578  0.380408  0.250909  1
  Si  Si26  1  0.784730  0.617774  0.746323  1
  Si  Si27  1  0.170988  0.450620  0.542973  1
  Si  Si28  1  0.847795  0.534580  0.460406  1
  Si  Si29  1  0.340448  0.968103  0.470877  1
  Si  Si30  1  0.849037  0.537053  0.038794  1
  Si  Si31  1  0.641221  0.037088  0.546298  1
  Si  Si32  1  0.149221  0.464653  0.958828  1
  Si  Si33  1  0.655768  0.037374  0.958085  1
  Si  Si34  1  0.346779  0.961736  0.038955  1
  Mo  Mo35  1  0.331989  0.175465  0.628529  1
