# generated using pymatgen
data_Sr(TiS2)8
_symmetry_space_group_name_H-M   'P 1'
_cell_length_a   6.85493100
_cell_length_b   6.85493128
_cell_length_c   14.15999800
_cell_angle_alpha   90.00000000
_cell_angle_beta   90.00000000
_cell_angle_gamma   119.99999382
_symmetry_Int_Tables_number   1
_chemical_formula_structural   Sr(TiS2)8
_chemical_formula_sum   'Sr1 Ti8 S16'
_cell_volume   576.23554457
_cell_formula_units_Z   1
loop_
 _symmetry_equiv_pos_site_id
 _symmetry_equiv_pos_as_xyz
  1  'x, y, z'
loop_
 _atom_site_type_symbol
 _atom_site_label
 _atom_site_symmetry_multiplicity
 _atom_site_fract_x
 _atom_site_fract_y
 _atom_site_fract_z
 _atom_site_occupancy
  Sr  Sr0  1  0.000000  0.000000  0.000000  1
  Ti  Ti1  1  0.502105  0.497895  0.739214  1
  Ti  Ti2  1  0.497895  0.502105  0.260786  1
  Ti  Ti3  1  0.502105  0.004209  0.739214  1
  Ti  Ti4  1  0.497895  0.995791  0.260786  1
  Ti  Ti5  1  0.995791  0.497895  0.739214  1
  Ti  Ti6  1  0.004209  0.502105  0.260786  1
  Ti  Ti7  1  0.000000  0.000000  0.735677  1
  Ti  Ti8  1  0.000000  0.000000  0.264323  1
  S  S9  1  0.833423  0.666848  0.158227  1
  S  S10  1  0.832795  0.665591  0.639068  1
  S  S11  1  0.833423  0.166577  0.158227  1
  S  S12  1  0.832795  0.167205  0.639068  1
  S  S13  1  0.333333  0.666667  0.157793  1
  S  S14  1  0.333333  0.666667  0.642187  1
  S  S15  1  0.333152  0.166577  0.158227  1
  S  S16  1  0.334409  0.167205  0.639068  1
  S  S17  1  0.666848  0.833423  0.841773  1
  S  S18  1  0.665591  0.832795  0.360932  1
  S  S19  1  0.666667  0.333333  0.842207  1
  S  S20  1  0.666667  0.333333  0.357813  1
  S  S21  1  0.166577  0.833423  0.841773  1
  S  S22  1  0.167205  0.832795  0.360932  1
  S  S23  1  0.166577  0.333152  0.841773  1
  S  S24  1  0.167205  0.334409  0.360932  1
