# generated using pymatgen
data_Tb2Dy17HoSn16
_symmetry_space_group_name_H-M   'P 1'
_cell_length_a   8.04539304
_cell_length_b   8.19033407
_cell_length_c   15.47946600
_cell_angle_alpha   90.00765312
_cell_angle_beta   90.00573998
_cell_angle_gamma   90.00094363
_symmetry_Int_Tables_number   1
_chemical_formula_structural   Tb2Dy17HoSn16
_chemical_formula_sum   'Tb2 Dy17 Ho1 Sn16'
_cell_volume   1020.01098863
_cell_formula_units_Z   1
loop_
 _symmetry_equiv_pos_site_id
 _symmetry_equiv_pos_as_xyz
  1  'x, y, z'
loop_
 _atom_site_type_symbol
 _atom_site_label
 _atom_site_symmetry_multiplicity
 _atom_site_fract_x
 _atom_site_fract_y
 _atom_site_fract_z
 _atom_site_occupancy
  Tb  Tb0  1  0.520245  0.320346  0.597594  1
  Tb  Tb1  1  0.020185  0.179659  0.902447  1
  Dy  Dy2  1  0.367606  0.836167  0.878079  1
  Dy  Dy3  1  0.867556  0.663797  0.621914  1
  Dy  Dy4  1  0.632447  0.163597  0.377994  1
  Dy  Dy5  1  0.132554  0.336363  0.121980  1
  Dy  Dy6  1  0.632419  0.163564  0.121995  1
  Dy  Dy7  1  0.132592  0.336359  0.378060  1
  Dy  Dy8  1  0.367539  0.836271  0.621928  1
  Dy  Dy9  1  0.867541  0.663670  0.878069  1
  Dy  Dy10  1  0.520606  0.320529  0.902189  1
  Dy  Dy11  1  0.020525  0.179506  0.597766  1
  Dy  Dy12  1  0.479540  0.679656  0.402274  1
  Dy  Dy13  1  0.979634  0.820409  0.097719  1
  Dy  Dy14  1  0.479516  0.679599  0.097702  1
  Dy  Dy15  1  0.979643  0.820454  0.402327  1
  Dy  Dy16  1  0.198696  0.502642  0.750059  1
  Dy  Dy17  1  0.698714  0.997411  0.749966  1
  Dy  Dy18  1  0.801232  0.497562  0.250004  1
  Ho  Ho19  1  0.301268  0.002330  0.249986  1
  Sn  Sn20  1  0.293004  0.035460  0.042195  1
  Sn  Sn21  1  0.792842  0.464530  0.458002  1
  Sn  Sn22  1  0.707575  0.964097  0.541693  1
  Sn  Sn23  1  0.207591  0.535838  0.958289  1
  Sn  Sn24  1  0.706811  0.963854  0.958319  1
  Sn  Sn25  1  0.206898  0.536090  0.541679  1
  Sn  Sn26  1  0.292623  0.035739  0.458021  1
  Sn  Sn27  1  0.792570  0.464319  0.041812  1
  Sn  Sn28  1  0.565353  0.619089  0.749861  1
  Sn  Sn29  1  0.065259  0.881091  0.749900  1
  Sn  Sn30  1  0.434458  0.380996  0.250061  1
  Sn  Sn31  1  0.935194  0.118496  0.250073  1
  Sn  Sn32  1  0.329104  0.146788  0.750082  1
  Sn  Sn33  1  0.829175  0.353196  0.749782  1
  Sn  Sn34  1  0.670608  0.853107  0.250105  1
  Sn  Sn35  1  0.170879  0.647418  0.250077  1
