# generated using pymatgen
data_LiYb8CdRu2
_symmetry_space_group_name_H-M   'P 1'
_cell_length_a   9.84539039
_cell_length_b   9.85213942
_cell_length_c   9.84539077
_cell_angle_alpha   59.97732041
_cell_angle_beta   60.05222377
_cell_angle_gamma   59.97732718
_symmetry_Int_Tables_number   1
_chemical_formula_structural   LiYb8CdRu2
_chemical_formula_sum   'Li2 Yb16 Cd2 Ru4'
_cell_volume   675.31050901
_cell_formula_units_Z   2
loop_
 _symmetry_equiv_pos_site_id
 _symmetry_equiv_pos_as_xyz
  1  'x, y, z'
loop_
 _atom_site_type_symbol
 _atom_site_label
 _atom_site_symmetry_multiplicity
 _atom_site_fract_x
 _atom_site_fract_y
 _atom_site_fract_z
 _atom_site_occupancy
  Li  Li0  1  0.673309  0.680638  0.965413  1
  Li  Li1  1  0.965413  0.680638  0.673309  1
  Yb  Yb2  1  0.909448  0.911984  0.909448  1
  Yb  Yb3  1  0.440726  0.438377  0.059860  1
  Yb  Yb4  1  0.059860  0.061037  0.440726  1
  Yb  Yb5  1  0.440726  0.061037  0.059860  1
  Yb  Yb6  1  0.293264  0.706736  0.293264  1
  Yb  Yb7  1  0.709650  0.706598  0.294776  1
  Yb  Yb8  1  0.709650  0.288975  0.294776  1
  Yb  Yb9  1  0.272817  0.909557  0.908070  1
  Yb  Yb10  1  0.909448  0.269122  0.909448  1
  Yb  Yb11  1  0.294776  0.706598  0.709650  1
  Yb  Yb12  1  0.908070  0.909557  0.272817  1
  Yb  Yb13  1  0.063562  0.436438  0.063562  1
  Yb  Yb14  1  0.294776  0.288975  0.709650  1
  Yb  Yb15  1  0.059860  0.438377  0.440726  1
  Yb  Yb16  1  0.442565  0.057435  0.442565  1
  Yb  Yb17  1  0.706530  0.293470  0.706530  1
  Cd  Cd18  1  0.671677  0.991732  0.671677  1
  Cd  Cd19  1  0.671677  0.664913  0.671677  1
  Ru  Ru20  1  0.117691  0.114109  0.654088  1
  Ru  Ru21  1  0.115207  0.117145  0.115207  1
  Ru  Ru22  1  0.115207  0.652441  0.115207  1
  Ru  Ru23  1  0.654088  0.114109  0.117691  1
