# generated using pymatgen
data_TbDy14Y(Ga3Co)2
_symmetry_space_group_name_H-M   'P 1'
_cell_length_a   10.02690000
_cell_length_b   10.02689940
_cell_length_c   6.96019100
_cell_angle_alpha   90.00000000
_cell_angle_beta   90.00000000
_cell_angle_gamma   119.99999540
_symmetry_Int_Tables_number   1
_chemical_formula_structural   TbDy14Y(Ga3Co)2
_chemical_formula_sum   'Tb1 Dy14 Y1 Ga6 Co2'
_cell_volume   606.01747916
_cell_formula_units_Z   1
loop_
 _symmetry_equiv_pos_site_id
 _symmetry_equiv_pos_as_xyz
  1  'x, y, z'
loop_
 _atom_site_type_symbol
 _atom_site_label
 _atom_site_symmetry_multiplicity
 _atom_site_fract_x
 _atom_site_fract_y
 _atom_site_fract_z
 _atom_site_occupancy
  Tb  Tb0  1  0.000000  0.000000  0.269136  1
  Dy  Dy1  1  0.826518  0.653038  0.488926  1
  Dy  Dy2  1  0.346962  0.173482  0.488926  1
  Dy  Dy3  1  0.826518  0.173482  0.488926  1
  Dy  Dy4  1  0.173538  0.347075  0.988895  1
  Dy  Dy5  1  0.652925  0.826462  0.988895  1
  Dy  Dy6  1  0.173538  0.826462  0.988895  1
  Dy  Dy7  1  0.666667  0.333333  0.171477  1
  Dy  Dy8  1  0.333333  0.666667  0.671739  1
  Dy  Dy9  1  0.536720  0.073440  0.792521  1
  Dy  Dy10  1  0.926560  0.463280  0.792521  1
  Dy  Dy11  1  0.536720  0.463280  0.792521  1
  Dy  Dy12  1  0.463314  0.926626  0.292575  1
  Dy  Dy13  1  0.073374  0.536686  0.292575  1
  Dy  Dy14  1  0.463314  0.536686  0.292575  1
  Y  Y15  1  0.000000  0.000000  0.769055  1
  Ga  Ga16  1  0.836243  0.672488  0.040485  1
  Ga  Ga17  1  0.327512  0.163757  0.040485  1
  Ga  Ga18  1  0.836243  0.163757  0.040485  1
  Ga  Ga19  1  0.163758  0.327517  0.540733  1
  Ga  Ga20  1  0.672483  0.836242  0.540733  1
  Ga  Ga21  1  0.163758  0.836242  0.540733  1
  Co  Co22  1  0.666667  0.333333  0.555961  1
  Co  Co23  1  0.333333  0.666667  0.056297  1
