# generated using pymatgen
data_Y4Cr3TcB16
_symmetry_space_group_name_H-M   'P 1'
_cell_length_a   3.49156100
_cell_length_b   5.95270163
_cell_length_c   11.49988716
_cell_angle_alpha   89.91188031
_cell_angle_beta   90.00000000
_cell_angle_gamma   90.00000000
_symmetry_Int_Tables_number   1
_chemical_formula_structural   Y4Cr3TcB16
_chemical_formula_sum   'Y4 Cr3 Tc1 B16'
_cell_volume   239.01591170
_cell_formula_units_Z   1
loop_
 _symmetry_equiv_pos_site_id
 _symmetry_equiv_pos_as_xyz
  1  'x, y, z'
loop_
 _atom_site_type_symbol
 _atom_site_label
 _atom_site_symmetry_multiplicity
 _atom_site_fract_x
 _atom_site_fract_y
 _atom_site_fract_z
 _atom_site_occupancy
  Y  Y0  1  0.000000  0.624178  0.351294  1
  Y  Y1  1  0.000000  0.375469  0.650294  1
  Y  Y2  1  0.000000  0.125820  0.151713  1
  Y  Y3  1  0.000000  0.875195  0.847799  1
  Cr  Cr4  1  0.000000  0.372089  0.916617  1
  Cr  Cr5  1  0.000000  0.123340  0.419657  1
  Cr  Cr6  1  0.000000  0.876637  0.580385  1
  Tc  Tc7  1  0.000000  0.627215  0.083253  1
  B  B8  1  0.500000  0.783960  0.185770  1
  B  B9  1  0.500000  0.218046  0.815023  1
  B  B10  1  0.500000  0.281806  0.316932  1
  B  B11  1  0.500000  0.717924  0.683554  1
  B  B12  1  0.500000  0.864582  0.031194  1
  B  B13  1  0.500000  0.137146  0.966966  1
  B  B14  1  0.500000  0.362431  0.468015  1
  B  B15  1  0.500000  0.637568  0.532552  1
  B  B16  1  0.500000  0.887211  0.453541  1
  B  B17  1  0.500000  0.113382  0.546761  1
  B  B18  1  0.500000  0.385008  0.046100  1
  B  B19  1  0.500000  0.612445  0.951735  1
  B  B20  1  0.500000  0.976428  0.309414  1
  B  B21  1  0.500000  0.024148  0.691145  1
  B  B22  1  0.500000  0.473819  0.192720  1
  B  B23  1  0.500000  0.524155  0.807571  1
