# generated using pymatgen
data_AcSbO4
_symmetry_space_group_name_H-M   'P 1'
_cell_length_a   5.17608500
_cell_length_b   5.63747193
_cell_length_c   14.06398849
_cell_angle_alpha   70.09185084
_cell_angle_beta   90.00000000
_cell_angle_gamma   90.00000000
_symmetry_Int_Tables_number   1
_chemical_formula_structural   AcSbO4
_chemical_formula_sum   'Ac4 Sb4 O16'
_cell_volume   385.86277349
_cell_formula_units_Z   4
loop_
 _symmetry_equiv_pos_site_id
 _symmetry_equiv_pos_as_xyz
  1  'x, y, z'
loop_
 _atom_site_type_symbol
 _atom_site_label
 _atom_site_symmetry_multiplicity
 _atom_site_fract_x
 _atom_site_fract_y
 _atom_site_fract_z
 _atom_site_occupancy
  Ac  Ac0  1  0.801124  0.655178  0.337908  1
  Ac  Ac1  1  0.698876  0.655178  0.837908  1
  Ac  Ac2  1  0.198876  0.344822  0.662092  1
  Ac  Ac3  1  0.301124  0.344822  0.162092  1
  Sb  Sb4  1  0.751292  0.917511  0.068569  1
  Sb  Sb5  1  0.748708  0.917511  0.568569  1
  Sb  Sb6  1  0.248708  0.082489  0.931431  1
  Sb  Sb7  1  0.251292  0.082489  0.431431  1
  O  O8  1  0.438573  0.761564  0.025523  1
  O  O9  1  0.061427  0.761564  0.525523  1
  O  O10  1  0.561427  0.238436  0.974477  1
  O  O11  1  0.938573  0.238436  0.474477  1
  O  O12  1  0.608827  0.989633  0.184777  1
  O  O13  1  0.891173  0.989633  0.684777  1
  O  O14  1  0.391173  0.010367  0.815223  1
  O  O15  1  0.108827  0.010367  0.315223  1
  O  O16  1  0.070103  0.132127  0.054776  1
  O  O17  1  0.429897  0.132127  0.554776  1
  O  O18  1  0.929897  0.867873  0.945224  1
  O  O19  1  0.570103  0.867873  0.445224  1
  O  O20  1  0.872006  0.590078  0.164441  1
  O  O21  1  0.627994  0.590078  0.664441  1
  O  O22  1  0.127994  0.409922  0.835559  1
  O  O23  1  0.372006  0.409922  0.335559  1
