# generated using pymatgen
data_Pa(CrRe2)4
_symmetry_space_group_name_H-M   'P 1'
_cell_length_a   6.83626262
_cell_length_b   6.83626211
_cell_length_c   6.83626359
_cell_angle_alpha   97.02417795
_cell_angle_beta   97.02417843
_cell_angle_gamma   139.06240081
_symmetry_Int_Tables_number   1
_chemical_formula_structural   Pa(CrRe2)4
_chemical_formula_sum   'Pa1 Cr4 Re8'
_cell_volume   196.12385620
_cell_formula_units_Z   1
loop_
 _symmetry_equiv_pos_site_id
 _symmetry_equiv_pos_as_xyz
  1  'x, y, z'
loop_
 _atom_site_type_symbol
 _atom_site_label
 _atom_site_symmetry_multiplicity
 _atom_site_fract_x
 _atom_site_fract_y
 _atom_site_fract_z
 _atom_site_occupancy
  Pa  Pa0  1  0.000000  0.000000  0.000000  1
  Cr  Cr1  1  0.000000  0.000000  0.500000  1
  Cr  Cr2  1  0.500000  0.500000  0.500000  1
  Cr  Cr3  1  0.500000  0.000000  0.000000  1
  Cr  Cr4  1  0.000000  0.500000  0.000000  1
  Re  Re5  1  0.280576  0.500000  0.780576  1
  Re  Re6  1  0.500000  0.719424  0.219424  1
  Re  Re7  1  0.644457  0.000000  0.644457  1
  Re  Re8  1  0.000000  0.355543  0.355543  1
  Re  Re9  1  0.000000  0.644457  0.644457  1
  Re  Re10  1  0.355543  0.000000  0.355543  1
  Re  Re11  1  0.719424  0.500000  0.219424  1
  Re  Re12  1  0.500000  0.280576  0.780576  1
