# generated using pymatgen
data_SrInGaF6
_symmetry_space_group_name_H-M   'P 1'
_cell_length_a   5.33656900
_cell_length_b   10.40340000
_cell_length_c   10.89737800
_cell_angle_alpha   90.00000000
_cell_angle_beta   90.00000000
_cell_angle_gamma   90.00000000
_symmetry_Int_Tables_number   1
_chemical_formula_structural   SrInGaF6
_chemical_formula_sum   'Sr4 In4 Ga4 F24'
_cell_volume   605.00566568
_cell_formula_units_Z   4
loop_
 _symmetry_equiv_pos_site_id
 _symmetry_equiv_pos_as_xyz
  1  'x, y, z'
loop_
 _atom_site_type_symbol
 _atom_site_label
 _atom_site_symmetry_multiplicity
 _atom_site_fract_x
 _atom_site_fract_y
 _atom_site_fract_z
 _atom_site_occupancy
  Sr  Sr0  1  0.533896  0.343014  0.154010  1
  Sr  Sr1  1  0.966104  0.656986  0.654010  1
  Sr  Sr2  1  0.466104  0.843014  0.345990  1
  Sr  Sr3  1  0.033896  0.156986  0.845990  1
  In  In4  1  0.071558  0.669381  0.044492  1
  In  In5  1  0.428442  0.330619  0.544492  1
  In  In6  1  0.928442  0.169381  0.455508  1
  In  In7  1  0.571558  0.830619  0.955508  1
  Ga  Ga8  1  0.041302  0.038775  0.161354  1
  Ga  Ga9  1  0.458698  0.961225  0.661354  1
  Ga  Ga10  1  0.958698  0.538775  0.338646  1
  Ga  Ga11  1  0.541302  0.461225  0.838646  1
  F  F12  1  0.198090  0.085185  0.632760  1
  F  F13  1  0.301910  0.914815  0.132760  1
  F  F14  1  0.801910  0.585185  0.867240  1
  F  F15  1  0.698090  0.414815  0.367240  1
  F  F16  1  0.195708  0.665682  0.286532  1
  F  F17  1  0.304292  0.334318  0.786532  1
  F  F18  1  0.804292  0.165682  0.213468  1
  F  F19  1  0.695708  0.834318  0.713468  1
  F  F20  1  0.230721  0.171402  0.072712  1
  F  F21  1  0.269279  0.828598  0.572712  1
  F  F22  1  0.769279  0.671402  0.427288  1
  F  F23  1  0.730721  0.328598  0.927288  1
  F  F24  1  0.159016  0.406503  0.265268  1
  F  F25  1  0.340984  0.593497  0.765268  1
  F  F26  1  0.840984  0.906503  0.234732  1
  F  F27  1  0.659016  0.093497  0.734732  1
  F  F28  1  0.373683  0.485528  0.993736  1
  F  F29  1  0.126317  0.514472  0.493736  1
  F  F30  1  0.626317  0.985528  0.506264  1
  F  F31  1  0.873683  0.014472  0.006264  1
  F  F32  1  0.217282  0.060053  0.317712  1
  F  F33  1  0.282718  0.939947  0.817712  1
  F  F34  1  0.782718  0.560053  0.182288  1
  F  F35  1  0.717282  0.439947  0.682288  1
