# generated using pymatgen
data_Tb5Cr3P12Ru9Rh7
_symmetry_space_group_name_H-M   'P 1'
_cell_length_a   3.91524700
_cell_length_b   12.66056817
_cell_length_c   12.66094305
_cell_angle_alpha   119.99902329
_cell_angle_beta   90.00000000
_cell_angle_gamma   90.00000000
_symmetry_Int_Tables_number   1
_chemical_formula_structural   Tb5Cr3P12Ru9Rh7
_chemical_formula_sum   'Tb5 Cr3 P12 Ru9 Rh7'
_cell_volume   543.51723804
_cell_formula_units_Z   1
loop_
 _symmetry_equiv_pos_site_id
 _symmetry_equiv_pos_as_xyz
  1  'x, y, z'
loop_
 _atom_site_type_symbol
 _atom_site_label
 _atom_site_symmetry_multiplicity
 _atom_site_fract_x
 _atom_site_fract_y
 _atom_site_fract_z
 _atom_site_occupancy
  Tb  Tb0  1  0.500000  0.999971  0.187205  1
  Tb  Tb1  1  0.500000  0.187115  0.000000  1
  Tb  Tb2  1  0.500000  0.812767  0.812795  1
  Tb  Tb3  1  0.000000  0.333325  0.666623  1
  Tb  Tb4  1  0.000000  0.666702  0.333377  1
  Cr  Cr5  1  0.000000  0.999997  0.556627  1
  Cr  Cr6  1  0.000000  0.556753  0.000000  1
  Cr  Cr7  1  0.000000  0.443369  0.443373  1
  P  P8  1  0.000000  0.999993  0.817222  1
  P  P9  1  0.000000  0.817231  0.000000  1
  P  P10  1  0.000000  0.182770  0.182778  1
  P  P11  1  0.500000  0.314084  0.482639  1
  P  P12  1  0.500000  0.168523  0.685915  1
  P  P13  1  0.500000  0.517374  0.831480  1
  P  P14  1  0.500000  0.831444  0.517361  1
  P  P15  1  0.500000  0.482608  0.314085  1
  P  P16  1  0.500000  0.685895  0.168520  1
  P  P17  1  0.000000  0.999997  0.371078  1
  P  P18  1  0.000000  0.371157  0.000000  1
  P  P19  1  0.000000  0.628919  0.628922  1
  Ru  Ru20  1  0.500000  0.999966  0.715937  1
  Ru  Ru21  1  0.500000  0.715947  0.000000  1
  Ru  Ru22  1  0.500000  0.284030  0.284063  1
  Ru  Ru23  1  0.500000  0.126324  0.486880  1
  Ru  Ru24  1  0.500000  0.360548  0.873674  1
  Ru  Ru25  1  0.500000  0.513096  0.639455  1
  Ru  Ru26  1  0.500000  0.639444  0.513120  1
  Ru  Ru27  1  0.500000  0.486875  0.126326  1
  Ru  Ru28  1  0.500000  0.873642  0.360545  1
  Rh  Rh29  1  0.000000  0.193669  0.375223  1
  Rh  Rh30  1  0.000000  0.181567  0.806375  1
  Rh  Rh31  1  0.000000  0.624799  0.818448  1
  Rh  Rh32  1  0.000000  0.818444  0.624777  1
  Rh  Rh33  1  0.000000  0.375193  0.193625  1
  Rh  Rh34  1  0.000000  0.806352  0.181552  1
  Rh  Rh35  1  0.000000  0.000009  0.000000  1
