# generated using pymatgen
data_Er4HgPt3Pb2
_symmetry_space_group_name_H-M   'P 1'
_cell_length_a   8.13442467
_cell_length_b   8.13442473
_cell_length_c   3.53321500
_cell_angle_alpha   90.00000000
_cell_angle_beta   90.00000000
_cell_angle_gamma   90.83511794
_symmetry_Int_Tables_number   1
_chemical_formula_structural   Er4HgPt3Pb2
_chemical_formula_sum   'Er4 Hg1 Pt3 Pb2'
_cell_volume   233.76399374
_cell_formula_units_Z   1
loop_
 _symmetry_equiv_pos_site_id
 _symmetry_equiv_pos_as_xyz
  1  'x, y, z'
loop_
 _atom_site_type_symbol
 _atom_site_label
 _atom_site_symmetry_multiplicity
 _atom_site_fract_x
 _atom_site_fract_y
 _atom_site_fract_z
 _atom_site_occupancy
  Er  Er0  1  0.693339  0.156569  0.500000  1
  Er  Er1  1  0.143311  0.356689  0.500000  1
  Er  Er2  1  0.830842  0.669158  0.500000  1
  Er  Er3  1  0.343431  0.806661  0.500000  1
  Hg  Hg4  1  0.370017  0.129983  0.000000  1
  Pt  Pt5  1  0.121694  0.634775  0.000000  1
  Pt  Pt6  1  0.623525  0.876475  0.000000  1
  Pt  Pt7  1  0.865225  0.378306  0.000000  1
  Pb  Pb8  1  0.003283  0.994667  0.000000  1
  Pb  Pb9  1  0.505333  0.496717  0.000000  1
