# generated using pymatgen
data_DyY7Re2(TcB12)2
_symmetry_space_group_name_H-M   'P 1'
_cell_length_a   3.68985900
_cell_length_b   9.18971456
_cell_length_c   11.57804300
_cell_angle_alpha   90.05809729
_cell_angle_beta   90.00000000
_cell_angle_gamma   90.00000000
_symmetry_Int_Tables_number   1
_chemical_formula_structural   DyY7Re2(TcB12)2
_chemical_formula_sum   'Dy1 Y7 Re2 Tc2 B24'
_cell_volume   392.59677492
_cell_formula_units_Z   1
loop_
 _symmetry_equiv_pos_site_id
 _symmetry_equiv_pos_as_xyz
  1  'x, y, z'
loop_
 _atom_site_type_symbol
 _atom_site_label
 _atom_site_symmetry_multiplicity
 _atom_site_fract_x
 _atom_site_fract_y
 _atom_site_fract_z
 _atom_site_occupancy
  Dy  Dy0  1  0.000000  0.556501  0.869356  1
  Y  Y1  1  0.000000  0.324007  0.414212  1
  Y  Y2  1  0.000000  0.675998  0.585824  1
  Y  Y3  1  0.000000  0.823531  0.085768  1
  Y  Y4  1  0.000000  0.176474  0.914206  1
  Y  Y5  1  0.000000  0.942031  0.369959  1
  Y  Y6  1  0.000000  0.057934  0.630076  1
  Y  Y7  1  0.000000  0.443603  0.130431  1
  Re  Re8  1  0.000000  0.138684  0.179217  1
  Re  Re9  1  0.000000  0.861253  0.820742  1
  Tc  Tc10  1  0.000000  0.638686  0.320827  1
  Tc  Tc11  1  0.000000  0.361351  0.679319  1
  B  B12  1  0.500000  0.553440  0.432760  1
  B  B13  1  0.500000  0.446552  0.567281  1
  B  B14  1  0.500000  0.053390  0.067176  1
  B  B15  1  0.500000  0.946583  0.932804  1
  B  B16  1  0.500000  0.748455  0.418355  1
  B  B17  1  0.500000  0.251559  0.581653  1
  B  B18  1  0.500000  0.248988  0.081618  1
  B  B19  1  0.500000  0.750933  0.918268  1
  B  B20  1  0.500000  0.791459  0.265412  1
  B  B21  1  0.500000  0.208558  0.734585  1
  B  B22  1  0.500000  0.291789  0.234717  1
  B  B23  1  0.500000  0.708186  0.765416  1
  B  B24  1  0.500000  0.631091  0.185924  1
  B  B25  1  0.500000  0.369050  0.814023  1
  B  B26  1  0.500000  0.130753  0.314320  1
  B  B27  1  0.500000  0.869219  0.685701  1
  B  B28  1  0.500000  0.982271  0.211758  1
  B  B29  1  0.500000  0.017686  0.788254  1
  B  B30  1  0.500000  0.482650  0.288369  1
  B  B31  1  0.500000  0.517295  0.711769  1
  B  B32  1  0.500000  0.600382  0.027902  1
  B  B33  1  0.500000  0.399668  0.971982  1
  B  B34  1  0.500000  0.100251  0.471824  1
  B  B35  1  0.500000  0.899739  0.528193  1
