# generated using pymatgen
data_HoH5Os
_symmetry_space_group_name_H-M   'P 1'
_cell_length_a   4.40078000
_cell_length_b   4.72257500
_cell_length_c   11.60248100
_cell_angle_alpha   90.00000000
_cell_angle_beta   90.00000000
_cell_angle_gamma   90.00000000
_symmetry_Int_Tables_number   1
_chemical_formula_structural   HoH5Os
_chemical_formula_sum   'Ho4 H20 Os4'
_cell_volume   241.13452052
_cell_formula_units_Z   4
loop_
 _symmetry_equiv_pos_site_id
 _symmetry_equiv_pos_as_xyz
  1  'x, y, z'
loop_
 _atom_site_type_symbol
 _atom_site_label
 _atom_site_symmetry_multiplicity
 _atom_site_fract_x
 _atom_site_fract_y
 _atom_site_fract_z
 _atom_site_occupancy
  Ho  Ho0  1  0.279689  0.151389  0.649861  1
  Ho  Ho1  1  0.779689  0.348611  0.350139  1
  Ho  Ho2  1  0.220311  0.848611  0.149861  1
  Ho  Ho3  1  0.720311  0.651389  0.850139  1
  H  H4  1  0.548746  0.372060  0.517494  1
  H  H5  1  0.048746  0.127940  0.482506  1
  H  H6  1  0.951254  0.627940  0.017494  1
  H  H7  1  0.451254  0.872060  0.982506  1
  H  H8  1  0.129866  0.936369  0.817496  1
  H  H9  1  0.629866  0.563631  0.182504  1
  H  H10  1  0.370134  0.063631  0.317496  1
  H  H11  1  0.870134  0.436369  0.682504  1
  H  H12  1  0.198234  0.439320  0.828681  1
  H  H13  1  0.698234  0.060680  0.171319  1
  H  H14  1  0.301766  0.560680  0.328681  1
  H  H15  1  0.801766  0.939320  0.671319  1
  H  H16  1  0.624608  0.145110  0.824330  1
  H  H17  1  0.124608  0.354890  0.175670  1
  H  H18  1  0.875392  0.854890  0.324330  1
  H  H19  1  0.375392  0.645110  0.675670  1
  H  H20  1  0.980250  0.086354  0.997794  1
  H  H21  1  0.480250  0.413646  0.002206  1
  H  H22  1  0.519750  0.913646  0.497794  1
  H  H23  1  0.019750  0.586354  0.502206  1
  Os  Os24  1  0.317270  0.152363  0.908598  1
  Os  Os25  1  0.817270  0.347637  0.091402  1
  Os  Os26  1  0.182730  0.847637  0.408598  1
  Os  Os27  1  0.682730  0.652363  0.591402  1
