# generated using pymatgen
data_HfAlCu3Pt
_symmetry_space_group_name_H-M   'P 1'
_cell_length_a   4.93409062
_cell_length_b   4.93409139
_cell_length_c   4.90526547
_cell_angle_alpha   59.80543015
_cell_angle_beta   59.80542114
_cell_angle_gamma   60.00000021
_symmetry_Int_Tables_number   1
_chemical_formula_structural   HfAlCu3Pt
_chemical_formula_sum   'Hf1 Al1 Cu3 Pt1'
_cell_volume   84.19344764
_cell_formula_units_Z   1
loop_
 _symmetry_equiv_pos_site_id
 _symmetry_equiv_pos_as_xyz
  1  'x, y, z'
loop_
 _atom_site_type_symbol
 _atom_site_label
 _atom_site_symmetry_multiplicity
 _atom_site_fract_x
 _atom_site_fract_y
 _atom_site_fract_z
 _atom_site_occupancy
  Hf  Hf0  1  0.245311  0.245311  0.264066  1
  Al  Al1  1  0.628969  0.628969  0.113089  1
  Cu  Cu2  1  0.625373  0.127291  0.621959  1
  Cu  Cu3  1  0.127291  0.625373  0.621959  1
  Cu  Cu4  1  0.625373  0.625373  0.621959  1
  Pt  Pt5  1  0.997678  0.997678  0.006966  1
