# generated using pymatgen
data_KPu(PSe3)2
_symmetry_space_group_name_H-M   'P 1'
_cell_length_a   7.65674700
_cell_length_b   6.86453241
_cell_length_c   10.78686300
_cell_angle_alpha   87.09647217
_cell_angle_beta   90.00000000
_cell_angle_gamma   90.00000000
_symmetry_Int_Tables_number   1
_chemical_formula_structural   KPu(PSe3)2
_chemical_formula_sum   'K2 Pu2 P4 Se12'
_cell_volume   566.22955211
_cell_formula_units_Z   2
loop_
 _symmetry_equiv_pos_site_id
 _symmetry_equiv_pos_as_xyz
  1  'x, y, z'
loop_
 _atom_site_type_symbol
 _atom_site_label
 _atom_site_symmetry_multiplicity
 _atom_site_fract_x
 _atom_site_fract_y
 _atom_site_fract_z
 _atom_site_occupancy
  K  K0  1  0.048521  0.312956  0.496437  1
  K  K1  1  0.548521  0.687044  0.503563  1
  Pu  Pu2  1  0.259215  0.211545  0.994545  1
  Pu  Pu3  1  0.759215  0.788455  0.005455  1
  P  P4  1  0.750364  0.323628  0.830188  1
  P  P5  1  0.250364  0.676372  0.169812  1
  P  P6  1  0.033104  0.796603  0.286352  1
  P  P7  1  0.533104  0.203397  0.713648  1
  Se  Se8  1  0.627816  0.365328  0.016619  1
  Se  Se9  1  0.124422  0.828786  0.473168  1
  Se  Se10  1  0.949379  0.085080  0.835191  1
  Se  Se11  1  0.820307  0.587686  0.262939  1
  Se  Se12  1  0.345520  0.395909  0.248260  1
  Se  Se13  1  0.320307  0.412314  0.737061  1
  Se  Se14  1  0.454853  0.939133  0.831168  1
  Se  Se15  1  0.954853  0.060867  0.168832  1
  Se  Se16  1  0.624422  0.171214  0.526832  1
  Se  Se17  1  0.127816  0.634672  0.983381  1
  Se  Se18  1  0.449379  0.914920  0.164809  1
  Se  Se19  1  0.845520  0.604091  0.751740  1
