# generated using pymatgen
data_Y10FeCoBi4
_symmetry_space_group_name_H-M   'P 1'
_cell_length_a   8.02059066
_cell_length_b   8.95609000
_cell_length_c   12.40584736
_cell_angle_alpha   90.00000000
_cell_angle_beta   89.88839978
_cell_angle_gamma   90.00000000
_symmetry_Int_Tables_number   1
_chemical_formula_structural   Y10FeCoBi4
_chemical_formula_sum   'Y20 Fe2 Co2 Bi8'
_cell_volume   891.14917891
_cell_formula_units_Z   2
loop_
 _symmetry_equiv_pos_site_id
 _symmetry_equiv_pos_as_xyz
  1  'x, y, z'
loop_
 _atom_site_type_symbol
 _atom_site_label
 _atom_site_symmetry_multiplicity
 _atom_site_fract_x
 _atom_site_fract_y
 _atom_site_fract_z
 _atom_site_occupancy
  Y  Y0  1  0.346741  0.750000  0.701372  1
  Y  Y1  1  0.653259  0.250000  0.298628  1
  Y  Y2  1  0.848630  0.250000  0.799080  1
  Y  Y3  1  0.151370  0.750000  0.200920  1
  Y  Y4  1  0.884481  0.750000  0.809443  1
  Y  Y5  1  0.115519  0.250000  0.190557  1
  Y  Y6  1  0.383847  0.250000  0.688907  1
  Y  Y7  1  0.616153  0.750000  0.311093  1
  Y  Y8  1  0.677080  0.537337  0.564425  1
  Y  Y9  1  0.322920  0.462663  0.435575  1
  Y  Y10  1  0.176002  0.463897  0.937019  1
  Y  Y11  1  0.322920  0.037337  0.435575  1
  Y  Y12  1  0.823998  0.536103  0.062981  1
  Y  Y13  1  0.677080  0.962663  0.564425  1
  Y  Y14  1  0.823998  0.963897  0.062981  1
  Y  Y15  1  0.176002  0.036103  0.937019  1
  Y  Y16  1  0.050480  0.750000  0.496674  1
  Y  Y17  1  0.949520  0.250000  0.503326  1
  Y  Y18  1  0.553865  0.250000  0.003944  1
  Y  Y19  1  0.446135  0.750000  0.996056  1
  Fe  Fe20  1  0.070628  0.750000  0.990058  1
  Fe  Fe21  1  0.929372  0.250000  0.009942  1
  Co  Co22  1  0.565695  0.250000  0.507860  1
  Co  Co23  1  0.434305  0.750000  0.492140  1
  Bi  Bi24  1  0.571760  0.508154  0.826914  1
  Bi  Bi25  1  0.428240  0.491846  0.173086  1
  Bi  Bi26  1  0.072194  0.491645  0.672701  1
  Bi  Bi27  1  0.428240  0.008154  0.173086  1
  Bi  Bi28  1  0.927806  0.508355  0.327299  1
  Bi  Bi29  1  0.571760  0.991846  0.826914  1
  Bi  Bi30  1  0.927806  0.991645  0.327299  1
  Bi  Bi31  1  0.072194  0.008355  0.672701  1
