# generated using pymatgen
data_Ho5Hf3(Co4P3)4
_symmetry_space_group_name_H-M   'P 1'
_cell_length_a   12.24822800
_cell_length_b   12.24822661
_cell_length_c   3.69493800
_cell_angle_alpha   90.00000000
_cell_angle_beta   90.00000000
_cell_angle_gamma   120.00000374
_symmetry_Int_Tables_number   1
_chemical_formula_structural   Ho5Hf3(Co4P3)4
_chemical_formula_sum   'Ho5 Hf3 Co16 P12'
_cell_volume   480.04753716
_cell_formula_units_Z   1
loop_
 _symmetry_equiv_pos_site_id
 _symmetry_equiv_pos_as_xyz
  1  'x, y, z'
loop_
 _atom_site_type_symbol
 _atom_site_label
 _atom_site_symmetry_multiplicity
 _atom_site_fract_x
 _atom_site_fract_y
 _atom_site_fract_z
 _atom_site_occupancy
  Ho  Ho0  1  0.666667  0.333333  0.000000  1
  Ho  Ho1  1  0.333333  0.666667  0.000000  1
  Ho  Ho2  1  0.817117  0.817117  0.500000  1
  Ho  Ho3  1  0.182883  0.000000  0.500000  1
  Ho  Ho4  1  0.000000  0.182883  0.500000  1
  Hf  Hf5  1  0.440817  0.440817  0.000000  1
  Hf  Hf6  1  0.559183  0.000000  0.000000  1
  Hf  Hf7  1  0.000000  0.559183  0.000000  1
  Co  Co8  1  0.875387  0.356015  0.500000  1
  Co  Co9  1  0.643985  0.519372  0.500000  1
  Co  Co10  1  0.480628  0.124613  0.500000  1
  Co  Co11  1  0.356015  0.875387  0.500000  1
  Co  Co12  1  0.519372  0.643985  0.500000  1
  Co  Co13  1  0.124613  0.480628  0.500000  1
  Co  Co14  1  0.804493  0.178355  0.000000  1
  Co  Co15  1  0.821645  0.626137  0.000000  1
  Co  Co16  1  0.373863  0.195507  0.000000  1
  Co  Co17  1  0.178355  0.804493  0.000000  1
  Co  Co18  1  0.626137  0.821645  0.000000  1
  Co  Co19  1  0.195507  0.373863  0.000000  1
  Co  Co20  1  0.278556  0.278556  0.500000  1
  Co  Co21  1  0.721444  0.000000  0.500000  1
  Co  Co22  1  0.000000  0.721444  0.500000  1
  Co  Co23  1  0.000000  0.000000  0.000000  1
  P  P24  1  0.692272  0.171673  0.500000  1
  P  P25  1  0.828327  0.520599  0.500000  1
  P  P26  1  0.479401  0.307728  0.500000  1
  P  P27  1  0.171673  0.692272  0.500000  1
  P  P28  1  0.520599  0.828327  0.500000  1
  P  P29  1  0.307728  0.479401  0.500000  1
  P  P30  1  0.177960  0.177960  0.000000  1
  P  P31  1  0.822040  0.000000  0.000000  1
  P  P32  1  0.000000  0.822040  0.000000  1
  P  P33  1  0.648049  0.648049  0.000000  1
  P  P34  1  0.351951  0.000000  0.000000  1
  P  P35  1  0.000000  0.351951  0.000000  1
