# generated using pymatgen
data_Nb4GaSiTe8
_symmetry_space_group_name_H-M   'P 1'
_cell_length_a   8.04182066
_cell_length_b   6.50103614
_cell_length_c   7.69493298
_cell_angle_alpha   97.66691094
_cell_angle_beta   104.95367151
_cell_angle_gamma   89.38254428
_symmetry_Int_Tables_number   1
_chemical_formula_structural   Nb4GaSiTe8
_chemical_formula_sum   'Nb4 Ga1 Si1 Te8'
_cell_volume   385.07661330
_cell_formula_units_Z   1
loop_
 _symmetry_equiv_pos_site_id
 _symmetry_equiv_pos_as_xyz
  1  'x, y, z'
loop_
 _atom_site_type_symbol
 _atom_site_label
 _atom_site_symmetry_multiplicity
 _atom_site_fract_x
 _atom_site_fract_y
 _atom_site_fract_z
 _atom_site_occupancy
  Nb  Nb0  1  0.090341  0.109538  0.999618  1
  Nb  Nb1  1  0.409659  0.890462  0.000382  1
  Nb  Nb2  1  0.586046  0.398892  0.000357  1
  Nb  Nb3  1  0.913954  0.601108  0.999643  1
  Ga  Ga4  1  0.750000  0.000000  0.000000  1
  Si  Si5  1  0.250000  0.500000  0.000000  1
  Te  Te6  1  0.078845  0.742011  0.746833  1
  Te  Te7  1  0.202473  0.820481  0.252792  1
  Te  Te8  1  0.297527  0.179519  0.747208  1
  Te  Te9  1  0.421155  0.257989  0.253167  1
  Te  Te10  1  0.574985  0.676123  0.744644  1
  Te  Te11  1  0.701665  0.755241  0.255411  1
  Te  Te12  1  0.798335  0.244759  0.744589  1
  Te  Te13  1  0.925015  0.323877  0.255356  1
