# generated using pymatgen
data_TbNdU(AlIr)3
_symmetry_space_group_name_H-M   'P 1'
_cell_length_a   7.10353000
_cell_length_b   7.24333173
_cell_length_c   4.00394000
_cell_angle_alpha   90.00000000
_cell_angle_beta   90.00000000
_cell_angle_gamma   120.74640643
_symmetry_Int_Tables_number   1
_chemical_formula_structural   TbNdU(AlIr)3
_chemical_formula_sum   'Tb1 Nd1 U1 Al3 Ir3'
_cell_volume   177.05775327
_cell_formula_units_Z   1
loop_
 _symmetry_equiv_pos_site_id
 _symmetry_equiv_pos_as_xyz
  1  'x, y, z'
loop_
 _atom_site_type_symbol
 _atom_site_label
 _atom_site_symmetry_multiplicity
 _atom_site_fract_x
 _atom_site_fract_y
 _atom_site_fract_z
 _atom_site_occupancy
  Tb  Tb0  1  0.586970  0.003795  0.500000  1
  Nd  Nd1  1  0.416378  0.419090  0.500000  1
  U  U2  1  0.001153  0.581108  0.500000  1
  Al  Al3  1  0.758311  0.761306  0.000000  1
  Al  Al4  1  0.242652  0.001530  0.000000  1
  Al  Al5  1  0.996543  0.225601  0.000000  1
  Ir  Ir6  1  0.707273  0.363577  0.000000  1
  Ir  Ir7  1  0.296419  0.665341  0.000000  1
  Ir  Ir8  1  0.994301  0.978650  0.500000  1
