# generated using pymatgen
data_YbZn7Ag4Au
_symmetry_space_group_name_H-M   'P 1'
_cell_length_a   7.04382977
_cell_length_b   7.04382054
_cell_length_c   7.04382900
_cell_angle_alpha   97.63233168
_cell_angle_beta   97.68960953
_cell_angle_gamma   137.17039794
_symmetry_Int_Tables_number   1
_chemical_formula_structural   YbZn7Ag4Au
_chemical_formula_sum   'Yb1 Zn7 Ag4 Au1'
_cell_volume   221.18287612
_cell_formula_units_Z   1
loop_
 _symmetry_equiv_pos_site_id
 _symmetry_equiv_pos_as_xyz
  1  'x, y, z'
loop_
 _atom_site_type_symbol
 _atom_site_label
 _atom_site_symmetry_multiplicity
 _atom_site_fract_x
 _atom_site_fract_y
 _atom_site_fract_z
 _atom_site_occupancy
  Yb  Yb0  1  0.000000  0.994562  0.994564  1
  Zn  Zn1  1  0.998263  0.999089  0.496256  1
  Zn  Zn2  1  0.497171  0.497997  0.496258  1
  Zn  Zn3  1  0.502833  0.999089  0.000826  1
  Zn  Zn4  1  0.001740  0.497997  0.000827  1
  Zn  Zn5  1  0.499998  0.713577  0.213580  1
  Zn  Zn6  1  0.719065  0.501897  0.220962  1
  Zn  Zn7  1  0.280935  0.501897  0.782832  1
  Ag  Ag8  1  0.999997  0.340024  0.340027  1
  Ag  Ag9  1  0.999999  0.646810  0.646811  1
  Ag  Ag10  1  0.655900  0.999402  0.655304  1
  Ag  Ag11  1  0.344098  0.999402  0.343503  1
  Au  Au12  1  0.500003  0.308255  0.808252  1
