# generated using pymatgen
data_Dy3TcB7
_symmetry_space_group_name_H-M   'P 1'
_cell_length_a   8.09558915
_cell_length_b   8.09558845
_cell_length_c   9.36190300
_cell_angle_alpha   90.00000000
_cell_angle_beta   90.00000000
_cell_angle_gamma   154.74667611
_symmetry_Int_Tables_number   1
_chemical_formula_structural   Dy3TcB7
_chemical_formula_sum   'Dy6 Tc2 B14'
_cell_volume   261.76010791
_cell_formula_units_Z   2
loop_
 _symmetry_equiv_pos_site_id
 _symmetry_equiv_pos_as_xyz
  1  'x, y, z'
loop_
 _atom_site_type_symbol
 _atom_site_label
 _atom_site_symmetry_multiplicity
 _atom_site_fract_x
 _atom_site_fract_y
 _atom_site_fract_z
 _atom_site_occupancy
  Dy  Dy0  1  0.895299  0.104701  0.439819  1
  Dy  Dy1  1  0.104701  0.895299  0.560181  1
  Dy  Dy2  1  0.895299  0.104701  0.060181  1
  Dy  Dy3  1  0.104701  0.895299  0.939819  1
  Dy  Dy4  1  0.241842  0.758158  0.250000  1
  Dy  Dy5  1  0.758158  0.241842  0.750000  1
  Tc  Tc6  1  0.053098  0.946902  0.250000  1
  Tc  Tc7  1  0.946902  0.053098  0.750000  1
  B  B8  1  0.726997  0.273003  0.467059  1
  B  B9  1  0.273003  0.726997  0.532941  1
  B  B10  1  0.726997  0.273003  0.032941  1
  B  B11  1  0.273003  0.726997  0.967059  1
  B  B12  1  0.632029  0.367971  0.151044  1
  B  B13  1  0.367971  0.632029  0.848956  1
  B  B14  1  0.632029  0.367971  0.348956  1
  B  B15  1  0.367971  0.632029  0.651044  1
  B  B16  1  0.521094  0.478906  0.095737  1
  B  B17  1  0.478906  0.521094  0.904263  1
  B  B18  1  0.521094  0.478906  0.404263  1
  B  B19  1  0.478906  0.521094  0.595737  1
  B  B20  1  0.458015  0.541985  0.250000  1
  B  B21  1  0.541985  0.458015  0.750000  1
