# generated using pymatgen
data_Zr20Zn2SnSb9
_symmetry_space_group_name_H-M   'P 1'
_cell_length_a   5.56997323
_cell_length_b   8.42985871
_cell_length_c   15.87556100
_cell_angle_alpha   90.00000000
_cell_angle_beta   90.00000000
_cell_angle_gamma   109.32446008
_symmetry_Int_Tables_number   1
_chemical_formula_structural   Zr20Zn2SnSb9
_chemical_formula_sum   'Zr20 Zn2 Sn1 Sb9'
_cell_volume   703.42520185
_cell_formula_units_Z   1
loop_
 _symmetry_equiv_pos_site_id
 _symmetry_equiv_pos_as_xyz
  1  'x, y, z'
loop_
 _atom_site_type_symbol
 _atom_site_label
 _atom_site_symmetry_multiplicity
 _atom_site_fract_x
 _atom_site_fract_y
 _atom_site_fract_z
 _atom_site_occupancy
  Zr  Zr0  1  0.435147  0.858135  0.352735  1
  Zr  Zr1  1  0.923584  0.860134  0.852614  1
  Zr  Zr2  1  0.063718  0.139887  0.147349  1
  Zr  Zr3  1  0.576983  0.141855  0.647294  1
  Zr  Zr4  1  0.653048  0.294859  0.070756  1
  Zr  Zr5  1  0.142116  0.295404  0.569822  1
  Zr  Zr6  1  0.846491  0.704610  0.430126  1
  Zr  Zr7  1  0.357948  0.705136  0.929299  1
  Zr  Zr8  1  0.846952  0.705141  0.070756  1
  Zr  Zr9  1  0.357884  0.704596  0.569822  1
  Zr  Zr10  1  0.653509  0.295390  0.430126  1
  Zr  Zr11  1  0.142052  0.294864  0.929299  1
  Zr  Zr12  1  0.064853  0.141865  0.352735  1
  Zr  Zr13  1  0.576416  0.139866  0.852614  1
  Zr  Zr14  1  0.436282  0.860113  0.147349  1
  Zr  Zr15  1  0.923017  0.858145  0.647294  1
  Zr  Zr16  1  0.500796  0.499978  0.249981  1
  Zr  Zr17  1  0.000633  0.499710  0.750028  1
  Zr  Zr18  1  0.999204  0.500022  0.249981  1
  Zr  Zr19  1  0.499367  0.500290  0.750028  1
  Zn  Zn20  1  0.750000  0.000000  0.499994  1
  Zn  Zn21  1  0.750000  0.000000  0.999997  1
  Sn  Sn22  1  0.250000  0.000000  0.499979  1
  Sb  Sb23  1  0.916051  0.826581  0.251170  1
  Sb  Sb24  1  0.410712  0.826486  0.748823  1
  Sb  Sb25  1  0.583949  0.173419  0.251170  1
  Sb  Sb26  1  0.089288  0.173514  0.748823  1
  Sb  Sb27  1  0.250000  0.500000  0.086430  1
  Sb  Sb28  1  0.750000  0.500000  0.586615  1
  Sb  Sb29  1  0.250000  0.500000  0.413349  1
  Sb  Sb30  1  0.750000  0.500000  0.913605  1
  Sb  Sb31  1  0.250000  0.000000  0.000041  1
