# generated using pymatgen
data_LaGdOsO5
_symmetry_space_group_name_H-M   'P 1'
_cell_length_a   6.94500743
_cell_length_b   6.94500835
_cell_length_c   6.94323428
_cell_angle_alpha   100.58390185
_cell_angle_beta   100.45331014
_cell_angle_gamma   129.41878475
_symmetry_Int_Tables_number   1
_chemical_formula_structural   LaGdOsO5
_chemical_formula_sum   'La2 Gd2 Os2 O10'
_cell_volume   233.90346277
_cell_formula_units_Z   2
loop_
 _symmetry_equiv_pos_site_id
 _symmetry_equiv_pos_as_xyz
  1  'x, y, z'
loop_
 _atom_site_type_symbol
 _atom_site_label
 _atom_site_symmetry_multiplicity
 _atom_site_fract_x
 _atom_site_fract_y
 _atom_site_fract_z
 _atom_site_occupancy
  La  La0  1  0.604290  0.818939  0.423228  1
  La  La1  1  0.179419  0.606634  0.786053  1
  Gd  Gd2  1  0.818418  0.399465  0.217883  1
  Gd  Gd3  1  0.397505  0.180127  0.577633  1
  Os  Os4  1  0.186165  0.184430  0.000319  1
  Os  Os5  1  0.815889  0.814154  0.000319  1
  O  O6  1  0.365990  0.079313  0.907060  1
  O  O7  1  0.075730  0.164426  0.713237  1
  O  O8  1  0.448927  0.350013  0.286310  1
  O  O9  1  0.154858  0.441406  0.095191  1
  O  O10  1  0.653786  0.940333  0.095191  1
  O  O11  1  0.936297  0.837384  0.286310  1
  O  O12  1  0.243113  0.752429  0.495484  1
  O  O13  1  0.743055  0.252371  0.495484  1
  O  O14  1  0.827747  0.541070  0.907060  1
  O  O15  1  0.548812  0.637507  0.713237  1
