# generated using pymatgen
data_Hf2Zr4Ti3Al13Pt7
_symmetry_space_group_name_H-M   'P 1'
_cell_length_a   8.83082343
_cell_length_b   8.83082329
_cell_length_c   8.83512900
_cell_angle_alpha   59.76870520
_cell_angle_beta   59.76870138
_cell_angle_gamma   59.81277468
_symmetry_Int_Tables_number   1
_chemical_formula_structural   Hf2Zr4Ti3Al13Pt7
_chemical_formula_sum   'Hf2 Zr4 Ti3 Al13 Pt7'
_cell_volume   484.79612677
_cell_formula_units_Z   1
loop_
 _symmetry_equiv_pos_site_id
 _symmetry_equiv_pos_as_xyz
  1  'x, y, z'
loop_
 _atom_site_type_symbol
 _atom_site_label
 _atom_site_symmetry_multiplicity
 _atom_site_fract_x
 _atom_site_fract_y
 _atom_site_fract_z
 _atom_site_occupancy
  Hf  Hf0  1  0.682852  0.315853  0.683729  1
  Hf  Hf1  1  0.315853  0.682852  0.683729  1
  Zr  Zr2  1  0.686491  0.686491  0.313015  1
  Zr  Zr3  1  0.311067  0.687132  0.311896  1
  Zr  Zr4  1  0.687132  0.311067  0.311896  1
  Zr  Zr5  1  0.313099  0.313099  0.686077  1
  Ti  Ti6  1  0.879333  0.879333  0.362004  1
  Ti  Ti7  1  0.879050  0.361508  0.879846  1
  Ti  Ti8  1  0.361508  0.879050  0.879846  1
  Al  Al9  1  0.882821  0.882821  0.881898  1
  Al  Al10  1  0.119216  0.119216  0.642038  1
  Al  Al11  1  0.119925  0.640912  0.119536  1
  Al  Al12  1  0.640912  0.119925  0.119536  1
  Al  Al13  1  0.121665  0.121665  0.121709  1
  Al  Al14  1  0.665564  0.665564  0.002346  1
  Al  Al15  1  0.665480  0.002427  0.665553  1
  Al  Al16  1  0.002427  0.665480  0.665553  1
  Al  Al17  1  0.662965  0.662965  0.663049  1
  Al  Al18  1  0.334438  0.334438  0.996837  1
  Al  Al19  1  0.334408  0.997076  0.334465  1
  Al  Al20  1  0.997076  0.334408  0.334465  1
  Al  Al21  1  0.333257  0.333257  0.333582  1
  Pt  Pt22  1  0.003170  0.003170  0.003975  1
  Pt  Pt23  1  0.998742  0.998742  0.506073  1
  Pt  Pt24  1  0.498357  0.998887  0.501691  1
  Pt  Pt25  1  0.998887  0.498357  0.501691  1
  Pt  Pt26  1  0.500103  0.500103  0.998204  1
  Pt  Pt27  1  0.999147  0.505056  0.997880  1
  Pt  Pt28  1  0.505056  0.999147  0.997880  1
