# generated using pymatgen
data_Li8Er2Tm6Sn5Sb3
_symmetry_space_group_name_H-M   'P 1'
_cell_length_a   9.36714706
_cell_length_b   9.37551384
_cell_length_c   7.03556667
_cell_angle_alpha   90.06183583
_cell_angle_beta   89.95464019
_cell_angle_gamma   119.99303827
_symmetry_Int_Tables_number   1
_chemical_formula_structural   Li8Er2Tm6Sn5Sb3
_chemical_formula_sum   'Li8 Er2 Tm6 Sn5 Sb3'
_cell_volume   535.13372649
_cell_formula_units_Z   1
loop_
 _symmetry_equiv_pos_site_id
 _symmetry_equiv_pos_as_xyz
  1  'x, y, z'
loop_
 _atom_site_type_symbol
 _atom_site_label
 _atom_site_symmetry_multiplicity
 _atom_site_fract_x
 _atom_site_fract_y
 _atom_site_fract_z
 _atom_site_occupancy
  Li  Li0  1  0.166335  0.333010  0.220773  1
  Li  Li1  1  0.166686  0.833366  0.218741  1
  Li  Li2  1  0.667028  0.833790  0.220641  1
  Li  Li3  1  0.666150  0.333229  0.309844  1
  Li  Li4  1  0.833388  0.667080  0.723749  1
  Li  Li5  1  0.333600  0.165983  0.722860  1
  Li  Li6  1  0.832970  0.166833  0.724432  1
  Li  Li7  1  0.333773  0.666679  0.813355  1
  Er  Er8  1  0.017066  0.506423  0.508392  1
  Er  Er9  1  0.491013  0.508972  0.509549  1
  Tm  Tm10  1  0.999190  0.000803  0.997734  1
  Tm  Tm11  1  0.510611  0.019150  0.002878  1
  Tm  Tm12  1  0.508667  0.491330  0.002203  1
  Tm  Tm13  1  0.981136  0.489269  0.003063  1
  Tm  Tm14  1  0.998990  0.001218  0.503157  1
  Tm  Tm15  1  0.493635  0.983120  0.509002  1
  Sn  Sn16  1  0.833068  0.166654  0.264255  1
  Sn  Sn17  1  0.665903  0.333290  0.742081  1
  Sn  Sn18  1  0.167341  0.333420  0.765373  1
  Sn  Sn19  1  0.167182  0.833376  0.764784  1
  Sn  Sn20  1  0.666068  0.832988  0.764388  1
  Sb  Sb21  1  0.333830  0.666682  0.242387  1
  Sb  Sb22  1  0.832951  0.666497  0.261549  1
  Sb  Sb23  1  0.333418  0.166835  0.262796  1
