# generated using pymatgen
data_Ho3Er2Zr5(Si5Ir2)4
_symmetry_space_group_name_H-M   'P 1'
_cell_length_a   12.52263703
_cell_length_b   12.52253303
_cell_length_c   4.17346700
_cell_angle_alpha   90.00000000
_cell_angle_beta   90.00000000
_cell_angle_gamma   90.00781478
_symmetry_Int_Tables_number   1
_chemical_formula_structural   Ho3Er2Zr5(Si5Ir2)4
_chemical_formula_sum   'Ho3 Er2 Zr5 Si20 Ir8'
_cell_volume   654.46278831
_cell_formula_units_Z   1
loop_
 _symmetry_equiv_pos_site_id
 _symmetry_equiv_pos_as_xyz
  1  'x, y, z'
loop_
 _atom_site_type_symbol
 _atom_site_label
 _atom_site_symmetry_multiplicity
 _atom_site_fract_x
 _atom_site_fract_y
 _atom_site_fract_z
 _atom_site_occupancy
  Ho  Ho0  1  0.884307  0.384319  0.500000  1
  Ho  Ho1  1  0.115693  0.615681  0.500000  1
  Ho  Ho2  1  0.384324  0.115688  0.500000  1
  Er  Er3  1  0.999992  0.999995  0.000000  1
  Er  Er4  1  0.615697  0.884312  0.500000  1
  Zr  Zr5  1  0.499996  0.500004  0.000000  1
  Zr  Zr6  1  0.673904  0.175205  0.500000  1
  Zr  Zr7  1  0.326122  0.824775  0.500000  1
  Zr  Zr8  1  0.175223  0.326099  0.500000  1
  Zr  Zr9  1  0.824759  0.673915  0.500000  1
  Si  Si10  1  0.566099  0.067201  0.000000  1
  Si  Si11  1  0.433947  0.932756  0.000000  1
  Si  Si12  1  0.067240  0.433904  0.000000  1
  Si  Si13  1  0.932758  0.566096  0.000000  1
  Si  Si14  1  0.665555  0.700298  0.000000  1
  Si  Si15  1  0.334435  0.299739  0.000000  1
  Si  Si16  1  0.164677  0.801135  0.000000  1
  Si  Si17  1  0.835322  0.198866  0.000000  1
  Si  Si18  1  0.299741  0.665564  0.000000  1
  Si  Si19  1  0.700257  0.334436  0.000000  1
  Si  Si20  1  0.198868  0.164677  0.000000  1
  Si  Si21  1  0.801097  0.835334  0.000000  1
  Si  Si22  1  0.652822  0.507526  0.500000  1
  Si  Si23  1  0.347180  0.492478  0.500000  1
  Si  Si24  1  0.156558  0.992976  0.500000  1
  Si  Si25  1  0.843427  0.007024  0.500000  1
  Si  Si26  1  0.492476  0.652833  0.500000  1
  Si  Si27  1  0.507522  0.347178  0.500000  1
  Si  Si28  1  0.007027  0.156556  0.500000  1
  Si  Si29  1  0.992969  0.843442  0.500000  1
  Ir  Ir30  1  0.743198  0.520287  0.000000  1
  Ir  Ir31  1  0.256800  0.479718  0.000000  1
  Ir  Ir32  1  0.245947  0.979665  0.000000  1
  Ir  Ir33  1  0.753932  0.020197  0.000000  1
  Ir  Ir34  1  0.479841  0.743338  0.000000  1
  Ir  Ir35  1  0.520293  0.256784  0.000000  1
  Ir  Ir36  1  0.020323  0.245928  0.000000  1
  Ir  Ir37  1  0.979670  0.754072  0.000000  1
