# generated using pymatgen
data_Tb3PrNdDyTa2O14
_symmetry_space_group_name_H-M   'P 1'
_cell_length_a   6.53767584
_cell_length_b   6.53591748
_cell_length_c   7.62982435
_cell_angle_alpha   89.97951301
_cell_angle_beta   90.01367892
_cell_angle_gamma   109.23157259
_symmetry_Int_Tables_number   1
_chemical_formula_structural   Tb3PrNdDyTa2O14
_chemical_formula_sum   'Tb3 Pr1 Nd1 Dy1 Ta2 O14'
_cell_volume   307.82660392
_cell_formula_units_Z   1
loop_
 _symmetry_equiv_pos_site_id
 _symmetry_equiv_pos_as_xyz
  1  'x, y, z'
loop_
 _atom_site_type_symbol
 _atom_site_label
 _atom_site_symmetry_multiplicity
 _atom_site_fract_x
 _atom_site_fract_y
 _atom_site_fract_z
 _atom_site_occupancy
  Tb  Tb0  1  0.999866  0.465899  0.747385  1
  Tb  Tb1  1  0.533815  0.000761  0.753933  1
  Tb  Tb2  1  0.465745  0.999792  0.252607  1
  Pr  Pr3  1  0.512732  0.512001  0.499887  1
  Nd  Nd4  1  0.489076  0.489294  0.000306  1
  Dy  Dy5  1  0.000927  0.533506  0.245865  1
  Ta  Ta6  1  0.001108  0.001326  0.499754  1
  Ta  Ta7  1  0.998605  0.998480  0.000378  1
  O  O8  1  0.937322  0.063596  0.750061  1
  O  O9  1  0.063360  0.935997  0.250037  1
  O  O10  1  0.356559  0.642254  0.248705  1
  O  O11  1  0.642682  0.358304  0.751885  1
  O  O12  1  0.364354  0.635697  0.751657  1
  O  O13  1  0.637568  0.365198  0.247910  1
  O  O14  1  0.321459  0.073220  0.971359  1
  O  O15  1  0.677966  0.927208  0.471437  1
  O  O16  1  0.315378  0.064163  0.535605  1
  O  O17  1  0.684079  0.935242  0.035197  1
  O  O18  1  0.060263  0.314406  0.462660  1
  O  O19  1  0.937293  0.684407  0.965116  1
  O  O20  1  0.928276  0.678222  0.528255  1
  O  O21  1  0.071563  0.321027  0.030001  1
