# generated using pymatgen
data_Lu8In2RuPt
_symmetry_space_group_name_H-M   'P 1'
_cell_length_a   9.47820797
_cell_length_b   9.47820816
_cell_length_c   9.48091300
_cell_angle_alpha   59.99056293
_cell_angle_beta   59.99056226
_cell_angle_gamma   59.84654738
_symmetry_Int_Tables_number   1
_chemical_formula_structural   Lu8In2RuPt
_chemical_formula_sum   'Lu16 In4 Ru2 Pt2'
_cell_volume   601.47783312
_cell_formula_units_Z   2
loop_
 _symmetry_equiv_pos_site_id
 _symmetry_equiv_pos_as_xyz
  1  'x, y, z'
loop_
 _atom_site_type_symbol
 _atom_site_label
 _atom_site_symmetry_multiplicity
 _atom_site_fract_x
 _atom_site_fract_y
 _atom_site_fract_z
 _atom_site_occupancy
  Lu  Lu0  1  0.599599  0.599599  0.603564  1
  Lu  Lu1  1  0.599599  0.599599  0.197239  1
  Lu  Lu2  1  0.597570  0.199687  0.601372  1
  Lu  Lu3  1  0.199687  0.597570  0.601372  1
  Lu  Lu4  1  0.065225  0.438586  0.439411  1
  Lu  Lu5  1  0.438586  0.065225  0.056778  1
  Lu  Lu6  1  0.438586  0.065225  0.439411  1
  Lu  Lu7  1  0.065225  0.438586  0.056778  1
  Lu  Lu8  1  0.438636  0.438636  0.061364  1
  Lu  Lu9  1  0.059401  0.059401  0.440599  1
  Lu  Lu10  1  0.188273  0.808917  0.813680  1
  Lu  Lu11  1  0.808917  0.188273  0.189129  1
  Lu  Lu12  1  0.808917  0.188273  0.813680  1
  Lu  Lu13  1  0.188273  0.808917  0.189129  1
  Lu  Lu14  1  0.812464  0.812464  0.187536  1
  Lu  Lu15  1  0.190500  0.190500  0.809500  1
  In  In16  1  0.833567  0.833567  0.833564  1
  In  In17  1  0.833567  0.833567  0.499303  1
  In  In18  1  0.833637  0.498979  0.833692  1
  In  In19  1  0.498979  0.833637  0.833692  1
  Ru  Ru20  1  0.392724  0.392724  0.392445  1
  Ru  Ru21  1  0.392724  0.392724  0.822105  1
  Pt  Pt22  1  0.392977  0.822366  0.392328  1
  Pt  Pt23  1  0.822366  0.392977  0.392328  1
