# generated using pymatgen
data_LiLa5AlIr3
_symmetry_space_group_name_H-M   'P 1'
_cell_length_a   8.75919783
_cell_length_b   8.75919861
_cell_length_c   8.67569120
_cell_angle_alpha   109.58391294
_cell_angle_beta   109.37017512
_cell_angle_gamma   109.84644386
_symmetry_Int_Tables_number   1
_chemical_formula_structural   LiLa5AlIr3
_chemical_formula_sum   'Li2 La10 Al2 Ir6'
_cell_volume   509.93435197
_cell_formula_units_Z   2
loop_
 _symmetry_equiv_pos_site_id
 _symmetry_equiv_pos_as_xyz
  1  'x, y, z'
loop_
 _atom_site_type_symbol
 _atom_site_label
 _atom_site_symmetry_multiplicity
 _atom_site_fract_x
 _atom_site_fract_y
 _atom_site_fract_z
 _atom_site_occupancy
  Li  Li0  1  0.499714  0.002068  0.913484  1
  Li  Li1  1  0.588585  0.586230  0.586516  1
  La  La2  1  0.247773  0.681722  0.437686  1
  La  La3  1  0.744037  0.810089  0.062315  1
  La  La4  1  0.435298  0.251576  0.686952  1
  La  La5  1  0.688130  0.438131  0.250000  1
  La  La6  1  0.064624  0.748344  0.813048  1
  La  La7  1  0.815588  0.065588  0.750000  1
  La  La8  1  0.216248  0.213654  0.214660  1
  La  La9  1  0.498995  0.001588  0.285340  1
  La  La10  1  0.283840  0.501484  0.001754  1
  La  La11  1  0.999728  0.282085  0.498247  1
  Al  Al12  1  0.906824  0.502079  0.002872  1
  Al  Al13  1  0.999205  0.903951  0.497129  1
  Ir  Ir14  1  0.237493  0.125789  0.863189  1
  Ir  Ir15  1  0.762599  0.374301  0.636810  1
  Ir  Ir16  1  0.892745  0.265959  0.128304  1
  Ir  Ir17  1  0.115524  0.865524  0.250001  1
  Ir  Ir18  1  0.637652  0.764440  0.371695  1
  Ir  Ir19  1  0.365401  0.615401  0.750000  1
