# generated using pymatgen
data_Tb2Sm3(TcB3)2
_symmetry_space_group_name_H-M   'P 1'
_cell_length_a   8.71445181
_cell_length_b   8.71445184
_cell_length_c   8.71445200
_cell_angle_alpha   37.31656804
_cell_angle_beta   37.31656780
_cell_angle_gamma   37.31656034
_symmetry_Int_Tables_number   1
_chemical_formula_structural   Tb2Sm3(TcB3)2
_chemical_formula_sum   'Tb2 Sm3 Tc2 B6'
_cell_volume   218.04276646
_cell_formula_units_Z   1
loop_
 _symmetry_equiv_pos_site_id
 _symmetry_equiv_pos_as_xyz
  1  'x, y, z'
loop_
 _atom_site_type_symbol
 _atom_site_label
 _atom_site_symmetry_multiplicity
 _atom_site_fract_x
 _atom_site_fract_y
 _atom_site_fract_z
 _atom_site_occupancy
  Tb  Tb0  1  0.579069  0.579069  0.579069  1
  Tb  Tb1  1  0.420931  0.420931  0.420931  1
  Sm  Sm2  1  0.751081  0.751081  0.751081  1
  Sm  Sm3  1  0.248919  0.248919  0.248919  1
  Sm  Sm4  1  0.000000  0.000000  0.000000  1
  Tc  Tc5  1  0.887404  0.887404  0.887404  1
  Tc  Tc6  1  0.112596  0.112596  0.112596  1
  B  B7  1  0.500000  0.830783  0.169217  1
  B  B8  1  0.169217  0.500000  0.830783  1
  B  B9  1  0.830783  0.169217  0.500000  1
  B  B10  1  0.500000  0.169217  0.830783  1
  B  B11  1  0.830783  0.500000  0.169217  1
  B  B12  1  0.169217  0.830783  0.500000  1
