# generated using pymatgen
data_CrNiSb12RuPt
_symmetry_space_group_name_H-M   'P 1'
_cell_length_a   8.09805326
_cell_length_b   8.13497560
_cell_length_c   9.38322902
_cell_angle_alpha   54.88207357
_cell_angle_beta   55.11859489
_cell_angle_gamma   70.95679929
_symmetry_Int_Tables_number   1
_chemical_formula_structural   CrNiSb12RuPt
_chemical_formula_sum   'Cr1 Ni1 Sb12 Ru1 Pt1'
_cell_volume   414.77781147
_cell_formula_units_Z   1
loop_
 _symmetry_equiv_pos_site_id
 _symmetry_equiv_pos_as_xyz
  1  'x, y, z'
loop_
 _atom_site_type_symbol
 _atom_site_label
 _atom_site_symmetry_multiplicity
 _atom_site_fract_x
 _atom_site_fract_y
 _atom_site_fract_z
 _atom_site_occupancy
  Cr  Cr0  1  0.500000  0.000000  0.000000  1
  Ni  Ni1  1  0.500000  0.000000  0.500000  1
  Sb  Sb2  1  0.154036  0.158220  0.180088  1
  Sb  Sb3  1  0.845964  0.841780  0.819912  1
  Sb  Sb4  1  0.838572  0.851667  0.497763  1
  Sb  Sb5  1  0.161428  0.148333  0.502237  1
  Sb  Sb6  1  0.812458  0.506614  0.334832  1
  Sb  Sb7  1  0.187542  0.493386  0.665168  1
  Sb  Sb8  1  0.504612  0.818281  0.342790  1
  Sb  Sb9  1  0.495388  0.181719  0.657210  1
  Sb  Sb10  1  0.654441  0.341248  0.848134  1
  Sb  Sb11  1  0.345559  0.658752  0.151866  1
  Sb  Sb12  1  0.661757  0.334177  0.158536  1
  Sb  Sb13  1  0.338243  0.665823  0.841464  1
  Ru  Ru14  1  0.000000  0.500000  0.000000  1
  Pt  Pt15  1  0.000000  0.500000  0.500000  1
