# generated using pymatgen
data_Nd2Eu6Si12Pd3Au
_symmetry_space_group_name_H-M   'P 1'
_cell_length_a   8.35809200
_cell_length_b   8.35809237
_cell_length_c   8.69223000
_cell_angle_alpha   89.99998629
_cell_angle_beta   90.00001371
_cell_angle_gamma   119.99999063
_symmetry_Int_Tables_number   1
_chemical_formula_structural   Nd2Eu6Si12Pd3Au
_chemical_formula_sum   'Nd2 Eu6 Si12 Pd3 Au1'
_cell_volume   525.86733598
_cell_formula_units_Z   1
loop_
 _symmetry_equiv_pos_site_id
 _symmetry_equiv_pos_as_xyz
  1  'x, y, z'
loop_
 _atom_site_type_symbol
 _atom_site_label
 _atom_site_symmetry_multiplicity
 _atom_site_fract_x
 _atom_site_fract_y
 _atom_site_fract_z
 _atom_site_occupancy
  Nd  Nd0  1  0.000000  0.000000  0.748766  1
  Nd  Nd1  1  0.000000  0.000000  0.251273  1
  Eu  Eu2  1  0.497882  0.502118  0.746757  1
  Eu  Eu3  1  0.499121  0.500879  0.253201  1
  Eu  Eu4  1  0.004236  0.502118  0.746757  1
  Eu  Eu5  1  0.001758  0.500879  0.253201  1
  Eu  Eu6  1  0.497882  0.995763  0.746757  1
  Eu  Eu7  1  0.499121  0.998242  0.253201  1
  Si  Si8  1  0.839117  0.160883  0.999408  1
  Si  Si9  1  0.165749  0.834251  0.000661  1
  Si  Si10  1  0.321766  0.160884  0.999408  1
  Si  Si11  1  0.163928  0.836072  0.499344  1
  Si  Si12  1  0.668503  0.834251  0.000661  1
  Si  Si13  1  0.835478  0.164522  0.500761  1
  Si  Si14  1  0.839117  0.678234  0.999408  1
  Si  Si15  1  0.672146  0.836072  0.499344  1
  Si  Si16  1  0.165749  0.331497  0.000661  1
  Si  Si17  1  0.329045  0.164522  0.500761  1
  Si  Si18  1  0.163928  0.327854  0.499344  1
  Si  Si19  1  0.835478  0.670955  0.500761  1
  Pd  Pd20  1  0.333333  0.666667  0.001044  1
  Pd  Pd21  1  0.333333  0.666667  0.498806  1
  Pd  Pd22  1  0.666667  0.333333  0.501439  1
  Au  Au23  1  0.666667  0.333333  0.998275  1
