# generated using pymatgen
data_Lu7Hf9(Si4W)4
_symmetry_space_group_name_H-M   'P 1'
_cell_length_a   7.08357518
_cell_length_b   7.08126344
_cell_length_c   12.91153395
_cell_angle_alpha   90.10990326
_cell_angle_beta   89.99698063
_cell_angle_gamma   89.97412198
_symmetry_Int_Tables_number   1
_chemical_formula_structural   Lu7Hf9(Si4W)4
_chemical_formula_sum   'Lu7 Hf9 Si16 W4'
_cell_volume   647.64983091
_cell_formula_units_Z   1
loop_
 _symmetry_equiv_pos_site_id
 _symmetry_equiv_pos_as_xyz
  1  'x, y, z'
loop_
 _atom_site_type_symbol
 _atom_site_label
 _atom_site_symmetry_multiplicity
 _atom_site_fract_x
 _atom_site_fract_y
 _atom_site_fract_z
 _atom_site_occupancy
  Lu  Lu0  1  0.498324  0.155328  0.532413  1
  Lu  Lu1  1  0.501580  0.845400  0.033377  1
  Lu  Lu2  1  0.656292  0.002621  0.282316  1
  Lu  Lu3  1  0.345032  0.998204  0.783233  1
  Lu  Lu4  1  0.844672  0.501497  0.967497  1
  Lu  Lu5  1  0.154511  0.498380  0.467463  1
  Lu  Lu6  1  0.001671  0.655050  0.717005  1
  Hf  Hf7  1  0.002445  0.346583  0.216841  1
  Hf  Hf8  1  0.493926  0.354448  0.125470  1
  Hf  Hf9  1  0.505246  0.645172  0.624317  1
  Hf  Hf10  1  0.854558  0.006577  0.875671  1
  Hf  Hf11  1  0.143843  0.994792  0.373341  1
  Hf  Hf12  1  0.645854  0.504154  0.374232  1
  Hf  Hf13  1  0.354392  0.494484  0.876175  1
  Hf  Hf14  1  0.004959  0.855296  0.126237  1
  Hf  Hf15  1  0.993861  0.145711  0.624839  1
  Si  Si16  1  0.800727  0.146216  0.071775  1
  Si  Si17  1  0.202126  0.857015  0.568276  1
  Si  Si18  1  0.643122  0.702048  0.818491  1
  Si  Si19  1  0.353026  0.299265  0.318019  1
  Si  Si20  1  0.857601  0.203964  0.429408  1
  Si  Si21  1  0.142747  0.797380  0.931825  1
  Si  Si22  1  0.705323  0.641054  0.180556  1
  Si  Si23  1  0.298087  0.356759  0.681362  1
  Si  Si24  1  0.549803  0.201632  0.933687  1
  Si  Si25  1  0.450325  0.798338  0.432921  1
  Si  Si26  1  0.701159  0.950688  0.683252  1
  Si  Si27  1  0.297810  0.050492  0.183230  1
  Si  Si28  1  0.798795  0.450958  0.566334  1
  Si  Si29  1  0.199728  0.547930  0.067748  1
  Si  Si30  1  0.951920  0.697362  0.315887  1
  Si  Si31  1  0.049481  0.298742  0.816663  1
  W  W32  1  0.676143  0.323585  0.749928  1
  W  W33  1  0.321692  0.673614  0.249926  1
  W  W34  1  0.824243  0.822717  0.499118  1
  W  W35  1  0.174974  0.176547  0.001169  1
