# generated using pymatgen
data_YbTh2U(Al3Ir)6
_symmetry_space_group_name_H-M   'P 1'
_cell_length_a   7.62841503
_cell_length_b   7.63569048
_cell_length_c   9.42137600
_cell_angle_alpha   90.00000000
_cell_angle_beta   90.00000000
_cell_angle_gamma   119.51080357
_symmetry_Int_Tables_number   1
_chemical_formula_structural   YbTh2U(Al3Ir)6
_chemical_formula_sum   'Yb1 Th2 U1 Al18 Ir6'
_cell_volume   477.58139507
_cell_formula_units_Z   1
loop_
 _symmetry_equiv_pos_site_id
 _symmetry_equiv_pos_as_xyz
  1  'x, y, z'
loop_
 _atom_site_type_symbol
 _atom_site_label
 _atom_site_symmetry_multiplicity
 _atom_site_fract_x
 _atom_site_fract_y
 _atom_site_fract_z
 _atom_site_occupancy
  Yb  Yb0  1  0.327781  0.006436  0.750000  1
  Th  Th1  1  0.995853  0.672910  0.250000  1
  Th  Th2  1  0.669482  0.993465  0.250000  1
  U  U3  1  0.997613  0.325809  0.750000  1
  Al  Al4  1  0.135550  0.133254  0.250000  1
  Al  Al5  1  0.870236  0.873695  0.750000  1
  Al  Al6  1  0.006263  0.335782  0.070557  1
  Al  Al7  1  0.002511  0.667126  0.917155  1
  Al  Al8  1  0.002511  0.667126  0.582845  1
  Al  Al9  1  0.335685  0.005735  0.432328  1
  Al  Al10  1  0.006263  0.335782  0.429443  1
  Al  Al11  1  0.660576  0.997477  0.582747  1
  Al  Al12  1  0.660576  0.997477  0.917253  1
  Al  Al13  1  0.335685  0.005735  0.067672  1
  Al  Al14  1  0.333165  0.332452  0.557525  1
  Al  Al15  1  0.663810  0.663000  0.457095  1
  Al  Al16  1  0.663810  0.663000  0.042905  1
  Al  Al17  1  0.333165  0.332452  0.942475  1
  Al  Al18  1  0.342553  0.544277  0.250000  1
  Al  Al19  1  0.661561  0.450980  0.750000  1
  Al  Al20  1  0.545450  0.339842  0.250000  1
  Al  Al21  1  0.444539  0.652392  0.750000  1
  Ir  Ir22  1  0.676395  0.328914  0.998266  1
  Ir  Ir23  1  0.327523  0.671549  0.000121  1
  Ir  Ir24  1  0.327523  0.671549  0.499879  1
  Ir  Ir25  1  0.676395  0.328914  0.501734  1
  Ir  Ir26  1  0.998763  0.001435  0.998719  1
  Ir  Ir27  1  0.998763  0.001435  0.501281  1
