# generated using pymatgen
data_Ba4Ti3NbO12
_symmetry_space_group_name_H-M   'P 1'
_cell_length_a   9.97417853
_cell_length_b   9.97417890
_cell_length_c   9.97417901
_cell_angle_alpha   33.55155315
_cell_angle_beta   33.55154842
_cell_angle_gamma   33.55154842
_symmetry_Int_Tables_number   1
_chemical_formula_structural   Ba4Ti3NbO12
_chemical_formula_sum   'Ba4 Ti3 Nb1 O12'
_cell_volume   269.97826582
_cell_formula_units_Z   1
loop_
 _symmetry_equiv_pos_site_id
 _symmetry_equiv_pos_as_xyz
  1  'x, y, z'
loop_
 _atom_site_type_symbol
 _atom_site_label
 _atom_site_symmetry_multiplicity
 _atom_site_fract_x
 _atom_site_fract_y
 _atom_site_fract_z
 _atom_site_occupancy
  Ba  Ba0  1  0.374151  0.374151  0.374151  1
  Ba  Ba1  1  0.124018  0.124018  0.124018  1
  Ba  Ba2  1  0.875982  0.875982  0.875982  1
  Ba  Ba3  1  0.625849  0.625849  0.625849  1
  Ti  Ti4  1  0.252441  0.252441  0.252441  1
  Ti  Ti5  1  0.000000  0.000000  0.000000  1
  Ti  Ti6  1  0.747559  0.747559  0.747559  1
  Nb  Nb7  1  0.500000  0.500000  0.500000  1
  O  O8  1  0.125222  0.624520  0.125222  1
  O  O9  1  0.874778  0.375480  0.874778  1
  O  O10  1  0.625589  0.123267  0.625589  1
  O  O11  1  0.374411  0.876733  0.374411  1
  O  O12  1  0.874778  0.874778  0.375480  1
  O  O13  1  0.625589  0.625589  0.123267  1
  O  O14  1  0.374411  0.374411  0.876733  1
  O  O15  1  0.125222  0.125222  0.624520  1
  O  O16  1  0.375480  0.874778  0.874778  1
  O  O17  1  0.123267  0.625589  0.625589  1
  O  O18  1  0.876733  0.374411  0.374411  1
  O  O19  1  0.624520  0.125222  0.125222  1
