# generated using pymatgen
data_Ba8Si12HgAu3
_symmetry_space_group_name_H-M   'P 1'
_cell_length_a   12.55609491
_cell_length_b   10.97583893
_cell_length_c   8.58362599
_cell_angle_alpha   78.83299011
_cell_angle_beta   59.23228633
_cell_angle_gamma   42.11949824
_symmetry_Int_Tables_number   1
_chemical_formula_structural   Ba8Si12HgAu3
_chemical_formula_sum   'Ba8 Si12 Hg1 Au3'
_cell_volume   645.31034164
_cell_formula_units_Z   1
loop_
 _symmetry_equiv_pos_site_id
 _symmetry_equiv_pos_as_xyz
  1  'x, y, z'
loop_
 _atom_site_type_symbol
 _atom_site_label
 _atom_site_symmetry_multiplicity
 _atom_site_fract_x
 _atom_site_fract_y
 _atom_site_fract_z
 _atom_site_occupancy
  Ba  Ba0  1  0.129470  0.126195  0.369206  1
  Ba  Ba1  1  0.874477  0.871882  0.128418  1
  Ba  Ba2  1  0.128418  0.125224  0.874477  1
  Ba  Ba3  1  0.369206  0.375130  0.129470  1
  Ba  Ba4  1  0.624966  0.624917  0.374504  1
  Ba  Ba5  1  0.374504  0.375612  0.624966  1
  Ba  Ba6  1  0.625781  0.630512  0.873516  1
  Ba  Ba7  1  0.873516  0.870190  0.625781  1
  Si  Si8  1  0.334622  0.660327  0.829156  1
  Si  Si9  1  0.188106  0.816701  0.654421  1
  Si  Si10  1  0.829156  0.175894  0.334622  1
  Si  Si11  1  0.654421  0.340772  0.188106  1
  Si  Si12  1  0.912577  0.590607  0.425970  1
  Si  Si13  1  0.069736  0.423682  0.592257  1
  Si  Si14  1  0.425970  0.070846  0.912577  1
  Si  Si15  1  0.911776  0.588224  0.911776  1
  Si  Si16  1  0.657617  0.342383  0.657617  1
  Si  Si17  1  0.336189  0.663811  0.336189  1
  Si  Si18  1  0.588045  0.911955  0.588045  1
  Si  Si19  1  0.592257  0.914327  0.069736  1
  Hg  Hg20  1  0.833271  0.166729  0.833271  1
  Au  Au21  1  0.083290  0.416710  0.083290  1
  Au  Au22  1  0.166173  0.833827  0.166173  1
  Au  Au23  1  0.416455  0.083545  0.416455  1
