# generated using pymatgen
data_Dy4CrFeC4
_symmetry_space_group_name_H-M   'P 1'
_cell_length_a   5.05088100
_cell_length_b   6.35579463
_cell_length_c   9.70372674
_cell_angle_alpha   89.65232944
_cell_angle_beta   90.00000000
_cell_angle_gamma   90.00000000
_symmetry_Int_Tables_number   1
_chemical_formula_structural   Dy4CrFeC4
_chemical_formula_sum   'Dy8 Cr2 Fe2 C8'
_cell_volume   311.50681672
_cell_formula_units_Z   2
loop_
 _symmetry_equiv_pos_site_id
 _symmetry_equiv_pos_as_xyz
  1  'x, y, z'
loop_
 _atom_site_type_symbol
 _atom_site_label
 _atom_site_symmetry_multiplicity
 _atom_site_fract_x
 _atom_site_fract_y
 _atom_site_fract_z
 _atom_site_occupancy
  Dy  Dy0  1  0.250000  0.681120  0.554782  1
  Dy  Dy1  1  0.750000  0.318880  0.445218  1
  Dy  Dy2  1  0.750000  0.816614  0.055805  1
  Dy  Dy3  1  0.250000  0.183386  0.944195  1
  Dy  Dy4  1  0.250000  0.527931  0.215596  1
  Dy  Dy5  1  0.750000  0.472069  0.784404  1
  Dy  Dy6  1  0.750000  0.976127  0.713231  1
  Dy  Dy7  1  0.250000  0.023873  0.286769  1
  Cr  Cr8  1  0.250000  0.726807  0.857625  1
  Cr  Cr9  1  0.750000  0.273193  0.142375  1
  Fe  Fe10  1  0.750000  0.771747  0.357983  1
  Fe  Fe11  1  0.250000  0.228253  0.642017  1
  C  C12  1  0.250000  0.460928  0.758955  1
  C  C13  1  0.750000  0.539072  0.241045  1
  C  C14  1  0.750000  0.036469  0.260421  1
  C  C15  1  0.250000  0.963531  0.739579  1
  C  C16  1  0.250000  0.809757  0.038088  1
  C  C17  1  0.750000  0.190243  0.961912  1
  C  C18  1  0.750000  0.689461  0.534830  1
  C  C19  1  0.250000  0.310539  0.465170  1
