# generated using pymatgen
data_Ho12In2Fe2Tc
_symmetry_space_group_name_H-M   'P 1'
_cell_length_a   8.33166162
_cell_length_b   8.33166127
_cell_length_c   8.33166216
_cell_angle_alpha   108.91585252
_cell_angle_beta   108.91586009
_cell_angle_gamma   110.58776496
_symmetry_Int_Tables_number   1
_chemical_formula_structural   Ho12In2Fe2Tc
_chemical_formula_sum   'Ho12 In2 Fe2 Tc1'
_cell_volume   445.09112230
_cell_formula_units_Z   1
loop_
 _symmetry_equiv_pos_site_id
 _symmetry_equiv_pos_as_xyz
  1  'x, y, z'
loop_
 _atom_site_type_symbol
 _atom_site_label
 _atom_site_symmetry_multiplicity
 _atom_site_fract_x
 _atom_site_fract_y
 _atom_site_fract_z
 _atom_site_occupancy
  Ho  Ho0  1  0.193139  0.432303  0.239164  1
  Ho  Ho1  1  0.806861  0.567697  0.760836  1
  Ho  Ho2  1  0.193139  0.953976  0.760836  1
  Ho  Ho3  1  0.953976  0.193139  0.760836  1
  Ho  Ho4  1  0.806861  0.046024  0.239164  1
  Ho  Ho5  1  0.046024  0.806861  0.239164  1
  Ho  Ho6  1  0.432303  0.193139  0.239164  1
  Ho  Ho7  1  0.567697  0.806861  0.760836  1
  Ho  Ho8  1  0.307110  0.307110  0.614220  1
  Ho  Ho9  1  0.692890  0.692890  0.385780  1
  Ho  Ho10  1  0.692890  0.307110  0.000000  1
  Ho  Ho11  1  0.307110  0.692890  0.000000  1
  In  In12  1  0.000000  0.500000  0.500000  1
  In  In13  1  0.500000  0.000000  0.500000  1
  Fe  Fe14  1  0.384308  0.384308  0.000000  1
  Fe  Fe15  1  0.615692  0.615692  0.000000  1
  Tc  Tc16  1  0.000000  0.000000  0.000000  1
