# generated using pymatgen
data_Tb2MnPdF14
_symmetry_space_group_name_H-M   'P 1'
_cell_length_a   5.49840876
_cell_length_b   8.83157216
_cell_length_c   11.88375585
_cell_angle_alpha   62.34708874
_cell_angle_beta   89.77493092
_cell_angle_gamma   89.89723433
_symmetry_Int_Tables_number   1
_chemical_formula_structural   Tb2MnPdF14
_chemical_formula_sum   'Tb4 Mn2 Pd2 F28'
_cell_volume   511.15075766
_cell_formula_units_Z   2
loop_
 _symmetry_equiv_pos_site_id
 _symmetry_equiv_pos_as_xyz
  1  'x, y, z'
loop_
 _atom_site_type_symbol
 _atom_site_label
 _atom_site_symmetry_multiplicity
 _atom_site_fract_x
 _atom_site_fract_y
 _atom_site_fract_z
 _atom_site_occupancy
  Tb  Tb0  1  0.262742  0.809142  0.268047  1
  Tb  Tb1  1  0.737258  0.190858  0.731953  1
  Tb  Tb2  1  0.761095  0.185341  0.239870  1
  Tb  Tb3  1  0.238905  0.814659  0.760130  1
  Mn  Mn4  1  0.258057  0.274018  0.457234  1
  Mn  Mn5  1  0.741943  0.725982  0.542766  1
  Pd  Pd6  1  0.759288  0.726798  0.042879  1
  Pd  Pd7  1  0.240712  0.273202  0.957121  1
  F  F8  1  0.936008  0.707416  0.423702  1
  F  F9  1  0.063992  0.292584  0.576298  1
  F  F10  1  0.430552  0.297193  0.085732  1
  F  F11  1  0.569448  0.702807  0.914268  1
  F  F12  1  0.464110  0.723288  0.135053  1
  F  F13  1  0.535890  0.276712  0.864947  1
  F  F14  1  0.986101  0.268815  0.368832  1
  F  F15  1  0.013899  0.731185  0.631168  1
  F  F16  1  0.944523  0.741678  0.177603  1
  F  F17  1  0.055477  0.258322  0.822397  1
  F  F18  1  0.449928  0.256990  0.334983  1
  F  F19  1  0.550072  0.743010  0.665017  1
  F  F20  1  0.773240  0.478836  0.143746  1
  F  F21  1  0.226760  0.521164  0.856254  1
  F  F22  1  0.268982  0.509015  0.364897  1
  F  F23  1  0.731018  0.490985  0.635103  1
  F  F24  1  0.939390  0.279747  0.041664  1
  F  F25  1  0.060610  0.720253  0.958336  1
  F  F26  1  0.461024  0.717076  0.459492  1
  F  F27  1  0.538976  0.282924  0.540508  1
  F  F28  1  0.740376  0.960730  0.452789  1
  F  F29  1  0.259624  0.039270  0.547211  1
  F  F30  1  0.242472  0.025666  0.049948  1
  F  F31  1  0.757528  0.974334  0.950052  1
  F  F32  1  0.590607  0.968725  0.230251  1
  F  F33  1  0.409393  0.031275  0.769749  1
  F  F34  1  0.093328  0.030583  0.271552  1
  F  F35  1  0.906672  0.969417  0.728448  1
