# generated using pymatgen
data_ErTm7Ti4O20
_symmetry_space_group_name_H-M   'P 1'
_cell_length_a   3.65678200
_cell_length_b   10.29708817
_cell_length_c   11.22267916
_cell_angle_alpha   89.97992011
_cell_angle_beta   90.00000000
_cell_angle_gamma   90.00000000
_symmetry_Int_Tables_number   1
_chemical_formula_structural   ErTm7Ti4O20
_chemical_formula_sum   'Er1 Tm7 Ti4 O20'
_cell_volume   422.58105454
_cell_formula_units_Z   1
loop_
 _symmetry_equiv_pos_site_id
 _symmetry_equiv_pos_as_xyz
  1  'x, y, z'
loop_
 _atom_site_type_symbol
 _atom_site_label
 _atom_site_symmetry_multiplicity
 _atom_site_fract_x
 _atom_site_fract_y
 _atom_site_fract_z
 _atom_site_occupancy
  Er  Er0  1  0.750000  0.882365  0.724419  1
  Tm  Tm1  1  0.250000  0.118030  0.275487  1
  Tm  Tm2  1  0.250000  0.135996  0.944569  1
  Tm  Tm3  1  0.750000  0.364450  0.444092  1
  Tm  Tm4  1  0.750000  0.381773  0.775620  1
  Tm  Tm5  1  0.250000  0.618122  0.224495  1
  Tm  Tm6  1  0.250000  0.635436  0.555492  1
  Tm  Tm7  1  0.750000  0.864431  0.055845  1
  Ti  Ti8  1  0.250000  0.172833  0.618265  1
  Ti  Ti9  1  0.750000  0.327707  0.118692  1
  Ti  Ti10  1  0.250000  0.672060  0.881724  1
  Ti  Ti11  1  0.750000  0.827598  0.381179  1
  O  O12  1  0.750000  0.007456  0.895628  1
  O  O13  1  0.250000  0.003788  0.653524  1
  O  O14  1  0.250000  0.224153  0.454811  1
  O  O15  1  0.750000  0.245343  0.271780  1
  O  O16  1  0.750000  0.239644  0.615610  1
  O  O17  1  0.250000  0.260541  0.115796  1
  O  O18  1  0.250000  0.254499  0.771824  1
  O  O19  1  0.750000  0.276354  0.955113  1
  O  O20  1  0.750000  0.496634  0.154827  1
  O  O21  1  0.250000  0.492990  0.394772  1
  O  O22  1  0.750000  0.506570  0.605209  1
  O  O23  1  0.250000  0.503114  0.845931  1
  O  O24  1  0.250000  0.724143  0.045068  1
  O  O25  1  0.750000  0.745414  0.228092  1
  O  O26  1  0.750000  0.739377  0.884828  1
  O  O27  1  0.250000  0.760506  0.384044  1
  O  O28  1  0.250000  0.753395  0.728124  1
  O  O29  1  0.750000  0.775349  0.544409  1
  O  O30  1  0.750000  0.996671  0.345398  1
  O  O31  1  0.250000  0.993257  0.105333  1
