# generated using pymatgen
data_Y20(OsAu3)3
_symmetry_space_group_name_H-M   'P 1'
_cell_length_a   11.34750600
_cell_length_b   11.34750600
_cell_length_c   6.43729600
_cell_angle_alpha   90.00000000
_cell_angle_beta   90.00000000
_cell_angle_gamma   90.00000000
_symmetry_Int_Tables_number   1
_chemical_formula_structural   Y20(OsAu3)3
_chemical_formula_sum   'Y20 Os3 Au9'
_cell_volume   828.90416421
_cell_formula_units_Z   1
loop_
 _symmetry_equiv_pos_site_id
 _symmetry_equiv_pos_as_xyz
  1  'x, y, z'
loop_
 _atom_site_type_symbol
 _atom_site_label
 _atom_site_symmetry_multiplicity
 _atom_site_fract_x
 _atom_site_fract_y
 _atom_site_fract_z
 _atom_site_occupancy
  Y  Y0  1  0.301343  0.083393  0.354340  1
  Y  Y1  1  0.301986  0.917595  0.855497  1
  Y  Y2  1  0.698014  0.082405  0.855497  1
  Y  Y3  1  0.698657  0.916607  0.354340  1
  Y  Y4  1  0.582405  0.801986  0.855497  1
  Y  Y5  1  0.583393  0.198657  0.354340  1
  Y  Y6  1  0.416607  0.801343  0.354340  1
  Y  Y7  1  0.417595  0.198014  0.855497  1
  Y  Y8  1  0.205093  0.415519  0.655347  1
  Y  Y9  1  0.204292  0.584078  0.134830  1
  Y  Y10  1  0.795708  0.415922  0.134830  1
  Y  Y11  1  0.794907  0.584481  0.655347  1
  Y  Y12  1  0.915922  0.704292  0.134830  1
  Y  Y13  1  0.915519  0.294907  0.655347  1
  Y  Y14  1  0.084481  0.705093  0.655347  1
  Y  Y15  1  0.084078  0.295708  0.134830  1
  Y  Y16  1  0.000000  0.000000  0.497248  1
  Y  Y17  1  0.000000  0.000000  0.997695  1
  Y  Y18  1  0.500000  0.500000  0.997695  1
  Y  Y19  1  0.500000  0.500000  0.497248  1
  Os  Os20  1  0.500000  0.000000  0.109061  1
  Os  Os21  1  0.500000  0.000000  0.607676  1
  Os  Os22  1  0.000000  0.500000  0.896120  1
  Au  Au23  1  0.846802  0.158585  0.249481  1
  Au  Au24  1  0.843498  0.846079  0.750045  1
  Au  Au25  1  0.156502  0.153921  0.750045  1
  Au  Au26  1  0.153198  0.841415  0.249481  1
  Au  Au27  1  0.653921  0.343498  0.750045  1
  Au  Au28  1  0.658585  0.653198  0.249481  1
  Au  Au29  1  0.341415  0.346802  0.249481  1
  Au  Au30  1  0.346079  0.656502  0.750045  1
  Au  Au31  1  0.000000  0.500000  0.399094  1
