# generated using pymatgen
data_Ca4Nd16Si15Ir
_symmetry_space_group_name_H-M   'P 1'
_cell_length_a   7.96617114
_cell_length_b   7.90514092
_cell_length_c   15.11269500
_cell_angle_alpha   89.99899254
_cell_angle_beta   89.89998263
_cell_angle_gamma   90.20156283
_symmetry_Int_Tables_number   1
_chemical_formula_structural   Ca4Nd16Si15Ir
_chemical_formula_sum   'Ca4 Nd16 Si15 Ir1'
_cell_volume   951.69506373
_cell_formula_units_Z   1
loop_
 _symmetry_equiv_pos_site_id
 _symmetry_equiv_pos_as_xyz
  1  'x, y, z'
loop_
 _atom_site_type_symbol
 _atom_site_label
 _atom_site_symmetry_multiplicity
 _atom_site_fract_x
 _atom_site_fract_y
 _atom_site_fract_z
 _atom_site_occupancy
  Ca  Ca0  1  0.310123  0.309634  0.999654  1
  Ca  Ca1  1  0.190301  0.809944  0.250739  1
  Ca  Ca2  1  0.813809  0.192303  0.747633  1
  Ca  Ca3  1  0.691517  0.690267  0.501922  1
  Nd  Nd4  1  0.376096  0.008704  0.450288  1
  Nd  Nd5  1  0.489361  0.881154  0.698143  1
  Nd  Nd6  1  0.509249  0.123803  0.199455  1
  Nd  Nd7  1  0.876697  0.490370  0.301184  1
  Nd  Nd8  1  0.124660  0.502096  0.797327  1
  Nd  Nd9  1  0.623669  0.990254  0.948287  1
  Nd  Nd10  1  0.004761  0.373483  0.552181  1
  Nd  Nd11  1  0.990747  0.624342  0.050582  1
  Nd  Nd12  1  0.130413  0.991387  0.870953  1
  Nd  Nd13  1  0.514509  0.628502  0.125448  1
  Nd  Nd14  1  0.472904  0.361749  0.628177  1
  Nd  Nd15  1  0.626664  0.513379  0.874877  1
  Nd  Nd16  1  0.373353  0.485778  0.375227  1
  Nd  Nd17  1  0.875276  0.015094  0.376520  1
  Nd  Nd18  1  0.985938  0.123994  0.123921  1
  Nd  Nd19  1  0.024844  0.884492  0.626217  1
  Si  Si20  1  0.332221  0.698264  0.948158  1
  Si  Si21  1  0.662342  0.296271  0.448899  1
  Si  Si22  1  0.704090  0.335747  0.053268  1
  Si  Si23  1  0.300092  0.667027  0.549525  1
  Si  Si24  1  0.800528  0.833088  0.200647  1
  Si  Si25  1  0.165775  0.200362  0.299509  1
  Si  Si26  1  0.833345  0.799468  0.800550  1
  Si  Si27  1  0.286598  0.918589  0.058322  1
  Si  Si28  1  0.581073  0.786701  0.309874  1
  Si  Si29  1  0.427763  0.205724  0.813301  1
  Si  Si30  1  0.783492  0.583045  0.690154  1
  Si  Si31  1  0.211727  0.421395  0.190454  1
  Si  Si32  1  0.706851  0.076203  0.558551  1
  Si  Si33  1  0.920085  0.287986  0.941429  1
  Si  Si34  1  0.081650  0.715156  0.440292  1
  Ir  Ir35  1  0.197472  0.174247  0.698336  1
