# generated using pymatgen
data_Ho5Tm3(LuRu2)2
_symmetry_space_group_name_H-M   'P 1'
_cell_length_a   6.27306249
_cell_length_b   7.24331052
_cell_length_c   8.38725857
_cell_angle_alpha   96.91408776
_cell_angle_beta   111.98150596
_cell_angle_gamma   89.91974540
_symmetry_Int_Tables_number   1
_chemical_formula_structural   Ho5Tm3(LuRu2)2
_chemical_formula_sum   'Ho5 Tm3 Lu2 Ru4'
_cell_volume   350.42931169
_cell_formula_units_Z   1
loop_
 _symmetry_equiv_pos_site_id
 _symmetry_equiv_pos_as_xyz
  1  'x, y, z'
loop_
 _atom_site_type_symbol
 _atom_site_label
 _atom_site_symmetry_multiplicity
 _atom_site_fract_x
 _atom_site_fract_y
 _atom_site_fract_z
 _atom_site_occupancy
  Ho  Ho0  1  0.522727  0.083293  0.813076  1
  Ho  Ho1  1  0.478058  0.916226  0.186922  1
  Ho  Ho2  1  0.709125  0.416789  0.187179  1
  Ho  Ho3  1  0.290188  0.583745  0.812793  1
  Ho  Ho4  1  0.298159  0.313297  0.433107  1
  Tm  Tm5  1  0.702171  0.686553  0.567353  1
  Tm  Tm6  1  0.865445  0.186255  0.567083  1
  Tm  Tm7  1  0.134208  0.813597  0.433153  1
  Lu  Lu8  1  0.078987  0.250359  0.999678  1
  Lu  Lu9  1  0.920762  0.749595  0.999884  1
  Ru  Ru10  1  0.320469  0.577297  0.219976  1
  Ru  Ru11  1  0.680319  0.423252  0.780214  1
  Ru  Ru12  1  0.099981  0.923654  0.779555  1
  Ru  Ru13  1  0.899401  0.076087  0.220028  1
