# generated using pymatgen
data_TmSc11AlNi4Sn
_symmetry_space_group_name_H-M   'P 1'
_cell_length_a   7.82419593
_cell_length_b   7.82626214
_cell_length_c   7.82684193
_cell_angle_alpha   106.37219226
_cell_angle_beta   110.90537296
_cell_angle_gamma   111.20400451
_symmetry_Int_Tables_number   1
_chemical_formula_structural   TmSc11AlNi4Sn
_chemical_formula_sum   'Tm1 Sc11 Al1 Ni4 Sn1'
_cell_volume   368.02360332
_cell_formula_units_Z   1
loop_
 _symmetry_equiv_pos_site_id
 _symmetry_equiv_pos_as_xyz
  1  'x, y, z'
loop_
 _atom_site_type_symbol
 _atom_site_label
 _atom_site_symmetry_multiplicity
 _atom_site_fract_x
 _atom_site_fract_y
 _atom_site_fract_z
 _atom_site_occupancy
  Tm  Tm0  1  0.396648  0.212495  0.184059  1
  Sc  Sc1  1  0.709326  0.269428  0.974033  1
  Sc  Sc2  1  0.292405  0.725558  0.024003  1
  Sc  Sc3  1  0.709217  0.735162  0.439800  1
  Sc  Sc4  1  0.292437  0.268270  0.566663  1
  Sc  Sc5  1  0.801078  0.119365  0.321004  1
  Sc  Sc6  1  0.801139  0.479958  0.681594  1
  Sc  Sc7  1  0.199814  0.877227  0.678087  1
  Sc  Sc8  1  0.200054  0.522215  0.322777  1
  Sc  Sc9  1  0.599700  0.785165  0.814556  1
  Sc  Sc10  1  0.970043  0.786198  0.183862  1
  Sc  Sc11  1  0.029563  0.215346  0.814146  1
  Al  Al12  1  0.506032  0.504855  0.001020  1
  Ni  Ni13  1  0.854274  0.503089  0.351233  1
  Ni  Ni14  1  0.148494  0.500004  0.648256  1
  Ni  Ni15  1  0.994596  0.127573  0.126110  1
  Ni  Ni16  1  0.994469  0.868399  0.867994  1
  Sn  Sn17  1  0.500712  0.999694  0.500803  1
