# generated using pymatgen
data_TbDyMgNi7B2
_symmetry_space_group_name_H-M   'P 1'
_cell_length_a   4.98518201
_cell_length_b   4.97986322
_cell_length_c   14.16402200
_cell_angle_alpha   90.00000000
_cell_angle_beta   90.00000000
_cell_angle_gamma   119.97008888
_symmetry_Int_Tables_number   1
_chemical_formula_structural   TbDyMgNi7B2
_chemical_formula_sum   'Tb2 Dy2 Mg2 Ni14 B4'
_cell_volume   304.61162773
_cell_formula_units_Z   2
loop_
 _symmetry_equiv_pos_site_id
 _symmetry_equiv_pos_as_xyz
  1  'x, y, z'
loop_
 _atom_site_type_symbol
 _atom_site_label
 _atom_site_symmetry_multiplicity
 _atom_site_fract_x
 _atom_site_fract_y
 _atom_site_fract_z
 _atom_site_occupancy
  Tb  Tb0  1  0.666782  0.333388  0.529629  1
  Tb  Tb1  1  0.333218  0.666612  0.029629  1
  Dy  Dy2  1  0.666635  0.333312  0.755339  1
  Dy  Dy3  1  0.333365  0.666688  0.255339  1
  Mg  Mg4  1  0.333279  0.666639  0.467844  1
  Mg  Mg5  1  0.666721  0.333361  0.967844  1
  Ni  Ni6  1  0.834677  0.669296  0.352916  1
  Ni  Ni7  1  0.330721  0.165365  0.352912  1
  Ni  Ni8  1  0.999935  0.999972  0.998848  1
  Ni  Ni9  1  0.000065  0.000028  0.498848  1
  Ni  Ni10  1  0.833745  0.166217  0.147314  1
  Ni  Ni11  1  0.667562  0.833777  0.647383  1
  Ni  Ni12  1  0.166254  0.332468  0.647304  1
  Ni  Ni13  1  0.833746  0.667532  0.147304  1
  Ni  Ni14  1  0.332438  0.166223  0.147383  1
  Ni  Ni15  1  0.669279  0.834635  0.852912  1
  Ni  Ni16  1  0.165323  0.330704  0.852916  1
  Ni  Ni17  1  0.166255  0.833783  0.647314  1
  Ni  Ni18  1  0.165340  0.834607  0.852916  1
  Ni  Ni19  1  0.834660  0.165393  0.352916  1
  B  B20  1  0.666711  0.333366  0.249889  1
  B  B21  1  0.333289  0.666634  0.749889  1
  B  B22  1  0.000024  0.000018  0.747706  1
  B  B23  1  0.999976  0.999982  0.247706  1
