# generated using pymatgen
data_CeCrH9
_symmetry_space_group_name_H-M   'P 1'
_cell_length_a   4.63859200
_cell_length_b   4.63859242
_cell_length_c   8.55912100
_cell_angle_alpha   90.00000000
_cell_angle_beta   90.00000000
_cell_angle_gamma   119.99999697
_symmetry_Int_Tables_number   1
_chemical_formula_structural   CeCrH9
_chemical_formula_sum   'Ce2 Cr2 H18'
_cell_volume   159.48953800
_cell_formula_units_Z   2
loop_
 _symmetry_equiv_pos_site_id
 _symmetry_equiv_pos_as_xyz
  1  'x, y, z'
loop_
 _atom_site_type_symbol
 _atom_site_label
 _atom_site_symmetry_multiplicity
 _atom_site_fract_x
 _atom_site_fract_y
 _atom_site_fract_z
 _atom_site_occupancy
  Ce  Ce0  1  0.000000  0.000000  0.000000  1
  Ce  Ce1  1  0.000000  0.000000  0.500000  1
  Cr  Cr2  1  0.333333  0.666667  0.250000  1
  Cr  Cr3  1  0.666667  0.333333  0.750000  1
  H  H4  1  0.478276  0.521724  0.383510  1
  H  H5  1  0.478276  0.956551  0.383510  1
  H  H6  1  0.043449  0.521724  0.383510  1
  H  H7  1  0.956551  0.478276  0.883510  1
  H  H8  1  0.135913  0.271826  0.250000  1
  H  H9  1  0.864087  0.135913  0.750000  1
  H  H10  1  0.271826  0.135913  0.750000  1
  H  H11  1  0.728174  0.864087  0.250000  1
  H  H12  1  0.135913  0.864087  0.250000  1
  H  H13  1  0.864087  0.728174  0.750000  1
  H  H14  1  0.478276  0.956551  0.116490  1
  H  H15  1  0.521724  0.478276  0.616490  1
  H  H16  1  0.956551  0.478276  0.616490  1
  H  H17  1  0.043449  0.521724  0.116490  1
  H  H18  1  0.478276  0.521724  0.116490  1
  H  H19  1  0.521724  0.043449  0.883510  1
  H  H20  1  0.521724  0.478276  0.883510  1
  H  H21  1  0.521724  0.043449  0.616490  1
