# generated using pymatgen
data_TbSmFe3P7Ru9
_symmetry_space_group_name_H-M   'P 1'
_cell_length_a   3.86267000
_cell_length_b   9.31612480
_cell_length_c   9.31789121
_cell_angle_alpha   119.99753761
_cell_angle_beta   90.00000000
_cell_angle_gamma   90.00000000
_symmetry_Int_Tables_number   1
_chemical_formula_structural   TbSmFe3P7Ru9
_chemical_formula_sum   'Tb1 Sm1 Fe3 P7 Ru9'
_cell_volume   290.39019410
_cell_formula_units_Z   1
loop_
 _symmetry_equiv_pos_site_id
 _symmetry_equiv_pos_as_xyz
  1  'x, y, z'
loop_
 _atom_site_type_symbol
 _atom_site_label
 _atom_site_symmetry_multiplicity
 _atom_site_fract_x
 _atom_site_fract_y
 _atom_site_fract_z
 _atom_site_occupancy
  Tb  Tb0  1  0.500000  0.333363  0.666676  1
  Sm  Sm1  1  0.000000  0.666666  0.333341  1
  Fe  Fe2  1  0.000000  0.889969  0.732811  1
  Fe  Fe3  1  0.000000  0.267091  0.157078  1
  Fe  Fe4  1  0.000000  0.842876  0.110102  1
  P  P5  1  0.000000  0.107868  0.695333  1
  P  P6  1  0.000000  0.304677  0.412586  1
  P  P7  1  0.000000  0.587416  0.892078  1
  P  P8  1  0.500000  0.719805  0.605632  1
  P  P9  1  0.500000  0.394415  0.114156  1
  P  P10  1  0.500000  0.885863  0.280255  1
  P  P11  1  0.000000  0.999966  0.999956  1
  Ru  Ru12  1  0.000000  0.360059  0.939456  1
  Ru  Ru13  1  0.000000  0.060573  0.420588  1
  Ru  Ru14  1  0.000000  0.579407  0.639959  1
  Ru  Ru15  1  0.500000  0.949520  0.563527  1
  Ru  Ru16  1  0.500000  0.436528  0.386023  1
  Ru  Ru17  1  0.500000  0.613951  0.050506  1
  Ru  Ru18  1  0.500000  0.115846  0.911794  1
  Ru  Ru19  1  0.500000  0.088196  0.204040  1
  Ru  Ru20  1  0.500000  0.795946  0.884105  1
