# generated using pymatgen
data_Yb2Ti(SnPd2)3
_symmetry_space_group_name_H-M   'P 1'
_cell_length_a   4.65942500
_cell_length_b   6.72913400
_cell_length_c   14.16377101
_cell_angle_alpha   89.99672281
_cell_angle_beta   90.00201143
_cell_angle_gamma   90.00248513
_symmetry_Int_Tables_number   1
_chemical_formula_structural   Yb2Ti(SnPd2)3
_chemical_formula_sum   'Yb4 Ti2 Sn6 Pd12'
_cell_volume   444.08939069
_cell_formula_units_Z   2
loop_
 _symmetry_equiv_pos_site_id
 _symmetry_equiv_pos_as_xyz
  1  'x, y, z'
loop_
 _atom_site_type_symbol
 _atom_site_label
 _atom_site_symmetry_multiplicity
 _atom_site_fract_x
 _atom_site_fract_y
 _atom_site_fract_z
 _atom_site_occupancy
  Yb  Yb0  1  0.000016  0.000000  0.995705  1
  Yb  Yb1  1  0.500198  0.500001  0.162744  1
  Yb  Yb2  1  0.000196  0.000000  0.337213  1
  Yb  Yb3  1  0.500004  0.499999  0.504313  1
  Ti  Ti4  1  0.999756  0.999999  0.673194  1
  Ti  Ti5  1  0.499737  0.500000  0.826824  1
  Sn  Sn6  1  0.000033  0.500001  0.996824  1
  Sn  Sn7  1  0.500357  0.000001  0.164852  1
  Sn  Sn8  1  0.000249  0.499999  0.335171  1
  Sn  Sn9  1  0.500056  0.999999  0.503259  1
  Sn  Sn10  1  0.999700  0.499996  0.665046  1
  Sn  Sn11  1  0.499684  0.000000  0.834879  1
  Pd  Pd12  1  0.500031  0.273955  0.982737  1
  Pd  Pd13  1  0.500030  0.726047  0.982737  1
  Pd  Pd14  1  0.000249  0.238088  0.167804  1
  Pd  Pd15  1  0.000253  0.761915  0.167804  1
  Pd  Pd16  1  0.500216  0.261962  0.332169  1
  Pd  Pd17  1  0.500214  0.738039  0.332169  1
  Pd  Pd18  1  0.000042  0.226057  0.517231  1
  Pd  Pd19  1  0.000044  0.773939  0.517235  1
  Pd  Pd20  1  0.499751  0.227338  0.675535  1
  Pd  Pd21  1  0.499758  0.772661  0.675535  1
  Pd  Pd22  1  0.999715  0.272592  0.824513  1
  Pd  Pd23  1  0.999711  0.727406  0.824510  1
