# generated using pymatgen
data_Ho12Tc2IrRu
_symmetry_space_group_name_H-M   'P 1'
_cell_length_a   6.27994900
_cell_length_b   7.36874244
_cell_length_c   9.09472700
_cell_angle_alpha   90.00000000
_cell_angle_beta   90.00000000
_cell_angle_gamma   89.96352772
_symmetry_Int_Tables_number   1
_chemical_formula_structural   Ho12Tc2IrRu
_chemical_formula_sum   'Ho12 Tc2 Ir1 Ru1'
_cell_volume   420.86137803
_cell_formula_units_Z   1
loop_
 _symmetry_equiv_pos_site_id
 _symmetry_equiv_pos_as_xyz
  1  'x, y, z'
loop_
 _atom_site_type_symbol
 _atom_site_label
 _atom_site_symmetry_multiplicity
 _atom_site_fract_x
 _atom_site_fract_y
 _atom_site_fract_z
 _atom_site_occupancy
  Ho  Ho0  1  0.333827  0.675830  0.063017  1
  Ho  Ho1  1  0.164375  0.177529  0.438273  1
  Ho  Ho2  1  0.663333  0.323980  0.563254  1
  Ho  Ho3  1  0.833198  0.823670  0.935884  1
  Ho  Ho4  1  0.663333  0.323980  0.936746  1
  Ho  Ho5  1  0.833198  0.823670  0.564116  1
  Ho  Ho6  1  0.333827  0.675830  0.436983  1
  Ho  Ho7  1  0.164375  0.177529  0.061727  1
  Ho  Ho8  1  0.871709  0.539734  0.250000  1
  Ho  Ho9  1  0.629462  0.040432  0.250000  1
  Ho  Ho10  1  0.130946  0.460041  0.750000  1
  Ho  Ho11  1  0.373106  0.957330  0.750000  1
  Tc  Tc12  1  0.462060  0.385627  0.250000  1
  Tc  Tc13  1  0.963475  0.113972  0.750000  1
  Ir  Ir14  1  0.040430  0.883757  0.250000  1
  Ru  Ru15  1  0.539346  0.617088  0.750000  1
