# generated using pymatgen
data_HoGaPt3Au
_symmetry_space_group_name_H-M   'P 1'
_cell_length_a   5.17129560
_cell_length_b   5.17129502
_cell_length_c   5.17129543
_cell_angle_alpha   64.07859523
_cell_angle_beta   64.07858099
_cell_angle_gamma   64.07859324
_symmetry_Int_Tables_number   1
_chemical_formula_structural   HoGaPt3Au
_chemical_formula_sum   'Ho1 Ga1 Pt3 Au1'
_cell_volume   106.56553794
_cell_formula_units_Z   1
loop_
 _symmetry_equiv_pos_site_id
 _symmetry_equiv_pos_as_xyz
  1  'x, y, z'
loop_
 _atom_site_type_symbol
 _atom_site_label
 _atom_site_symmetry_multiplicity
 _atom_site_fract_x
 _atom_site_fract_y
 _atom_site_fract_z
 _atom_site_occupancy
  Ho  Ho0  1  0.245714  0.245714  0.245714  1
  Ga  Ga1  1  0.627248  0.627248  0.627248  1
  Pt  Pt2  1  0.627046  0.627046  0.124761  1
  Pt  Pt3  1  0.627046  0.124761  0.627046  1
  Pt  Pt4  1  0.124761  0.627046  0.627046  1
  Au  Au5  1  0.998184  0.998184  0.998184  1
