# generated using pymatgen
data_Th8Cu2NiOs5
_symmetry_space_group_name_H-M   'P 1'
_cell_length_a   4.35889400
_cell_length_b   5.83922593
_cell_length_c   14.58790195
_cell_angle_alpha   89.97006685
_cell_angle_beta   90.00000000
_cell_angle_gamma   90.00000000
_symmetry_Int_Tables_number   1
_chemical_formula_structural   Th8Cu2NiOs5
_chemical_formula_sum   'Th8 Cu2 Ni1 Os5'
_cell_volume   371.29949917
_cell_formula_units_Z   1
loop_
 _symmetry_equiv_pos_site_id
 _symmetry_equiv_pos_as_xyz
  1  'x, y, z'
loop_
 _atom_site_type_symbol
 _atom_site_label
 _atom_site_symmetry_multiplicity
 _atom_site_fract_x
 _atom_site_fract_y
 _atom_site_fract_z
 _atom_site_occupancy
  Th  Th0  1  0.250000  0.546758  0.285499  1
  Th  Th1  1  0.750000  0.468803  0.720703  1
  Th  Th2  1  0.250000  0.958764  0.786146  1
  Th  Th3  1  0.250000  0.754673  0.534829  1
  Th  Th4  1  0.250000  0.743296  0.031742  1
  Th  Th5  1  0.750000  0.259056  0.959978  1
  Th  Th6  1  0.750000  0.030296  0.217567  1
  Th  Th7  1  0.750000  0.237814  0.457620  1
  Cu  Cu8  1  0.250000  0.253766  0.104523  1
  Cu  Cu9  1  0.250000  0.243535  0.607260  1
  Ni  Ni10  1  0.750000  0.764981  0.903814  1
  Os  Os11  1  0.250000  0.061547  0.346418  1
  Os  Os12  1  0.750000  0.538100  0.135718  1
  Os  Os13  1  0.750000  0.724992  0.405965  1
  Os  Os14  1  0.250000  0.446530  0.854004  1
  Os  Os15  1  0.750000  0.967091  0.648217  1
