# generated using pymatgen
data_Dy2Lu2TcOsC4
_symmetry_space_group_name_H-M   'P 1'
_cell_length_a   5.04775600
_cell_length_b   6.49532077
_cell_length_c   9.69898704
_cell_angle_alpha   89.70243753
_cell_angle_beta   90.00000000
_cell_angle_gamma   90.00000000
_symmetry_Int_Tables_number   1
_chemical_formula_structural   Dy2Lu2TcOsC4
_chemical_formula_sum   'Dy4 Lu4 Tc2 Os2 C8'
_cell_volume   317.99440549
_cell_formula_units_Z   2
loop_
 _symmetry_equiv_pos_site_id
 _symmetry_equiv_pos_as_xyz
  1  'x, y, z'
loop_
 _atom_site_type_symbol
 _atom_site_label
 _atom_site_symmetry_multiplicity
 _atom_site_fract_x
 _atom_site_fract_y
 _atom_site_fract_z
 _atom_site_occupancy
  Dy  Dy0  1  0.250000  0.531001  0.215313  1
  Dy  Dy1  1  0.750000  0.468999  0.784687  1
  Dy  Dy2  1  0.750000  0.970525  0.713144  1
  Dy  Dy3  1  0.250000  0.029475  0.286856  1
  Lu  Lu4  1  0.250000  0.674781  0.556351  1
  Lu  Lu5  1  0.750000  0.325219  0.443649  1
  Lu  Lu6  1  0.750000  0.825510  0.057182  1
  Lu  Lu7  1  0.250000  0.174490  0.942818  1
  Tc  Tc8  1  0.250000  0.721323  0.867175  1
  Tc  Tc9  1  0.750000  0.278677  0.132825  1
  Os  Os10  1  0.750000  0.777551  0.367094  1
  Os  Os11  1  0.250000  0.222449  0.632906  1
  C  C12  1  0.250000  0.454232  0.759229  1
  C  C13  1  0.750000  0.545768  0.240771  1
  C  C14  1  0.750000  0.044769  0.260025  1
  C  C15  1  0.250000  0.955231  0.739975  1
  C  C16  1  0.250000  0.828796  0.052109  1
  C  C17  1  0.750000  0.171204  0.947891  1
  C  C18  1  0.750000  0.669889  0.552845  1
  C  C19  1  0.250000  0.330111  0.447155  1
