# generated using pymatgen
data_NbHg3SbF12
_symmetry_space_group_name_H-M   'P 1'
_cell_length_a   9.01345700
_cell_length_b   6.12338281
_cell_length_c   12.24023100
_cell_angle_alpha   85.93644601
_cell_angle_beta   90.00000000
_cell_angle_gamma   90.00000000
_symmetry_Int_Tables_number   1
_chemical_formula_structural   NbHg3SbF12
_chemical_formula_sum   'Nb2 Hg6 Sb2 F24'
_cell_volume   673.87485508
_cell_formula_units_Z   2
loop_
 _symmetry_equiv_pos_site_id
 _symmetry_equiv_pos_as_xyz
  1  'x, y, z'
loop_
 _atom_site_type_symbol
 _atom_site_label
 _atom_site_symmetry_multiplicity
 _atom_site_fract_x
 _atom_site_fract_y
 _atom_site_fract_z
 _atom_site_occupancy
  Nb  Nb0  1  0.856559  0.296142  0.326910  1
  Nb  Nb1  1  0.356559  0.703858  0.173090  1
  Hg  Hg2  1  0.728766  0.756094  0.563119  1
  Hg  Hg3  1  0.228766  0.243906  0.936881  1
  Hg  Hg4  1  0.268842  0.244085  0.439578  1
  Hg  Hg5  1  0.768842  0.755915  0.060422  1
  Hg  Hg6  1  0.498000  0.000897  0.502246  1
  Hg  Hg7  1  0.998000  0.999103  0.997754  1
  Sb  Sb8  1  0.142130  0.703593  0.672176  1
  Sb  Sb9  1  0.642130  0.296407  0.827824  1
  F  F10  1  0.957070  0.578844  0.620636  1
  F  F11  1  0.457070  0.421156  0.879364  1
  F  F12  1  0.049445  0.413083  0.380385  1
  F  F13  1  0.549445  0.586917  0.119615  1
  F  F14  1  0.203703  0.411601  0.719172  1
  F  F15  1  0.703703  0.588399  0.780828  1
  F  F16  1  0.799833  0.594436  0.281647  1
  F  F17  1  0.299833  0.405564  0.218353  1
  F  F18  1  0.056889  0.728220  0.814561  1
  F  F19  1  0.556889  0.271780  0.685439  1
  F  F20  1  0.177181  0.840560  0.215595  1
  F  F21  1  0.677181  0.159440  0.284405  1
  F  F22  1  0.823720  0.167431  0.783613  1
  F  F23  1  0.323720  0.832569  0.716387  1
  F  F24  1  0.264283  0.656086  0.032560  1
  F  F25  1  0.764283  0.343914  0.467440  1
  F  F26  1  0.731077  0.337940  0.968546  1
  F  F27  1  0.231077  0.662060  0.531454  1
  F  F28  1  0.435465  0.981909  0.118061  1
  F  F29  1  0.935465  0.018091  0.381939  1
  F  F30  1  0.568319  0.015394  0.880306  1
  F  F31  1  0.068319  0.984606  0.619694  1
  F  F32  1  0.438718  0.723305  0.317891  1
  F  F33  1  0.938718  0.276695  0.182109  1
