# generated using pymatgen
data_Pr3Tl2InCuPd2
_symmetry_space_group_name_H-M   'P 1'
_cell_length_a   7.79742600
_cell_length_b   7.85813056
_cell_length_c   4.06285400
_cell_angle_alpha   90.00000000
_cell_angle_beta   90.00000000
_cell_angle_gamma   119.74479267
_symmetry_Int_Tables_number   1
_chemical_formula_structural   Pr3Tl2InCuPd2
_chemical_formula_sum   'Pr3 Tl2 In1 Cu1 Pd2'
_cell_volume   216.14413906
_cell_formula_units_Z   1
loop_
 _symmetry_equiv_pos_site_id
 _symmetry_equiv_pos_as_xyz
  1  'x, y, z'
loop_
 _atom_site_type_symbol
 _atom_site_label
 _atom_site_symmetry_multiplicity
 _atom_site_fract_x
 _atom_site_fract_y
 _atom_site_fract_z
 _atom_site_occupancy
  Pr  Pr0  1  0.000236  0.589513  0.000000  1
  Pr  Pr1  1  0.410723  0.410487  0.000000  1
  Pr  Pr2  1  0.589522  0.000000  0.000000  1
  Tl  Tl3  1  0.750739  0.748450  0.500000  1
  Tl  Tl4  1  0.002289  0.251550  0.500000  1
  In  In5  1  0.247659  0.000000  0.500000  1
  Cu  Cu6  1  0.007466  0.000000  0.000000  1
  Pd  Pd7  1  0.332371  0.673378  0.500000  1
  Pd  Pd8  1  0.658994  0.326622  0.500000  1
