# generated using pymatgen
data_YbLu(Tc2Ge)4
_symmetry_space_group_name_H-M   'P 1'
_cell_length_a   7.33887652
_cell_length_b   7.33887652
_cell_length_c   4.28926300
_cell_angle_alpha   90.00000000
_cell_angle_beta   90.00000000
_cell_angle_gamma   89.62870646
_symmetry_Int_Tables_number   1
_chemical_formula_structural   YbLu(Tc2Ge)4
_chemical_formula_sum   'Yb1 Lu1 Tc8 Ge4'
_cell_volume   231.01103122
_cell_formula_units_Z   1
loop_
 _symmetry_equiv_pos_site_id
 _symmetry_equiv_pos_as_xyz
  1  'x, y, z'
loop_
 _atom_site_type_symbol
 _atom_site_label
 _atom_site_symmetry_multiplicity
 _atom_site_fract_x
 _atom_site_fract_y
 _atom_site_fract_z
 _atom_site_occupancy
  Yb  Yb0  1  0.500000  0.500000  0.000000  1
  Lu  Lu1  1  0.000000  0.000000  0.500000  1
  Tc  Tc2  1  0.147828  0.604975  0.500000  1
  Tc  Tc3  1  0.852172  0.395025  0.500000  1
  Tc  Tc4  1  0.346804  0.099186  0.000000  1
  Tc  Tc5  1  0.653196  0.900814  0.000000  1
  Tc  Tc6  1  0.604975  0.147828  0.500000  1
  Tc  Tc7  1  0.395025  0.852172  0.500000  1
  Tc  Tc8  1  0.099186  0.346804  0.000000  1
  Tc  Tc9  1  0.900814  0.653196  0.000000  1
  Ge  Ge10  1  0.703703  0.703703  0.500000  1
  Ge  Ge11  1  0.296297  0.296297  0.500000  1
  Ge  Ge12  1  0.794213  0.205787  0.000000  1
  Ge  Ge13  1  0.205787  0.794213  0.000000  1
