# generated using pymatgen
data_TbDy4(CoTe)2
_symmetry_space_group_name_H-M   'P 1'
_cell_length_a   7.77410412
_cell_length_b   7.77410345
_cell_length_c   14.99789308
_cell_angle_alpha   89.99402066
_cell_angle_beta   90.00597858
_cell_angle_gamma   150.34385530
_symmetry_Int_Tables_number   1
_chemical_formula_structural   TbDy4(CoTe)2
_chemical_formula_sum   'Tb2 Dy8 Co4 Te4'
_cell_volume   448.49235224
_cell_formula_units_Z   2
loop_
 _symmetry_equiv_pos_site_id
 _symmetry_equiv_pos_as_xyz
  1  'x, y, z'
loop_
 _atom_site_type_symbol
 _atom_site_label
 _atom_site_symmetry_multiplicity
 _atom_site_fract_x
 _atom_site_fract_y
 _atom_site_fract_z
 _atom_site_occupancy
  Tb  Tb0  1  0.960060  0.039940  0.126602  1
  Tb  Tb1  1  0.039940  0.960060  0.873398  1
  Dy  Dy2  1  0.039928  0.960072  0.626372  1
  Dy  Dy3  1  0.960072  0.039928  0.373628  1
  Dy  Dy4  1  0.741950  0.258050  0.630038  1
  Dy  Dy5  1  0.258050  0.741950  0.369962  1
  Dy  Dy6  1  0.257746  0.742254  0.130361  1
  Dy  Dy7  1  0.742254  0.257746  0.869639  1
  Dy  Dy8  1  0.606035  0.393965  0.250246  1
  Dy  Dy9  1  0.393965  0.606035  0.749754  1
  Co  Co10  1  0.409742  0.590258  0.250628  1
  Co  Co11  1  0.590258  0.409742  0.749372  1
  Co  Co12  1  0.817403  0.182597  0.250371  1
  Co  Co13  1  0.182597  0.817403  0.749629  1
  Te  Te14  1  0.617330  0.382670  0.038624  1
  Te  Te15  1  0.382670  0.617330  0.961376  1
  Te  Te16  1  0.383015  0.616985  0.538554  1
  Te  Te17  1  0.616985  0.383015  0.461446  1
