# generated using pymatgen
data_Tb8Dy7Sc5Si15Ru
_symmetry_space_group_name_H-M   'P 1'
_cell_length_a   7.22610335
_cell_length_b   7.68585586
_cell_length_c   14.37456866
_cell_angle_alpha   90.13150450
_cell_angle_beta   90.04422953
_cell_angle_gamma   90.35800515
_symmetry_Int_Tables_number   1
_chemical_formula_structural   Tb8Dy7Sc5Si15Ru
_chemical_formula_sum   'Tb8 Dy7 Sc5 Si15 Ru1'
_cell_volume   798.32819864
_cell_formula_units_Z   1
loop_
 _symmetry_equiv_pos_site_id
 _symmetry_equiv_pos_as_xyz
  1  'x, y, z'
loop_
 _atom_site_type_symbol
 _atom_site_label
 _atom_site_symmetry_multiplicity
 _atom_site_fract_x
 _atom_site_fract_y
 _atom_site_fract_z
 _atom_site_occupancy
  Tb  Tb0  1  0.016538  0.182486  0.096977  1
  Tb  Tb1  1  0.987400  0.823407  0.906260  1
  Tb  Tb2  1  0.483618  0.683034  0.904365  1
  Tb  Tb3  1  0.985920  0.824081  0.596252  1
  Tb  Tb4  1  0.514674  0.319142  0.096102  1
  Tb  Tb5  1  0.016970  0.183849  0.401123  1
  Tb  Tb6  1  0.515804  0.319169  0.401577  1
  Tb  Tb7  1  0.485134  0.681822  0.595830  1
  Dy  Dy8  1  0.311501  0.172688  0.629177  1
  Dy  Dy9  1  0.676829  0.824188  0.372741  1
  Dy  Dy10  1  0.175909  0.679112  0.373013  1
  Dy  Dy11  1  0.675136  0.823642  0.125140  1
  Dy  Dy12  1  0.832745  0.317237  0.628642  1
  Dy  Dy13  1  0.311441  0.173323  0.872382  1
  Dy  Dy14  1  0.832764  0.320098  0.873953  1
  Sc  Sc15  1  0.158209  0.518520  0.750403  1
  Sc  Sc16  1  0.842190  0.487117  0.248218  1
  Sc  Sc17  1  0.340491  0.014829  0.247724  1
  Sc  Sc18  1  0.670647  0.985676  0.750804  1
  Sc  Sc19  1  0.176550  0.678300  0.127347  1
  Si  Si20  1  0.980858  0.898760  0.246648  1
  Si  Si21  1  0.474757  0.596525  0.246379  1
  Si  Si22  1  0.521068  0.405820  0.750902  1
  Si  Si23  1  0.281768  0.859200  0.750680  1
  Si  Si24  1  0.716676  0.136678  0.248626  1
  Si  Si25  1  0.217987  0.368537  0.247690  1
  Si  Si26  1  0.776408  0.632012  0.750625  1
  Si  Si27  1  0.156715  0.471676  0.537961  1
  Si  Si28  1  0.845311  0.530271  0.460574  1
  Si  Si29  1  0.346076  0.971614  0.459632  1
  Si  Si30  1  0.855975  0.531879  0.042874  1
  Si  Si31  1  0.650802  0.031713  0.538791  1
  Si  Si32  1  0.160588  0.474743  0.967329  1
  Si  Si33  1  0.650348  0.030925  0.960816  1
  Si  Si34  1  0.339070  0.964270  0.041177  1
  Ru  Ru35  1  0.015120  0.083654  0.751265  1
