# generated using pymatgen
data_Rb3VSe16
_symmetry_space_group_name_H-M   'P 1'
_cell_length_a   12.04747304
_cell_length_b   12.04747236
_cell_length_c   12.04747300
_cell_angle_alpha   60.00000100
_cell_angle_beta   60.00000285
_cell_angle_gamma   60.00000005
_symmetry_Int_Tables_number   1
_chemical_formula_structural   Rb3VSe16
_chemical_formula_sum   'Rb6 V2 Se32'
_cell_volume   1236.43952113
_cell_formula_units_Z   2
loop_
 _symmetry_equiv_pos_site_id
 _symmetry_equiv_pos_as_xyz
  1  'x, y, z'
loop_
 _atom_site_type_symbol
 _atom_site_label
 _atom_site_symmetry_multiplicity
 _atom_site_fract_x
 _atom_site_fract_y
 _atom_site_fract_z
 _atom_site_occupancy
  Rb  Rb0  1  0.500000  0.500000  0.500000  1
  Rb  Rb1  1  0.750000  0.750000  0.750000  1
  Rb  Rb2  1  0.125000  0.125000  0.125000  1
  Rb  Rb3  1  0.125000  0.125000  0.625000  1
  Rb  Rb4  1  0.125000  0.625000  0.125000  1
  Rb  Rb5  1  0.625000  0.125000  0.125000  1
  V  V6  1  0.250000  0.250000  0.250000  1
  V  V7  1  0.000000  0.000000  0.000000  1
  Se  Se8  1  0.797545  0.177607  0.587779  1
  Se  Se9  1  0.437069  0.797545  0.587779  1
  Se  Se10  1  0.587779  0.797545  0.177607  1
  Se  Se11  1  0.587779  0.177607  0.437069  1
  Se  Se12  1  0.587779  0.437069  0.797545  1
  Se  Se13  1  0.437069  0.587779  0.177607  1
  Se  Se14  1  0.327879  0.327879  0.016362  1
  Se  Se15  1  0.016362  0.327879  0.327879  1
  Se  Se16  1  0.327879  0.016363  0.327879  1
  Se  Se17  1  0.327879  0.327879  0.327879  1
  Se  Se18  1  0.922121  0.922121  0.233637  1
  Se  Se19  1  0.233637  0.922121  0.922121  1
  Se  Se20  1  0.922121  0.233637  0.922121  1
  Se  Se21  1  0.922121  0.922121  0.922121  1
  Se  Se22  1  0.072393  0.452455  0.812931  1
  Se  Se23  1  0.812931  0.072393  0.452455  1
  Se  Se24  1  0.452455  0.812931  0.072393  1
  Se  Se25  1  0.072393  0.662221  0.452455  1
  Se  Se26  1  0.072393  0.812931  0.662221  1
  Se  Se27  1  0.452455  0.662221  0.812931  1
  Se  Se28  1  0.662221  0.072393  0.812931  1
  Se  Se29  1  0.662221  0.452455  0.072393  1
  Se  Se30  1  0.812931  0.452455  0.662221  1
  Se  Se31  1  0.452455  0.072393  0.662221  1
  Se  Se32  1  0.812931  0.662221  0.072393  1
  Se  Se33  1  0.662221  0.812931  0.452455  1
  Se  Se34  1  0.177607  0.797545  0.437069  1
  Se  Se35  1  0.437069  0.177607  0.797545  1
  Se  Se36  1  0.797545  0.437069  0.177607  1
  Se  Se37  1  0.177607  0.587779  0.797545  1
  Se  Se38  1  0.177607  0.437069  0.587779  1
  Se  Se39  1  0.797545  0.587779  0.437069  1
