# generated using pymatgen
data_Er20Cd3TcHg3Pd
_symmetry_space_group_name_H-M   'P 1'
_cell_length_a   9.55123400
_cell_length_b   9.55123402
_cell_length_c   9.69696700
_cell_angle_alpha   90.00000000
_cell_angle_beta   90.00000000
_cell_angle_gamma   120.00002762
_symmetry_Int_Tables_number   1
_chemical_formula_structural   Er20Cd3TcHg3Pd
_chemical_formula_sum   'Er20 Cd3 Tc1 Hg3 Pd1'
_cell_volume   766.09988987
_cell_formula_units_Z   1
loop_
 _symmetry_equiv_pos_site_id
 _symmetry_equiv_pos_as_xyz
  1  'x, y, z'
loop_
 _atom_site_type_symbol
 _atom_site_label
 _atom_site_symmetry_multiplicity
 _atom_site_fract_x
 _atom_site_fract_y
 _atom_site_fract_z
 _atom_site_occupancy
  Er  Er0  1  0.209165  0.790835  0.939864  1
  Er  Er1  1  0.209165  0.418328  0.939863  1
  Er  Er2  1  0.581672  0.790835  0.939863  1
  Er  Er3  1  0.792472  0.207528  0.057703  1
  Er  Er4  1  0.792472  0.584945  0.057703  1
  Er  Er5  1  0.415055  0.207528  0.057703  1
  Er  Er6  1  0.792472  0.207528  0.442297  1
  Er  Er7  1  0.792472  0.584945  0.442297  1
  Er  Er8  1  0.415055  0.207528  0.442297  1
  Er  Er9  1  0.209165  0.790835  0.560136  1
  Er  Er10  1  0.209165  0.418328  0.560137  1
  Er  Er11  1  0.581672  0.790835  0.560137  1
  Er  Er12  1  0.539350  0.460650  0.750000  1
  Er  Er13  1  0.539350  0.078701  0.750000  1
  Er  Er14  1  0.921299  0.460650  0.750000  1
  Er  Er15  1  0.457113  0.542887  0.250000  1
  Er  Er16  1  0.457114  0.914227  0.250000  1
  Er  Er17  1  0.085772  0.542886  0.250000  1
  Er  Er18  1  0.000000  0.000000  0.989598  1
  Er  Er19  1  0.000000  0.000000  0.510402  1
  Cd  Cd20  1  0.112465  0.887535  0.250000  1
  Cd  Cd21  1  0.112465  0.224931  0.250000  1
  Cd  Cd22  1  0.775069  0.887535  0.250000  1
  Tc  Tc23  1  0.333333  0.666667  0.750000  1
  Hg  Hg24  1  0.878539  0.121462  0.750000  1
  Hg  Hg25  1  0.878538  0.757077  0.750000  1
  Hg  Hg26  1  0.242923  0.121462  0.750000  1
  Pd  Pd27  1  0.666666  0.333333  0.250000  1
