# generated using pymatgen
data_CaSn6(IrRh)2
_symmetry_space_group_name_H-M   'P 1'
_cell_length_a   7.02141719
_cell_length_b   7.02141683
_cell_length_c   6.95103100
_cell_angle_alpha   119.67753302
_cell_angle_beta   119.67753137
_cell_angle_gamma   91.12826218
_symmetry_Int_Tables_number   1
_chemical_formula_structural   CaSn6(IrRh)2
_chemical_formula_sum   'Ca1 Sn6 Ir2 Rh2'
_cell_volume   242.23807109
_cell_formula_units_Z   1
loop_
 _symmetry_equiv_pos_site_id
 _symmetry_equiv_pos_as_xyz
  1  'x, y, z'
loop_
 _atom_site_type_symbol
 _atom_site_label
 _atom_site_symmetry_multiplicity
 _atom_site_fract_x
 _atom_site_fract_y
 _atom_site_fract_z
 _atom_site_occupancy
  Ca  Ca0  1  0.999734  0.999734  0.000000  1
  Sn  Sn1  1  0.468288  0.126394  0.000000  1
  Sn  Sn2  1  0.126394  0.468288  0.000000  1
  Sn  Sn3  1  0.871529  0.871529  0.338062  1
  Sn  Sn4  1  0.533467  0.533467  0.661938  1
  Sn  Sn5  1  0.999115  0.499115  0.500000  1
  Sn  Sn6  1  0.499115  0.999115  0.500000  1
  Ir  Ir7  1  0.241723  0.241723  0.640474  1
  Ir  Ir8  1  0.601249  0.601249  0.359526  1
  Rh  Rh9  1  0.399761  0.759627  0.000000  1
  Rh  Rh10  1  0.759627  0.399761  0.000000  1
