# generated using pymatgen
data_Sc4MnSi2B4Ir9
_symmetry_space_group_name_H-M   'P 1'
_cell_length_a   9.32604095
_cell_length_b   9.32604095
_cell_length_c   3.00740700
_cell_angle_alpha   90.00000000
_cell_angle_beta   90.00000000
_cell_angle_gamma   89.52847478
_symmetry_Int_Tables_number   1
_chemical_formula_structural   Sc4MnSi2B4Ir9
_chemical_formula_sum   'Sc4 Mn1 Si2 B4 Ir9'
_cell_volume   261.56048606
_cell_formula_units_Z   1
loop_
 _symmetry_equiv_pos_site_id
 _symmetry_equiv_pos_as_xyz
  1  'x, y, z'
loop_
 _atom_site_type_symbol
 _atom_site_label
 _atom_site_symmetry_multiplicity
 _atom_site_fract_x
 _atom_site_fract_y
 _atom_site_fract_z
 _atom_site_occupancy
  Sc  Sc0  1  0.321426  0.821426  0.000000  1
  Sc  Sc1  1  0.678574  0.178574  0.000000  1
  Sc  Sc2  1  0.833390  0.666610  0.000000  1
  Sc  Sc3  1  0.166610  0.333390  0.000000  1
  Mn  Mn4  1  0.000000  0.500000  0.499999  1
  Si  Si5  1  0.000000  0.000000  0.000000  1
  Si  Si6  1  0.500000  0.500000  0.000000  1
  B  B7  1  0.112390  0.612390  0.000000  1
  B  B8  1  0.887610  0.387611  0.000000  1
  B  B9  1  0.626120  0.873880  0.000000  1
  B  B10  1  0.373881  0.126120  0.000000  1
  Ir  Ir11  1  0.211275  0.070286  0.499999  1
  Ir  Ir12  1  0.788724  0.929713  0.499999  1
  Ir  Ir13  1  0.713911  0.431345  0.499999  1
  Ir  Ir14  1  0.286090  0.568655  0.499999  1
  Ir  Ir15  1  0.429713  0.288726  0.499999  1
  Ir  Ir16  1  0.570287  0.711275  0.499999  1
  Ir  Ir17  1  0.068654  0.786088  0.499999  1
  Ir  Ir18  1  0.931345  0.213911  0.499999  1
  Ir  Ir19  1  0.500000  0.000000  0.499999  1
