# generated using pymatgen
data_SmHo2V(Co4P3)2
_symmetry_space_group_name_H-M   'P 1'
_cell_length_a   3.71300500
_cell_length_b   10.60483200
_cell_length_c   12.28269600
_cell_angle_alpha   90.00000000
_cell_angle_beta   90.00000000
_cell_angle_gamma   90.00000000
_symmetry_Int_Tables_number   1
_chemical_formula_structural   SmHo2V(Co4P3)2
_chemical_formula_sum   'Sm2 Ho4 V2 Co16 P12'
_cell_volume   483.64091041
_cell_formula_units_Z   2
loop_
 _symmetry_equiv_pos_site_id
 _symmetry_equiv_pos_as_xyz
  1  'x, y, z'
loop_
 _atom_site_type_symbol
 _atom_site_label
 _atom_site_symmetry_multiplicity
 _atom_site_fract_x
 _atom_site_fract_y
 _atom_site_fract_z
 _atom_site_occupancy
  Sm  Sm0  1  0.000000  0.500000  0.523521  1
  Sm  Sm1  1  0.500000  0.000000  0.476479  1
  Ho  Ho2  1  0.500000  0.818740  0.203695  1
  Ho  Ho3  1  0.500000  0.181260  0.203695  1
  Ho  Ho4  1  0.000000  0.681260  0.796305  1
  Ho  Ho5  1  0.000000  0.318740  0.796305  1
  V  V6  1  0.500000  0.500000  0.152458  1
  V  V7  1  0.000000  0.000000  0.847542  1
  Co  Co8  1  0.000000  0.500000  0.986977  1
  Co  Co9  1  0.500000  0.000000  0.013023  1
  Co  Co10  1  0.500000  0.295289  0.430267  1
  Co  Co11  1  0.500000  0.704711  0.430267  1
  Co  Co12  1  0.000000  0.204711  0.569733  1
  Co  Co13  1  0.000000  0.795289  0.569733  1
  Co  Co14  1  0.500000  0.878858  0.709444  1
  Co  Co15  1  0.500000  0.121142  0.709444  1
  Co  Co16  1  0.000000  0.621142  0.290556  1
  Co  Co17  1  0.000000  0.378858  0.290556  1
  Co  Co18  1  0.500000  0.332232  0.993028  1
  Co  Co19  1  0.500000  0.667768  0.993028  1
  Co  Co20  1  0.000000  0.167768  0.006972  1
  Co  Co21  1  0.000000  0.832232  0.006972  1
  Co  Co22  1  0.500000  0.500000  0.704484  1
  Co  Co23  1  0.000000  0.000000  0.295516  1
  P  P24  1  0.500000  0.309376  0.617166  1
  P  P25  1  0.500000  0.690624  0.617166  1
  P  P26  1  0.000000  0.190624  0.382834  1
  P  P27  1  0.000000  0.809376  0.382834  1
  P  P28  1  0.500000  0.500000  0.882886  1
  P  P29  1  0.000000  0.000000  0.117114  1
  P  P30  1  0.500000  0.845688  0.892453  1
  P  P31  1  0.500000  0.154312  0.892453  1
  P  P32  1  0.000000  0.654312  0.107547  1
  P  P33  1  0.000000  0.345688  0.107547  1
  P  P34  1  0.500000  0.500000  0.344292  1
  P  P35  1  0.000000  0.000000  0.655708  1
