# generated using pymatgen
data_Lu16Sc4Bi11Pt
_symmetry_space_group_name_H-M   'P 1'
_cell_length_a   7.95699822
_cell_length_b   9.29074500
_cell_length_c   11.71329000
_cell_angle_alpha   90.00000000
_cell_angle_beta   89.53484551
_cell_angle_gamma   90.00000000
_symmetry_Int_Tables_number   1
_chemical_formula_structural   Lu16Sc4Bi11Pt
_chemical_formula_sum   'Lu16 Sc4 Bi11 Pt1'
_cell_volume   865.89331097
_cell_formula_units_Z   1
loop_
 _symmetry_equiv_pos_site_id
 _symmetry_equiv_pos_as_xyz
  1  'x, y, z'
loop_
 _atom_site_type_symbol
 _atom_site_label
 _atom_site_symmetry_multiplicity
 _atom_site_fract_x
 _atom_site_fract_y
 _atom_site_fract_z
 _atom_site_occupancy
  Lu  Lu0  1  0.355904  0.250000  0.302401  1
  Lu  Lu1  1  0.654390  0.750000  0.717328  1
  Lu  Lu2  1  0.145971  0.750000  0.779472  1
  Lu  Lu3  1  0.848226  0.250000  0.214990  1
  Lu  Lu4  1  0.203081  0.250000  0.772312  1
  Lu  Lu5  1  0.809342  0.750000  0.217224  1
  Lu  Lu6  1  0.315038  0.750000  0.280145  1
  Lu  Lu7  1  0.654718  0.250000  0.705995  1
  Lu  Lu8  1  0.195513  0.067770  0.062999  1
  Lu  Lu9  1  0.804352  0.932896  0.941605  1
  Lu  Lu10  1  0.309593  0.962563  0.558205  1
  Lu  Lu11  1  0.804352  0.567104  0.941605  1
  Lu  Lu12  1  0.684093  0.073988  0.446865  1
  Lu  Lu13  1  0.195513  0.432230  0.062999  1
  Lu  Lu14  1  0.684093  0.426012  0.446865  1
  Lu  Lu15  1  0.309593  0.537437  0.558205  1
  Sc  Sc16  1  0.045564  0.250000  0.507014  1
  Sc  Sc17  1  0.984394  0.750000  0.491053  1
  Sc  Sc18  1  0.477501  0.750000  0.012986  1
  Sc  Sc19  1  0.526595  0.250000  0.989960  1
  Bi  Bi20  1  0.598065  0.750000  0.458146  1
  Bi  Bi21  1  0.101359  0.750000  0.041963  1
  Bi  Bi22  1  0.905392  0.250000  0.950641  1
  Bi  Bi23  1  0.057755  0.000651  0.326086  1
  Bi  Bi24  1  0.933210  0.000634  0.671337  1
  Bi  Bi25  1  0.434736  0.992765  0.831965  1
  Bi  Bi26  1  0.933210  0.499366  0.671337  1
  Bi  Bi27  1  0.563544  0.005563  0.172452  1
  Bi  Bi28  1  0.057755  0.499349  0.326086  1
  Bi  Bi29  1  0.563544  0.494437  0.172452  1
  Bi  Bi30  1  0.434736  0.507235  0.831965  1
  Pt  Pt31  1  0.408860  0.250000  0.535339  1
