# generated using pymatgen
data_Pr3NdInIr
_symmetry_space_group_name_H-M   'P 1'
_cell_length_a   10.04903200
_cell_length_b   10.04903269
_cell_length_c   10.04903300
_cell_angle_alpha   60.00000228
_cell_angle_beta   60.00000001
_cell_angle_gamma   60.00000038
_symmetry_Int_Tables_number   1
_chemical_formula_structural   Pr3NdInIr
_chemical_formula_sum   'Pr12 Nd4 In4 Ir4'
_cell_volume   717.55925755
_cell_formula_units_Z   4
loop_
 _symmetry_equiv_pos_site_id
 _symmetry_equiv_pos_as_xyz
  1  'x, y, z'
loop_
 _atom_site_type_symbol
 _atom_site_label
 _atom_site_symmetry_multiplicity
 _atom_site_fract_x
 _atom_site_fract_y
 _atom_site_fract_z
 _atom_site_occupancy
  Pr  Pr0  1  0.808022  0.191978  0.191978  1
  Pr  Pr1  1  0.191978  0.808022  0.808022  1
  Pr  Pr2  1  0.191978  0.808022  0.191978  1
  Pr  Pr3  1  0.808022  0.191978  0.808022  1
  Pr  Pr4  1  0.191978  0.191978  0.808022  1
  Pr  Pr5  1  0.808022  0.808022  0.191978  1
  Pr  Pr6  1  0.940138  0.559862  0.559862  1
  Pr  Pr7  1  0.559862  0.940138  0.940138  1
  Pr  Pr8  1  0.559862  0.940138  0.559862  1
  Pr  Pr9  1  0.940138  0.559862  0.940138  1
  Pr  Pr10  1  0.559862  0.559862  0.940138  1
  Pr  Pr11  1  0.940138  0.940138  0.559862  1
  Nd  Nd12  1  0.347942  0.347942  0.347942  1
  Nd  Nd13  1  0.347942  0.347942  0.956173  1
  Nd  Nd14  1  0.347942  0.956173  0.347942  1
  Nd  Nd15  1  0.956173  0.347942  0.347942  1
  In  In16  1  0.580684  0.580684  0.580684  1
  In  In17  1  0.580684  0.580684  0.257947  1
  In  In18  1  0.580684  0.257947  0.580684  1
  In  In19  1  0.257947  0.580684  0.580684  1
  Ir  Ir20  1  0.141566  0.141566  0.141566  1
  Ir  Ir21  1  0.141566  0.141566  0.575304  1
  Ir  Ir22  1  0.141566  0.575304  0.141566  1
  Ir  Ir23  1  0.575304  0.141566  0.141566  1
