# generated using pymatgen
data_Y8Ti3Si16Tc9
_symmetry_space_group_name_H-M   'P 1'
_cell_length_a   6.80056977
_cell_length_b   6.80056946
_cell_length_c   12.97919709
_cell_angle_alpha   89.92363937
_cell_angle_beta   90.07635981
_cell_angle_gamma   89.40022149
_symmetry_Int_Tables_number   1
_chemical_formula_structural   Y8Ti3Si16Tc9
_chemical_formula_sum   'Y8 Ti3 Si16 Tc9'
_cell_volume   600.22465915
_cell_formula_units_Z   1
loop_
 _symmetry_equiv_pos_site_id
 _symmetry_equiv_pos_as_xyz
  1  'x, y, z'
loop_
 _atom_site_type_symbol
 _atom_site_label
 _atom_site_symmetry_multiplicity
 _atom_site_fract_x
 _atom_site_fract_y
 _atom_site_fract_z
 _atom_site_occupancy
  Y  Y0  1  0.337138  0.002337  0.471119  1
  Y  Y1  1  0.509642  0.823626  0.716777  1
  Y  Y2  1  0.487943  0.179093  0.216686  1
  Y  Y3  1  0.823626  0.509642  0.283223  1
  Y  Y4  1  0.179093  0.487943  0.783314  1
  Y  Y5  1  0.662156  0.998439  0.971637  1
  Y  Y6  1  0.002337  0.337138  0.528881  1
  Y  Y7  1  0.998439  0.662156  0.028363  1
  Ti  Ti8  1  0.155747  0.844886  0.249032  1
  Ti  Ti9  1  0.844886  0.155747  0.750968  1
  Ti  Ti10  1  0.665935  0.665935  0.500000  1
  Si  Si11  1  0.211252  0.117483  0.681153  1
  Si  Si12  1  0.397934  0.680937  0.940869  1
  Si  Si13  1  0.610863  0.308650  0.438407  1
  Si  Si14  1  0.680937  0.397934  0.059131  1
  Si  Si15  1  0.308650  0.610863  0.561593  1
  Si  Si16  1  0.787201  0.884161  0.182780  1
  Si  Si17  1  0.117483  0.211252  0.318847  1
  Si  Si18  1  0.884161  0.787201  0.817220  1
  Si  Si19  1  0.262481  0.985973  0.055203  1
  Si  Si20  1  0.525355  0.803161  0.314090  1
  Si  Si21  1  0.471789  0.198296  0.815206  1
  Si  Si22  1  0.803161  0.525355  0.685910  1
  Si  Si23  1  0.198296  0.471789  0.184794  1
  Si  Si24  1  0.730931  0.022572  0.557468  1
  Si  Si25  1  0.985973  0.262481  0.944797  1
  Si  Si26  1  0.022572  0.730931  0.442532  1
  Tc  Tc27  1  0.334318  0.334318  0.000000  1
  Tc  Tc28  1  0.182211  0.982414  0.864647  1
  Tc  Tc29  1  0.473582  0.693418  0.132105  1
  Tc  Tc30  1  0.523884  0.314609  0.632521  1
  Tc  Tc31  1  0.693418  0.473582  0.867895  1
  Tc  Tc32  1  0.314609  0.523884  0.367479  1
  Tc  Tc33  1  0.818480  0.011104  0.364277  1
  Tc  Tc34  1  0.982414  0.182211  0.135353  1
  Tc  Tc35  1  0.011104  0.818480  0.635723  1
