# generated using pymatgen
data_Ce2Si2TcIr
_symmetry_space_group_name_H-M   'P 1'
_cell_length_a   4.38474800
_cell_length_b   7.40118600
_cell_length_c   6.80821600
_cell_angle_alpha   90.00000000
_cell_angle_beta   90.00000000
_cell_angle_gamma   90.00000000
_symmetry_Int_Tables_number   1
_chemical_formula_structural   Ce2Si2TcIr
_chemical_formula_sum   'Ce4 Si4 Tc2 Ir2'
_cell_volume   220.94250986
_cell_formula_units_Z   2
loop_
 _symmetry_equiv_pos_site_id
 _symmetry_equiv_pos_as_xyz
  1  'x, y, z'
loop_
 _atom_site_type_symbol
 _atom_site_label
 _atom_site_symmetry_multiplicity
 _atom_site_fract_x
 _atom_site_fract_y
 _atom_site_fract_z
 _atom_site_occupancy
  Ce  Ce0  1  0.250000  0.981989  0.340268  1
  Ce  Ce1  1  0.250000  0.481989  0.159732  1
  Ce  Ce2  1  0.750000  0.018495  0.664266  1
  Ce  Ce3  1  0.750000  0.518495  0.835734  1
  Si  Si4  1  0.250000  0.308088  0.616527  1
  Si  Si5  1  0.250000  0.808088  0.883473  1
  Si  Si6  1  0.750000  0.691848  0.389062  1
  Si  Si7  1  0.750000  0.191848  0.110938  1
  Tc  Tc8  1  0.250000  0.138837  0.935324  1
  Tc  Tc9  1  0.250000  0.638837  0.564676  1
  Ir  Ir10  1  0.750000  0.860743  0.070788  1
  Ir  Ir11  1  0.750000  0.360743  0.429212  1
