# generated using pymatgen
data_Tm12Fe2Ag2Os
_symmetry_space_group_name_H-M   'P 1'
_cell_length_a   8.17299489
_cell_length_b   8.17299638
_cell_length_c   8.17299560
_cell_angle_alpha   108.53388745
_cell_angle_beta   108.53388021
_cell_angle_gamma   111.36261338
_symmetry_Int_Tables_number   1
_chemical_formula_structural   Tm12Fe2Ag2Os
_chemical_formula_sum   'Tm12 Fe2 Ag2 Os1'
_cell_volume   419.91897067
_cell_formula_units_Z   1
loop_
 _symmetry_equiv_pos_site_id
 _symmetry_equiv_pos_as_xyz
  1  'x, y, z'
loop_
 _atom_site_type_symbol
 _atom_site_label
 _atom_site_symmetry_multiplicity
 _atom_site_fract_x
 _atom_site_fract_y
 _atom_site_fract_z
 _atom_site_occupancy
  Tm  Tm0  1  0.190127  0.432512  0.242384  1
  Tm  Tm1  1  0.809873  0.567488  0.757616  1
  Tm  Tm2  1  0.190127  0.947743  0.757616  1
  Tm  Tm3  1  0.947743  0.190127  0.757616  1
  Tm  Tm4  1  0.809873  0.052257  0.242384  1
  Tm  Tm5  1  0.052257  0.809873  0.242384  1
  Tm  Tm6  1  0.432512  0.190127  0.242384  1
  Tm  Tm7  1  0.567488  0.809873  0.757616  1
  Tm  Tm8  1  0.311424  0.311424  0.622846  1
  Tm  Tm9  1  0.688576  0.688576  0.377154  1
  Tm  Tm10  1  0.688576  0.311424  0.000000  1
  Tm  Tm11  1  0.311424  0.688576  0.000000  1
  Fe  Fe12  1  0.379158  0.379158  0.000000  1
  Fe  Fe13  1  0.620842  0.620842  0.000000  1
  Ag  Ag14  1  0.000000  0.500000  0.500000  1
  Ag  Ag15  1  0.500000  0.000000  0.500000  1
  Os  Os16  1  0.000000  0.000000  0.000000  1
