# generated using pymatgen
data_Pr4As7Ir8
_symmetry_space_group_name_H-M   'P 1'
_cell_length_a   4.14803500
_cell_length_b   13.26640581
_cell_length_c   13.68353163
_cell_angle_alpha   81.74142262
_cell_angle_beta   90.00000000
_cell_angle_gamma   90.00000000
_symmetry_Int_Tables_number   1
_chemical_formula_structural   Pr4As7Ir8
_chemical_formula_sum   'Pr8 As14 Ir16'
_cell_volume   745.18944752
_cell_formula_units_Z   2
loop_
 _symmetry_equiv_pos_site_id
 _symmetry_equiv_pos_as_xyz
  1  'x, y, z'
loop_
 _atom_site_type_symbol
 _atom_site_label
 _atom_site_symmetry_multiplicity
 _atom_site_fract_x
 _atom_site_fract_y
 _atom_site_fract_z
 _atom_site_occupancy
  Pr  Pr0  1  0.250000  0.098650  0.794421  1
  Pr  Pr1  1  0.750000  0.901350  0.205579  1
  Pr  Pr2  1  0.250000  0.287164  0.102704  1
  Pr  Pr3  1  0.750000  0.712836  0.897296  1
  Pr  Pr4  1  0.250000  0.519246  0.293540  1
  Pr  Pr5  1  0.750000  0.480754  0.706460  1
  Pr  Pr6  1  0.250000  0.208488  0.437663  1
  Pr  Pr7  1  0.750000  0.791512  0.562337  1
  As  As8  1  0.250000  0.057465  0.099250  1
  As  As9  1  0.750000  0.942535  0.900750  1
  As  As10  1  0.250000  0.310557  0.688475  1
  As  As11  1  0.750000  0.689443  0.311525  1
  As  As12  1  0.250000  0.607231  0.566030  1
  As  As13  1  0.750000  0.392769  0.433970  1
  As  As14  1  0.250000  0.848173  0.719869  1
  As  As15  1  0.750000  0.151827  0.280131  1
  As  As16  1  0.750000  0.256805  0.918013  1
  As  As17  1  0.250000  0.743195  0.081987  1
  As  As18  1  0.750000  0.095508  0.587014  1
  As  As19  1  0.250000  0.904492  0.412986  1
  As  As20  1  0.750000  0.471772  0.128745  1
  As  As21  1  0.250000  0.528228  0.871255  1
  Ir  Ir22  1  0.250000  0.989562  0.574334  1
  Ir  Ir23  1  0.750000  0.010438  0.425666  1
  Ir  Ir24  1  0.250000  0.665718  0.733172  1
  Ir  Ir25  1  0.750000  0.334282  0.266828  1
  Ir  Ir26  1  0.250000  0.555653  0.045148  1
  Ir  Ir27  1  0.750000  0.444347  0.954852  1
  Ir  Ir28  1  0.250000  0.053426  0.277707  1
  Ir  Ir29  1  0.750000  0.946574  0.722293  1
  Ir  Ir30  1  0.250000  0.424903  0.526613  1
  Ir  Ir31  1  0.750000  0.575097  0.473387  1
  Ir  Ir32  1  0.250000  0.918270  0.997820  1
  Ir  Ir33  1  0.750000  0.081730  0.002180  1
  Ir  Ir34  1  0.250000  0.722016  0.399948  1
  Ir  Ir35  1  0.750000  0.277984  0.600052  1
  Ir  Ir36  1  0.250000  0.343602  0.860421  1
  Ir  Ir37  1  0.750000  0.656398  0.139579  1
