# generated using pymatgen
data_Tm4MgSi(B2Rh5)2
_symmetry_space_group_name_H-M   'P 1'
_cell_length_a   9.44413800
_cell_length_b   9.44413800
_cell_length_c   3.18679000
_cell_angle_alpha   90.00000000
_cell_angle_beta   90.00000000
_cell_angle_gamma   90.00000000
_symmetry_Int_Tables_number   1
_chemical_formula_structural   Tm4MgSi(B2Rh5)2
_chemical_formula_sum   'Tm4 Mg1 Si1 B4 Rh10'
_cell_volume   284.23535328
_cell_formula_units_Z   1
loop_
 _symmetry_equiv_pos_site_id
 _symmetry_equiv_pos_as_xyz
  1  'x, y, z'
loop_
 _atom_site_type_symbol
 _atom_site_label
 _atom_site_symmetry_multiplicity
 _atom_site_fract_x
 _atom_site_fract_y
 _atom_site_fract_z
 _atom_site_occupancy
  Tm  Tm0  1  0.676248  0.173802  0.000000  1
  Tm  Tm1  1  0.323752  0.826198  0.000000  1
  Tm  Tm2  1  0.173802  0.323752  0.000000  1
  Tm  Tm3  1  0.826198  0.676248  0.000000  1
  Mg  Mg4  1  0.500000  0.500000  0.000000  1
  Si  Si5  1  0.000000  0.000000  0.000000  1
  B  B6  1  0.122346  0.622056  0.000000  1
  B  B7  1  0.877654  0.377944  0.000000  1
  B  B8  1  0.622056  0.877654  0.000000  1
  B  B9  1  0.377944  0.122346  0.000000  1
  Rh  Rh10  1  0.500000  0.000000  0.500000  1
  Rh  Rh11  1  0.000000  0.500000  0.500000  1
  Rh  Rh12  1  0.212127  0.066069  0.500000  1
  Rh  Rh13  1  0.787873  0.933931  0.500000  1
  Rh  Rh14  1  0.066069  0.787873  0.500000  1
  Rh  Rh15  1  0.724163  0.425078  0.500000  1
  Rh  Rh16  1  0.933931  0.212127  0.500000  1
  Rh  Rh17  1  0.275837  0.574922  0.500000  1
  Rh  Rh18  1  0.574922  0.724163  0.500000  1
  Rh  Rh19  1  0.425078  0.275837  0.500000  1
