# generated using pymatgen
data_Dy6ScTi(Co4P3)4
_symmetry_space_group_name_H-M   'P 1'
_cell_length_a   3.70856900
_cell_length_b   10.62719600
_cell_length_c   12.31759500
_cell_angle_alpha   90.00000000
_cell_angle_beta   90.00000000
_cell_angle_gamma   90.00000000
_symmetry_Int_Tables_number   1
_chemical_formula_structural   Dy6ScTi(Co4P3)4
_chemical_formula_sum   'Dy6 Sc1 Ti1 Co16 P12'
_cell_volume   485.45723128
_cell_formula_units_Z   1
loop_
 _symmetry_equiv_pos_site_id
 _symmetry_equiv_pos_as_xyz
  1  'x, y, z'
loop_
 _atom_site_type_symbol
 _atom_site_label
 _atom_site_symmetry_multiplicity
 _atom_site_fract_x
 _atom_site_fract_y
 _atom_site_fract_z
 _atom_site_occupancy
  Dy  Dy0  1  0.000000  0.500000  0.527327  1
  Dy  Dy1  1  0.500000  0.000000  0.475336  1
  Dy  Dy2  1  0.500000  0.822258  0.205093  1
  Dy  Dy3  1  0.500000  0.177742  0.205093  1
  Dy  Dy4  1  0.000000  0.680080  0.794864  1
  Dy  Dy5  1  0.000000  0.319920  0.794864  1
  Sc  Sc6  1  0.500000  0.500000  0.154956  1
  Ti  Ti7  1  0.000000  0.000000  0.844864  1
  Co  Co8  1  0.500000  0.500000  0.703610  1
  Co  Co9  1  0.000000  0.000000  0.296299  1
  Co  Co10  1  0.000000  0.500000  0.985801  1
  Co  Co11  1  0.500000  0.000000  0.011425  1
  Co  Co12  1  0.500000  0.329409  0.992274  1
  Co  Co13  1  0.500000  0.670591  0.992274  1
  Co  Co14  1  0.000000  0.165805  0.003798  1
  Co  Co15  1  0.000000  0.834195  0.003798  1
  Co  Co16  1  0.500000  0.294858  0.433358  1
  Co  Co17  1  0.500000  0.705142  0.433358  1
  Co  Co18  1  0.000000  0.203588  0.568785  1
  Co  Co19  1  0.000000  0.796412  0.568785  1
  Co  Co20  1  0.500000  0.878913  0.705839  1
  Co  Co21  1  0.500000  0.121087  0.705839  1
  Co  Co22  1  0.000000  0.622553  0.296853  1
  Co  Co23  1  0.000000  0.377447  0.296853  1
  P  P24  1  0.500000  0.500000  0.883957  1
  P  P25  1  0.000000  0.000000  0.115619  1
  P  P26  1  0.500000  0.500000  0.358427  1
  P  P27  1  0.000000  0.000000  0.646371  1
  P  P28  1  0.500000  0.309469  0.616089  1
  P  P29  1  0.500000  0.690531  0.616089  1
  P  P30  1  0.000000  0.189550  0.385050  1
  P  P31  1  0.000000  0.810450  0.385050  1
  P  P32  1  0.500000  0.843874  0.890692  1
  P  P33  1  0.500000  0.156126  0.890692  1
  P  P34  1  0.000000  0.661421  0.105310  1
  P  P35  1  0.000000  0.338579  0.105310  1
