# generated using pymatgen
data_Ho4Co2BiO12
_symmetry_space_group_name_H-M   'P 1'
_cell_length_a   6.72777169
_cell_length_b   6.72777110
_cell_length_c   7.14740537
_cell_angle_alpha   74.62743608
_cell_angle_beta   74.62743447
_cell_angle_gamma   50.83974253
_symmetry_Int_Tables_number   1
_chemical_formula_structural   Ho4Co2BiO12
_chemical_formula_sum   'Ho4 Co2 Bi1 O12'
_cell_volume   239.79761074
_cell_formula_units_Z   1
loop_
 _symmetry_equiv_pos_site_id
 _symmetry_equiv_pos_as_xyz
  1  'x, y, z'
loop_
 _atom_site_type_symbol
 _atom_site_label
 _atom_site_symmetry_multiplicity
 _atom_site_fract_x
 _atom_site_fract_y
 _atom_site_fract_z
 _atom_site_occupancy
  Ho  Ho0  1  0.308837  0.308837  0.349166  1
  Ho  Ho1  1  0.691163  0.691163  0.650834  1
  Ho  Ho2  1  0.306308  0.306308  0.843660  1
  Ho  Ho3  1  0.693692  0.693692  0.156340  1
  Co  Co4  1  0.753282  0.246718  0.000000  1
  Co  Co5  1  0.246718  0.753282  0.000000  1
  Bi  Bi6  1  0.000000  0.000000  0.500000  1
  O  O7  1  0.900730  0.421623  0.917686  1
  O  O8  1  0.421623  0.900730  0.917686  1
  O  O9  1  0.099270  0.578377  0.082314  1
  O  O10  1  0.578377  0.099270  0.082314  1
  O  O11  1  0.097510  0.599471  0.574041  1
  O  O12  1  0.599471  0.097510  0.574041  1
  O  O13  1  0.902490  0.400529  0.425959  1
  O  O14  1  0.400529  0.902490  0.425959  1
  O  O15  1  0.999614  0.999614  0.824346  1
  O  O16  1  0.000386  0.000386  0.175654  1
  O  O17  1  0.499106  0.499106  0.820698  1
  O  O18  1  0.500894  0.500894  0.179302  1
