# generated using pymatgen
data_CeLuTiAlIr2
_symmetry_space_group_name_H-M   'P 1'
_cell_length_a   6.86137800
_cell_length_b   4.31046700
_cell_length_c   7.96033500
_cell_angle_alpha   90.00000000
_cell_angle_beta   90.00000000
_cell_angle_gamma   90.00000000
_symmetry_Int_Tables_number   1
_chemical_formula_structural   CeLuTiAlIr2
_chemical_formula_sum   'Ce2 Lu2 Ti2 Al2 Ir4'
_cell_volume   235.43282568
_cell_formula_units_Z   2
loop_
 _symmetry_equiv_pos_site_id
 _symmetry_equiv_pos_as_xyz
  1  'x, y, z'
loop_
 _atom_site_type_symbol
 _atom_site_label
 _atom_site_symmetry_multiplicity
 _atom_site_fract_x
 _atom_site_fract_y
 _atom_site_fract_z
 _atom_site_occupancy
  Ce  Ce0  1  0.035009  0.750000  0.819493  1
  Ce  Ce1  1  0.535009  0.750000  0.680507  1
  Lu  Lu2  1  0.969651  0.250000  0.182986  1
  Lu  Lu3  1  0.469651  0.250000  0.317014  1
  Ti  Ti4  1  0.128377  0.750000  0.434265  1
  Ti  Ti5  1  0.628377  0.750000  0.065735  1
  Al  Al6  1  0.861024  0.250000  0.555807  1
  Al  Al7  1  0.361024  0.250000  0.944193  1
  Ir  Ir8  1  0.739859  0.250000  0.888834  1
  Ir  Ir9  1  0.239859  0.250000  0.611166  1
  Ir  Ir10  1  0.266080  0.750000  0.124024  1
  Ir  Ir11  1  0.766080  0.750000  0.375976  1
