# generated using pymatgen
data_Ho2Tm14In3HgRh4
_symmetry_space_group_name_H-M   'P 1'
_cell_length_a   9.52142035
_cell_length_b   9.51791184
_cell_length_c   9.51108080
_cell_angle_alpha   60.05495424
_cell_angle_beta   60.12091896
_cell_angle_gamma   60.14203007
_symmetry_Int_Tables_number   1
_chemical_formula_structural   Ho2Tm14In3HgRh4
_chemical_formula_sum   'Ho2 Tm14 In3 Hg1 Rh4'
_cell_volume   610.94091710
_cell_formula_units_Z   1
loop_
 _symmetry_equiv_pos_site_id
 _symmetry_equiv_pos_as_xyz
  1  'x, y, z'
loop_
 _atom_site_type_symbol
 _atom_site_label
 _atom_site_symmetry_multiplicity
 _atom_site_fract_x
 _atom_site_fract_y
 _atom_site_fract_z
 _atom_site_occupancy
  Ho  Ho0  1  0.062034  0.062446  0.437955  1
  Ho  Ho1  1  0.437580  0.065426  0.436542  1
  Tm  Tm2  1  0.062311  0.438651  0.061680  1
  Tm  Tm3  1  0.049886  0.649325  0.649703  1
  Tm  Tm4  1  0.437419  0.437360  0.064617  1
  Tm  Tm5  1  0.649751  0.051805  0.648277  1
  Tm  Tm6  1  0.188782  0.811954  0.189564  1
  Tm  Tm7  1  0.188592  0.189730  0.812659  1
  Tm  Tm8  1  0.810097  0.810209  0.190212  1
  Tm  Tm9  1  0.439072  0.061876  0.060816  1
  Tm  Tm10  1  0.812046  0.189091  0.188629  1
  Tm  Tm11  1  0.065514  0.437546  0.436521  1
  Tm  Tm12  1  0.809481  0.190335  0.810994  1
  Tm  Tm13  1  0.189584  0.809456  0.810929  1
  Tm  Tm14  1  0.649833  0.647941  0.051807  1
  Tm  Tm15  1  0.652121  0.650249  0.650637  1
  In  In16  1  0.749201  0.417037  0.416790  1
  In  In17  1  0.417051  0.748496  0.417123  1
  In  In18  1  0.416738  0.416890  0.749409  1
  Hg  Hg19  1  0.413352  0.413971  0.413652  1
  Rh  Rh20  1  0.858184  0.857894  0.426929  1
  Rh  Rh21  1  0.856423  0.856970  0.857622  1
  Rh  Rh22  1  0.427086  0.858061  0.858658  1
  Rh  Rh23  1  0.857858  0.427279  0.858270  1
