# generated using pymatgen
data_ErMn2SiC
_symmetry_space_group_name_H-M   'P 1'
_cell_length_a   5.59456790
_cell_length_b   5.59456839
_cell_length_c   6.97145200
_cell_angle_alpha   90.00000000
_cell_angle_beta   90.00000000
_cell_angle_gamma   141.71585707
_symmetry_Int_Tables_number   1
_chemical_formula_structural   ErMn2SiC
_chemical_formula_sum   'Er2 Mn4 Si2 C2'
_cell_volume   135.18889593
_cell_formula_units_Z   2
loop_
 _symmetry_equiv_pos_site_id
 _symmetry_equiv_pos_as_xyz
  1  'x, y, z'
loop_
 _atom_site_type_symbol
 _atom_site_label
 _atom_site_symmetry_multiplicity
 _atom_site_fract_x
 _atom_site_fract_y
 _atom_site_fract_z
 _atom_site_occupancy
  Er  Er0  1  0.543645  0.456355  0.250000  1
  Er  Er1  1  0.456355  0.543645  0.750000  1
  Mn  Mn2  1  0.832109  0.167891  0.061443  1
  Mn  Mn3  1  0.167891  0.832109  0.938557  1
  Mn  Mn4  1  0.167891  0.832109  0.561443  1
  Mn  Mn5  1  0.832109  0.167891  0.438557  1
  Si  Si6  1  0.264267  0.735733  0.250000  1
  Si  Si7  1  0.735733  0.264267  0.750000  1
  C  C8  1  0.000000  0.000000  0.000000  1
  C  C9  1  0.000000  0.000000  0.500000  1
