# generated using pymatgen
data_Ho7Er7Lu6(CoBi2)4
_symmetry_space_group_name_H-M   'P 1'
_cell_length_a   7.87618040
_cell_length_b   8.87179290
_cell_length_c   12.36940503
_cell_angle_alpha   89.94426637
_cell_angle_beta   90.05867181
_cell_angle_gamma   90.05198310
_symmetry_Int_Tables_number   1
_chemical_formula_structural   Ho7Er7Lu6(CoBi2)4
_chemical_formula_sum   'Ho7 Er7 Lu6 Co4 Bi8'
_cell_volume   864.32136685
_cell_formula_units_Z   1
loop_
 _symmetry_equiv_pos_site_id
 _symmetry_equiv_pos_as_xyz
  1  'x, y, z'
loop_
 _atom_site_type_symbol
 _atom_site_label
 _atom_site_symmetry_multiplicity
 _atom_site_fract_x
 _atom_site_fract_y
 _atom_site_fract_z
 _atom_site_occupancy
  Ho  Ho0  1  0.653370  0.749702  0.699835  1
  Ho  Ho1  1  0.346622  0.250308  0.300192  1
  Ho  Ho2  1  0.152970  0.250004  0.800017  1
  Ho  Ho3  1  0.846993  0.749990  0.199971  1
  Ho  Ho4  1  0.120445  0.750884  0.815028  1
  Ho  Ho5  1  0.879584  0.249110  0.184899  1
  Ho  Ho6  1  0.619847  0.251658  0.685378  1
  Er  Er7  1  0.380475  0.748355  0.314924  1
  Er  Er8  1  0.556661  0.749716  0.996673  1
  Er  Er9  1  0.443084  0.250318  0.003329  1
  Er  Er10  1  0.054793  0.251786  0.502803  1
  Er  Er11  1  0.945332  0.748207  0.497157  1
  Er  Er12  1  0.674351  0.036152  0.435946  1
  Er  Er13  1  0.325465  0.963612  0.564002  1
  Lu  Lu14  1  0.828891  0.463597  0.936081  1
  Lu  Lu15  1  0.171187  0.536436  0.063944  1
  Lu  Lu16  1  0.328883  0.537622  0.564162  1
  Lu  Lu17  1  0.171417  0.963295  0.063874  1
  Lu  Lu18  1  0.671019  0.462603  0.435730  1
  Lu  Lu19  1  0.828636  0.036649  0.936168  1
  Co  Co20  1  0.937430  0.749938  0.993963  1
  Co  Co21  1  0.062543  0.250057  0.006014  1
  Co  Co22  1  0.436043  0.251451  0.506727  1
  Co  Co23  1  0.563841  0.748534  0.493117  1
  Bi  Bi24  1  0.932317  0.007715  0.672855  1
  Bi  Bi25  1  0.067855  0.992195  0.327129  1
  Bi  Bi26  1  0.435018  0.993253  0.827289  1
  Bi  Bi27  1  0.065595  0.506964  0.326391  1
  Bi  Bi28  1  0.564876  0.006641  0.172750  1
  Bi  Bi29  1  0.934571  0.493131  0.673602  1
  Bi  Bi30  1  0.565873  0.492702  0.172766  1
  Bi  Bi31  1  0.434011  0.507413  0.827280  1
