# generated using pymatgen
data_Nd4Zn3Ge2Rh9
_symmetry_space_group_name_H-M   'P 1'
_cell_length_a   12.24901370
_cell_length_b   12.24901380
_cell_length_c   12.24901396
_cell_angle_alpha   26.56890080
_cell_angle_beta   26.56890238
_cell_angle_gamma   26.56890130
_symmetry_Int_Tables_number   1
_chemical_formula_structural   Nd4Zn3Ge2Rh9
_chemical_formula_sum   'Nd4 Zn3 Ge2 Rh9'
_cell_volume   324.10617824
_cell_formula_units_Z   1
loop_
 _symmetry_equiv_pos_site_id
 _symmetry_equiv_pos_as_xyz
  1  'x, y, z'
loop_
 _atom_site_type_symbol
 _atom_site_label
 _atom_site_symmetry_multiplicity
 _atom_site_fract_x
 _atom_site_fract_y
 _atom_site_fract_z
 _atom_site_occupancy
  Nd  Nd0  1  0.950352  0.950352  0.950352  1
  Nd  Nd1  1  0.852383  0.852383  0.852383  1
  Nd  Nd2  1  0.146668  0.146668  0.146668  1
  Nd  Nd3  1  0.049289  0.049289  0.049289  1
  Zn  Zn4  1  0.278991  0.278991  0.278991  1
  Zn  Zn5  1  0.500580  0.500580  0.500580  1
  Zn  Zn6  1  0.387983  0.387983  0.387983  1
  Ge  Ge7  1  0.721840  0.721840  0.721840  1
  Ge  Ge8  1  0.611386  0.611386  0.611386  1
  Rh  Rh9  1  0.609700  0.609700  0.108044  1
  Rh  Rh10  1  0.896202  0.388350  0.388350  1
  Rh  Rh11  1  0.500959  0.998264  0.500959  1
  Rh  Rh12  1  0.388350  0.896202  0.388350  1
  Rh  Rh13  1  0.500959  0.500959  0.998264  1
  Rh  Rh14  1  0.108044  0.609700  0.609700  1
  Rh  Rh15  1  0.998264  0.500959  0.500959  1
  Rh  Rh16  1  0.388350  0.388350  0.896202  1
  Rh  Rh17  1  0.609700  0.108044  0.609700  1
