# generated using pymatgen
data_Tb2NdCo8P6Ru
_symmetry_space_group_name_H-M   'P 1'
_cell_length_a   3.72798000
_cell_length_b   10.55611100
_cell_length_c   12.30555400
_cell_angle_alpha   90.00000000
_cell_angle_beta   90.00000000
_cell_angle_gamma   90.00000000
_symmetry_Int_Tables_number   1
_chemical_formula_structural   Tb2NdCo8P6Ru
_chemical_formula_sum   'Tb4 Nd2 Co16 P12 Ru2'
_cell_volume   484.26010583
_cell_formula_units_Z   2
loop_
 _symmetry_equiv_pos_site_id
 _symmetry_equiv_pos_as_xyz
  1  'x, y, z'
loop_
 _atom_site_type_symbol
 _atom_site_label
 _atom_site_symmetry_multiplicity
 _atom_site_fract_x
 _atom_site_fract_y
 _atom_site_fract_z
 _atom_site_occupancy
  Tb  Tb0  1  0.500000  0.816452  0.205860  1
  Tb  Tb1  1  0.500000  0.183548  0.205860  1
  Tb  Tb2  1  0.000000  0.683548  0.794140  1
  Tb  Tb3  1  0.000000  0.316452  0.794140  1
  Nd  Nd4  1  0.000000  0.500000  0.524720  1
  Nd  Nd5  1  0.500000  0.000000  0.475280  1
  Co  Co6  1  0.500000  0.500000  0.706903  1
  Co  Co7  1  0.000000  0.000000  0.293097  1
  Co  Co8  1  0.000000  0.500000  0.986517  1
  Co  Co9  1  0.500000  0.000000  0.013483  1
  Co  Co10  1  0.500000  0.332376  0.991008  1
  Co  Co11  1  0.500000  0.667624  0.991008  1
  Co  Co12  1  0.000000  0.167624  0.008992  1
  Co  Co13  1  0.000000  0.832376  0.008992  1
  Co  Co14  1  0.500000  0.296709  0.429752  1
  Co  Co15  1  0.500000  0.703291  0.429752  1
  Co  Co16  1  0.000000  0.203291  0.570248  1
  Co  Co17  1  0.000000  0.796709  0.570248  1
  Co  Co18  1  0.500000  0.879956  0.709942  1
  Co  Co19  1  0.500000  0.120044  0.709942  1
  Co  Co20  1  0.000000  0.620044  0.290058  1
  Co  Co21  1  0.000000  0.379956  0.290058  1
  P  P22  1  0.500000  0.500000  0.883719  1
  P  P23  1  0.000000  0.000000  0.116281  1
  P  P24  1  0.500000  0.500000  0.346058  1
  P  P25  1  0.000000  0.000000  0.653942  1
  P  P26  1  0.500000  0.307643  0.617180  1
  P  P27  1  0.500000  0.692357  0.617180  1
  P  P28  1  0.000000  0.192357  0.382820  1
  P  P29  1  0.000000  0.807643  0.382820  1
  P  P30  1  0.500000  0.846734  0.894523  1
  P  P31  1  0.500000  0.153266  0.894523  1
  P  P32  1  0.000000  0.653266  0.105477  1
  P  P33  1  0.000000  0.346734  0.105477  1
  Ru  Ru34  1  0.500000  0.500000  0.157620  1
  Ru  Ru35  1  0.000000  0.000000  0.842380  1
