# generated using pymatgen
data_Nd8Hg2RuRh
_symmetry_space_group_name_H-M   'P 1'
_cell_length_a   9.88999843
_cell_length_b   9.88999868
_cell_length_c   9.92846300
_cell_angle_alpha   59.87126557
_cell_angle_beta   59.87126473
_cell_angle_gamma   59.76031097
_symmetry_Int_Tables_number   1
_chemical_formula_structural   Nd8Hg2RuRh
_chemical_formula_sum   'Nd16 Hg4 Ru2 Rh2'
_cell_volume   684.10356286
_cell_formula_units_Z   2
loop_
 _symmetry_equiv_pos_site_id
 _symmetry_equiv_pos_as_xyz
  1  'x, y, z'
loop_
 _atom_site_type_symbol
 _atom_site_label
 _atom_site_symmetry_multiplicity
 _atom_site_fract_x
 _atom_site_fract_y
 _atom_site_fract_z
 _atom_site_occupancy
  Nd  Nd0  1  0.598395  0.598395  0.601469  1
  Nd  Nd1  1  0.598395  0.598395  0.201742  1
  Nd  Nd2  1  0.596791  0.203501  0.599854  1
  Nd  Nd3  1  0.203501  0.596791  0.599854  1
  Nd  Nd4  1  0.061189  0.440697  0.440724  1
  Nd  Nd5  1  0.440697  0.061189  0.057390  1
  Nd  Nd6  1  0.440697  0.061189  0.440724  1
  Nd  Nd7  1  0.061189  0.440697  0.057390  1
  Nd  Nd8  1  0.440414  0.440414  0.059586  1
  Nd  Nd9  1  0.058559  0.058559  0.441441  1
  Nd  Nd10  1  0.188586  0.809732  0.813370  1
  Nd  Nd11  1  0.809732  0.188586  0.188311  1
  Nd  Nd12  1  0.809732  0.188586  0.813370  1
  Nd  Nd13  1  0.188586  0.809732  0.188311  1
  Nd  Nd14  1  0.812479  0.812479  0.187521  1
  Nd  Nd15  1  0.189042  0.189042  0.810958  1
  Hg  Hg16  1  0.833729  0.833729  0.833659  1
  Hg  Hg17  1  0.833729  0.833729  0.498884  1
  Hg  Hg18  1  0.833671  0.499130  0.833599  1
  Hg  Hg19  1  0.499130  0.833671  0.833599  1
  Ru  Ru20  1  0.391036  0.391036  0.387471  1
  Ru  Ru21  1  0.391036  0.391036  0.830458  1
  Rh  Rh22  1  0.392722  0.826963  0.390158  1
  Rh  Rh23  1  0.826963  0.392722  0.390158  1
