# generated using pymatgen
data_Er2GaRe2Os
_symmetry_space_group_name_H-M   'P 1'
_cell_length_a   5.35509953
_cell_length_b   5.38426811
_cell_length_c   8.86006900
_cell_angle_alpha   90.00000000
_cell_angle_beta   90.00000000
_cell_angle_gamma   120.18034688
_symmetry_Int_Tables_number   1
_chemical_formula_structural   Er2GaRe2Os
_chemical_formula_sum   'Er4 Ga2 Re4 Os2'
_cell_volume   220.83598736
_cell_formula_units_Z   2
loop_
 _symmetry_equiv_pos_site_id
 _symmetry_equiv_pos_as_xyz
  1  'x, y, z'
loop_
 _atom_site_type_symbol
 _atom_site_label
 _atom_site_symmetry_multiplicity
 _atom_site_fract_x
 _atom_site_fract_y
 _atom_site_fract_z
 _atom_site_occupancy
  Er  Er0  1  0.671293  0.335647  0.064438  1
  Er  Er1  1  0.671293  0.335647  0.435562  1
  Er  Er2  1  0.343550  0.671776  0.556128  1
  Er  Er3  1  0.343550  0.671776  0.943872  1
  Ga  Ga4  1  0.809778  0.161000  0.750000  1
  Ga  Ga5  1  0.809779  0.648777  0.750000  1
  Re  Re6  1  0.170499  0.339876  0.250000  1
  Re  Re7  1  0.170498  0.830624  0.250000  1
  Re  Re8  1  0.655561  0.827780  0.250000  1
  Re  Re9  1  0.312329  0.156164  0.750000  1
  Os  Os10  1  0.020934  0.010467  0.995226  1
  Os  Os11  1  0.020934  0.010467  0.504774  1
