# generated using pymatgen
data_CsKHfTe3
_symmetry_space_group_name_H-M   'P 1'
_cell_length_a   14.84804000
_cell_length_b   6.96775653
_cell_length_c   9.82252105
_cell_angle_alpha   69.57557738
_cell_angle_beta   90.00000000
_cell_angle_gamma   90.00000000
_symmetry_Int_Tables_number   1
_chemical_formula_structural   CsKHfTe3
_chemical_formula_sum   'Cs4 K4 Hf4 Te12'
_cell_volume   952.32776322
_cell_formula_units_Z   4
loop_
 _symmetry_equiv_pos_site_id
 _symmetry_equiv_pos_as_xyz
  1  'x, y, z'
loop_
 _atom_site_type_symbol
 _atom_site_label
 _atom_site_symmetry_multiplicity
 _atom_site_fract_x
 _atom_site_fract_y
 _atom_site_fract_z
 _atom_site_occupancy
  Cs  Cs0  1  0.949727  0.668498  0.664416  1
  Cs  Cs1  1  0.449727  0.831502  0.335584  1
  Cs  Cs2  1  0.050273  0.331502  0.335584  1
  Cs  Cs3  1  0.550273  0.168498  0.664416  1
  K  K4  1  0.865155  0.065029  0.898654  1
  K  K5  1  0.365155  0.434971  0.101346  1
  K  K6  1  0.134845  0.934971  0.101346  1
  K  K7  1  0.634845  0.565029  0.898654  1
  Hf  Hf8  1  0.748741  0.662210  0.283814  1
  Hf  Hf9  1  0.248741  0.837790  0.716186  1
  Hf  Hf10  1  0.251259  0.337790  0.716186  1
  Hf  Hf11  1  0.751259  0.162210  0.283814  1
  Te  Te12  1  0.908928  0.896833  0.262488  1
  Te  Te13  1  0.408928  0.603167  0.737512  1
  Te  Te14  1  0.091072  0.103167  0.737512  1
  Te  Te15  1  0.591072  0.396833  0.262488  1
  Te  Te16  1  0.813956  0.276088  0.515032  1
  Te  Te17  1  0.313956  0.223912  0.484968  1
  Te  Te18  1  0.186044  0.723912  0.484968  1
  Te  Te19  1  0.686044  0.776088  0.515032  1
  Te  Te20  1  0.842177  0.491189  0.073072  1
  Te  Te21  1  0.342177  0.008811  0.926928  1
  Te  Te22  1  0.157823  0.508811  0.926928  1
  Te  Te23  1  0.657823  0.991189  0.073072  1
