# generated using pymatgen
data_Y5Cr3(Ni4As3)4
_symmetry_space_group_name_H-M   'P 1'
_cell_length_a   12.61085200
_cell_length_b   12.61085096
_cell_length_c   3.87467300
_cell_angle_alpha   90.00000000
_cell_angle_beta   90.00000000
_cell_angle_gamma   120.00000272
_symmetry_Int_Tables_number   1
_chemical_formula_structural   Y5Cr3(Ni4As3)4
_chemical_formula_sum   'Y5 Cr3 Ni16 As12'
_cell_volume   533.64752352
_cell_formula_units_Z   1
loop_
 _symmetry_equiv_pos_site_id
 _symmetry_equiv_pos_as_xyz
  1  'x, y, z'
loop_
 _atom_site_type_symbol
 _atom_site_label
 _atom_site_symmetry_multiplicity
 _atom_site_fract_x
 _atom_site_fract_y
 _atom_site_fract_z
 _atom_site_occupancy
  Y  Y0  1  0.186954  0.186954  0.500000  1
  Y  Y1  1  0.813046  0.000000  0.500000  1
  Y  Y2  1  0.000000  0.813046  0.500000  1
  Y  Y3  1  0.333333  0.666667  0.000000  1
  Y  Y4  1  0.666667  0.333333  0.000000  1
  Cr  Cr5  1  0.561643  0.561643  0.000000  1
  Cr  Cr6  1  0.438357  0.000000  0.000000  1
  Cr  Cr7  1  0.000000  0.438357  0.000000  1
  Ni  Ni8  1  0.718012  0.718012  0.500000  1
  Ni  Ni9  1  0.281988  0.000000  0.500000  1
  Ni  Ni10  1  0.000000  0.281988  0.500000  1
  Ni  Ni11  1  0.183296  0.378883  0.000000  1
  Ni  Ni12  1  0.621117  0.804414  0.000000  1
  Ni  Ni13  1  0.195586  0.816704  0.000000  1
  Ni  Ni14  1  0.804414  0.621117  0.000000  1
  Ni  Ni15  1  0.816704  0.195586  0.000000  1
  Ni  Ni16  1  0.378883  0.183296  0.000000  1
  Ni  Ni17  1  0.359742  0.482487  0.500000  1
  Ni  Ni18  1  0.517513  0.877256  0.500000  1
  Ni  Ni19  1  0.122744  0.640258  0.500000  1
  Ni  Ni20  1  0.877256  0.517513  0.500000  1
  Ni  Ni21  1  0.640258  0.122744  0.500000  1
  Ni  Ni22  1  0.482487  0.359742  0.500000  1
  Ni  Ni23  1  0.000000  0.000000  0.000000  1
  As  As24  1  0.821347  0.821347  0.000000  1
  As  As25  1  0.178653  0.000000  0.000000  1
  As  As26  1  0.000000  0.178653  0.000000  1
  As  As27  1  0.166309  0.480183  0.500000  1
  As  As28  1  0.519817  0.686126  0.500000  1
  As  As29  1  0.313874  0.833691  0.500000  1
  As  As30  1  0.686126  0.519817  0.500000  1
  As  As31  1  0.833691  0.313874  0.500000  1
  As  As32  1  0.480183  0.166309  0.500000  1
  As  As33  1  0.364499  0.364499  0.000000  1
  As  As34  1  0.635501  0.000000  0.000000  1
  As  As35  1  0.000000  0.635501  0.000000  1
