# generated using pymatgen
data_Yb6Fe3WC12
_symmetry_space_group_name_H-M   'P 1'
_cell_length_a   8.08544200
_cell_length_b   8.08544272
_cell_length_c   5.06380800
_cell_angle_alpha   90.00000000
_cell_angle_beta   90.00000000
_cell_angle_gamma   119.99998998
_symmetry_Int_Tables_number   1
_chemical_formula_structural   Yb6Fe3WC12
_chemical_formula_sum   'Yb6 Fe3 W1 C12'
_cell_volume   286.69193559
_cell_formula_units_Z   1
loop_
 _symmetry_equiv_pos_site_id
 _symmetry_equiv_pos_as_xyz
  1  'x, y, z'
loop_
 _atom_site_type_symbol
 _atom_site_label
 _atom_site_symmetry_multiplicity
 _atom_site_fract_x
 _atom_site_fract_y
 _atom_site_fract_z
 _atom_site_occupancy
  Yb  Yb0  1  0.608660  0.679813  0.746831  1
  Yb  Yb1  1  0.928847  0.608660  0.253169  1
  Yb  Yb2  1  0.679813  0.071153  0.253169  1
  Yb  Yb3  1  0.320187  0.928847  0.746831  1
  Yb  Yb4  1  0.071153  0.391340  0.746831  1
  Yb  Yb5  1  0.391340  0.320187  0.253169  1
  Fe  Fe6  1  0.000000  0.000000  0.000000  1
  Fe  Fe7  1  0.666667  0.333333  0.758273  1
  Fe  Fe8  1  0.333333  0.666667  0.241727  1
  W  W9  1  0.000000  0.000000  0.500000  1
  C  C10  1  0.954412  0.765798  0.747752  1
  C  C11  1  0.188614  0.954412  0.252248  1
  C  C12  1  0.765798  0.811386  0.252248  1
  C  C13  1  0.234202  0.188614  0.747752  1
  C  C14  1  0.811386  0.045588  0.747752  1
  C  C15  1  0.045588  0.234202  0.252248  1
  C  C16  1  0.856946  0.574840  0.759597  1
  C  C17  1  0.282105  0.856946  0.240403  1
  C  C18  1  0.574840  0.717895  0.240403  1
  C  C19  1  0.425160  0.282105  0.759597  1
  C  C20  1  0.143054  0.425160  0.240403  1
  C  C21  1  0.717895  0.143054  0.759597  1
