# generated using pymatgen
data_NdGd7(Ho3Sn4)4
_symmetry_space_group_name_H-M   'P 1'
_cell_length_a   8.07245862
_cell_length_b   8.23040518
_cell_length_c   15.53378800
_cell_angle_alpha   90.01990983
_cell_angle_beta   89.96370953
_cell_angle_gamma   90.06733706
_symmetry_Int_Tables_number   1
_chemical_formula_structural   NdGd7(Ho3Sn4)4
_chemical_formula_sum   'Nd1 Gd7 Ho12 Sn16'
_cell_volume   1032.05776056
_cell_formula_units_Z   1
loop_
 _symmetry_equiv_pos_site_id
 _symmetry_equiv_pos_as_xyz
  1  'x, y, z'
loop_
 _atom_site_type_symbol
 _atom_site_label
 _atom_site_symmetry_multiplicity
 _atom_site_fract_x
 _atom_site_fract_y
 _atom_site_fract_z
 _atom_site_occupancy
  Nd  Nd0  1  0.513741  0.320820  0.904065  1
  Gd  Gd1  1  0.016348  0.179028  0.595971  1
  Gd  Gd2  1  0.484125  0.679824  0.404098  1
  Gd  Gd3  1  0.984191  0.820977  0.096345  1
  Gd  Gd4  1  0.485062  0.680442  0.096138  1
  Gd  Gd5  1  0.983926  0.820120  0.403763  1
  Gd  Gd6  1  0.517212  0.320336  0.596742  1
  Gd  Gd7  1  0.015772  0.178267  0.903643  1
  Ho  Ho8  1  0.361078  0.837431  0.877090  1
  Ho  Ho9  1  0.862041  0.662290  0.622864  1
  Ho  Ho10  1  0.638209  0.162305  0.377388  1
  Ho  Ho11  1  0.139431  0.336722  0.123536  1
  Ho  Ho12  1  0.639413  0.162473  0.122983  1
  Ho  Ho13  1  0.138251  0.337654  0.377034  1
  Ho  Ho14  1  0.361338  0.837374  0.622431  1
  Ho  Ho15  1  0.860706  0.663359  0.876253  1
  Ho  Ho16  1  0.193879  0.502343  0.749390  1
  Ho  Ho17  1  0.694232  0.997861  0.749667  1
  Ho  Ho18  1  0.806052  0.498069  0.250217  1
  Ho  Ho19  1  0.305824  0.001957  0.250189  1
  Sn  Sn20  1  0.299199  0.038825  0.042018  1
  Sn  Sn21  1  0.798934  0.460990  0.458081  1
  Sn  Sn22  1  0.701286  0.960608  0.541862  1
  Sn  Sn23  1  0.196095  0.541329  0.958867  1
  Sn  Sn24  1  0.701077  0.959465  0.958369  1
  Sn  Sn25  1  0.201328  0.538121  0.541963  1
  Sn  Sn26  1  0.298692  0.039268  0.458066  1
  Sn  Sn27  1  0.802799  0.462334  0.042581  1
  Sn  Sn28  1  0.558674  0.622509  0.749745  1
  Sn  Sn29  1  0.059134  0.878993  0.749824  1
  Sn  Sn30  1  0.441565  0.379178  0.250102  1
  Sn  Sn31  1  0.940860  0.120321  0.250227  1
  Sn  Sn32  1  0.323206  0.145282  0.748852  1
  Sn  Sn33  1  0.825927  0.352993  0.749563  1
  Sn  Sn34  1  0.675009  0.853262  0.250132  1
  Sn  Sn35  1  0.175383  0.646867  0.249940  1
