# generated using pymatgen
data_SmGdCS
_symmetry_space_group_name_H-M   'P 1'
_cell_length_a   6.84199678
_cell_length_b   6.84199682
_cell_length_c   6.84199636
_cell_angle_alpha   32.22994706
_cell_angle_beta   32.22995154
_cell_angle_gamma   32.22993861
_symmetry_Int_Tables_number   1
_chemical_formula_structural   SmGdCS
_chemical_formula_sum   'Sm1 Gd1 C1 S1'
_cell_volume   80.97183226
_cell_formula_units_Z   1
loop_
 _symmetry_equiv_pos_site_id
 _symmetry_equiv_pos_as_xyz
  1  'x, y, z'
loop_
 _atom_site_type_symbol
 _atom_site_label
 _atom_site_symmetry_multiplicity
 _atom_site_fract_x
 _atom_site_fract_y
 _atom_site_fract_z
 _atom_site_occupancy
  Sm  Sm0  1  0.512355  0.512355  0.512355  1
  Gd  Gd1  1  0.988429  0.988429  0.988429  1
  C  C2  1  0.250817  0.250817  0.250817  1
  S  S3  1  0.748399  0.748399  0.748399  1
