# generated using pymatgen
data_MnPbI18
_symmetry_space_group_name_H-M   'P 1'
_cell_length_a   10.35568138
_cell_length_b   10.35568034
_cell_length_c   10.35567925
_cell_angle_alpha   95.69087527
_cell_angle_beta   95.69087068
_cell_angle_gamma   95.69086880
_symmetry_Int_Tables_number   1
_chemical_formula_structural   MnPbI18
_chemical_formula_sum   'Mn1 Pb1 I18'
_cell_volume   1092.94213244
_cell_formula_units_Z   1
loop_
 _symmetry_equiv_pos_site_id
 _symmetry_equiv_pos_as_xyz
  1  'x, y, z'
loop_
 _atom_site_type_symbol
 _atom_site_label
 _atom_site_symmetry_multiplicity
 _atom_site_fract_x
 _atom_site_fract_y
 _atom_site_fract_z
 _atom_site_occupancy
  Mn  Mn0  1  0.000000  0.000000  0.000000  1
  Pb  Pb1  1  0.500000  0.500000  0.500000  1
  I  I2  1  0.986378  0.736251  0.972675  1
  I  I3  1  0.972675  0.986378  0.736251  1
  I  I4  1  0.736251  0.972675  0.986378  1
  I  I5  1  0.013622  0.263749  0.027325  1
  I  I6  1  0.027325  0.013622  0.263749  1
  I  I7  1  0.263749  0.027325  0.013622  1
  I  I8  1  0.775232  0.366697  0.907114  1
  I  I9  1  0.907114  0.775232  0.366697  1
  I  I10  1  0.366697  0.907114  0.775232  1
  I  I11  1  0.224768  0.633303  0.092886  1
  I  I12  1  0.092886  0.224768  0.633303  1
  I  I13  1  0.633303  0.092886  0.224768  1
  I  I14  1  0.548357  0.484085  0.813040  1
  I  I15  1  0.813040  0.548357  0.484085  1
  I  I16  1  0.484085  0.813040  0.548357  1
  I  I17  1  0.451643  0.515915  0.186960  1
  I  I18  1  0.186960  0.451643  0.515915  1
  I  I19  1  0.515915  0.186960  0.451643  1
