# generated using pymatgen
data_Sm9Ho2Pa9Rh16
_symmetry_space_group_name_H-M   'P 1'
_cell_length_a   7.41590156
_cell_length_b   7.51134699
_cell_length_c   14.60878300
_cell_angle_alpha   90.00000000
_cell_angle_beta   90.00000000
_cell_angle_gamma   89.63894726
_symmetry_Int_Tables_number   1
_chemical_formula_structural   Sm9Ho2Pa9Rh16
_chemical_formula_sum   'Sm9 Ho2 Pa9 Rh16'
_cell_volume   813.74287004
_cell_formula_units_Z   1
loop_
 _symmetry_equiv_pos_site_id
 _symmetry_equiv_pos_as_xyz
  1  'x, y, z'
loop_
 _atom_site_type_symbol
 _atom_site_label
 _atom_site_symmetry_multiplicity
 _atom_site_fract_x
 _atom_site_fract_y
 _atom_site_fract_z
 _atom_site_occupancy
  Sm  Sm0  1  0.502672  0.674468  0.592272  1
  Sm  Sm1  1  0.002984  0.825444  0.910520  1
  Sm  Sm2  1  0.495238  0.323854  0.093992  1
  Sm  Sm3  1  0.995235  0.178806  0.405407  1
  Sm  Sm4  1  0.495238  0.323854  0.406008  1
  Sm  Sm5  1  0.995235  0.178806  0.094593  1
  Sm  Sm6  1  0.502672  0.674468  0.907728  1
  Sm  Sm7  1  0.002984  0.825444  0.589480  1
  Sm  Sm8  1  0.309745  0.969134  0.750000  1
  Ho  Ho9  1  0.188932  0.476032  0.250000  1
  Ho  Ho10  1  0.688565  0.025539  0.250000  1
  Pa  Pa11  1  0.655844  0.157002  0.619597  1
  Pa  Pa12  1  0.162440  0.337643  0.880567  1
  Pa  Pa13  1  0.344120  0.843240  0.121427  1
  Pa  Pa14  1  0.841935  0.657424  0.378185  1
  Pa  Pa15  1  0.344120  0.843240  0.378573  1
  Pa  Pa16  1  0.841935  0.657424  0.121815  1
  Pa  Pa17  1  0.655844  0.157002  0.880403  1
  Pa  Pa18  1  0.162440  0.337643  0.619433  1
  Pa  Pa19  1  0.811436  0.529613  0.750000  1
  Rh  Rh20  1  0.681236  0.950417  0.460245  1
  Rh  Rh21  1  0.178421  0.549957  0.041365  1
  Rh  Rh22  1  0.323802  0.052122  0.962634  1
  Rh  Rh23  1  0.825796  0.450908  0.543229  1
  Rh  Rh24  1  0.323802  0.052122  0.537366  1
  Rh  Rh25  1  0.825796  0.450908  0.956771  1
  Rh  Rh26  1  0.681236  0.950417  0.039755  1
  Rh  Rh27  1  0.178421  0.549957  0.458635  1
  Rh  Rh28  1  0.461814  0.361097  0.750000  1
  Rh  Rh29  1  0.940747  0.160727  0.750000  1
  Rh  Rh30  1  0.543896  0.655404  0.250000  1
  Rh  Rh31  1  0.044322  0.846022  0.250000  1
  Rh  Rh32  1  0.704156  0.862872  0.750000  1
  Rh  Rh33  1  0.164948  0.610541  0.750000  1
  Rh  Rh34  1  0.310993  0.110820  0.250000  1
  Rh  Rh35  1  0.810998  0.389635  0.250000  1
