# generated using pymatgen
data_Zr4Tc5Os3
_symmetry_space_group_name_H-M   'P 1'
_cell_length_a   5.24351154
_cell_length_b   5.17363136
_cell_length_c   8.74545000
_cell_angle_alpha   90.00000000
_cell_angle_beta   90.00000000
_cell_angle_gamma   119.56011209
_symmetry_Int_Tables_number   1
_chemical_formula_structural   Zr4Tc5Os3
_chemical_formula_sum   'Zr4 Tc5 Os3'
_cell_volume   206.36618702
_cell_formula_units_Z   1
loop_
 _symmetry_equiv_pos_site_id
 _symmetry_equiv_pos_as_xyz
  1  'x, y, z'
loop_
 _atom_site_type_symbol
 _atom_site_label
 _atom_site_symmetry_multiplicity
 _atom_site_fract_x
 _atom_site_fract_y
 _atom_site_fract_z
 _atom_site_occupancy
  Zr  Zr0  1  0.332477  0.666239  0.435679  1
  Zr  Zr1  1  0.667711  0.333855  0.565202  1
  Zr  Zr2  1  0.667711  0.333855  0.934798  1
  Zr  Zr3  1  0.332477  0.666239  0.064321  1
  Tc  Tc4  1  0.826348  0.172148  0.250000  1
  Tc  Tc5  1  0.826348  0.654200  0.250000  1
  Tc  Tc6  1  0.343162  0.171581  0.250000  1
  Tc  Tc7  1  0.171976  0.827166  0.750000  1
  Tc  Tc8  1  0.171976  0.344810  0.750000  1
  Os  Os9  1  0.001802  0.000901  0.500711  1
  Os  Os10  1  0.001802  0.000901  0.999289  1
  Os  Os11  1  0.656211  0.828106  0.750000  1
