# generated using pymatgen
data_Li2Pr7Y(Si6Pd)2
_symmetry_space_group_name_H-M   'P 1'
_cell_length_a   8.27909917
_cell_length_b   8.26471772
_cell_length_c   8.51573002
_cell_angle_alpha   89.99999980
_cell_angle_beta   90.00611097
_cell_angle_gamma   119.94255954
_symmetry_Int_Tables_number   1
_chemical_formula_structural   Li2Pr7Y(Si6Pd)2
_chemical_formula_sum   'Li2 Pr7 Y1 Si12 Pd2'
_cell_volume   504.91085149
_cell_formula_units_Z   1
loop_
 _symmetry_equiv_pos_site_id
 _symmetry_equiv_pos_as_xyz
  1  'x, y, z'
loop_
 _atom_site_type_symbol
 _atom_site_label
 _atom_site_symmetry_multiplicity
 _atom_site_fract_x
 _atom_site_fract_y
 _atom_site_fract_z
 _atom_site_occupancy
  Li  Li0  1  0.333135  0.666568  0.000675  1
  Li  Li1  1  0.666885  0.333442  0.996103  1
  Pr  Pr2  1  0.500554  0.001045  0.250272  1
  Pr  Pr3  1  0.499350  0.998822  0.750013  1
  Pr  Pr4  1  0.998940  0.499470  0.250168  1
  Pr  Pr5  1  0.500554  0.499508  0.250272  1
  Pr  Pr6  1  0.499350  0.500528  0.750013  1
  Pr  Pr7  1  0.000014  0.000007  0.248418  1
  Pr  Pr8  1  0.000001  0.000000  0.751110  1
  Y  Y9  1  0.001162  0.500581  0.747568  1
  Si  Si10  1  0.165705  0.333634  0.997075  1
  Si  Si11  1  0.834178  0.666397  0.999135  1
  Si  Si12  1  0.668306  0.834153  0.998410  1
  Si  Si13  1  0.834596  0.667836  0.502835  1
  Si  Si14  1  0.331661  0.165830  0.000162  1
  Si  Si15  1  0.165504  0.332182  0.500383  1
  Si  Si16  1  0.165705  0.832072  0.997075  1
  Si  Si17  1  0.332091  0.166046  0.501731  1
  Si  Si18  1  0.834178  0.167781  0.999135  1
  Si  Si19  1  0.667974  0.833986  0.499420  1
  Si  Si20  1  0.834596  0.166761  0.502835  1
  Si  Si21  1  0.165504  0.833321  0.500383  1
  Pd  Pd22  1  0.668173  0.334086  0.504371  1
  Pd  Pd23  1  0.331885  0.665943  0.502440  1
