# generated using pymatgen
data_Hf4GaSnC2
_symmetry_space_group_name_H-M   'P 1'
_cell_length_a   3.29665500
_cell_length_b   3.29665477
_cell_length_c   14.42027400
_cell_angle_alpha   90.00000000
_cell_angle_beta   90.00000000
_cell_angle_gamma   119.99999228
_symmetry_Int_Tables_number   1
_chemical_formula_structural   Hf4GaSnC2
_chemical_formula_sum   'Hf4 Ga1 Sn1 C2'
_cell_volume   135.72228023
_cell_formula_units_Z   1
loop_
 _symmetry_equiv_pos_site_id
 _symmetry_equiv_pos_as_xyz
  1  'x, y, z'
loop_
 _atom_site_type_symbol
 _atom_site_label
 _atom_site_symmetry_multiplicity
 _atom_site_fract_x
 _atom_site_fract_y
 _atom_site_fract_z
 _atom_site_occupancy
  Hf  Hf0  1  0.333333  0.666667  0.080640  1
  Hf  Hf1  1  0.666667  0.333333  0.592366  1
  Hf  Hf2  1  0.666667  0.333333  0.907634  1
  Hf  Hf3  1  0.333333  0.666667  0.419360  1
  Ga  Ga4  1  0.333333  0.666667  0.750000  1
  Sn  Sn5  1  0.666667  0.333333  0.250000  1
  C  C6  1  0.000000  0.000000  0.994397  1
  C  C7  1  0.000000  0.000000  0.505603  1
