# generated using pymatgen
data_La8DyPt6
_symmetry_space_group_name_H-M   'P 1'
_cell_length_a   7.81604040
_cell_length_b   7.81604017
_cell_length_c   7.81604028
_cell_angle_alpha   71.70951321
_cell_angle_beta   71.70951613
_cell_angle_gamma   71.70951500
_symmetry_Int_Tables_number   1
_chemical_formula_structural   La8DyPt6
_chemical_formula_sum   'La8 Dy1 Pt6'
_cell_volume   417.99605837
_cell_formula_units_Z   1
loop_
 _symmetry_equiv_pos_site_id
 _symmetry_equiv_pos_as_xyz
  1  'x, y, z'
loop_
 _atom_site_type_symbol
 _atom_site_label
 _atom_site_symmetry_multiplicity
 _atom_site_fract_x
 _atom_site_fract_y
 _atom_site_fract_z
 _atom_site_occupancy
  La  La0  1  0.800538  0.800538  0.800538  1
  La  La1  1  0.199462  0.199462  0.199462  1
  La  La2  1  0.327484  0.611104  0.836557  1
  La  La3  1  0.836557  0.327484  0.611104  1
  La  La4  1  0.611104  0.836557  0.327484  1
  La  La5  1  0.672516  0.388896  0.163443  1
  La  La6  1  0.163443  0.672516  0.388896  1
  La  La7  1  0.388896  0.163443  0.672516  1
  Dy  Dy8  1  0.000000  0.000000  0.000000  1
  Pt  Pt9  1  0.162268  0.960012  0.595702  1
  Pt  Pt10  1  0.595702  0.162268  0.960012  1
  Pt  Pt11  1  0.960012  0.595702  0.162268  1
  Pt  Pt12  1  0.837732  0.039988  0.404298  1
  Pt  Pt13  1  0.404298  0.837732  0.039988  1
  Pt  Pt14  1  0.039988  0.404298  0.837732  1
