# generated using pymatgen
data_Y3Mn8CoP6
_symmetry_space_group_name_H-M   'P 1'
_cell_length_a   3.65551700
_cell_length_b   10.85625600
_cell_length_c   12.64569900
_cell_angle_alpha   90.00000000
_cell_angle_beta   90.00000000
_cell_angle_gamma   90.00000000
_symmetry_Int_Tables_number   1
_chemical_formula_structural   Y3Mn8CoP6
_chemical_formula_sum   'Y6 Mn16 Co2 P12'
_cell_volume   501.84745264
_cell_formula_units_Z   2
loop_
 _symmetry_equiv_pos_site_id
 _symmetry_equiv_pos_as_xyz
  1  'x, y, z'
loop_
 _atom_site_type_symbol
 _atom_site_label
 _atom_site_symmetry_multiplicity
 _atom_site_fract_x
 _atom_site_fract_y
 _atom_site_fract_z
 _atom_site_occupancy
  Y  Y0  1  0.000000  0.500000  0.531796  1
  Y  Y1  1  0.500000  0.000000  0.468204  1
  Y  Y2  1  0.500000  0.822563  0.206766  1
  Y  Y3  1  0.500000  0.177437  0.206766  1
  Y  Y4  1  0.000000  0.677437  0.793234  1
  Y  Y5  1  0.000000  0.322563  0.793234  1
  Mn  Mn6  1  0.500000  0.500000  0.166636  1
  Mn  Mn7  1  0.000000  0.000000  0.833364  1
  Mn  Mn8  1  0.000000  0.500000  0.992322  1
  Mn  Mn9  1  0.500000  0.000000  0.007678  1
  Mn  Mn10  1  0.500000  0.332762  0.997348  1
  Mn  Mn11  1  0.500000  0.667238  0.997348  1
  Mn  Mn12  1  0.000000  0.167238  0.002652  1
  Mn  Mn13  1  0.000000  0.832762  0.002652  1
  Mn  Mn14  1  0.500000  0.297944  0.432452  1
  Mn  Mn15  1  0.500000  0.702056  0.432452  1
  Mn  Mn16  1  0.000000  0.202056  0.567548  1
  Mn  Mn17  1  0.000000  0.797944  0.567548  1
  Mn  Mn18  1  0.500000  0.881816  0.702153  1
  Mn  Mn19  1  0.500000  0.118184  0.702153  1
  Mn  Mn20  1  0.000000  0.618184  0.297847  1
  Mn  Mn21  1  0.000000  0.381816  0.297847  1
  Co  Co22  1  0.500000  0.500000  0.705649  1
  Co  Co23  1  0.000000  0.000000  0.294351  1
  P  P24  1  0.500000  0.500000  0.881071  1
  P  P25  1  0.000000  0.000000  0.118929  1
  P  P26  1  0.500000  0.500000  0.359108  1
  P  P27  1  0.000000  0.000000  0.640892  1
  P  P28  1  0.500000  0.317619  0.618742  1
  P  P29  1  0.500000  0.682381  0.618742  1
  P  P30  1  0.000000  0.182381  0.381258  1
  P  P31  1  0.000000  0.817619  0.381258  1
  P  P32  1  0.500000  0.845766  0.885028  1
  P  P33  1  0.500000  0.154234  0.885028  1
  P  P34  1  0.000000  0.654234  0.114972  1
  P  P35  1  0.000000  0.345766  0.114972  1
