# generated using pymatgen
data_YbHo4Si12Ir19
_symmetry_space_group_name_H-M   'P 1'
_cell_length_a   12.81902744
_cell_length_b   12.81318823
_cell_length_c   3.98967900
_cell_angle_alpha   90.00000000
_cell_angle_beta   90.00000000
_cell_angle_gamma   119.98493759
_symmetry_Int_Tables_number   1
_chemical_formula_structural   YbHo4Si12Ir19
_chemical_formula_sum   'Yb1 Ho4 Si12 Ir19'
_cell_volume   567.60572426
_cell_formula_units_Z   1
loop_
 _symmetry_equiv_pos_site_id
 _symmetry_equiv_pos_as_xyz
  1  'x, y, z'
loop_
 _atom_site_type_symbol
 _atom_site_label
 _atom_site_symmetry_multiplicity
 _atom_site_fract_x
 _atom_site_fract_y
 _atom_site_fract_z
 _atom_site_occupancy
  Yb  Yb0  1  0.000000  0.815192  0.500000  1
  Ho  Ho1  1  0.333677  0.666734  0.000000  1
  Ho  Ho2  1  0.666323  0.333056  0.000000  1
  Ho  Ho3  1  0.183776  0.183355  0.500000  1
  Ho  Ho4  1  0.816224  0.999579  0.500000  1
  Si  Si5  1  0.818572  0.817900  0.000000  1
  Si  Si6  1  0.181428  0.999328  0.000000  1
  Si  Si7  1  0.000000  0.181747  0.000000  1
  Si  Si8  1  0.311365  0.831256  0.500000  1
  Si  Si9  1  0.168706  0.480845  0.500000  1
  Si  Si10  1  0.519141  0.687749  0.500000  1
  Si  Si11  1  0.831294  0.312138  0.500000  1
  Si  Si12  1  0.480859  0.168608  0.500000  1
  Si  Si13  1  0.688635  0.519891  0.500000  1
  Si  Si14  1  0.367338  0.367251  0.000000  1
  Si  Si15  1  0.632662  0.999913  0.000000  1
  Si  Si16  1  0.000000  0.632790  0.000000  1
  Ir  Ir17  1  0.195167  0.816713  0.000000  1
  Ir  Ir18  1  0.182517  0.376461  0.000000  1
  Ir  Ir19  1  0.623194  0.806186  0.000000  1
  Ir  Ir20  1  0.817483  0.193945  0.000000  1
  Ir  Ir21  1  0.376806  0.182992  0.000000  1
  Ir  Ir22  1  0.804833  0.621547  0.000000  1
  Ir  Ir23  1  0.716684  0.717621  0.500000  1
  Ir  Ir24  1  0.283316  0.000937  0.500000  1
  Ir  Ir25  1  0.000000  0.283014  0.500000  1
  Ir  Ir26  1  0.126544  0.638414  0.500000  1
  Ir  Ir27  1  0.360821  0.487920  0.500000  1
  Ir  Ir28  1  0.511303  0.872977  0.500000  1
  Ir  Ir29  1  0.639179  0.127099  0.500000  1
  Ir  Ir30  1  0.488697  0.361675  0.500000  1
  Ir  Ir31  1  0.873456  0.511871  0.500000  1
  Ir  Ir32  1  0.551133  0.552829  0.000000  1
  Ir  Ir33  1  0.448867  0.001695  0.000000  1
  Ir  Ir34  1  0.000000  0.447542  0.000000  1
  Ir  Ir35  1  0.000000  0.001231  0.000000  1
