# generated using pymatgen
data_YScZn4Ru
_symmetry_space_group_name_H-M   'P 1'
_cell_length_a   6.90188200
_cell_length_b   6.90188200
_cell_length_c   5.06029500
_cell_angle_alpha   90.00000000
_cell_angle_beta   90.00000000
_cell_angle_gamma   90.00000000
_symmetry_Int_Tables_number   1
_chemical_formula_structural   YScZn4Ru
_chemical_formula_sum   'Y2 Sc2 Zn8 Ru2'
_cell_volume   241.05208683
_cell_formula_units_Z   2
loop_
 _symmetry_equiv_pos_site_id
 _symmetry_equiv_pos_as_xyz
  1  'x, y, z'
loop_
 _atom_site_type_symbol
 _atom_site_label
 _atom_site_symmetry_multiplicity
 _atom_site_fract_x
 _atom_site_fract_y
 _atom_site_fract_z
 _atom_site_occupancy
  Y  Y0  1  0.000000  0.500000  0.757227  1
  Y  Y1  1  0.500000  0.000000  0.242773  1
  Sc  Sc2  1  0.000000  0.000000  0.000000  1
  Sc  Sc3  1  0.500000  0.500000  0.000000  1
  Zn  Zn4  1  0.190783  0.690783  0.271490  1
  Zn  Zn5  1  0.809217  0.690783  0.271490  1
  Zn  Zn6  1  0.809217  0.309217  0.271490  1
  Zn  Zn7  1  0.309217  0.190783  0.728510  1
  Zn  Zn8  1  0.190783  0.309217  0.271490  1
  Zn  Zn9  1  0.690783  0.190783  0.728510  1
  Zn  Zn10  1  0.690783  0.809217  0.728510  1
  Zn  Zn11  1  0.309217  0.809217  0.728510  1
  Ru  Ru12  1  0.500000  0.500000  0.500000  1
  Ru  Ru13  1  0.000000  0.000000  0.500000  1
