# generated using pymatgen
data_Y5P12Os8Rh11
_symmetry_space_group_name_H-M   'P 1'
_cell_length_a   12.61478180
_cell_length_b   12.66556633
_cell_length_c   3.96870900
_cell_angle_alpha   90.00000000
_cell_angle_beta   90.00000000
_cell_angle_gamma   120.13325158
_symmetry_Int_Tables_number   1
_chemical_formula_structural   Y5P12Os8Rh11
_chemical_formula_sum   'Y5 P12 Os8 Rh11'
_cell_volume   548.40263905
_cell_formula_units_Z   1
loop_
 _symmetry_equiv_pos_site_id
 _symmetry_equiv_pos_as_xyz
  1  'x, y, z'
loop_
 _atom_site_type_symbol
 _atom_site_label
 _atom_site_symmetry_multiplicity
 _atom_site_fract_x
 _atom_site_fract_y
 _atom_site_fract_z
 _atom_site_occupancy
  Y  Y0  1  0.000000  0.184658  0.500000  1
  Y  Y1  1  0.814077  0.815931  0.500000  1
  Y  Y2  1  0.185923  0.001853  0.500000  1
  Y  Y3  1  0.666423  0.332524  0.000000  1
  Y  Y4  1  0.333577  0.666102  0.000000  1
  P  P5  1  0.000000  0.819734  0.000000  1
  P  P6  1  0.181313  0.182200  0.000000  1
  P  P7  1  0.818687  0.000887  0.000000  1
  P  P8  1  0.688631  0.171908  0.500000  1
  P  P9  1  0.825873  0.513841  0.500000  1
  P  P10  1  0.483601  0.310637  0.500000  1
  P  P11  1  0.174127  0.687968  0.500000  1
  P  P12  1  0.516399  0.827036  0.500000  1
  P  P13  1  0.311369  0.483277  0.500000  1
  P  P14  1  0.000000  0.368858  0.000000  1
  P  P15  1  0.631205  0.631588  0.000000  1
  P  P16  1  0.368795  0.000383  0.000000  1
  Os  Os17  1  0.286185  0.286328  0.500000  1
  Os  Os18  1  0.713815  0.000143  0.500000  1
  Os  Os19  1  0.873033  0.361597  0.500000  1
  Os  Os20  1  0.638439  0.510487  0.500000  1
  Os  Os21  1  0.487973  0.126330  0.500000  1
  Os  Os22  1  0.361561  0.872048  0.500000  1
  Os  Os23  1  0.512027  0.638356  0.500000  1
  Os  Os24  1  0.126967  0.488564  0.500000  1
  Rh  Rh25  1  0.000000  0.548427  0.000000  1
  Rh  Rh26  1  0.449944  0.450892  0.000000  1
  Rh  Rh27  1  0.550056  0.000949  0.000000  1
  Rh  Rh28  1  0.000000  0.715663  0.500000  1
  Rh  Rh29  1  0.809093  0.183160  0.000000  1
  Rh  Rh30  1  0.818607  0.626660  0.000000  1
  Rh  Rh31  1  0.374602  0.192078  0.000000  1
  Rh  Rh32  1  0.181393  0.808053  0.000000  1
  Rh  Rh33  1  0.625398  0.817475  0.000000  1
  Rh  Rh34  1  0.190907  0.374066  0.000000  1
  Rh  Rh35  1  0.000000  0.999334  0.000000  1
