# generated using pymatgen
data_Y2Al9CuRePd
_symmetry_space_group_name_H-M   'P 1'
_cell_length_a   7.58183940
_cell_length_b   7.58183865
_cell_length_c   9.50970820
_cell_angle_alpha   89.88255935
_cell_angle_beta   89.88255796
_cell_angle_gamma   118.61442357
_symmetry_Int_Tables_number   1
_chemical_formula_structural   Y2Al9CuRePd
_chemical_formula_sum   'Y4 Al18 Cu2 Re2 Pd2'
_cell_volume   479.88732237
_cell_formula_units_Z   2
loop_
 _symmetry_equiv_pos_site_id
 _symmetry_equiv_pos_as_xyz
  1  'x, y, z'
loop_
 _atom_site_type_symbol
 _atom_site_label
 _atom_site_symmetry_multiplicity
 _atom_site_fract_x
 _atom_site_fract_y
 _atom_site_fract_z
 _atom_site_occupancy
  Y  Y0  1  0.993937  0.678495  0.248307  1
  Y  Y1  1  0.006063  0.321505  0.751693  1
  Y  Y2  1  0.678495  0.993937  0.248307  1
  Y  Y3  1  0.321505  0.006063  0.751693  1
  Al  Al4  1  0.133303  0.133303  0.249144  1
  Al  Al5  1  0.866697  0.866697  0.750856  1
  Al  Al6  1  0.000866  0.336089  0.077100  1
  Al  Al7  1  0.999134  0.663911  0.922900  1
  Al  Al8  1  0.998915  0.665166  0.576349  1
  Al  Al9  1  0.334834  0.001085  0.423651  1
  Al  Al10  1  0.001085  0.334834  0.423651  1
  Al  Al11  1  0.665166  0.998915  0.576349  1
  Al  Al12  1  0.663911  0.999134  0.922900  1
  Al  Al13  1  0.336089  0.000866  0.077100  1
  Al  Al14  1  0.329365  0.329365  0.548576  1
  Al  Al15  1  0.670635  0.670635  0.451424  1
  Al  Al16  1  0.667756  0.667756  0.050988  1
  Al  Al17  1  0.332244  0.332244  0.949012  1
  Al  Al18  1  0.345440  0.554375  0.248488  1
  Al  Al19  1  0.654560  0.445625  0.751512  1
  Al  Al20  1  0.554375  0.345440  0.248488  1
  Al  Al21  1  0.445625  0.654560  0.751512  1
  Cu  Cu22  1  0.671891  0.328109  0.000000  1
  Cu  Cu23  1  0.328109  0.671891  0.000000  1
  Re  Re24  1  0.000000  0.000000  0.000000  1
  Re  Re25  1  0.000000  0.000000  0.500000  1
  Pd  Pd26  1  0.328391  0.671609  0.500000  1
  Pd  Pd27  1  0.671609  0.328391  0.500000  1
