# generated using pymatgen
data_Sc5As2P
_symmetry_space_group_name_H-M   'P 1'
_cell_length_a   7.18729200
_cell_length_b   8.05467700
_cell_length_c   10.73255400
_cell_angle_alpha   90.00000000
_cell_angle_beta   90.00000000
_cell_angle_gamma   90.00000000
_symmetry_Int_Tables_number   1
_chemical_formula_structural   Sc5As2P
_chemical_formula_sum   'Sc20 As8 P4'
_cell_volume   621.32167043
_cell_formula_units_Z   4
loop_
 _symmetry_equiv_pos_site_id
 _symmetry_equiv_pos_as_xyz
  1  'x, y, z'
loop_
 _atom_site_type_symbol
 _atom_site_label
 _atom_site_symmetry_multiplicity
 _atom_site_fract_x
 _atom_site_fract_y
 _atom_site_fract_z
 _atom_site_occupancy
  Sc  Sc0  1  0.813516  0.949778  0.069094  1
  Sc  Sc1  1  0.313516  0.050222  0.430906  1
  Sc  Sc2  1  0.186484  0.449778  0.930906  1
  Sc  Sc3  1  0.686484  0.550222  0.569094  1
  Sc  Sc4  1  0.186484  0.050222  0.930906  1
  Sc  Sc5  1  0.686484  0.949778  0.569094  1
  Sc  Sc6  1  0.813516  0.550222  0.069094  1
  Sc  Sc7  1  0.313516  0.449778  0.430906  1
  Sc  Sc8  1  0.162356  0.750000  0.216324  1
  Sc  Sc9  1  0.662356  0.250000  0.283676  1
  Sc  Sc10  1  0.837644  0.250000  0.783676  1
  Sc  Sc11  1  0.337644  0.750000  0.716324  1
  Sc  Sc12  1  0.466101  0.750000  0.002254  1
  Sc  Sc13  1  0.966101  0.250000  0.497746  1
  Sc  Sc14  1  0.533899  0.250000  0.997746  1
  Sc  Sc15  1  0.033899  0.750000  0.502254  1
  Sc  Sc16  1  0.643500  0.750000  0.295897  1
  Sc  Sc17  1  0.143500  0.250000  0.204103  1
  Sc  Sc18  1  0.356500  0.250000  0.704103  1
  Sc  Sc19  1  0.856500  0.750000  0.795897  1
  As  As20  1  0.934890  0.509879  0.327639  1
  As  As21  1  0.434890  0.490121  0.172361  1
  As  As22  1  0.065110  0.009879  0.672361  1
  As  As23  1  0.565110  0.990121  0.827639  1
  As  As24  1  0.065110  0.490121  0.672361  1
  As  As25  1  0.565110  0.509879  0.827639  1
  As  As26  1  0.934890  0.990121  0.327639  1
  As  As27  1  0.434890  0.009879  0.172361  1
  P  P28  1  0.421363  0.750000  0.484522  1
  P  P29  1  0.921363  0.250000  0.015478  1
  P  P30  1  0.578637  0.250000  0.515478  1
  P  P31  1  0.078637  0.750000  0.984522  1
