# generated using pymatgen
data_Li8La6Nd2Sn7Bi
_symmetry_space_group_name_H-M   'P 1'
_cell_length_a   9.67687800
_cell_length_b   9.67523541
_cell_length_c   7.81564471
_cell_angle_alpha   90.08079865
_cell_angle_beta   90.00004569
_cell_angle_gamma   120.00566033
_symmetry_Int_Tables_number   1
_chemical_formula_structural   Li8La6Nd2Sn7Bi
_chemical_formula_sum   'Li8 La6 Nd2 Sn7 Bi1'
_cell_volume   633.67547216
_cell_formula_units_Z   1
loop_
 _symmetry_equiv_pos_site_id
 _symmetry_equiv_pos_as_xyz
  1  'x, y, z'
loop_
 _atom_site_type_symbol
 _atom_site_label
 _atom_site_symmetry_multiplicity
 _atom_site_fract_x
 _atom_site_fract_y
 _atom_site_fract_z
 _atom_site_occupancy
  Li  Li0  1  0.166240  0.332482  0.284940  1
  Li  Li1  1  0.167210  0.833984  0.288282  1
  Li  Li2  1  0.666770  0.833983  0.288282  1
  Li  Li3  1  0.833650  0.667300  0.787236  1
  Li  Li4  1  0.830344  0.164562  0.790418  1
  Li  Li5  1  0.334217  0.164563  0.790419  1
  Li  Li6  1  0.334936  0.669872  0.665743  1
  Li  Li7  1  0.666298  0.332592  0.167671  1
  La  La8  1  0.511818  0.023639  0.494786  1
  La  La9  1  0.516219  0.490869  0.492503  1
  La  La10  1  0.974655  0.490874  0.492509  1
  La  La11  1  0.488163  0.976321  0.996028  1
  La  La12  1  0.493053  0.513756  0.997304  1
  La  La13  1  0.020713  0.513761  0.997300  1
  Nd  Nd14  1  0.997464  0.994930  0.497051  1
  Nd  Nd15  1  0.997976  0.995955  0.001882  1
  Sn  Sn16  1  0.164850  0.834317  0.727820  1
  Sn  Sn17  1  0.669466  0.834318  0.727822  1
  Sn  Sn18  1  0.834887  0.669775  0.228908  1
  Sn  Sn19  1  0.835376  0.165782  0.228047  1
  Sn  Sn20  1  0.330404  0.165781  0.228049  1
  Sn  Sn21  1  0.332735  0.665472  0.269062  1
  Sn  Sn22  1  0.666900  0.333801  0.769215  1
  Bi  Bi23  1  0.165654  0.331309  0.730695  1
