# generated using pymatgen
data_Mn7CrS8
_symmetry_space_group_name_H-M   'P 1'
_cell_length_a   7.82895700
_cell_length_b   7.82895700
_cell_length_c   5.53880600
_cell_angle_alpha   90.00000000
_cell_angle_beta   90.00000000
_cell_angle_gamma   90.00000000
_symmetry_Int_Tables_number   1
_chemical_formula_structural   Mn7CrS8
_chemical_formula_sum   'Mn7 Cr1 S8'
_cell_volume   339.48764178
_cell_formula_units_Z   1
loop_
 _symmetry_equiv_pos_site_id
 _symmetry_equiv_pos_as_xyz
  1  'x, y, z'
loop_
 _atom_site_type_symbol
 _atom_site_label
 _atom_site_symmetry_multiplicity
 _atom_site_fract_x
 _atom_site_fract_y
 _atom_site_fract_z
 _atom_site_occupancy
  Mn  Mn0  1  0.000000  0.000000  0.000000  1
  Mn  Mn1  1  0.252200  0.747800  0.000000  1
  Mn  Mn2  1  0.747800  0.252200  0.000000  1
  Mn  Mn3  1  0.252200  0.252200  0.000000  1
  Mn  Mn4  1  0.747800  0.747800  0.000000  1
  Mn  Mn5  1  0.000000  0.000000  0.500000  1
  Mn  Mn6  1  0.500000  0.500000  0.500000  1
  Cr  Cr7  1  0.500000  0.500000  0.000000  1
  S  S8  1  0.500000  0.261583  0.759839  1
  S  S9  1  0.000000  0.762536  0.763704  1
  S  S10  1  0.500000  0.738417  0.759839  1
  S  S11  1  0.000000  0.237464  0.763704  1
  S  S12  1  0.762536  0.000000  0.236296  1
  S  S13  1  0.261583  0.500000  0.240161  1
  S  S14  1  0.237464  0.000000  0.236296  1
  S  S15  1  0.738417  0.500000  0.240161  1
