# generated using pymatgen
data_Tb2Nd7Lu11Pt16
_symmetry_space_group_name_H-M   'P 1'
_cell_length_a   7.48691450
_cell_length_b   7.59503553
_cell_length_c   14.74583218
_cell_angle_alpha   90.12379342
_cell_angle_beta   90.18234189
_cell_angle_gamma   90.01739256
_symmetry_Int_Tables_number   1
_chemical_formula_structural   Tb2Nd7Lu11Pt16
_chemical_formula_sum   'Tb2 Nd7 Lu11 Pt16'
_cell_volume   838.49163962
_cell_formula_units_Z   1
loop_
 _symmetry_equiv_pos_site_id
 _symmetry_equiv_pos_as_xyz
  1  'x, y, z'
loop_
 _atom_site_type_symbol
 _atom_site_label
 _atom_site_symmetry_multiplicity
 _atom_site_fract_x
 _atom_site_fract_y
 _atom_site_fract_z
 _atom_site_occupancy
  Tb  Tb0  1  0.484086  0.673242  0.904443  1
  Tb  Tb1  1  0.982185  0.825846  0.596915  1
  Nd  Nd2  1  0.139885  0.330975  0.620567  1
  Nd  Nd3  1  0.483567  0.677507  0.595329  1
  Nd  Nd4  1  0.983134  0.826004  0.905719  1
  Nd  Nd5  1  0.516601  0.328020  0.095302  1
  Nd  Nd6  1  0.018250  0.168588  0.401117  1
  Nd  Nd7  1  0.517393  0.325594  0.404036  1
  Nd  Nd8  1  0.015971  0.173752  0.095881  1
  Lu  Lu9  1  0.641080  0.166952  0.623825  1
  Lu  Lu10  1  0.142077  0.332060  0.877808  1
  Lu  Lu11  1  0.360113  0.830778  0.122070  1
  Lu  Lu12  1  0.859825  0.670226  0.377037  1
  Lu  Lu13  1  0.362211  0.832084  0.375429  1
  Lu  Lu14  1  0.858417  0.668493  0.122722  1
  Lu  Lu15  1  0.641113  0.168172  0.878038  1
  Lu  Lu16  1  0.800873  0.509176  0.751972  1
  Lu  Lu17  1  0.304024  0.990326  0.752159  1
  Lu  Lu18  1  0.196818  0.493406  0.249488  1
  Lu  Lu19  1  0.696951  0.007021  0.249185  1
  Pt  Pt20  1  0.691824  0.965601  0.458497  1
  Pt  Pt21  1  0.188758  0.536134  0.041568  1
  Pt  Pt22  1  0.314204  0.031150  0.956645  1
  Pt  Pt23  1  0.803930  0.473624  0.542538  1
  Pt  Pt24  1  0.312888  0.022968  0.541630  1
  Pt  Pt25  1  0.809291  0.467860  0.957031  1
  Pt  Pt26  1  0.686960  0.964714  0.042799  1
  Pt  Pt27  1  0.189047  0.540157  0.452200  1
  Pt  Pt28  1  0.439665  0.377507  0.753859  1
  Pt  Pt29  1  0.932514  0.119489  0.752454  1
  Pt  Pt30  1  0.564811  0.626713  0.249312  1
  Pt  Pt31  1  0.064613  0.872947  0.249033  1
  Pt  Pt32  1  0.663239  0.860697  0.752375  1
  Pt  Pt33  1  0.165905  0.641437  0.752152  1
  Pt  Pt34  1  0.334571  0.136065  0.249334  1
  Pt  Pt35  1  0.833209  0.364719  0.249530  1
