# generated using pymatgen
data_Y2Ga2(SiPt)3
_symmetry_space_group_name_H-M   'P 1'
_cell_length_a   8.32867251
_cell_length_b   8.32867315
_cell_length_c   8.32867252
_cell_angle_alpha   138.05858682
_cell_angle_beta   104.85954568
_cell_angle_gamma   89.98401356
_symmetry_Int_Tables_number   1
_chemical_formula_structural   Y2Ga2(SiPt)3
_chemical_formula_sum   'Y4 Ga4 Si6 Pt6'
_cell_volume   356.63439057
_cell_formula_units_Z   2
loop_
 _symmetry_equiv_pos_site_id
 _symmetry_equiv_pos_as_xyz
  1  'x, y, z'
loop_
 _atom_site_type_symbol
 _atom_site_label
 _atom_site_symmetry_multiplicity
 _atom_site_fract_x
 _atom_site_fract_y
 _atom_site_fract_z
 _atom_site_occupancy
  Y  Y0  1  0.635070  0.368390  0.266681  1
  Y  Y1  1  0.364930  0.631610  0.733319  1
  Y  Y2  1  0.101708  0.868390  0.233319  1
  Y  Y3  1  0.898292  0.131610  0.766681  1
  Ga  Ga4  1  0.270071  0.520071  0.250000  1
  Ga  Ga5  1  0.729929  0.479929  0.750000  1
  Ga  Ga6  1  0.729929  0.979929  0.250000  1
  Ga  Ga7  1  0.270071  0.020071  0.750000  1
  Si  Si8  1  0.455289  0.106890  0.348398  1
  Si  Si9  1  0.544711  0.893110  0.651602  1
  Si  Si10  1  0.758492  0.606890  0.151602  1
  Si  Si11  1  0.241508  0.393110  0.848398  1
  Si  Si12  1  0.000000  0.250000  0.250000  1
  Si  Si13  1  0.000000  0.750000  0.750000  1
  Pt  Pt14  1  0.246747  0.128096  0.118650  1
  Pt  Pt15  1  0.753253  0.871904  0.881350  1
  Pt  Pt16  1  0.009446  0.628096  0.381350  1
  Pt  Pt17  1  0.990554  0.371904  0.618650  1
  Pt  Pt18  1  0.500000  0.250000  0.750000  1
  Pt  Pt19  1  0.500000  0.750000  0.250000  1
