# generated using pymatgen
data_Sc5Tc2
_symmetry_space_group_name_H-M   'P 1'
_cell_length_a   5.46191618
_cell_length_b   7.35789692
_cell_length_c   7.88099952
_cell_angle_alpha   97.67562208
_cell_angle_beta   110.27487660
_cell_angle_gamma   89.99999548
_symmetry_Int_Tables_number   1
_chemical_formula_structural   Sc5Tc2
_chemical_formula_sum   'Sc10 Tc4'
_cell_volume   294.07233192
_cell_formula_units_Z   2
loop_
 _symmetry_equiv_pos_site_id
 _symmetry_equiv_pos_as_xyz
  1  'x, y, z'
loop_
 _atom_site_type_symbol
 _atom_site_label
 _atom_site_symmetry_multiplicity
 _atom_site_fract_x
 _atom_site_fract_y
 _atom_site_fract_z
 _atom_site_occupancy
  Sc  Sc0  1  0.541157  0.077842  0.814210  1
  Sc  Sc1  1  0.458843  0.922158  0.185790  1
  Sc  Sc2  1  0.726947  0.422158  0.185790  1
  Sc  Sc3  1  0.273053  0.577842  0.814210  1
  Sc  Sc4  1  0.321751  0.322081  0.427837  1
  Sc  Sc5  1  0.678249  0.677919  0.572163  1
  Sc  Sc6  1  0.893914  0.177919  0.572163  1
  Sc  Sc7  1  0.106086  0.822081  0.427837  1
  Sc  Sc8  1  0.128848  0.250000  0.000000  1
  Sc  Sc9  1  0.871152  0.750000  0.000000  1
  Tc  Tc10  1  0.291370  0.583319  0.213220  1
  Tc  Tc11  1  0.708630  0.416681  0.786780  1
  Tc  Tc12  1  0.078151  0.916681  0.786780  1
  Tc  Tc13  1  0.921849  0.083319  0.213220  1
