# generated using pymatgen
data_Tm3Ta2Sn(B2Ru5)2
_symmetry_space_group_name_H-M   'P 1'
_cell_length_a   9.59134914
_cell_length_b   9.64389229
_cell_length_c   3.10616300
_cell_angle_alpha   90.00000000
_cell_angle_beta   90.00000000
_cell_angle_gamma   90.53942101
_symmetry_Int_Tables_number   1
_chemical_formula_structural   Tm3Ta2Sn(B2Ru5)2
_chemical_formula_sum   'Tm3 Ta2 Sn1 B4 Ru10'
_cell_volume   287.30093959
_cell_formula_units_Z   1
loop_
 _symmetry_equiv_pos_site_id
 _symmetry_equiv_pos_as_xyz
  1  'x, y, z'
loop_
 _atom_site_type_symbol
 _atom_site_label
 _atom_site_symmetry_multiplicity
 _atom_site_fract_x
 _atom_site_fract_y
 _atom_site_fract_z
 _atom_site_occupancy
  Tm  Tm0  1  0.823707  0.674391  0.000000  1
  Tm  Tm1  1  0.175404  0.325859  0.000000  1
  Tm  Tm2  1  0.323685  0.826648  0.000000  1
  Ta  Ta3  1  0.680576  0.168701  0.000000  1
  Ta  Ta4  1  0.004141  0.998695  0.000000  1
  Sn  Sn5  1  0.497967  0.505888  0.000000  1
  B  B6  1  0.623547  0.883033  0.000000  1
  B  B7  1  0.380820  0.123838  0.000000  1
  B  B8  1  0.116171  0.620384  0.000000  1
  B  B9  1  0.877118  0.375933  0.000000  1
  Ru  Ru10  1  0.572682  0.727486  0.500000  1
  Ru  Ru11  1  0.443848  0.276655  0.500000  1
  Ru  Ru12  1  0.066656  0.780725  0.500000  1
  Ru  Ru13  1  0.918990  0.213131  0.500000  1
  Ru  Ru14  1  0.274591  0.573621  0.500000  1
  Ru  Ru15  1  0.713928  0.407769  0.500000  1
  Ru  Ru16  1  0.221878  0.072064  0.500000  1
  Ru  Ru17  1  0.781258  0.940555  0.500000  1
  Ru  Ru18  1  0.508518  0.008258  0.500000  1
  Ru  Ru19  1  0.994514  0.496366  0.500000  1
