# generated using pymatgen
data_Cd4IrRh3O14
_symmetry_space_group_name_H-M   'P 1'
_cell_length_a   7.23544460
_cell_length_b   7.25408661
_cell_length_c   7.23544500
_cell_angle_alpha   60.08497679
_cell_angle_beta   60.00000273
_cell_angle_gamma   60.08497588
_symmetry_Int_Tables_number   1
_chemical_formula_structural   Cd4IrRh3O14
_chemical_formula_sum   'Cd4 Ir1 Rh3 O14'
_cell_volume   268.87773401
_cell_formula_units_Z   1
loop_
 _symmetry_equiv_pos_site_id
 _symmetry_equiv_pos_as_xyz
  1  'x, y, z'
loop_
 _atom_site_type_symbol
 _atom_site_label
 _atom_site_symmetry_multiplicity
 _atom_site_fract_x
 _atom_site_fract_y
 _atom_site_fract_z
 _atom_site_occupancy
  Cd  Cd0  1  0.625000  0.125000  0.125000  1
  Cd  Cd1  1  0.125000  0.625000  0.125000  1
  Cd  Cd2  1  0.125000  0.125000  0.625000  1
  Cd  Cd3  1  0.125000  0.125000  0.125000  1
  Ir  Ir4  1  0.625000  0.125000  0.625000  1
  Rh  Rh5  1  0.125000  0.625000  0.625000  1
  Rh  Rh6  1  0.625000  0.625000  0.125000  1
  Rh  Rh7  1  0.625000  0.625000  0.625000  1
  O  O8  1  0.699583  0.705158  0.297629  1
  O  O9  1  0.305649  0.298369  0.697990  1
  O  O10  1  0.697990  0.298369  0.697990  1
  O  O11  1  0.297629  0.705158  0.297629  1
  O  O12  1  0.297629  0.705158  0.699583  1
  O  O13  1  0.697990  0.298369  0.305649  1
  O  O14  1  0.550417  0.544842  0.952371  1
  O  O15  1  0.944351  0.951631  0.552010  1
  O  O16  1  0.552010  0.951631  0.552010  1
  O  O17  1  0.952371  0.544842  0.952371  1
  O  O18  1  0.952371  0.544842  0.550417  1
  O  O19  1  0.552010  0.951631  0.944351  1
  O  O20  1  0.250677  0.247968  0.250677  1
  O  O21  1  0.999323  0.002032  0.999323  1
