# generated using pymatgen
data_CsLuMgFeH8
_symmetry_space_group_name_H-M   'P 1'
_cell_length_a   4.55592100
_cell_length_b   4.55592184
_cell_length_c   8.78425700
_cell_angle_alpha   90.00000000
_cell_angle_beta   90.00000000
_cell_angle_gamma   120.00000119
_symmetry_Int_Tables_number   1
_chemical_formula_structural   CsLuMgFeH8
_chemical_formula_sum   'Cs1 Lu1 Mg1 Fe1 H8'
_cell_volume   157.90217388
_cell_formula_units_Z   1
loop_
 _symmetry_equiv_pos_site_id
 _symmetry_equiv_pos_as_xyz
  1  'x, y, z'
loop_
 _atom_site_type_symbol
 _atom_site_label
 _atom_site_symmetry_multiplicity
 _atom_site_fract_x
 _atom_site_fract_y
 _atom_site_fract_z
 _atom_site_occupancy
  Cs  Cs0  1  0.000000  0.000000  0.514923  1
  Lu  Lu1  1  0.333333  0.666667  0.103211  1
  Mg  Mg2  1  0.666667  0.333333  0.876224  1
  Fe  Fe3  1  0.000000  0.000000  0.001281  1
  H  H4  1  0.324310  0.162155  0.106369  1
  H  H5  1  0.837845  0.675690  0.106369  1
  H  H6  1  0.837845  0.162155  0.106369  1
  H  H7  1  0.678802  0.839401  0.892783  1
  H  H8  1  0.160599  0.321198  0.892783  1
  H  H9  1  0.160599  0.839401  0.892783  1
  H  H10  1  0.666667  0.333333  0.671054  1
  H  H11  1  0.333333  0.666667  0.335852  1
