# generated using pymatgen
data_Tb4ZnCo12GeB6
_symmetry_space_group_name_H-M   'P 1'
_cell_length_a   5.13215313
_cell_length_b   5.13185301
_cell_length_c   12.47733400
_cell_angle_alpha   90.00070033
_cell_angle_beta   90.00079759
_cell_angle_gamma   120.01344318
_symmetry_Int_Tables_number   1
_chemical_formula_structural   Tb4ZnCo12GeB6
_chemical_formula_sum   'Tb4 Zn1 Co12 Ge1 B6'
_cell_volume   284.55577256
_cell_formula_units_Z   1
loop_
 _symmetry_equiv_pos_site_id
 _symmetry_equiv_pos_as_xyz
  1  'x, y, z'
loop_
 _atom_site_type_symbol
 _atom_site_label
 _atom_site_symmetry_multiplicity
 _atom_site_fract_x
 _atom_site_fract_y
 _atom_site_fract_z
 _atom_site_occupancy
  Tb  Tb0  1  0.999988  0.000007  0.500011  1
  Tb  Tb1  1  0.999995  0.999999  0.259280  1
  Tb  Tb2  1  0.999992  0.000011  0.740726  1
  Tb  Tb3  1  0.000006  0.999987  0.999996  1
  Zn  Zn4  1  0.333341  0.666660  0.999997  1
  Co  Co5  1  0.499888  0.999794  0.384994  1
  Co  Co6  1  0.000206  0.500113  0.384969  1
  Co  Co7  1  0.499891  0.500108  0.384972  1
  Co  Co8  1  0.499886  0.999797  0.615045  1
  Co  Co9  1  0.499887  0.500111  0.615042  1
  Co  Co10  1  0.000206  0.500115  0.615037  1
  Co  Co11  1  0.501149  0.002307  0.159229  1
  Co  Co12  1  0.997686  0.498850  0.159255  1
  Co  Co13  1  0.501159  0.498844  0.159263  1
  Co  Co14  1  0.501130  0.002293  0.840736  1
  Co  Co15  1  0.501143  0.498848  0.840738  1
  Co  Co16  1  0.997696  0.498860  0.840739  1
  Ge  Ge17  1  0.666658  0.333288  0.999985  1
  B  B18  1  0.333370  0.666684  0.267475  1
  B  B19  1  0.666630  0.333314  0.268905  1
  B  B20  1  0.666674  0.333387  0.731078  1
  B  B21  1  0.333321  0.666627  0.732516  1
  B  B22  1  0.333342  0.666656  0.500005  1
  B  B23  1  0.666653  0.333345  0.500005  1
