# generated using pymatgen
data_Ce3Ga2Rh3Pb
_symmetry_space_group_name_H-M   'P 1'
_cell_length_a   7.41779411
_cell_length_b   7.46771347
_cell_length_c   3.95132900
_cell_angle_alpha   90.00000000
_cell_angle_beta   90.00000000
_cell_angle_gamma   120.22285748
_symmetry_Int_Tables_number   1
_chemical_formula_structural   Ce3Ga2Rh3Pb
_chemical_formula_sum   'Ce3 Ga2 Rh3 Pb1'
_cell_volume   189.12832678
_cell_formula_units_Z   1
loop_
 _symmetry_equiv_pos_site_id
 _symmetry_equiv_pos_as_xyz
  1  'x, y, z'
loop_
 _atom_site_type_symbol
 _atom_site_label
 _atom_site_symmetry_multiplicity
 _atom_site_fract_x
 _atom_site_fract_y
 _atom_site_fract_z
 _atom_site_occupancy
  Ce  Ce0  1  0.424016  0.415506  0.500000  1
  Ce  Ce1  1  0.575984  0.991491  0.500000  1
  Ce  Ce2  1  0.000000  0.603528  0.500000  1
  Ga  Ga3  1  0.746116  0.748283  0.000000  1
  Ga  Ga4  1  0.253884  0.002168  0.000000  1
  Rh  Rh5  1  0.000000  0.966999  0.500000  1
  Rh  Rh6  1  0.654359  0.338624  0.000000  1
  Rh  Rh7  1  0.345641  0.684266  0.000000  1
  Pb  Pb8  1  0.000000  0.249134  0.000000  1
