# generated using pymatgen
data_Pr5Sm(ThS6)2
_symmetry_space_group_name_H-M   'P 1'
_cell_length_a   4.05774500
_cell_length_b   10.65147693
_cell_length_c   10.98660800
_cell_angle_alpha   90.04924065
_cell_angle_beta   90.00000000
_cell_angle_gamma   90.00000000
_symmetry_Int_Tables_number   1
_chemical_formula_structural   Pr5Sm(ThS6)2
_chemical_formula_sum   'Pr5 Sm1 Th2 S12'
_cell_volume   474.85175928
_cell_formula_units_Z   1
loop_
 _symmetry_equiv_pos_site_id
 _symmetry_equiv_pos_as_xyz
  1  'x, y, z'
loop_
 _atom_site_type_symbol
 _atom_site_label
 _atom_site_symmetry_multiplicity
 _atom_site_fract_x
 _atom_site_fract_y
 _atom_site_fract_z
 _atom_site_occupancy
  Pr  Pr0  1  0.250000  0.992911  0.806107  1
  Pr  Pr1  1  0.750000  0.001005  0.190317  1
  Pr  Pr2  1  0.750000  0.497927  0.696559  1
  Pr  Pr3  1  0.250000  0.505200  0.307768  1
  Pr  Pr4  1  0.250000  0.188424  0.489028  1
  Sm  Sm5  1  0.750000  0.686968  0.010220  1
  Th  Th6  1  0.750000  0.813679  0.511106  1
  Th  Th7  1  0.250000  0.313362  0.988987  1
  S  S8  1  0.250000  0.296914  0.733119  1
  S  S9  1  0.750000  0.705205  0.271814  1
  S  S10  1  0.750000  0.792023  0.768560  1
  S  S11  1  0.250000  0.201994  0.224289  1
  S  S12  1  0.250000  0.943201  0.378818  1
  S  S13  1  0.750000  0.053436  0.620914  1
  S  S14  1  0.750000  0.446053  0.119797  1
  S  S15  1  0.250000  0.556372  0.883984  1
  S  S16  1  0.250000  0.868881  0.044595  1
  S  S17  1  0.750000  0.129159  0.952234  1
  S  S18  1  0.750000  0.376339  0.454023  1
  S  S19  1  0.250000  0.630950  0.547766  1
