# generated using pymatgen
data_NdHo2Zn(Ga4Pd)2
_symmetry_space_group_name_H-M   'P 1'
_cell_length_a   8.18029852
_cell_length_b   8.18029851
_cell_length_c   8.18029773
_cell_angle_alpha   149.29798604
_cell_angle_beta   109.26813042
_cell_angle_gamma   79.05750296
_symmetry_Int_Tables_number   1
_chemical_formula_structural   NdHo2Zn(Ga4Pd)2
_chemical_formula_sum   'Nd1 Ho2 Zn1 Ga8 Pd2'
_cell_volume   258.77684059
_cell_formula_units_Z   1
loop_
 _symmetry_equiv_pos_site_id
 _symmetry_equiv_pos_as_xyz
  1  'x, y, z'
loop_
 _atom_site_type_symbol
 _atom_site_label
 _atom_site_symmetry_multiplicity
 _atom_site_fract_x
 _atom_site_fract_y
 _atom_site_fract_z
 _atom_site_occupancy
  Nd  Nd0  1  0.500000  0.500000  0.000000  1
  Ho  Ho1  1  0.200047  0.200047  0.000000  1
  Ho  Ho2  1  0.799953  0.799953  0.000000  1
  Zn  Zn3  1  0.000000  0.500000  0.500000  1
  Ga  Ga4  1  0.647895  0.362807  0.285088  1
  Ga  Ga5  1  0.352105  0.637193  0.714912  1
  Ga  Ga6  1  0.077719  0.362807  0.714912  1
  Ga  Ga7  1  0.922281  0.637193  0.285088  1
  Ga  Ga8  1  0.522179  0.157230  0.364949  1
  Ga  Ga9  1  0.477821  0.842770  0.635051  1
  Ga  Ga10  1  0.792281  0.157230  0.635051  1
  Ga  Ga11  1  0.207719  0.842770  0.364949  1
  Pd  Pd12  1  0.182926  0.000000  0.182926  1
  Pd  Pd13  1  0.817074  0.000000  0.817074  1
