# generated using pymatgen
data_Nd3CdIr3RhO14
_symmetry_space_group_name_H-M   'P 1'
_cell_length_a   7.43295314
_cell_length_b   7.28303242
_cell_length_c   7.43295300
_cell_angle_alpha   59.31668338
_cell_angle_beta   59.99999619
_cell_angle_gamma   59.31668204
_symmetry_Int_Tables_number   1
_chemical_formula_structural   Nd3CdIr3RhO14
_chemical_formula_sum   'Nd3 Cd1 Ir3 Rh1 O14'
_cell_volume   281.55055995
_cell_formula_units_Z   1
loop_
 _symmetry_equiv_pos_site_id
 _symmetry_equiv_pos_as_xyz
  1  'x, y, z'
loop_
 _atom_site_type_symbol
 _atom_site_label
 _atom_site_symmetry_multiplicity
 _atom_site_fract_x
 _atom_site_fract_y
 _atom_site_fract_z
 _atom_site_occupancy
  Nd  Nd0  1  0.625000  0.125000  0.125000  1
  Nd  Nd1  1  0.125000  0.125000  0.625000  1
  Nd  Nd2  1  0.125000  0.125000  0.125000  1
  Cd  Cd3  1  0.125000  0.625000  0.125000  1
  Ir  Ir4  1  0.125000  0.625000  0.625000  1
  Ir  Ir5  1  0.625000  0.625000  0.125000  1
  Ir  Ir6  1  0.625000  0.625000  0.625000  1
  Rh  Rh7  1  0.625000  0.125000  0.625000  1
  O  O8  1  0.699779  0.697842  0.301189  1
  O  O9  1  0.289557  0.291230  0.709606  1
  O  O10  1  0.709606  0.291230  0.709606  1
  O  O11  1  0.301189  0.697842  0.301189  1
  O  O12  1  0.301189  0.697842  0.699779  1
  O  O13  1  0.709606  0.291230  0.289557  1
  O  O14  1  0.550221  0.552158  0.948811  1
  O  O15  1  0.960443  0.958770  0.540394  1
  O  O16  1  0.540394  0.958770  0.540394  1
  O  O17  1  0.948811  0.552158  0.948811  1
  O  O18  1  0.948811  0.552158  0.550221  1
  O  O19  1  0.540394  0.958770  0.960443  1
  O  O20  1  0.246468  0.260598  0.246468  1
  O  O21  1  0.003532  0.989402  0.003532  1
