# generated using pymatgen
data_Dy9YCuSiPb6
_symmetry_space_group_name_H-M   'P 1'
_cell_length_a   9.19690800
_cell_length_b   9.19690133
_cell_length_c   6.75990800
_cell_angle_alpha   89.99998333
_cell_angle_beta   89.99998529
_cell_angle_gamma   119.99999616
_symmetry_Int_Tables_number   1
_chemical_formula_structural   Dy9YCuSiPb6
_chemical_formula_sum   'Dy9 Y1 Cu1 Si1 Pb6'
_cell_volume   495.17054542
_cell_formula_units_Z   1
loop_
 _symmetry_equiv_pos_site_id
 _symmetry_equiv_pos_as_xyz
  1  'x, y, z'
loop_
 _atom_site_type_symbol
 _atom_site_label
 _atom_site_symmetry_multiplicity
 _atom_site_fract_x
 _atom_site_fract_y
 _atom_site_fract_z
 _atom_site_occupancy
  Dy  Dy0  1  0.000007  0.751184  0.761653  1
  Dy  Dy1  1  0.333333  0.666667  0.500000  1
  Dy  Dy2  1  0.333333  0.666667  0.000000  1
  Dy  Dy3  1  0.751178  0.751184  0.238347  1
  Dy  Dy4  1  0.248816  0.248822  0.761653  1
  Dy  Dy5  1  0.000007  0.248823  0.238347  1
  Dy  Dy6  1  0.666667  0.333333  0.500000  1
  Dy  Dy7  1  0.248816  0.999994  0.238347  1
  Dy  Dy8  1  0.751178  0.999994  0.761653  1
  Y  Y9  1  0.666667  0.333333  0.000000  1
  Cu  Cu10  1  0.000000  0.000000  0.500000  1
  Si  Si11  1  0.000000  0.000000  0.000000  1
  Pb  Pb12  1  0.393874  0.999966  0.749954  1
  Pb  Pb13  1  0.393873  0.393907  0.250046  1
  Pb  Pb14  1  0.606093  0.606126  0.749954  1
  Pb  Pb15  1  0.000034  0.606126  0.250046  1
  Pb  Pb16  1  0.000034  0.393907  0.749954  1
  Pb  Pb17  1  0.606093  0.999966  0.250046  1
