# generated using pymatgen
data_Be8NbOs3
_symmetry_space_group_name_H-M   'P 1'
_cell_length_a   4.40237610
_cell_length_b   4.40237620
_cell_length_c   7.21552508
_cell_angle_alpha   89.99968941
_cell_angle_beta   90.00030820
_cell_angle_gamma   119.99955919
_symmetry_Int_Tables_number   1
_chemical_formula_structural   Be8NbOs3
_chemical_formula_sum   'Be8 Nb1 Os3'
_cell_volume   121.10854750
_cell_formula_units_Z   1
loop_
 _symmetry_equiv_pos_site_id
 _symmetry_equiv_pos_as_xyz
  1  'x, y, z'
loop_
 _atom_site_type_symbol
 _atom_site_label
 _atom_site_symmetry_multiplicity
 _atom_site_fract_x
 _atom_site_fract_y
 _atom_site_fract_z
 _atom_site_occupancy
  Be  Be0  1  0.000004  0.999996  0.494303  1
  Be  Be1  1  0.999995  0.000005  0.002743  1
  Be  Be2  1  0.169738  0.339434  0.760926  1
  Be  Be3  1  0.169743  0.830257  0.760964  1
  Be  Be4  1  0.660566  0.830262  0.760926  1
  Be  Be5  1  0.832322  0.664699  0.240424  1
  Be  Be6  1  0.832325  0.167675  0.240400  1
  Be  Be7  1  0.335301  0.167678  0.240424  1
  Nb  Nb8  1  0.666676  0.333324  0.562358  1
  Os  Os9  1  0.333326  0.666674  0.442954  1
  Os  Os10  1  0.333336  0.666664  0.062010  1
  Os  Os11  1  0.666668  0.333332  0.931568  1
