# generated using pymatgen
data_Li2La3MgIr2Pd
_symmetry_space_group_name_H-M   'P 1'
_cell_length_a   7.48790800
_cell_length_b   7.48110023
_cell_length_c   4.11112500
_cell_angle_alpha   90.00000000
_cell_angle_beta   90.00000000
_cell_angle_gamma   120.03009814
_symmetry_Int_Tables_number   1
_chemical_formula_structural   Li2La3MgIr2Pd
_chemical_formula_sum   'Li2 La3 Mg1 Ir2 Pd1'
_cell_volume   199.38178978
_cell_formula_units_Z   1
loop_
 _symmetry_equiv_pos_site_id
 _symmetry_equiv_pos_as_xyz
  1  'x, y, z'
loop_
 _atom_site_type_symbol
 _atom_site_label
 _atom_site_symmetry_multiplicity
 _atom_site_fract_x
 _atom_site_fract_y
 _atom_site_fract_z
 _atom_site_occupancy
  Li  Li0  1  0.765491  0.764968  0.000000  1
  Li  Li1  1  0.000522  0.235032  0.000000  1
  La  La2  1  0.584924  0.000000  0.500000  1
  La  La3  1  0.427035  0.429451  0.500000  1
  La  La4  1  0.997584  0.570549  0.500000  1
  Mg  Mg5  1  0.236639  0.000000  0.000000  1
  Ir  Ir6  1  0.328794  0.672373  0.000000  1
  Ir  Ir7  1  0.656422  0.327627  0.000000  1
  Pd  Pd8  1  0.002588  0.000000  0.500000  1
