# generated using pymatgen
data_Ho2TmSi3Pd
_symmetry_space_group_name_H-M   'P 1'
_cell_length_a   5.67510926
_cell_length_b   5.67510754
_cell_length_c   13.61757800
_cell_angle_alpha   71.23862916
_cell_angle_beta   71.23863506
_cell_angle_gamma   43.83580553
_symmetry_Int_Tables_number   1
_chemical_formula_structural   Ho2TmSi3Pd
_chemical_formula_sum   'Ho4 Tm2 Si6 Pd2'
_cell_volume   284.91882356
_cell_formula_units_Z   2
loop_
 _symmetry_equiv_pos_site_id
 _symmetry_equiv_pos_as_xyz
  1  'x, y, z'
loop_
 _atom_site_type_symbol
 _atom_site_label
 _atom_site_symmetry_multiplicity
 _atom_site_fract_x
 _atom_site_fract_y
 _atom_site_fract_z
 _atom_site_occupancy
  Ho  Ho0  1  0.603639  0.603639  0.077569  1
  Ho  Ho1  1  0.396361  0.396361  0.922431  1
  Ho  Ho2  1  0.524831  0.524831  0.624211  1
  Ho  Ho3  1  0.475169  0.475169  0.375789  1
  Tm  Tm4  1  0.257104  0.257104  0.226199  1
  Tm  Tm5  1  0.742896  0.742896  0.773801  1
  Si  Si6  1  0.962151  0.962151  0.230163  1
  Si  Si7  1  0.037849  0.037849  0.769837  1
  Si  Si8  1  0.877253  0.877253  0.545651  1
  Si  Si9  1  0.122747  0.122747  0.454349  1
  Si  Si10  1  0.113033  0.113033  0.924624  1
  Si  Si11  1  0.886967  0.886967  0.075376  1
  Pd  Pd12  1  0.756043  0.756043  0.404293  1
  Pd  Pd13  1  0.243957  0.243957  0.595707  1
