# generated using pymatgen
data_GaFe11(Mo3N)4
_symmetry_space_group_name_H-M   'P 1'
_cell_length_a   7.88383469
_cell_length_b   7.84933798
_cell_length_c   7.84933800
_cell_angle_alpha   59.99999993
_cell_angle_beta   60.14463918
_cell_angle_gamma   60.14464599
_symmetry_Int_Tables_number   1
_chemical_formula_structural   GaFe11(Mo3N)4
_chemical_formula_sum   'Ga1 Fe11 Mo12 N4'
_cell_volume   344.21881523
_cell_formula_units_Z   1
loop_
 _symmetry_equiv_pos_site_id
 _symmetry_equiv_pos_as_xyz
  1  'x, y, z'
loop_
 _atom_site_type_symbol
 _atom_site_label
 _atom_site_symmetry_multiplicity
 _atom_site_fract_x
 _atom_site_fract_y
 _atom_site_fract_z
 _atom_site_occupancy
  Ga  Ga0  1  0.125000  0.625000  0.625000  1
  Fe  Fe1  1  0.625000  0.125000  0.625000  1
  Fe  Fe2  1  0.625000  0.625000  0.125000  1
  Fe  Fe3  1  0.625000  0.625000  0.625000  1
  Fe  Fe4  1  0.747445  0.417519  0.417519  1
  Fe  Fe5  1  0.424500  0.744073  0.415714  1
  Fe  Fe6  1  0.424500  0.415714  0.744073  1
  Fe  Fe7  1  0.424500  0.415714  0.415714  1
  Fe  Fe8  1  0.502555  0.832481  0.832481  1
  Fe  Fe9  1  0.825500  0.505927  0.834286  1
  Fe  Fe10  1  0.825500  0.834286  0.505927  1
  Fe  Fe11  1  0.825500  0.834286  0.834286  1
  Mo  Mo12  1  0.800439  0.801387  0.199087  1
  Mo  Mo13  1  0.197567  0.195897  0.803268  1
  Mo  Mo14  1  0.800439  0.199087  0.801387  1
  Mo  Mo15  1  0.197567  0.803268  0.195897  1
  Mo  Mo16  1  0.197567  0.803268  0.803268  1
  Mo  Mo17  1  0.800439  0.199087  0.199087  1
  Mo  Mo18  1  0.449561  0.448613  0.050913  1
  Mo  Mo19  1  0.052433  0.054103  0.446732  1
  Mo  Mo20  1  0.449561  0.050913  0.448613  1
  Mo  Mo21  1  0.052433  0.446732  0.054103  1
  Mo  Mo22  1  0.052433  0.446732  0.446732  1
  Mo  Mo23  1  0.449561  0.050913  0.050913  1
  N  N24  1  0.625000  0.125000  0.125000  1
  N  N25  1  0.125000  0.625000  0.125000  1
  N  N26  1  0.125000  0.125000  0.625000  1
  N  N27  1  0.125000  0.125000  0.125000  1
