# generated using pymatgen
data_Cs4PaTiTe6
_symmetry_space_group_name_H-M   'P 1'
_cell_length_a   15.26800900
_cell_length_b   7.07936659
_cell_length_c   10.32766555
_cell_angle_alpha   72.06197040
_cell_angle_beta   90.00000000
_cell_angle_gamma   90.00000000
_symmetry_Int_Tables_number   1
_chemical_formula_structural   Cs4PaTiTe6
_chemical_formula_sum   'Cs8 Pa2 Ti2 Te12'
_cell_volume   1062.03209866
_cell_formula_units_Z   2
loop_
 _symmetry_equiv_pos_site_id
 _symmetry_equiv_pos_as_xyz
  1  'x, y, z'
loop_
 _atom_site_type_symbol
 _atom_site_label
 _atom_site_symmetry_multiplicity
 _atom_site_fract_x
 _atom_site_fract_y
 _atom_site_fract_z
 _atom_site_occupancy
  Cs  Cs0  1  0.954440  0.673660  0.654432  1
  Cs  Cs1  1  0.454440  0.826340  0.345568  1
  Cs  Cs2  1  0.045982  0.327463  0.345713  1
  Cs  Cs3  1  0.545982  0.172537  0.654287  1
  Cs  Cs4  1  0.868218  0.083422  0.902313  1
  Cs  Cs5  1  0.368218  0.416578  0.097687  1
  Cs  Cs6  1  0.131411  0.921041  0.099062  1
  Cs  Cs7  1  0.631411  0.578959  0.900938  1
  Pa  Pa8  1  0.749647  0.653126  0.297510  1
  Pa  Pa9  1  0.249647  0.846874  0.702490  1
  Ti  Ti10  1  0.250192  0.344921  0.703956  1
  Ti  Ti11  1  0.750192  0.155079  0.296044  1
  Te  Te12  1  0.903936  0.925851  0.281015  1
  Te  Te13  1  0.403936  0.574149  0.718985  1
  Te  Te14  1  0.095608  0.108419  0.719338  1
  Te  Te15  1  0.595608  0.391581  0.280662  1
  Te  Te16  1  0.814626  0.289504  0.513676  1
  Te  Te17  1  0.314626  0.210496  0.486324  1
  Te  Te18  1  0.186093  0.676962  0.486182  1
  Te  Te19  1  0.686093  0.823038  0.513818  1
  Te  Te20  1  0.840568  0.480125  0.097142  1
  Te  Te21  1  0.340568  0.019875  0.902858  1
  Te  Te22  1  0.159281  0.492711  0.902054  1
  Te  Te23  1  0.659281  0.007289  0.097946  1
