# generated using pymatgen
data_La3PdI3
_symmetry_space_group_name_H-M   'P 1'
_cell_length_a   11.04209616
_cell_length_b   11.04209643
_cell_length_c   11.04209600
_cell_angle_alpha   109.47122169
_cell_angle_beta   109.47122217
_cell_angle_gamma   109.47121861
_symmetry_Int_Tables_number   1
_chemical_formula_structural   La3PdI3
_chemical_formula_sum   'La12 Pd4 I12'
_cell_volume   1036.41260192
_cell_formula_units_Z   4
loop_
 _symmetry_equiv_pos_site_id
 _symmetry_equiv_pos_as_xyz
  1  'x, y, z'
loop_
 _atom_site_type_symbol
 _atom_site_label
 _atom_site_symmetry_multiplicity
 _atom_site_fract_x
 _atom_site_fract_y
 _atom_site_fract_z
 _atom_site_occupancy
  La  La0  1  0.464308  0.482155  0.232155  1
  La  La1  1  0.750000  0.232155  0.267845  1
  La  La2  1  0.750000  0.017845  0.482155  1
  La  La3  1  0.232155  0.464308  0.482155  1
  La  La4  1  0.267845  0.750000  0.232155  1
  La  La5  1  0.035692  0.267845  0.017845  1
  La  La6  1  0.017845  0.035692  0.267845  1
  La  La7  1  0.482155  0.750000  0.017845  1
  La  La8  1  0.482155  0.232155  0.464308  1
  La  La9  1  0.017845  0.482155  0.750000  1
  La  La10  1  0.267845  0.017845  0.035692  1
  La  La11  1  0.232155  0.267845  0.750000  1
  Pd  Pd12  1  0.250000  0.250000  0.250000  1
  Pd  Pd13  1  0.500000  0.000000  0.250000  1
  Pd  Pd14  1  0.000000  0.250000  0.500000  1
  Pd  Pd15  1  0.250000  0.500000  0.000000  1
  I  I16  1  0.250000  0.760394  0.739606  1
  I  I17  1  0.520790  0.510394  0.760394  1
  I  I18  1  0.979210  0.739606  0.989606  1
  I  I19  1  0.739606  0.250000  0.760394  1
  I  I20  1  0.989606  0.979210  0.739606  1
  I  I21  1  0.250000  0.989606  0.510394  1
  I  I22  1  0.760394  0.520790  0.510394  1
  I  I23  1  0.510394  0.250000  0.989606  1
  I  I24  1  0.760394  0.739606  0.250000  1
  I  I25  1  0.739606  0.989606  0.979210  1
  I  I26  1  0.989606  0.510394  0.250000  1
  I  I27  1  0.510394  0.760394  0.520790  1
