# generated using pymatgen
data_AlFe4Si3W4
_symmetry_space_group_name_H-M   'P 1'
_cell_length_a   4.77738809
_cell_length_b   4.73667661
_cell_length_c   7.76575400
_cell_angle_alpha   90.00000000
_cell_angle_beta   90.00000000
_cell_angle_gamma   120.12256661
_symmetry_Int_Tables_number   1
_chemical_formula_structural   AlFe4Si3W4
_chemical_formula_sum   'Al1 Fe4 Si3 W4'
_cell_volume   151.99902809
_cell_formula_units_Z   1
loop_
 _symmetry_equiv_pos_site_id
 _symmetry_equiv_pos_as_xyz
  1  'x, y, z'
loop_
 _atom_site_type_symbol
 _atom_site_label
 _atom_site_symmetry_multiplicity
 _atom_site_fract_x
 _atom_site_fract_y
 _atom_site_fract_z
 _atom_site_occupancy
  Al  Al0  1  0.353128  0.180705  0.750000  1
  Fe  Fe1  1  0.841786  0.670344  0.750000  1
  Fe  Fe2  1  0.173495  0.327627  0.250000  1
  Fe  Fe3  1  0.670860  0.825894  0.250000  1
  Fe  Fe4  1  0.840227  0.175934  0.750000  1
  Si  Si5  1  0.978424  0.999086  0.000093  1
  Si  Si6  1  0.978424  0.999086  0.499907  1
  Si  Si7  1  0.179978  0.818159  0.250000  1
  W  W8  1  0.329126  0.670387  0.937272  1
  W  W9  1  0.662712  0.331196  0.433473  1
  W  W10  1  0.662712  0.331196  0.066527  1
  W  W11  1  0.329126  0.670387  0.562728  1
