# generated using pymatgen
data_TbHo15Zn3InRh4
_symmetry_space_group_name_H-M   'P 1'
_cell_length_a   9.50566964
_cell_length_b   9.50369526
_cell_length_c   9.52171900
_cell_angle_alpha   59.93724100
_cell_angle_beta   59.94412901
_cell_angle_gamma   59.80427364
_symmetry_Int_Tables_number   1
_chemical_formula_structural   TbHo15Zn3InRh4
_chemical_formula_sum   'Tb1 Ho15 Zn3 In1 Rh4'
_cell_volume   606.79256649
_cell_formula_units_Z   1
loop_
 _symmetry_equiv_pos_site_id
 _symmetry_equiv_pos_as_xyz
  1  'x, y, z'
loop_
 _atom_site_type_symbol
 _atom_site_label
 _atom_site_symmetry_multiplicity
 _atom_site_fract_x
 _atom_site_fract_y
 _atom_site_fract_z
 _atom_site_occupancy
  Tb  Tb0  1  0.191146  0.180647  0.814104  1
  Ho  Ho1  1  0.602205  0.603698  0.192834  1
  Ho  Ho2  1  0.440244  0.059325  0.440891  1
  Ho  Ho3  1  0.441275  0.441189  0.058767  1
  Ho  Ho4  1  0.814094  0.181131  0.814381  1
  Ho  Ho5  1  0.186211  0.812867  0.186121  1
  Ho  Ho6  1  0.440244  0.059325  0.059540  1
  Ho  Ho7  1  0.186211  0.812867  0.814801  1
  Ho  Ho8  1  0.058489  0.440798  0.059691  1
  Ho  Ho9  1  0.815161  0.813515  0.185661  1
  Ho  Ho10  1  0.192230  0.604206  0.601782  1
  Ho  Ho11  1  0.058489  0.440798  0.441020  1
  Ho  Ho12  1  0.059152  0.059938  0.440455  1
  Ho  Ho13  1  0.814094  0.181131  0.190394  1
  Ho  Ho14  1  0.604741  0.188364  0.603447  1
  Ho  Ho15  1  0.602205  0.603698  0.601263  1
  Zn  Zn16  1  0.829953  0.833199  0.830143  1
  Zn  Zn17  1  0.829953  0.833199  0.506705  1
  Zn  Zn18  1  0.506209  0.832975  0.830408  1
  In  In19  1  0.827187  0.515736  0.828539  1
  Rh  Rh20  1  0.393472  0.820787  0.392871  1
  Rh  Rh21  1  0.393688  0.393477  0.392866  1
  Rh  Rh22  1  0.819660  0.393652  0.393345  1
  Rh  Rh23  1  0.393688  0.393477  0.819970  1
