# generated using pymatgen
data_Tm8Lu12AlBi11
_symmetry_space_group_name_H-M   'P 1'
_cell_length_a   8.10305163
_cell_length_b   9.36841200
_cell_length_c   11.83209443
_cell_angle_alpha   90.00000000
_cell_angle_beta   89.72339863
_cell_angle_gamma   90.00000000
_symmetry_Int_Tables_number   1
_chemical_formula_structural   Tm8Lu12AlBi11
_chemical_formula_sum   'Tm8 Lu12 Al1 Bi11'
_cell_volume   898.19607763
_cell_formula_units_Z   1
loop_
 _symmetry_equiv_pos_site_id
 _symmetry_equiv_pos_as_xyz
  1  'x, y, z'
loop_
 _atom_site_type_symbol
 _atom_site_label
 _atom_site_symmetry_multiplicity
 _atom_site_fract_x
 _atom_site_fract_y
 _atom_site_fract_z
 _atom_site_occupancy
  Tm  Tm0  1  0.355241  0.250000  0.291509  1
  Tm  Tm1  1  0.646550  0.750000  0.717507  1
  Tm  Tm2  1  0.147800  0.750000  0.782898  1
  Tm  Tm3  1  0.854327  0.250000  0.216110  1
  Tm  Tm4  1  0.191425  0.250000  0.777700  1
  Tm  Tm5  1  0.810443  0.750000  0.217458  1
  Tm  Tm6  1  0.311792  0.750000  0.281370  1
  Tm  Tm7  1  0.680020  0.250000  0.712744  1
  Lu  Lu8  1  0.035777  0.250000  0.510419  1
  Lu  Lu9  1  0.978183  0.750000  0.489269  1
  Lu  Lu10  1  0.476553  0.750000  0.010361  1
  Lu  Lu11  1  0.524456  0.250000  0.989789  1
  Lu  Lu12  1  0.193349  0.067018  0.060199  1
  Lu  Lu13  1  0.806643  0.933355  0.940671  1
  Lu  Lu14  1  0.307557  0.945151  0.558932  1
  Lu  Lu15  1  0.806643  0.566645  0.940671  1
  Lu  Lu16  1  0.685586  0.072314  0.444006  1
  Lu  Lu17  1  0.193349  0.432982  0.060199  1
  Lu  Lu18  1  0.685586  0.427686  0.444006  1
  Lu  Lu19  1  0.307557  0.554849  0.558932  1
  Al  Al20  1  0.406830  0.250000  0.541700  1
  Bi  Bi21  1  0.595445  0.750000  0.456998  1
  Bi  Bi22  1  0.095874  0.750000  0.043145  1
  Bi  Bi23  1  0.905956  0.250000  0.955040  1
  Bi  Bi24  1  0.063601  0.002857  0.324914  1
  Bi  Bi25  1  0.934907  0.996470  0.674803  1
  Bi  Bi26  1  0.435305  0.996767  0.825631  1
  Bi  Bi27  1  0.934907  0.503530  0.674803  1
  Bi  Bi28  1  0.564716  0.003998  0.173837  1
  Bi  Bi29  1  0.063601  0.497143  0.324914  1
  Bi  Bi30  1  0.564716  0.496002  0.173837  1
  Bi  Bi31  1  0.435305  0.503233  0.825631  1
