# generated using pymatgen
data_Pr5SiSb2
_symmetry_space_group_name_H-M   'P 1'
_cell_length_a   8.25406100
_cell_length_b   9.36652500
_cell_length_c   12.61975000
_cell_angle_alpha   90.00000000
_cell_angle_beta   90.00000000
_cell_angle_gamma   90.00000000
_symmetry_Int_Tables_number   1
_chemical_formula_structural   Pr5SiSb2
_chemical_formula_sum   'Pr20 Si4 Sb8'
_cell_volume   975.65645513
_cell_formula_units_Z   4
loop_
 _symmetry_equiv_pos_site_id
 _symmetry_equiv_pos_as_xyz
  1  'x, y, z'
loop_
 _atom_site_type_symbol
 _atom_site_label
 _atom_site_symmetry_multiplicity
 _atom_site_fract_x
 _atom_site_fract_y
 _atom_site_fract_z
 _atom_site_occupancy
  Pr  Pr0  1  0.656995  0.750000  0.711716  1
  Pr  Pr1  1  0.343005  0.250000  0.288284  1
  Pr  Pr2  1  0.156995  0.250000  0.788284  1
  Pr  Pr3  1  0.843005  0.750000  0.211716  1
  Pr  Pr4  1  0.134946  0.750000  0.794173  1
  Pr  Pr5  1  0.865054  0.250000  0.205827  1
  Pr  Pr6  1  0.634946  0.250000  0.705827  1
  Pr  Pr7  1  0.365054  0.750000  0.294173  1
  Pr  Pr8  1  0.536570  0.750000  0.000785  1
  Pr  Pr9  1  0.463430  0.250000  0.999215  1
  Pr  Pr10  1  0.036570  0.250000  0.499215  1
  Pr  Pr11  1  0.963430  0.750000  0.500785  1
  Pr  Pr12  1  0.808790  0.458036  0.936820  1
  Pr  Pr13  1  0.191210  0.541964  0.063180  1
  Pr  Pr14  1  0.308790  0.541964  0.563180  1
  Pr  Pr15  1  0.191210  0.958036  0.063180  1
  Pr  Pr16  1  0.691210  0.458036  0.436820  1
  Pr  Pr17  1  0.808790  0.041964  0.936820  1
  Pr  Pr18  1  0.691210  0.041964  0.436820  1
  Pr  Pr19  1  0.308790  0.958036  0.563180  1
  Si  Si20  1  0.926884  0.750000  0.983878  1
  Si  Si21  1  0.073116  0.250000  0.016122  1
  Si  Si22  1  0.426884  0.250000  0.516122  1
  Si  Si23  1  0.573116  0.750000  0.483878  1
  Sb  Sb24  1  0.925915  0.008993  0.674430  1
  Sb  Sb25  1  0.074085  0.991007  0.325570  1
  Sb  Sb26  1  0.425915  0.991007  0.825570  1
  Sb  Sb27  1  0.074085  0.508993  0.325570  1
  Sb  Sb28  1  0.574085  0.008993  0.174430  1
  Sb  Sb29  1  0.925915  0.491007  0.674430  1
  Sb  Sb30  1  0.574085  0.491007  0.174430  1
  Sb  Sb31  1  0.425915  0.508993  0.825570  1
