# generated using pymatgen
data_Ca2TbEr(ReN3)4
_symmetry_space_group_name_H-M   'P 1'
_cell_length_a   7.38778805
_cell_length_b   7.38778677
_cell_length_c   6.25337120
_cell_angle_alpha   74.03742905
_cell_angle_beta   74.03743363
_cell_angle_gamma   83.84087939
_symmetry_Int_Tables_number   1
_chemical_formula_structural   Ca2TbEr(ReN3)4
_chemical_formula_sum   'Ca2 Tb1 Er1 Re4 N12'
_cell_volume   315.30720506
_cell_formula_units_Z   1
loop_
 _symmetry_equiv_pos_site_id
 _symmetry_equiv_pos_as_xyz
  1  'x, y, z'
loop_
 _atom_site_type_symbol
 _atom_site_label
 _atom_site_symmetry_multiplicity
 _atom_site_fract_x
 _atom_site_fract_y
 _atom_site_fract_z
 _atom_site_occupancy
  Ca  Ca0  1  0.295289  0.704711  0.750000  1
  Ca  Ca1  1  0.704447  0.295553  0.250000  1
  Tb  Tb2  1  0.910708  0.089292  0.750000  1
  Er  Er3  1  0.091329  0.908671  0.250000  1
  Re  Re4  1  0.622149  0.797068  0.266139  1
  Re  Re5  1  0.202932  0.377851  0.233861  1
  Re  Re6  1  0.377045  0.203732  0.735462  1
  Re  Re7  1  0.796268  0.622955  0.764538  1
  N  N8  1  0.343578  0.357104  0.941469  1
  N  N9  1  0.012469  0.213376  0.342912  1
  N  N10  1  0.786624  0.987531  0.157088  1
  N  N11  1  0.215493  0.010322  0.850424  1
  N  N12  1  0.658464  0.646687  0.056290  1
  N  N13  1  0.876281  0.382086  0.822416  1
  N  N14  1  0.121498  0.618377  0.180269  1
  N  N15  1  0.989678  0.784507  0.649576  1
  N  N16  1  0.381623  0.878502  0.319731  1
  N  N17  1  0.642896  0.656422  0.558531  1
  N  N18  1  0.617914  0.123719  0.677584  1
  N  N19  1  0.353313  0.341536  0.443710  1
