# generated using pymatgen
data_Ba3HoTiS6
_symmetry_space_group_name_H-M   'P 1'
_cell_length_a   8.30665695
_cell_length_b   8.30665568
_cell_length_c   8.30665700
_cell_angle_alpha   92.88113090
_cell_angle_beta   92.88113736
_cell_angle_gamma   92.88112686
_symmetry_Int_Tables_number   1
_chemical_formula_structural   Ba3HoTiS6
_chemical_formula_sum   'Ba6 Ho2 Ti2 S12'
_cell_volume   570.91448598
_cell_formula_units_Z   2
loop_
 _symmetry_equiv_pos_site_id
 _symmetry_equiv_pos_as_xyz
  1  'x, y, z'
loop_
 _atom_site_type_symbol
 _atom_site_label
 _atom_site_symmetry_multiplicity
 _atom_site_fract_x
 _atom_site_fract_y
 _atom_site_fract_z
 _atom_site_occupancy
  Ba  Ba0  1  0.374055  0.750000  0.125945  1
  Ba  Ba1  1  0.125945  0.374055  0.750000  1
  Ba  Ba2  1  0.750000  0.125945  0.374055  1
  Ba  Ba3  1  0.625945  0.250000  0.874055  1
  Ba  Ba4  1  0.874055  0.625945  0.250000  1
  Ba  Ba5  1  0.250000  0.874055  0.625945  1
  Ho  Ho6  1  0.250000  0.250000  0.250000  1
  Ho  Ho7  1  0.750000  0.750000  0.750000  1
  Ti  Ti8  1  0.500000  0.500000  0.500000  1
  Ti  Ti9  1  0.000000  0.000000  0.000000  1
  S  S10  1  0.539304  0.412276  0.210730  1
  S  S11  1  0.210730  0.539304  0.412276  1
  S  S12  1  0.412276  0.210730  0.539304  1
  S  S13  1  0.960696  0.289270  0.087724  1
  S  S14  1  0.087724  0.960696  0.289270  1
  S  S15  1  0.289270  0.087724  0.960696  1
  S  S16  1  0.460696  0.587724  0.789270  1
  S  S17  1  0.789270  0.460696  0.587724  1
  S  S18  1  0.587724  0.789270  0.460696  1
  S  S19  1  0.039304  0.710730  0.912276  1
  S  S20  1  0.710730  0.912276  0.039304  1
  S  S21  1  0.912276  0.039304  0.710730  1
