# generated using pymatgen
data_La2Nd2AgIr
_symmetry_space_group_name_H-M   'P 1'
_cell_length_a   10.04397481
_cell_length_b   10.04384439
_cell_length_c   10.08157000
_cell_angle_alpha   59.87807216
_cell_angle_beta   59.87771239
_cell_angle_gamma   60.23714987
_symmetry_Int_Tables_number   1
_chemical_formula_structural   La2Nd2AgIr
_chemical_formula_sum   'La8 Nd8 Ag4 Ir4'
_cell_volume   719.09150687
_cell_formula_units_Z   4
loop_
 _symmetry_equiv_pos_site_id
 _symmetry_equiv_pos_as_xyz
  1  'x, y, z'
loop_
 _atom_site_type_symbol
 _atom_site_label
 _atom_site_symmetry_multiplicity
 _atom_site_fract_x
 _atom_site_fract_y
 _atom_site_fract_z
 _atom_site_occupancy
  La  La0  1  0.347551  0.347571  0.349242  1
  La  La1  1  0.348177  0.348189  0.953169  1
  La  La2  1  0.351329  0.954628  0.347259  1
  La  La3  1  0.954609  0.351325  0.347272  1
  La  La4  1  0.809947  0.189005  0.189272  1
  La  La5  1  0.188723  0.809989  0.809835  1
  La  La6  1  0.189021  0.809957  0.189244  1
  La  La7  1  0.809983  0.188704  0.809844  1
  Nd  Nd8  1  0.192961  0.192983  0.806202  1
  Nd  Nd9  1  0.806551  0.806535  0.191735  1
  Nd  Nd10  1  0.934550  0.564739  0.566473  1
  Nd  Nd11  1  0.564442  0.933945  0.936044  1
  Nd  Nd12  1  0.564746  0.934553  0.566478  1
  Nd  Nd13  1  0.933937  0.564442  0.936030  1
  Nd  Nd14  1  0.562895  0.562861  0.937448  1
  Nd  Nd15  1  0.937257  0.937234  0.563411  1
  Ag  Ag16  1  0.583683  0.583684  0.580561  1
  Ag  Ag17  1  0.582188  0.582193  0.256246  1
  Ag  Ag18  1  0.580718  0.255102  0.581927  1
  Ag  Ag19  1  0.255105  0.580708  0.581910  1
  Ir  Ir20  1  0.138925  0.138927  0.145066  1
  Ir  Ir21  1  0.139804  0.139823  0.576700  1
  Ir  Ir22  1  0.146395  0.576494  0.139324  1
  Ir  Ir23  1  0.576502  0.146407  0.139308  1
