# generated using pymatgen
data_Ho4Ga4Pt3Rh
_symmetry_space_group_name_H-M   'P 1'
_cell_length_a   4.43166500
_cell_length_b   6.84885700
_cell_length_c   7.67448982
_cell_angle_alpha   89.47071443
_cell_angle_beta   90.00000000
_cell_angle_gamma   90.00000000
_symmetry_Int_Tables_number   1
_chemical_formula_structural   Ho4Ga4Pt3Rh
_chemical_formula_sum   'Ho4 Ga4 Pt3 Rh1'
_cell_volume   232.92494697
_cell_formula_units_Z   1
loop_
 _symmetry_equiv_pos_site_id
 _symmetry_equiv_pos_as_xyz
  1  'x, y, z'
loop_
 _atom_site_type_symbol
 _atom_site_label
 _atom_site_symmetry_multiplicity
 _atom_site_fract_x
 _atom_site_fract_y
 _atom_site_fract_z
 _atom_site_occupancy
  Ho  Ho0  1  0.250000  0.019741  0.805957  1
  Ho  Ho1  1  0.250000  0.522894  0.691445  1
  Ho  Ho2  1  0.750000  0.981337  0.197474  1
  Ho  Ho3  1  0.750000  0.481912  0.304084  1
  Ga  Ga4  1  0.250000  0.162634  0.428420  1
  Ga  Ga5  1  0.250000  0.671134  0.075288  1
  Ga  Ga6  1  0.750000  0.828742  0.569485  1
  Ga  Ga7  1  0.750000  0.331510  0.927101  1
  Pt  Pt8  1  0.250000  0.276604  0.101795  1
  Pt  Pt9  1  0.750000  0.224501  0.602104  1
  Pt  Pt10  1  0.750000  0.726369  0.898768  1
  Rh  Rh11  1  0.250000  0.772622  0.398080  1
