# generated using pymatgen
data_Zr6SiAs
_symmetry_space_group_name_H-M   'P 1'
_cell_length_a   11.04782500
_cell_length_b   11.04782500
_cell_length_c   5.45924000
_cell_angle_alpha   90.00000000
_cell_angle_beta   90.00000000
_cell_angle_gamma   90.00000000
_symmetry_Int_Tables_number   1
_chemical_formula_structural   Zr6SiAs
_chemical_formula_sum   'Zr24 Si4 As4'
_cell_volume   666.32446591
_cell_formula_units_Z   4
loop_
 _symmetry_equiv_pos_site_id
 _symmetry_equiv_pos_as_xyz
  1  'x, y, z'
loop_
 _atom_site_type_symbol
 _atom_site_label
 _atom_site_symmetry_multiplicity
 _atom_site_fract_x
 _atom_site_fract_y
 _atom_site_fract_z
 _atom_site_occupancy
  Zr  Zr0  1  0.917835  0.607727  0.534679  1
  Zr  Zr1  1  0.082165  0.392273  0.534679  1
  Zr  Zr2  1  0.892273  0.417835  0.034679  1
  Zr  Zr3  1  0.107727  0.582165  0.034679  1
  Zr  Zr4  1  0.582144  0.893198  0.965626  1
  Zr  Zr5  1  0.417856  0.106802  0.965626  1
  Zr  Zr6  1  0.606802  0.082144  0.465626  1
  Zr  Zr7  1  0.393198  0.917856  0.465626  1
  Zr  Zr8  1  0.862548  0.973727  0.719733  1
  Zr  Zr9  1  0.137452  0.026273  0.719733  1
  Zr  Zr10  1  0.526273  0.362548  0.219733  1
  Zr  Zr11  1  0.473727  0.637452  0.219733  1
  Zr  Zr12  1  0.640008  0.526819  0.780956  1
  Zr  Zr13  1  0.359992  0.473181  0.780956  1
  Zr  Zr14  1  0.973181  0.140008  0.280956  1
  Zr  Zr15  1  0.026819  0.859992  0.280956  1
  Zr  Zr16  1  0.820103  0.714184  0.008151  1
  Zr  Zr17  1  0.179897  0.285816  0.008151  1
  Zr  Zr18  1  0.785816  0.320103  0.508151  1
  Zr  Zr19  1  0.214184  0.679897  0.508151  1
  Zr  Zr20  1  0.680789  0.783501  0.490200  1
  Zr  Zr21  1  0.319211  0.216499  0.490200  1
  Zr  Zr22  1  0.716499  0.180789  0.990200  1
  Zr  Zr23  1  0.283501  0.819211  0.990200  1
  Si  Si24  1  0.705610  0.541631  0.287356  1
  Si  Si25  1  0.294390  0.458369  0.287356  1
  Si  Si26  1  0.958369  0.205610  0.787356  1
  Si  Si27  1  0.041631  0.794390  0.787356  1
  As  As28  1  0.794303  0.958787  0.213299  1
  As  As29  1  0.205697  0.041213  0.213299  1
  As  As30  1  0.541213  0.294303  0.713299  1
  As  As31  1  0.458787  0.705697  0.713299  1
