# generated using pymatgen
data_PrHo3S4
_symmetry_space_group_name_H-M   'P 1'
_cell_length_a   12.99812258
_cell_length_b   12.99812250
_cell_length_c   12.99812224
_cell_angle_alpha   17.48144950
_cell_angle_beta   17.48145094
_cell_angle_gamma   17.48145103
_symmetry_Int_Tables_number   1
_chemical_formula_structural   PrHo3S4
_chemical_formula_sum   'Pr1 Ho3 S4'
_cell_volume   172.94949173
_cell_formula_units_Z   1
loop_
 _symmetry_equiv_pos_site_id
 _symmetry_equiv_pos_as_xyz
  1  'x, y, z'
loop_
 _atom_site_type_symbol
 _atom_site_label
 _atom_site_symmetry_multiplicity
 _atom_site_fract_x
 _atom_site_fract_y
 _atom_site_fract_z
 _atom_site_occupancy
  Pr  Pr0  1  0.000000  0.000000  0.000000  1
  Ho  Ho1  1  0.248963  0.248963  0.248963  1
  Ho  Ho2  1  0.500000  0.500000  0.500000  1
  Ho  Ho3  1  0.751037  0.751037  0.751037  1
  S  S4  1  0.379550  0.379550  0.379550  1
  S  S5  1  0.126191  0.126191  0.126191  1
  S  S6  1  0.620450  0.620450  0.620450  1
  S  S7  1  0.873809  0.873809  0.873809  1
