# generated using pymatgen
data_Er20Cd6CoPd
_symmetry_space_group_name_H-M   'P 1'
_cell_length_a   9.53888300
_cell_length_b   9.53887445
_cell_length_c   9.69445400
_cell_angle_alpha   90.00000000
_cell_angle_beta   90.00000000
_cell_angle_gamma   120.00001923
_symmetry_Int_Tables_number   1
_chemical_formula_structural   Er20Cd6CoPd
_chemical_formula_sum   'Er20 Cd6 Co1 Pd1'
_cell_volume   763.92118956
_cell_formula_units_Z   1
loop_
 _symmetry_equiv_pos_site_id
 _symmetry_equiv_pos_as_xyz
  1  'x, y, z'
loop_
 _atom_site_type_symbol
 _atom_site_label
 _atom_site_symmetry_multiplicity
 _atom_site_fract_x
 _atom_site_fract_y
 _atom_site_fract_z
 _atom_site_occupancy
  Er  Er0  1  0.211830  0.788170  0.936093  1
  Er  Er1  1  0.211829  0.423659  0.936092  1
  Er  Er2  1  0.576341  0.788171  0.936092  1
  Er  Er3  1  0.792681  0.207318  0.057265  1
  Er  Er4  1  0.792681  0.585363  0.057265  1
  Er  Er5  1  0.414637  0.207319  0.057266  1
  Er  Er6  1  0.792681  0.207318  0.442735  1
  Er  Er7  1  0.792681  0.585363  0.442735  1
  Er  Er8  1  0.414637  0.207319  0.442734  1
  Er  Er9  1  0.211830  0.788170  0.563907  1
  Er  Er10  1  0.211829  0.423659  0.563908  1
  Er  Er11  1  0.576341  0.788171  0.563908  1
  Er  Er12  1  0.541811  0.458188  0.750000  1
  Er  Er13  1  0.541812  0.083623  0.750000  1
  Er  Er14  1  0.916378  0.458189  0.750000  1
  Er  Er15  1  0.456464  0.543535  0.250000  1
  Er  Er16  1  0.456465  0.912928  0.250000  1
  Er  Er17  1  0.087071  0.543535  0.250000  1
  Er  Er18  1  0.000000  0.999999  0.000353  1
  Er  Er19  1  0.000000  0.999999  0.499647  1
  Cd  Cd20  1  0.884724  0.115275  0.750000  1
  Cd  Cd21  1  0.884724  0.769448  0.750000  1
  Cd  Cd22  1  0.230552  0.115276  0.750000  1
  Cd  Cd23  1  0.115297  0.884704  0.250000  1
  Cd  Cd24  1  0.115297  0.230594  0.250000  1
  Cd  Cd25  1  0.769406  0.884703  0.250000  1
  Co  Co26  1  0.333334  0.666667  0.750000  1
  Pd  Pd27  1  0.666667  0.333334  0.250000  1
