# generated using pymatgen
data_Cs4MnV2AgTe8
_symmetry_space_group_name_H-M   'P 1'
_cell_length_a   15.69005858
_cell_length_b   13.97714299
_cell_length_c   8.40778744
_cell_angle_alpha   85.14952061
_cell_angle_beta   62.57787779
_cell_angle_gamma   32.27259766
_symmetry_Int_Tables_number   1
_chemical_formula_structural   Cs4MnV2AgTe8
_chemical_formula_sum   'Cs4 Mn1 V2 Ag1 Te8'
_cell_volume   669.14816123
_cell_formula_units_Z   1
loop_
 _symmetry_equiv_pos_site_id
 _symmetry_equiv_pos_as_xyz
  1  'x, y, z'
loop_
 _atom_site_type_symbol
 _atom_site_label
 _atom_site_symmetry_multiplicity
 _atom_site_fract_x
 _atom_site_fract_y
 _atom_site_fract_z
 _atom_site_occupancy
  Cs  Cs0  1  0.680042  0.680042  0.319958  1
  Cs  Cs1  1  0.319958  0.319958  0.680042  1
  Cs  Cs2  1  0.929549  0.929549  0.570451  1
  Cs  Cs3  1  0.570451  0.570451  0.929549  1
  Mn  Mn4  1  0.000000  0.000000  0.000000  1
  V  V5  1  0.750000  0.750000  0.750000  1
  V  V6  1  0.500000  0.500000  0.500000  1
  Ag  Ag7  1  0.250000  0.250000  0.250000  1
  Te  Te8  1  0.380037  0.009105  0.926425  1
  Te  Te9  1  0.684435  0.926425  0.009105  1
  Te  Te10  1  0.926425  0.684435  0.380037  1
  Te  Te11  1  0.009105  0.380037  0.684435  1
  Te  Te12  1  0.225388  0.883960  0.583348  1
  Te  Te13  1  0.583348  0.307302  0.225388  1
  Te  Te14  1  0.307302  0.583348  0.883960  1
  Te  Te15  1  0.883960  0.225388  0.307302  1
