# generated using pymatgen
data_Sc2Re7Si4Tc
_symmetry_space_group_name_H-M   'P 1'
_cell_length_a   7.15667233
_cell_length_b   7.44950334
_cell_length_c   4.14193800
_cell_angle_alpha   90.00000000
_cell_angle_beta   90.00000000
_cell_angle_gamma   90.03473666
_symmetry_Int_Tables_number   1
_chemical_formula_structural   Sc2Re7Si4Tc
_chemical_formula_sum   'Sc2 Re7 Si4 Tc1'
_cell_volume   220.82181063
_cell_formula_units_Z   1
loop_
 _symmetry_equiv_pos_site_id
 _symmetry_equiv_pos_as_xyz
  1  'x, y, z'
loop_
 _atom_site_type_symbol
 _atom_site_label
 _atom_site_symmetry_multiplicity
 _atom_site_fract_x
 _atom_site_fract_y
 _atom_site_fract_z
 _atom_site_occupancy
  Sc  Sc0  1  0.500162  0.500210  0.000000  1
  Sc  Sc1  1  0.999768  0.000996  0.500000  1
  Re  Re2  1  0.587143  0.158845  0.500000  1
  Re  Re3  1  0.410567  0.841855  0.500000  1
  Re  Re4  1  0.088324  0.340060  0.000000  1
  Re  Re5  1  0.912936  0.657365  0.000000  1
  Re  Re6  1  0.152961  0.604273  0.500000  1
  Re  Re7  1  0.845695  0.396523  0.500000  1
  Re  Re8  1  0.348682  0.103486  0.000000  1
  Si  Si9  1  0.715094  0.699235  0.500000  1
  Si  Si10  1  0.283796  0.302981  0.500000  1
  Si  Si11  1  0.215772  0.803177  0.000000  1
  Si  Si12  1  0.783729  0.195894  0.000000  1
  Tc  Tc13  1  0.655369  0.895101  0.000000  1
