# generated using pymatgen
data_Cs4Lu3Bi9S20
_symmetry_space_group_name_H-M   'P 1'
_cell_length_a   4.02142200
_cell_length_b   11.94964208
_cell_length_c   22.25739583
_cell_angle_alpha   90.00893353
_cell_angle_beta   90.00000000
_cell_angle_gamma   90.00000000
_symmetry_Int_Tables_number   1
_chemical_formula_structural   Cs4Lu3Bi9S20
_chemical_formula_sum   'Cs4 Lu3 Bi9 S20'
_cell_volume   1069.56920703
_cell_formula_units_Z   1
loop_
 _symmetry_equiv_pos_site_id
 _symmetry_equiv_pos_as_xyz
  1  'x, y, z'
loop_
 _atom_site_type_symbol
 _atom_site_label
 _atom_site_symmetry_multiplicity
 _atom_site_fract_x
 _atom_site_fract_y
 _atom_site_fract_z
 _atom_site_occupancy
  Cs  Cs0  1  0.250000  0.486109  0.210618  1
  Cs  Cs1  1  0.750000  0.513029  0.789655  1
  Cs  Cs2  1  0.750000  0.985918  0.287294  1
  Cs  Cs3  1  0.250000  0.012139  0.711785  1
  Lu  Lu4  1  0.250000  0.365810  0.022396  1
  Lu  Lu5  1  0.750000  0.634017  0.977464  1
  Lu  Lu6  1  0.750000  0.862678  0.476200  1
  Bi  Bi7  1  0.250000  0.133059  0.524131  1
  Bi  Bi8  1  0.250000  0.800076  0.120371  1
  Bi  Bi9  1  0.750000  0.199383  0.879261  1
  Bi  Bi10  1  0.750000  0.302420  0.378274  1
  Bi  Bi11  1  0.250000  0.698075  0.621928  1
  Bi  Bi12  1  0.250000  0.594645  0.426150  1
  Bi  Bi13  1  0.750000  0.407961  0.573919  1
  Bi  Bi14  1  0.750000  0.096714  0.073402  1
  Bi  Bi15  1  0.250000  0.903160  0.926361  1
  S  S16  1  0.250000  0.812075  0.398474  1
  S  S17  1  0.750000  0.196058  0.609281  1
  S  S18  1  0.750000  0.312111  0.100849  1
  S  S19  1  0.250000  0.687734  0.898980  1
  S  S20  1  0.250000  0.247967  0.304435  1
  S  S21  1  0.750000  0.751916  0.695712  1
  S  S22  1  0.750000  0.746710  0.194357  1
  S  S23  1  0.250000  0.252201  0.805194  1
  S  S24  1  0.250000  0.361404  0.481243  1
  S  S25  1  0.750000  0.648817  0.516912  1
  S  S26  1  0.750000  0.848974  0.017159  1
  S  S27  1  0.250000  0.150893  0.982595  1
  S  S28  1  0.250000  0.025128  0.151293  1
  S  S29  1  0.750000  0.974480  0.848369  1
  S  S30  1  0.750000  0.525411  0.347271  1
  S  S31  1  0.250000  0.475409  0.652966  1
  S  S32  1  0.250000  0.581643  0.053924  1
  S  S33  1  0.750000  0.418199  0.945912  1
  S  S34  1  0.750000  0.076878  0.441058  1
  S  S35  1  0.250000  0.910802  0.554805  1
