# generated using pymatgen
data_Hf2Zr2Mn4Si3As
_symmetry_space_group_name_H-M   'P 1'
_cell_length_a   3.68432200
_cell_length_b   6.57876231
_cell_length_c   7.66875960
_cell_angle_alpha   90.36763907
_cell_angle_beta   90.00000000
_cell_angle_gamma   90.00000000
_symmetry_Int_Tables_number   1
_chemical_formula_structural   Hf2Zr2Mn4Si3As
_chemical_formula_sum   'Hf2 Zr2 Mn4 Si3 As1'
_cell_volume   185.87370588
_cell_formula_units_Z   1
loop_
 _symmetry_equiv_pos_site_id
 _symmetry_equiv_pos_as_xyz
  1  'x, y, z'
loop_
 _atom_site_type_symbol
 _atom_site_label
 _atom_site_symmetry_multiplicity
 _atom_site_fract_x
 _atom_site_fract_y
 _atom_site_fract_z
 _atom_site_occupancy
  Hf  Hf0  1  0.250000  0.528510  0.677892  1
  Hf  Hf1  1  0.250000  0.026267  0.817226  1
  Zr  Zr2  1  0.750000  0.965427  0.179167  1
  Zr  Zr3  1  0.750000  0.473979  0.324429  1
  Mn  Mn4  1  0.750000  0.365868  0.929574  1
  Mn  Mn5  1  0.250000  0.136075  0.442082  1
  Mn  Mn6  1  0.750000  0.862382  0.566708  1
  Mn  Mn7  1  0.250000  0.642200  0.060092  1
  Si  Si8  1  0.250000  0.771932  0.381591  1
  Si  Si9  1  0.750000  0.730365  0.873613  1
  Si  Si10  1  0.750000  0.228818  0.624214  1
  As  As11  1  0.250000  0.268177  0.123409  1
