# generated using pymatgen
data_Zn10Pd2Au
_symmetry_space_group_name_H-M   'P 1'
_cell_length_a   7.99171524
_cell_length_b   7.99171584
_cell_length_c   7.93895342
_cell_angle_alpha   70.77086427
_cell_angle_beta   70.77086510
_cell_angle_gamma   109.49185108
_symmetry_Int_Tables_number   1
_chemical_formula_structural   Zn10Pd2Au
_chemical_formula_sum   'Zn20 Pd4 Au2'
_cell_volume   392.53549450
_cell_formula_units_Z   2
loop_
 _symmetry_equiv_pos_site_id
 _symmetry_equiv_pos_as_xyz
  1  'x, y, z'
loop_
 _atom_site_type_symbol
 _atom_site_label
 _atom_site_symmetry_multiplicity
 _atom_site_fract_x
 _atom_site_fract_y
 _atom_site_fract_z
 _atom_site_occupancy
  Zn  Zn0  1  0.001418  0.001418  0.788912  1
  Zn  Zn1  1  0.774341  0.774341  0.225010  1
  Zn  Zn2  1  0.217610  0.000368  0.998445  1
  Zn  Zn3  1  0.000368  0.217610  0.998445  1
  Zn  Zn4  1  0.268387  0.268387  0.386674  1
  Zn  Zn5  1  0.003954  0.733139  0.649345  1
  Zn  Zn6  1  0.733139  0.003954  0.649345  1
  Zn  Zn7  1  0.652819  0.652819  0.629356  1
  Zn  Zn8  1  0.378799  0.645539  0.348144  1
  Zn  Zn9  1  0.645539  0.378799  0.348144  1
  Zn  Zn10  1  0.351679  0.730960  0.989467  1
  Zn  Zn11  1  0.613044  0.260638  0.733277  1
  Zn  Zn12  1  0.352853  0.006272  0.271367  1
  Zn  Zn13  1  0.730960  0.351679  0.989467  1
  Zn  Zn14  1  0.006272  0.352853  0.271367  1
  Zn  Zn15  1  0.260638  0.613044  0.733277  1
  Zn  Zn16  1  0.645714  0.645714  0.993140  1
  Zn  Zn17  1  0.003522  0.654433  0.348705  1
  Zn  Zn18  1  0.654433  0.003522  0.348705  1
  Zn  Zn19  1  0.355862  0.355862  0.006518  1
  Pd  Pd20  1  0.999666  0.999666  0.344952  1
  Pd  Pd21  1  0.357403  0.357403  0.657393  1
  Pd  Pd22  1  0.642647  0.987332  0.013408  1
  Pd  Pd23  1  0.987332  0.642647  0.013408  1
  Au  Au24  1  0.996631  0.364968  0.631865  1
  Au  Au25  1  0.364968  0.996631  0.631865  1
