# generated using pymatgen
data_K4Sr(GeS3)2
_symmetry_space_group_name_H-M   'P 1'
_cell_length_a   7.24608792
_cell_length_b   7.24608705
_cell_length_c   8.45993622
_cell_angle_alpha   81.74164635
_cell_angle_beta   81.74164952
_cell_angle_gamma   119.75497522
_symmetry_Int_Tables_number   1
_chemical_formula_structural   K4Sr(GeS3)2
_chemical_formula_sum   'K4 Sr1 Ge2 S6'
_cell_volume   369.49829660
_cell_formula_units_Z   1
loop_
 _symmetry_equiv_pos_site_id
 _symmetry_equiv_pos_as_xyz
  1  'x, y, z'
loop_
 _atom_site_type_symbol
 _atom_site_label
 _atom_site_symmetry_multiplicity
 _atom_site_fract_x
 _atom_site_fract_y
 _atom_site_fract_z
 _atom_site_occupancy
  K  K0  1  0.819201  0.180799  0.000000  1
  K  K1  1  0.177100  0.822900  0.000000  1
  K  K2  1  0.505026  0.494974  0.000000  1
  K  K3  1  0.665518  0.334482  0.500000  1
  Sr  Sr4  1  0.334572  0.665428  0.500000  1
  Ge  Ge5  1  0.048628  0.049216  0.349154  1
  Ge  Ge6  1  0.950784  0.951372  0.650846  1
  S  S7  1  0.096929  0.384792  0.268225  1
  S  S8  1  0.364639  0.056435  0.269236  1
  S  S9  1  0.943565  0.635361  0.730764  1
  S  S10  1  0.615208  0.903071  0.731775  1
  S  S11  1  0.771906  0.793077  0.264376  1
  S  S12  1  0.206923  0.228094  0.735624  1
