# generated using pymatgen
data_Pr20Ga5Si6P
_symmetry_space_group_name_H-M   'P 1'
_cell_length_a   7.87201772
_cell_length_b   7.87201658
_cell_length_c   14.46335526
_cell_angle_alpha   89.97160324
_cell_angle_beta   90.02839510
_cell_angle_gamma   89.96157094
_symmetry_Int_Tables_number   1
_chemical_formula_structural   Pr20Ga5Si6P
_chemical_formula_sum   'Pr20 Ga5 Si6 P1'
_cell_volume   896.27423710
_cell_formula_units_Z   1
loop_
 _symmetry_equiv_pos_site_id
 _symmetry_equiv_pos_as_xyz
  1  'x, y, z'
loop_
 _atom_site_type_symbol
 _atom_site_label
 _atom_site_symmetry_multiplicity
 _atom_site_fract_x
 _atom_site_fract_y
 _atom_site_fract_z
 _atom_site_occupancy
  Pr  Pr0  1  0.814765  0.833227  0.607634  1
  Pr  Pr1  1  0.184685  0.834428  0.107587  1
  Pr  Pr2  1  0.163211  0.814090  0.390699  1
  Pr  Pr3  1  0.001284  0.499161  0.725057  1
  Pr  Pr4  1  0.834428  0.184685  0.392413  1
  Pr  Pr5  1  0.686452  0.666761  0.391324  1
  Pr  Pr6  1  0.665168  0.314008  0.607500  1
  Pr  Pr7  1  0.333208  0.685117  0.607485  1
  Pr  Pr8  1  0.996912  0.504374  0.223712  1
  Pr  Pr9  1  0.666761  0.686452  0.108676  1
  Pr  Pr10  1  0.685117  0.333208  0.892515  1
  Pr  Pr11  1  0.833227  0.814765  0.892366  1
  Pr  Pr12  1  0.317311  0.337710  0.394972  1
  Pr  Pr13  1  0.184708  0.165046  0.606734  1
  Pr  Pr14  1  0.814090  0.163211  0.109301  1
  Pr  Pr15  1  0.314008  0.665168  0.892500  1
  Pr  Pr16  1  0.337710  0.317311  0.105028  1
  Pr  Pr17  1  0.504374  0.996912  0.276288  1
  Pr  Pr18  1  0.165046  0.184708  0.893266  1
  Pr  Pr19  1  0.499161  0.001284  0.774943  1
  Ga  Ga20  1  0.997781  0.499674  0.504103  1
  Ga  Ga21  1  0.499106  0.998832  0.496105  1
  Ga  Ga22  1  0.499674  0.997781  0.995897  1
  Ga  Ga23  1  0.122550  0.122550  0.250000  1
  Ga  Ga24  1  0.998832  0.499106  0.003895  1
  Si  Si25  1  0.615074  0.385446  0.250464  1
  Si  Si26  1  0.114013  0.885860  0.750035  1
  Si  Si27  1  0.385523  0.385523  0.750000  1
  Si  Si28  1  0.385446  0.615074  0.249536  1
  Si  Si29  1  0.614116  0.614116  0.750000  1
  Si  Si30  1  0.885860  0.114013  0.749965  1
  P  P31  1  0.880397  0.880397  0.250000  1
