# generated using pymatgen
data_LaPr(GeRh2)2
_symmetry_space_group_name_H-M   'P 1'
_cell_length_a   9.47236123
_cell_length_b   9.47236105
_cell_length_c   4.19688900
_cell_angle_alpha   90.00000000
_cell_angle_beta   90.00000000
_cell_angle_gamma   155.06584152
_symmetry_Int_Tables_number   1
_chemical_formula_structural   LaPr(GeRh2)2
_chemical_formula_sum   'La1 Pr1 Ge2 Rh4'
_cell_volume   158.75242584
_cell_formula_units_Z   1
loop_
 _symmetry_equiv_pos_site_id
 _symmetry_equiv_pos_as_xyz
  1  'x, y, z'
loop_
 _atom_site_type_symbol
 _atom_site_label
 _atom_site_symmetry_multiplicity
 _atom_site_fract_x
 _atom_site_fract_y
 _atom_site_fract_z
 _atom_site_occupancy
  La  La0  1  0.904431  0.095569  0.250000  1
  Pr  Pr1  1  0.098257  0.901743  0.750000  1
  Ge  Ge2  1  0.322578  0.677422  0.750000  1
  Ge  Ge3  1  0.676322  0.323678  0.250000  1
  Rh  Rh4  1  0.543808  0.456192  0.250000  1
  Rh  Rh5  1  0.455912  0.544088  0.750000  1
  Rh  Rh6  1  0.249264  0.750736  0.250000  1
  Rh  Rh7  1  0.749428  0.250572  0.750000  1
