# generated using pymatgen
data_Co2Ni4P3
_symmetry_space_group_name_H-M   'P 1'
_cell_length_a   5.84640415
_cell_length_b   5.84005836
_cell_length_c   3.31340900
_cell_angle_alpha   90.00000000
_cell_angle_beta   90.00000000
_cell_angle_gamma   119.96409994
_symmetry_Int_Tables_number   1
_chemical_formula_structural   Co2Ni4P3
_chemical_formula_sum   'Co2 Ni4 P3'
_cell_volume   98.00961732
_cell_formula_units_Z   1
loop_
 _symmetry_equiv_pos_site_id
 _symmetry_equiv_pos_as_xyz
  1  'x, y, z'
loop_
 _atom_site_type_symbol
 _atom_site_label
 _atom_site_symmetry_multiplicity
 _atom_site_fract_x
 _atom_site_fract_y
 _atom_site_fract_z
 _atom_site_occupancy
  Co  Co0  1  0.737560  0.737258  0.000000  1
  Co  Co1  1  0.262440  0.999698  0.000000  1
  Ni  Ni2  1  0.612711  0.009082  0.500000  1
  Ni  Ni3  1  0.387289  0.396371  0.500000  1
  Ni  Ni4  1  0.000000  0.598014  0.500000  1
  Ni  Ni5  1  0.000000  0.262079  0.000000  1
  P  P6  1  0.000000  0.990326  0.500000  1
  P  P7  1  0.661107  0.334138  0.000000  1
  P  P8  1  0.338893  0.673032  0.000000  1
