# generated using pymatgen
data_YCoP2Rh
_symmetry_space_group_name_H-M   'P 1'
_cell_length_a   4.00917500
_cell_length_b   4.00917500
_cell_length_c   9.20415900
_cell_angle_alpha   90.00000000
_cell_angle_beta   90.00000000
_cell_angle_gamma   90.00000000
_symmetry_Int_Tables_number   1
_chemical_formula_structural   YCoP2Rh
_chemical_formula_sum   'Y2 Co2 P4 Rh2'
_cell_volume   147.94290408
_cell_formula_units_Z   2
loop_
 _symmetry_equiv_pos_site_id
 _symmetry_equiv_pos_as_xyz
  1  'x, y, z'
loop_
 _atom_site_type_symbol
 _atom_site_label
 _atom_site_symmetry_multiplicity
 _atom_site_fract_x
 _atom_site_fract_y
 _atom_site_fract_z
 _atom_site_occupancy
  Y  Y0  1  0.000000  0.500000  0.265178  1
  Y  Y1  1  0.500000  0.000000  0.734822  1
  Co  Co2  1  0.000000  0.500000  0.608021  1
  Co  Co3  1  0.500000  0.000000  0.391979  1
  P  P4  1  0.000000  0.000000  0.500000  1
  P  P5  1  0.500000  0.500000  0.500000  1
  P  P6  1  0.000000  0.500000  0.848590  1
  P  P7  1  0.500000  0.000000  0.151410  1
  Rh  Rh8  1  0.000000  0.000000  0.000000  1
  Rh  Rh9  1  0.500000  0.500000  0.000000  1
