# generated using pymatgen
data_Cs2Pr10Be2Br17
_symmetry_space_group_name_H-M   'P 1'
_cell_length_a   9.52834222
_cell_length_b   11.17316029
_cell_length_c   11.17342277
_cell_angle_alpha   106.86738622
_cell_angle_beta   94.46803939
_cell_angle_gamma   94.47198968
_symmetry_Int_Tables_number   1
_chemical_formula_structural   Cs2Pr10Be2Br17
_chemical_formula_sum   'Cs2 Pr10 Be2 Br17'
_cell_volume   1128.58292978
_cell_formula_units_Z   1
loop_
 _symmetry_equiv_pos_site_id
 _symmetry_equiv_pos_as_xyz
  1  'x, y, z'
loop_
 _atom_site_type_symbol
 _atom_site_label
 _atom_site_symmetry_multiplicity
 _atom_site_fract_x
 _atom_site_fract_y
 _atom_site_fract_z
 _atom_site_occupancy
  Cs  Cs0  1  0.999348  0.819631  0.179409  1
  Cs  Cs1  1  0.999336  0.179415  0.819628  1
  Pr  Pr2  1  0.438096  0.161675  0.161662  1
  Pr  Pr3  1  0.572293  0.512791  0.202372  1
  Pr  Pr4  1  0.834648  0.290331  0.290349  1
  Pr  Pr5  1  0.303716  0.432366  0.432368  1
  Pr  Pr6  1  0.427877  0.797838  0.487483  1
  Pr  Pr7  1  0.572224  0.202336  0.512746  1
  Pr  Pr8  1  0.696694  0.567643  0.567628  1
  Pr  Pr9  1  0.165286  0.709524  0.709562  1
  Pr  Pr10  1  0.427888  0.487479  0.797843  1
  Pr  Pr11  1  0.562045  0.838485  0.838472  1
  Be  Be12  1  0.571855  0.354452  0.354457  1
  Be  Be13  1  0.428052  0.645651  0.645655  1
  Br  Br14  1  0.583046  0.688673  0.023308  1
  Br  Br15  1  0.714282  0.068191  0.068186  1
  Br  Br16  1  0.856963  0.452312  0.119976  1
  Br  Br17  1  0.135572  0.209128  0.209102  1
  Br  Br18  1  0.281583  0.601284  0.256542  1
  Br  Br19  1  0.417348  0.976739  0.311589  1
  Br  Br20  1  0.718497  0.743637  0.398998  1
  Br  Br21  1  0.856914  0.119953  0.452282  1
  Br  Br22  1  0.000107  0.499941  0.499960  1
  Br  Br23  1  0.142892  0.879672  0.547461  1
  Br  Br24  1  0.281539  0.256550  0.601292  1
  Br  Br25  1  0.582971  0.023321  0.688668  1
  Br  Br26  1  0.718499  0.398965  0.743593  1
  Br  Br27  1  0.864509  0.791053  0.791025  1
  Br  Br28  1  0.142900  0.547442  0.879709  1
  Br  Br29  1  0.285672  0.931895  0.931895  1
  Br  Br30  1  0.417352  0.311623  0.976779  1
