# generated using pymatgen
data_Be8Ir3Pd4Au
_symmetry_space_group_name_H-M   'P 1'
_cell_length_a   5.66712100
_cell_length_b   5.66707100
_cell_length_c   5.68205100
_cell_angle_alpha   89.99997981
_cell_angle_beta   90.00168617
_cell_angle_gamma   90.00000000
_symmetry_Int_Tables_number   1
_chemical_formula_structural   Be8Ir3Pd4Au
_chemical_formula_sum   'Be8 Ir3 Pd4 Au1'
_cell_volume   182.48461960
_cell_formula_units_Z   1
loop_
 _symmetry_equiv_pos_site_id
 _symmetry_equiv_pos_as_xyz
  1  'x, y, z'
loop_
 _atom_site_type_symbol
 _atom_site_label
 _atom_site_symmetry_multiplicity
 _atom_site_fract_x
 _atom_site_fract_y
 _atom_site_fract_z
 _atom_site_occupancy
  Be  Be0  1  0.510657  0.010699  0.259087  1
  Be  Be1  1  0.510655  0.489305  0.259088  1
  Be  Be2  1  0.989319  0.010640  0.259437  1
  Be  Be3  1  0.989320  0.489356  0.259435  1
  Be  Be4  1  0.989375  0.010637  0.740544  1
  Be  Be5  1  0.989376  0.489365  0.740543  1
  Be  Be6  1  0.510709  0.010696  0.740917  1
  Be  Be7  1  0.510709  0.489299  0.740919  1
  Ir  Ir8  1  0.749992  0.249999  0.499983  1
  Ir  Ir9  1  0.249911  0.749999  0.500036  1
  Ir  Ir10  1  0.749914  0.250000  0.999980  1
  Pd  Pd11  1  0.750289  0.749999  0.000061  1
  Pd  Pd12  1  0.250181  0.250000  0.499940  1
  Pd  Pd13  1  0.749744  0.749999  0.500056  1
  Pd  Pd14  1  0.249706  0.249999  0.999932  1
  Au  Au15  1  0.250140  0.749999  0.000041  1
