# generated using pymatgen
data_YErMnC2
_symmetry_space_group_name_H-M   'P 1'
_cell_length_a   5.02719500
_cell_length_b   6.35531600
_cell_length_c   9.60384700
_cell_angle_alpha   90.00000000
_cell_angle_beta   90.00000000
_cell_angle_gamma   90.00000000
_symmetry_Int_Tables_number   1
_chemical_formula_structural   YErMnC2
_chemical_formula_sum   'Y4 Er4 Mn4 C8'
_cell_volume   306.83727245
_cell_formula_units_Z   4
loop_
 _symmetry_equiv_pos_site_id
 _symmetry_equiv_pos_as_xyz
  1  'x, y, z'
loop_
 _atom_site_type_symbol
 _atom_site_label
 _atom_site_symmetry_multiplicity
 _atom_site_fract_x
 _atom_site_fract_y
 _atom_site_fract_z
 _atom_site_occupancy
  Y  Y0  1  0.250000  0.524301  0.212969  1
  Y  Y1  1  0.750000  0.475699  0.787031  1
  Y  Y2  1  0.750000  0.975699  0.712969  1
  Y  Y3  1  0.250000  0.024301  0.287031  1
  Er  Er4  1  0.250000  0.680378  0.555728  1
  Er  Er5  1  0.750000  0.319622  0.444272  1
  Er  Er6  1  0.750000  0.819622  0.055728  1
  Er  Er7  1  0.250000  0.180378  0.944272  1
  Mn  Mn8  1  0.250000  0.730624  0.857272  1
  Mn  Mn9  1  0.750000  0.269376  0.142728  1
  Mn  Mn10  1  0.750000  0.769376  0.357272  1
  Mn  Mn11  1  0.250000  0.230624  0.642728  1
  C  C12  1  0.250000  0.463699  0.761081  1
  C  C13  1  0.750000  0.536301  0.238919  1
  C  C14  1  0.750000  0.036301  0.261081  1
  C  C15  1  0.250000  0.963699  0.738919  1
  C  C16  1  0.250000  0.813454  0.035633  1
  C  C17  1  0.750000  0.186546  0.964367  1
  C  C18  1  0.750000  0.686546  0.535633  1
  C  C19  1  0.250000  0.313454  0.464367  1
