# generated using pymatgen
data_Zr4FeCo3Si4
_symmetry_space_group_name_H-M   'P 1'
_cell_length_a   3.88827500
_cell_length_b   6.47482781
_cell_length_c   7.11178400
_cell_angle_alpha   90.08585146
_cell_angle_beta   90.00000000
_cell_angle_gamma   90.00000000
_symmetry_Int_Tables_number   1
_chemical_formula_structural   Zr4FeCo3Si4
_chemical_formula_sum   'Zr4 Fe1 Co3 Si4'
_cell_volume   179.04544087
_cell_formula_units_Z   1
loop_
 _symmetry_equiv_pos_site_id
 _symmetry_equiv_pos_as_xyz
  1  'x, y, z'
loop_
 _atom_site_type_symbol
 _atom_site_label
 _atom_site_symmetry_multiplicity
 _atom_site_fract_x
 _atom_site_fract_y
 _atom_site_fract_z
 _atom_site_occupancy
  Zr  Zr0  1  0.250000  0.006306  0.305615  1
  Zr  Zr1  1  0.250000  0.503438  0.195399  1
  Zr  Zr2  1  0.750000  0.996946  0.695924  1
  Zr  Zr3  1  0.750000  0.493546  0.804741  1
  Fe  Fe4  1  0.250000  0.146618  0.929468  1
  Co  Co5  1  0.250000  0.645257  0.567923  1
  Co  Co6  1  0.750000  0.852475  0.069245  1
  Co  Co7  1  0.750000  0.354487  0.430285  1
  Si  Si8  1  0.250000  0.284601  0.606150  1
  Si  Si9  1  0.250000  0.785095  0.896390  1
  Si  Si10  1  0.750000  0.716756  0.396218  1
  Si  Si11  1  0.750000  0.214475  0.102643  1
