# generated using pymatgen
data_YEr7ReOsBr8
_symmetry_space_group_name_H-M   'P 1'
_cell_length_a   8.91576631
_cell_length_b   8.88892656
_cell_length_c   6.55475001
_cell_angle_alpha   89.53186203
_cell_angle_beta   89.44420233
_cell_angle_gamma   89.51828107
_symmetry_Int_Tables_number   1
_chemical_formula_structural   YEr7ReOsBr8
_chemical_formula_sum   'Y1 Er7 Re1 Os1 Br8'
_cell_volume   519.41457659
_cell_formula_units_Z   1
loop_
 _symmetry_equiv_pos_site_id
 _symmetry_equiv_pos_as_xyz
  1  'x, y, z'
loop_
 _atom_site_type_symbol
 _atom_site_label
 _atom_site_symmetry_multiplicity
 _atom_site_fract_x
 _atom_site_fract_y
 _atom_site_fract_z
 _atom_site_occupancy
  Y  Y0  1  0.251963  0.900183  0.011242  1
  Er  Er1  1  0.750753  0.099131  0.989371  1
  Er  Er2  1  0.098027  0.751987  0.488225  1
  Er  Er3  1  0.900806  0.249198  0.510653  1
  Er  Er4  1  0.752118  0.902872  0.508079  1
  Er  Er5  1  0.247244  0.097629  0.490552  1
  Er  Er6  1  0.096692  0.247831  0.991639  1
  Er  Er7  1  0.902291  0.752621  0.009474  1
  Re  Re8  1  0.994086  0.005639  0.250366  1
  Os  Os9  1  0.004669  0.994783  0.749167  1
  Br  Br10  1  0.421415  0.816114  0.407491  1
  Br  Br11  1  0.578928  0.183485  0.594732  1
  Br  Br12  1  0.183150  0.577755  0.093703  1
  Br  Br13  1  0.816634  0.421343  0.905596  1
  Br  Br14  1  0.416959  0.193514  0.096039  1
  Br  Br15  1  0.584161  0.806517  0.902973  1
  Br  Br16  1  0.807185  0.582876  0.403967  1
  Br  Br17  1  0.192919  0.416523  0.596733  1
