# generated using pymatgen
data_La12TlNi6
_symmetry_space_group_name_H-M   'P 1'
_cell_length_a   8.89386668
_cell_length_b   8.89386602
_cell_length_c   8.89386600
_cell_angle_alpha   109.47122058
_cell_angle_beta   109.47121909
_cell_angle_gamma   109.47122368
_symmetry_Int_Tables_number   1
_chemical_formula_structural   La12TlNi6
_chemical_formula_sum   'La12 Tl1 Ni6'
_cell_volume   541.56411724
_cell_formula_units_Z   1
loop_
 _symmetry_equiv_pos_site_id
 _symmetry_equiv_pos_as_xyz
  1  'x, y, z'
loop_
 _atom_site_type_symbol
 _atom_site_label
 _atom_site_symmetry_multiplicity
 _atom_site_fract_x
 _atom_site_fract_y
 _atom_site_fract_z
 _atom_site_occupancy
  La  La0  1  0.815563  0.688759  0.504321  1
  La  La1  1  0.184437  0.311241  0.495679  1
  La  La2  1  0.184437  0.688759  0.873196  1
  La  La3  1  0.815563  0.311241  0.126804  1
  La  La4  1  0.688759  0.504321  0.815563  1
  La  La5  1  0.311241  0.495679  0.184437  1
  La  La6  1  0.688759  0.873196  0.184437  1
  La  La7  1  0.311241  0.126804  0.815563  1
  La  La8  1  0.504321  0.815563  0.688759  1
  La  La9  1  0.495679  0.184437  0.311241  1
  La  La10  1  0.126804  0.815563  0.311241  1
  La  La11  1  0.873196  0.184437  0.688759  1
  Tl  Tl12  1  0.000000  0.000000  0.000000  1
  Ni  Ni13  1  0.876948  0.376948  0.500000  1
  Ni  Ni14  1  0.123052  0.623052  0.500000  1
  Ni  Ni15  1  0.376948  0.500000  0.876948  1
  Ni  Ni16  1  0.623052  0.500000  0.123052  1
  Ni  Ni17  1  0.500000  0.876948  0.376948  1
  Ni  Ni18  1  0.500000  0.123052  0.623052  1
