# generated using pymatgen
data_Th5Sc3(BBr6)2
_symmetry_space_group_name_H-M   'P 1'
_cell_length_a   3.88508600
_cell_length_b   13.58819572
_cell_length_c   13.99002663
_cell_angle_alpha   90.99489352
_cell_angle_beta   90.00000000
_cell_angle_gamma   90.00000000
_symmetry_Int_Tables_number   1
_chemical_formula_structural   Th5Sc3(BBr6)2
_chemical_formula_sum   'Th5 Sc3 B2 Br12'
_cell_volume   738.44047910
_cell_formula_units_Z   1
loop_
 _symmetry_equiv_pos_site_id
 _symmetry_equiv_pos_as_xyz
  1  'x, y, z'
loop_
 _atom_site_type_symbol
 _atom_site_label
 _atom_site_symmetry_multiplicity
 _atom_site_fract_x
 _atom_site_fract_y
 _atom_site_fract_z
 _atom_site_occupancy
  Th  Th0  1  0.000000  0.101433  0.086001  1
  Th  Th1  1  0.000000  0.893807  0.919494  1
  Th  Th2  1  0.000000  0.605118  0.416050  1
  Th  Th3  1  0.000000  0.400181  0.579258  1
  Th  Th4  1  0.500000  0.119140  0.860076  1
  Sc  Sc5  1  0.500000  0.886098  0.134448  1
  Sc  Sc6  1  0.500000  0.614092  0.631839  1
  Sc  Sc7  1  0.500000  0.388154  0.365832  1
  B  B8  1  0.500000  0.995376  0.005230  1
  B  B9  1  0.500000  0.502267  0.497791  1
  Br  Br10  1  0.500000  0.259000  0.684881  1
  Br  Br11  1  0.500000  0.740791  0.310568  1
  Br  Br12  1  0.500000  0.756296  0.810833  1
  Br  Br13  1  0.500000  0.240295  0.193187  1
  Br  Br14  1  0.000000  0.268372  0.942092  1
  Br  Br15  1  0.000000  0.750650  0.078535  1
  Br  Br16  1  0.000000  0.468271  0.247753  1
  Br  Br17  1  0.000000  0.532342  0.750008  1
  Br  Br18  1  0.000000  0.968888  0.253252  1
  Br  Br19  1  0.000000  0.007506  0.733409  1
  Br  Br20  1  0.000000  0.253088  0.420432  1
  Br  Br21  1  0.000000  0.748834  0.579029  1
