# generated using pymatgen
data_Li4Tb(YSi2)3
_symmetry_space_group_name_H-M   'P 1'
_cell_length_a   9.29649300
_cell_length_b   9.29649187
_cell_length_c   6.69993500
_cell_angle_alpha   90.00000000
_cell_angle_beta   90.00000000
_cell_angle_gamma   153.54416528
_symmetry_Int_Tables_number   1
_chemical_formula_structural   Li4Tb(YSi2)3
_chemical_formula_sum   'Li4 Tb1 Y3 Si6'
_cell_volume   257.96701574
_cell_formula_units_Z   1
loop_
 _symmetry_equiv_pos_site_id
 _symmetry_equiv_pos_as_xyz
  1  'x, y, z'
loop_
 _atom_site_type_symbol
 _atom_site_label
 _atom_site_symmetry_multiplicity
 _atom_site_fract_x
 _atom_site_fract_y
 _atom_site_fract_z
 _atom_site_occupancy
  Li  Li0  1  0.809944  0.190056  0.558922  1
  Li  Li1  1  0.190056  0.809944  0.441078  1
  Li  Li2  1  0.190056  0.809944  0.058922  1
  Li  Li3  1  0.809944  0.190056  0.941078  1
  Tb  Tb4  1  0.552213  0.447787  0.250000  1
  Y  Y5  1  0.447787  0.552213  0.750000  1
  Y  Y6  1  0.344608  0.655392  0.250000  1
  Y  Y7  1  0.655392  0.344608  0.750000  1
  Si  Si8  1  0.940632  0.059368  0.072548  1
  Si  Si9  1  0.059368  0.940632  0.927452  1
  Si  Si10  1  0.059368  0.940632  0.572548  1
  Si  Si11  1  0.940632  0.059368  0.427452  1
  Si  Si12  1  0.719774  0.280226  0.250000  1
  Si  Si13  1  0.280226  0.719774  0.750000  1
