# generated using pymatgen
data_TiAg2OsF12
_symmetry_space_group_name_H-M   'P 1'
_cell_length_a   5.55539691
_cell_length_b   5.95815149
_cell_length_c   8.09798000
_cell_angle_alpha   96.85403497
_cell_angle_beta   89.73839628
_cell_angle_gamma   90.17528136
_symmetry_Int_Tables_number   1
_chemical_formula_structural   TiAg2OsF12
_chemical_formula_sum   'Ti1 Ag2 Os1 F12'
_cell_volume   266.12308048
_cell_formula_units_Z   1
loop_
 _symmetry_equiv_pos_site_id
 _symmetry_equiv_pos_as_xyz
  1  'x, y, z'
loop_
 _atom_site_type_symbol
 _atom_site_label
 _atom_site_symmetry_multiplicity
 _atom_site_fract_x
 _atom_site_fract_y
 _atom_site_fract_z
 _atom_site_occupancy
  Ti  Ti0  1  0.500000  0.500000  0.000000  1
  Ag  Ag1  1  0.000000  0.000000  0.000000  1
  Ag  Ag2  1  0.500000  0.500000  0.500000  1
  Os  Os3  1  0.000000  0.000000  0.500000  1
  F  F4  1  0.845004  0.990160  0.709147  1
  F  F5  1  0.124488  0.294130  0.570758  1
  F  F6  1  0.234123  0.686871  0.962603  1
  F  F7  1  0.414770  0.510347  0.228747  1
  F  F8  1  0.305710  0.237391  0.949632  1
  F  F9  1  0.282538  0.866041  0.579061  1
  F  F10  1  0.717462  0.133959  0.420939  1
  F  F11  1  0.694290  0.762609  0.050368  1
  F  F12  1  0.585230  0.489653  0.771253  1
  F  F13  1  0.765877  0.313129  0.037397  1
  F  F14  1  0.875512  0.705870  0.429242  1
  F  F15  1  0.154996  0.009840  0.290853  1
