# generated using pymatgen
data_La7Pr(Y3Sn4)4
_symmetry_space_group_name_H-M   'P 1'
_cell_length_a   8.20037138
_cell_length_b   8.41454341
_cell_length_c   15.78637300
_cell_angle_alpha   90.00144354
_cell_angle_beta   89.98260942
_cell_angle_gamma   89.96682632
_symmetry_Int_Tables_number   1
_chemical_formula_structural   La7Pr(Y3Sn4)4
_chemical_formula_sum   'La7 Pr1 Y12 Sn16'
_cell_volume   1089.29709064
_cell_formula_units_Z   1
loop_
 _symmetry_equiv_pos_site_id
 _symmetry_equiv_pos_as_xyz
  1  'x, y, z'
loop_
 _atom_site_type_symbol
 _atom_site_label
 _atom_site_symmetry_multiplicity
 _atom_site_fract_x
 _atom_site_fract_y
 _atom_site_fract_z
 _atom_site_occupancy
  La  La0  1  0.507696  0.322133  0.904044  1
  La  La1  1  0.008006  0.177467  0.596043  1
  La  La2  1  0.491971  0.677531  0.403969  1
  La  La3  1  0.991960  0.822638  0.095562  1
  La  La4  1  0.492389  0.677465  0.095711  1
  La  La5  1  0.992048  0.822288  0.404024  1
  La  La6  1  0.508026  0.322209  0.596477  1
  Pr  Pr7  1  0.008530  0.178368  0.903147  1
  Y  Y8  1  0.348433  0.835724  0.876038  1
  Y  Y9  1  0.848757  0.664356  0.624613  1
  Y  Y10  1  0.651247  0.164424  0.375800  1
  Y  Y11  1  0.150942  0.335363  0.124065  1
  Y  Y12  1  0.651193  0.164553  0.123899  1
  Y  Y13  1  0.151277  0.335649  0.375671  1
  Y  Y14  1  0.349055  0.835327  0.624384  1
  Y  Y15  1  0.849229  0.664857  0.875756  1
  Y  Y16  1  0.182825  0.501753  0.750354  1
  Y  Y17  1  0.682981  0.998260  0.750430  1
  Y  Y18  1  0.817082  0.497840  0.249978  1
  Y  Y19  1  0.316962  0.001878  0.249902  1
  Sn  Sn20  1  0.311843  0.041449  0.041704  1
  Sn  Sn21  1  0.813406  0.459062  0.457880  1
  Sn  Sn22  1  0.686615  0.959064  0.542441  1
  Sn  Sn23  1  0.185947  0.540046  0.957741  1
  Sn  Sn24  1  0.687926  0.960548  0.957320  1
  Sn  Sn25  1  0.186524  0.540714  0.542498  1
  Sn  Sn26  1  0.313315  0.040864  0.457763  1
  Sn  Sn27  1  0.813974  0.458663  0.041759  1
  Sn  Sn28  1  0.546171  0.624289  0.750362  1
  Sn  Sn29  1  0.046192  0.876044  0.750185  1
  Sn  Sn30  1  0.453966  0.375534  0.249773  1
  Sn  Sn31  1  0.953904  0.124300  0.249833  1
  Sn  Sn32  1  0.313375  0.142256  0.750523  1
  Sn  Sn33  1  0.814733  0.356994  0.750649  1
  Sn  Sn34  1  0.685723  0.857506  0.249842  1
  Sn  Sn35  1  0.185776  0.642583  0.249859  1
