# generated using pymatgen
data_La3SeIN2
_symmetry_space_group_name_H-M   'P 1'
_cell_length_a   13.93290900
_cell_length_b   4.27301800
_cell_length_c   12.91636700
_cell_angle_alpha   90.00016030
_cell_angle_beta   89.99957324
_cell_angle_gamma   90.00004738
_symmetry_Int_Tables_number   1
_chemical_formula_structural   La3SeIN2
_chemical_formula_sum   'La12 Se4 I4 N8'
_cell_volume   768.98328392
_cell_formula_units_Z   4
loop_
 _symmetry_equiv_pos_site_id
 _symmetry_equiv_pos_as_xyz
  1  'x, y, z'
loop_
 _atom_site_type_symbol
 _atom_site_label
 _atom_site_symmetry_multiplicity
 _atom_site_fract_x
 _atom_site_fract_y
 _atom_site_fract_z
 _atom_site_occupancy
  La  La0  1  0.581071  0.749999  0.115260  1
  La  La1  1  0.977869  0.750002  0.113009  1
  La  La2  1  0.189625  0.250005  0.156276  1
  La  La3  1  0.689634  0.249990  0.343722  1
  La  La4  1  0.477866  0.749998  0.386990  1
  La  La5  1  0.081079  0.750006  0.384736  1
  La  La6  1  0.918928  0.249998  0.615267  1
  La  La7  1  0.522135  0.250000  0.613008  1
  La  La8  1  0.310379  0.750006  0.656281  1
  La  La9  1  0.810361  0.749995  0.843722  1
  La  La10  1  0.022132  0.249996  0.886993  1
  La  La11  1  0.418921  0.249996  0.884733  1
  Se  Se12  1  0.432767  0.249998  0.143567  1
  Se  Se13  1  0.932770  0.250000  0.356421  1
  Se  Se14  1  0.067233  0.749998  0.643571  1
  Se  Se15  1  0.567235  0.749996  0.856434  1
  I  I16  1  0.763189  0.249996  0.066478  1
  I  I17  1  0.263189  0.250000  0.433524  1
  I  I18  1  0.736811  0.749994  0.566477  1
  I  I19  1  0.236811  0.749999  0.933524  1
  N  N20  1  0.050305  0.250000  0.068065  1
  N  N21  1  0.133023  0.750001  0.226228  1
  N  N22  1  0.633024  0.749997  0.273772  1
  N  N23  1  0.550306  0.249998  0.431936  1
  N  N24  1  0.449696  0.750000  0.568067  1
  N  N25  1  0.366977  0.249995  0.726227  1
  N  N26  1  0.866975  0.249997  0.773774  1
  N  N27  1  0.949692  0.749996  0.931937  1
