# generated using pymatgen
data_Er6Zn22PRh
_symmetry_space_group_name_H-M   'P 1'
_cell_length_a   9.00525023
_cell_length_b   8.93855596
_cell_length_c   9.00540256
_cell_angle_alpha   60.24503626
_cell_angle_beta   59.73489610
_cell_angle_gamma   60.24529683
_symmetry_Int_Tables_number   1
_chemical_formula_structural   Er6Zn22PRh
_chemical_formula_sum   'Er6 Zn22 P1 Rh1'
_cell_volume   513.41282380
_cell_formula_units_Z   1
loop_
 _symmetry_equiv_pos_site_id
 _symmetry_equiv_pos_as_xyz
  1  'x, y, z'
loop_
 _atom_site_type_symbol
 _atom_site_label
 _atom_site_symmetry_multiplicity
 _atom_site_fract_x
 _atom_site_fract_y
 _atom_site_fract_z
 _atom_site_occupancy
  Er  Er0  1  0.715392  0.290972  0.284506  1
  Er  Er1  1  0.713034  0.287094  0.713039  1
  Er  Er2  1  0.715498  0.709052  0.284587  1
  Er  Er3  1  0.284608  0.709028  0.715494  1
  Er  Er4  1  0.286966  0.712906  0.286961  1
  Er  Er5  1  0.284502  0.290948  0.715413  1
  Zn  Zn6  1  0.625815  0.125658  0.122870  1
  Zn  Zn7  1  0.123038  0.623363  0.123035  1
  Zn  Zn8  1  0.122861  0.125668  0.625813  1
  Zn  Zn9  1  0.123032  0.130565  0.123040  1
  Zn  Zn10  1  0.374185  0.874342  0.877130  1
  Zn  Zn11  1  0.876962  0.376637  0.876965  1
  Zn  Zn12  1  0.877139  0.874332  0.374187  1
  Zn  Zn13  1  0.876968  0.869435  0.876960  1
  Zn  Zn14  1  0.500000  0.000000  0.000000  1
  Zn  Zn15  1  0.500000  0.000000  0.500000  1
  Zn  Zn16  1  0.500000  0.500000  0.000000  1
  Zn  Zn17  1  0.000000  0.500000  0.500000  1
  Zn  Zn18  1  0.000000  0.000000  0.500000  1
  Zn  Zn19  1  0.000000  0.000000  0.000000  1
  Zn  Zn20  1  0.010723  0.330475  0.328318  1
  Zn  Zn21  1  0.331880  0.006625  0.331889  1
  Zn  Zn22  1  0.328307  0.330482  0.010731  1
  Zn  Zn23  1  0.331870  0.329605  0.331877  1
  Zn  Zn24  1  0.989277  0.669525  0.671682  1
  Zn  Zn25  1  0.668120  0.993375  0.668111  1
  Zn  Zn26  1  0.671693  0.669518  0.989269  1
  Zn  Zn27  1  0.668130  0.670395  0.668123  1
  P  P28  1  0.500000  0.500000  0.500000  1
  Rh  Rh29  1  0.000000  0.500000  0.000000  1
