# generated using pymatgen
data_Ba6SrRh4O15
_symmetry_space_group_name_H-M   'P 1'
_cell_length_a   7.55995908
_cell_length_b   7.55997676
_cell_length_c   7.55996200
_cell_angle_alpha   87.36527650
_cell_angle_beta   87.36520964
_cell_angle_gamma   87.36537142
_symmetry_Int_Tables_number   1
_chemical_formula_structural   Ba6SrRh4O15
_chemical_formula_sum   'Ba6 Sr1 Rh4 O15'
_cell_volume   430.74578706
_cell_formula_units_Z   1
loop_
 _symmetry_equiv_pos_site_id
 _symmetry_equiv_pos_as_xyz
  1  'x, y, z'
loop_
 _atom_site_type_symbol
 _atom_site_label
 _atom_site_symmetry_multiplicity
 _atom_site_fract_x
 _atom_site_fract_y
 _atom_site_fract_z
 _atom_site_occupancy
  Ba  Ba0  1  0.333634  0.666232  0.000054  1
  Ba  Ba1  1  0.000058  0.333632  0.666236  1
  Ba  Ba2  1  0.666234  0.000066  0.333638  1
  Ba  Ba3  1  0.141612  0.858472  0.499808  1
  Ba  Ba4  1  0.499805  0.141618  0.858468  1
  Ba  Ba5  1  0.858466  0.499796  0.141607  1
  Sr  Sr6  1  0.500059  0.500056  0.500059  1
  Rh  Rh7  1  0.283029  0.283029  0.283029  1
  Rh  Rh8  1  0.716936  0.716937  0.716936  1
  Rh  Rh9  1  0.092510  0.092511  0.092511  1
  Rh  Rh10  1  0.907471  0.907472  0.907472  1
  O  O11  1  0.153717  0.999916  0.846133  1
  O  O12  1  0.846132  0.153718  0.999919  1
  O  O13  1  0.999917  0.846135  0.153717  1
  O  O14  1  0.024396  0.191848  0.336978  1
  O  O15  1  0.336977  0.024403  0.191847  1
  O  O16  1  0.191849  0.336976  0.024398  1
  O  O17  1  0.808111  0.975711  0.662945  1
  O  O18  1  0.662943  0.808113  0.975703  1
  O  O19  1  0.975708  0.662943  0.808116  1
  O  O20  1  0.358159  0.212715  0.529068  1
  O  O21  1  0.529072  0.358157  0.212715  1
  O  O22  1  0.212716  0.529064  0.358159  1
  O  O23  1  0.787225  0.642045  0.471222  1
  O  O24  1  0.471217  0.787223  0.642042  1
  O  O25  1  0.642044  0.471216  0.787223  1
