# generated using pymatgen
data_Ba4PPd
_symmetry_space_group_name_H-M   'P 1'
_cell_length_a   4.68345400
_cell_length_b   4.68345438
_cell_length_c   15.60096400
_cell_angle_alpha   90.00000000
_cell_angle_beta   90.00000000
_cell_angle_gamma   120.00001146
_symmetry_Int_Tables_number   1
_chemical_formula_structural   Ba4PPd
_chemical_formula_sum   'Ba4 P1 Pd1'
_cell_volume   296.35657658
_cell_formula_units_Z   1
loop_
 _symmetry_equiv_pos_site_id
 _symmetry_equiv_pos_as_xyz
  1  'x, y, z'
loop_
 _atom_site_type_symbol
 _atom_site_label
 _atom_site_symmetry_multiplicity
 _atom_site_fract_x
 _atom_site_fract_y
 _atom_site_fract_z
 _atom_site_occupancy
  Ba  Ba0  1  0.000000  0.000000  0.264795  1
  Ba  Ba1  1  0.666666  0.333332  0.484787  1
  Ba  Ba2  1  0.000000  0.000000  0.765447  1
  Ba  Ba3  1  0.333334  0.666667  0.985271  1
  P  P4  1  0.333334  0.666667  0.374529  1
  Pd  Pd5  1  0.666666  0.333332  0.875169  1
