# generated using pymatgen
data_Y10ZnSiSn6
_symmetry_space_group_name_H-M   'P 1'
_cell_length_a   9.14743800
_cell_length_b   9.14743640
_cell_length_c   6.65837000
_cell_angle_alpha   90.00000000
_cell_angle_beta   90.00000000
_cell_angle_gamma   119.99999130
_symmetry_Int_Tables_number   1
_chemical_formula_structural   Y10ZnSiSn6
_chemical_formula_sum   'Y10 Zn1 Si1 Sn6'
_cell_volume   482.50016705
_cell_formula_units_Z   1
loop_
 _symmetry_equiv_pos_site_id
 _symmetry_equiv_pos_as_xyz
  1  'x, y, z'
loop_
 _atom_site_type_symbol
 _atom_site_label
 _atom_site_symmetry_multiplicity
 _atom_site_fract_x
 _atom_site_fract_y
 _atom_site_fract_z
 _atom_site_occupancy
  Y  Y0  1  0.000000  0.743286  0.765474  1
  Y  Y1  1  0.333333  0.666667  0.500000  1
  Y  Y2  1  0.333333  0.666667  0.000000  1
  Y  Y3  1  0.743286  0.743286  0.234526  1
  Y  Y4  1  0.256714  0.256714  0.765474  1
  Y  Y5  1  0.000000  0.256714  0.234526  1
  Y  Y6  1  0.666667  0.333333  0.500000  1
  Y  Y7  1  0.256714  0.000000  0.234526  1
  Y  Y8  1  0.743286  0.000000  0.765474  1
  Y  Y9  1  0.666667  0.333333  0.000000  1
  Zn  Zn10  1  0.000000  0.000000  0.500000  1
  Si  Si11  1  0.000000  0.000000  0.000000  1
  Sn  Sn12  1  0.392385  0.000000  0.751316  1
  Sn  Sn13  1  0.392385  0.392385  0.248684  1
  Sn  Sn14  1  0.607615  0.607615  0.751316  1
  Sn  Sn15  1  0.000000  0.607615  0.248684  1
  Sn  Sn16  1  0.000000  0.392385  0.751316  1
  Sn  Sn17  1  0.607615  0.000000  0.248684  1
