# generated using pymatgen
data_DyAlFe3B
_symmetry_space_group_name_H-M   'P 1'
_cell_length_a   5.18466600
_cell_length_b   5.18466610
_cell_length_c   6.85049100
_cell_angle_alpha   90.00000000
_cell_angle_beta   90.00000000
_cell_angle_gamma   120.00001215
_symmetry_Int_Tables_number   1
_chemical_formula_structural   DyAlFe3B
_chemical_formula_sum   'Dy2 Al2 Fe6 B2'
_cell_volume   159.47545680
_cell_formula_units_Z   2
loop_
 _symmetry_equiv_pos_site_id
 _symmetry_equiv_pos_as_xyz
  1  'x, y, z'
loop_
 _atom_site_type_symbol
 _atom_site_label
 _atom_site_symmetry_multiplicity
 _atom_site_fract_x
 _atom_site_fract_y
 _atom_site_fract_z
 _atom_site_occupancy
  Dy  Dy0  1  0.000000  0.000000  0.000000  1
  Dy  Dy1  1  0.000000  0.000000  0.500000  1
  Al  Al2  1  0.666667  0.333333  0.000000  1
  Al  Al3  1  0.333333  0.666667  0.000000  1
  Fe  Fe4  1  0.500000  0.500000  0.704946  1
  Fe  Fe5  1  0.500000  0.000000  0.704946  1
  Fe  Fe6  1  0.000000  0.500000  0.704946  1
  Fe  Fe7  1  0.500000  0.500000  0.295054  1
  Fe  Fe8  1  0.500000  0.000000  0.295054  1
  Fe  Fe9  1  0.000000  0.500000  0.295054  1
  B  B10  1  0.666667  0.333333  0.500000  1
  B  B11  1  0.333333  0.666667  0.500000  1
