# generated using pymatgen
data_Ca20Cd3(AgHg2)3
_symmetry_space_group_name_H-M   'P 1'
_cell_length_a   8.27804387
_cell_length_b   8.27809887
_cell_length_c   14.64747001
_cell_angle_alpha   89.99665499
_cell_angle_beta   89.99721860
_cell_angle_gamma   90.40564977
_symmetry_Int_Tables_number   1
_chemical_formula_structural   Ca20Cd3(AgHg2)3
_chemical_formula_sum   'Ca20 Cd3 Ag3 Hg6'
_cell_volume   1003.71419085
_cell_formula_units_Z   1
loop_
 _symmetry_equiv_pos_site_id
 _symmetry_equiv_pos_as_xyz
  1  'x, y, z'
loop_
 _atom_site_type_symbol
 _atom_site_label
 _atom_site_symmetry_multiplicity
 _atom_site_fract_x
 _atom_site_fract_y
 _atom_site_fract_z
 _atom_site_occupancy
  Ca  Ca0  1  0.668675  0.162856  0.104306  1
  Ca  Ca1  1  0.163477  0.662192  0.603445  1
  Ca  Ca2  1  0.332182  0.838040  0.104139  1
  Ca  Ca3  1  0.834406  0.335656  0.605070  1
  Ca  Ca4  1  0.840867  0.664806  0.104451  1
  Ca  Ca5  1  0.338743  0.164424  0.603913  1
  Ca  Ca6  1  0.158850  0.334942  0.104415  1
  Ca  Ca7  1  0.663176  0.837429  0.603862  1
  Ca  Ca8  1  0.837946  0.332056  0.896341  1
  Ca  Ca9  1  0.335782  0.834493  0.394396  1
  Ca  Ca10  1  0.159882  0.665833  0.897964  1
  Ca  Ca11  1  0.665038  0.166409  0.394259  1
  Ca  Ca12  1  0.666790  0.841206  0.897554  1
  Ca  Ca13  1  0.162524  0.338443  0.394094  1
  Ca  Ca14  1  0.335050  0.160858  0.897685  1
  Ca  Ca15  1  0.837234  0.661260  0.394098  1
  Ca  Ca16  1  0.501411  0.497922  0.753567  1
  Ca  Ca17  1  0.000403  0.000499  0.250789  1
  Ca  Ca18  1  0.997977  0.001363  0.749182  1
  Ca  Ca19  1  0.500494  0.500345  0.246515  1
  Cd  Cd20  1  0.499695  0.499468  0.499378  1
  Cd  Cd21  1  0.499617  0.499405  0.000602  1
  Cd  Cd22  1  0.999335  0.999677  0.499360  1
  Ag  Ag23  1  0.631009  0.131534  0.750994  1
  Ag  Ag24  1  0.128508  0.627910  0.249016  1
  Ag  Ag25  1  0.872003  0.372565  0.249035  1
  Hg  Hg26  1  0.369050  0.868312  0.750986  1
  Hg  Hg27  1  0.864544  0.635337  0.750989  1
  Hg  Hg28  1  0.364700  0.135951  0.248990  1
  Hg  Hg29  1  0.135975  0.365123  0.750996  1
  Hg  Hg30  1  0.635334  0.864145  0.248926  1
  Hg  Hg31  1  0.999326  0.999544  0.000684  1
