# generated using pymatgen
data_Nd4Er(Lu5Bi4)3
_symmetry_space_group_name_H-M   'P 1'
_cell_length_a   8.25952262
_cell_length_b   9.39261500
_cell_length_c   12.01234990
_cell_angle_alpha   90.00000000
_cell_angle_beta   89.95571313
_cell_angle_gamma   90.00000000
_symmetry_Int_Tables_number   1
_chemical_formula_structural   Nd4Er(Lu5Bi4)3
_chemical_formula_sum   'Nd4 Er1 Lu15 Bi12'
_cell_volume   931.90000059
_cell_formula_units_Z   1
loop_
 _symmetry_equiv_pos_site_id
 _symmetry_equiv_pos_as_xyz
  1  'x, y, z'
loop_
 _atom_site_type_symbol
 _atom_site_label
 _atom_site_symmetry_multiplicity
 _atom_site_fract_x
 _atom_site_fract_y
 _atom_site_fract_z
 _atom_site_occupancy
  Nd  Nd0  1  0.168371  0.750000  0.222894  1
  Nd  Nd1  1  0.331677  0.750000  0.722930  1
  Nd  Nd2  1  0.831533  0.250000  0.777008  1
  Nd  Nd3  1  0.668336  0.250000  0.277071  1
  Er  Er4  1  0.169310  0.250000  0.211663  1
  Lu  Lu5  1  0.812418  0.565939  0.063172  1
  Lu  Lu6  1  0.687645  0.934049  0.563116  1
  Lu  Lu7  1  0.187599  0.065951  0.936740  1
  Lu  Lu8  1  0.312547  0.434192  0.437166  1
  Lu  Lu9  1  0.187599  0.434049  0.936740  1
  Lu  Lu10  1  0.312547  0.065808  0.437166  1
  Lu  Lu11  1  0.812418  0.934061  0.063172  1
  Lu  Lu12  1  0.687645  0.565951  0.563116  1
  Lu  Lu13  1  0.479506  0.750000  0.003587  1
  Lu  Lu14  1  0.020520  0.750000  0.503636  1
  Lu  Lu15  1  0.520671  0.250000  0.996309  1
  Lu  Lu16  1  0.979401  0.250000  0.496626  1
  Lu  Lu17  1  0.669902  0.750000  0.288258  1
  Lu  Lu18  1  0.830143  0.750000  0.788282  1
  Lu  Lu19  1  0.330120  0.250000  0.711818  1
  Bi  Bi20  1  0.400337  0.750000  0.461181  1
  Bi  Bi21  1  0.099695  0.750000  0.961203  1
  Bi  Bi22  1  0.599729  0.250000  0.538802  1
  Bi  Bi23  1  0.899555  0.250000  0.038105  1
  Bi  Bi24  1  0.935903  0.505837  0.328904  1
  Bi  Bi25  1  0.563996  0.994341  0.828689  1
  Bi  Bi26  1  0.064011  0.005599  0.671257  1
  Bi  Bi27  1  0.436478  0.494709  0.171270  1
  Bi  Bi28  1  0.064011  0.494401  0.671257  1
  Bi  Bi29  1  0.436478  0.005291  0.171270  1
  Bi  Bi30  1  0.935903  0.994163  0.328904  1
  Bi  Bi31  1  0.563996  0.505659  0.828689  1
