# generated using pymatgen
data_Ho4MgZn3Ir4
_symmetry_space_group_name_H-M   'P 1'
_cell_length_a   4.03693200
_cell_length_b   7.01072892
_cell_length_c   8.22506583
_cell_angle_alpha   89.48903654
_cell_angle_beta   90.00000000
_cell_angle_gamma   90.00000000
_symmetry_Int_Tables_number   1
_chemical_formula_structural   Ho4MgZn3Ir4
_chemical_formula_sum   'Ho4 Mg1 Zn3 Ir4'
_cell_volume   232.77520666
_cell_formula_units_Z   1
loop_
 _symmetry_equiv_pos_site_id
 _symmetry_equiv_pos_as_xyz
  1  'x, y, z'
loop_
 _atom_site_type_symbol
 _atom_site_label
 _atom_site_symmetry_multiplicity
 _atom_site_fract_x
 _atom_site_fract_y
 _atom_site_fract_z
 _atom_site_occupancy
  Ho  Ho0  1  0.250000  0.541941  0.180841  1
  Ho  Ho1  1  0.750000  0.465983  0.815045  1
  Ho  Ho2  1  0.750000  0.957380  0.674551  1
  Ho  Ho3  1  0.250000  0.036608  0.322900  1
  Mg  Mg4  1  0.250000  0.133611  0.939150  1
  Zn  Zn5  1  0.250000  0.635876  0.563726  1
  Zn  Zn6  1  0.750000  0.363794  0.436610  1
  Zn  Zn7  1  0.750000  0.865130  0.065797  1
  Ir  Ir8  1  0.250000  0.753871  0.873683  1
  Ir  Ir9  1  0.750000  0.248997  0.129635  1
  Ir  Ir10  1  0.750000  0.741165  0.376348  1
  Ir  Ir11  1  0.250000  0.255645  0.621712  1
