# generated using pymatgen
data_Ca2TbMg(ReN3)4
_symmetry_space_group_name_H-M   'P 1'
_cell_length_a   7.31617792
_cell_length_b   7.31617680
_cell_length_c   6.18801746
_cell_angle_alpha   74.32941965
_cell_angle_beta   74.32942660
_cell_angle_gamma   83.93705528
_symmetry_Int_Tables_number   1
_chemical_formula_structural   Ca2TbMg(ReN3)4
_chemical_formula_sum   'Ca2 Tb1 Mg1 Re4 N12'
_cell_volume   306.86685732
_cell_formula_units_Z   1
loop_
 _symmetry_equiv_pos_site_id
 _symmetry_equiv_pos_as_xyz
  1  'x, y, z'
loop_
 _atom_site_type_symbol
 _atom_site_label
 _atom_site_symmetry_multiplicity
 _atom_site_fract_x
 _atom_site_fract_y
 _atom_site_fract_z
 _atom_site_occupancy
  Ca  Ca0  1  0.292720  0.707280  0.750000  1
  Ca  Ca1  1  0.705884  0.294116  0.250000  1
  Tb  Tb2  1  0.917678  0.082322  0.750000  1
  Mg  Mg3  1  0.097096  0.902904  0.250000  1
  Re  Re4  1  0.619196  0.800516  0.263903  1
  Re  Re5  1  0.199484  0.380804  0.236097  1
  Re  Re6  1  0.376774  0.201807  0.741030  1
  Re  Re7  1  0.798193  0.623226  0.758970  1
  N  N8  1  0.344095  0.364212  0.940089  1
  N  N9  1  0.010576  0.214444  0.342090  1
  N  N10  1  0.785556  0.989424  0.157910  1
  N  N11  1  0.213381  0.009633  0.865171  1
  N  N12  1  0.660800  0.644745  0.052989  1
  N  N13  1  0.884842  0.383530  0.814099  1
  N  N14  1  0.115545  0.619700  0.190210  1
  N  N15  1  0.990367  0.786619  0.634829  1
  N  N16  1  0.380300  0.884455  0.309790  1
  N  N17  1  0.635788  0.655905  0.559911  1
  N  N18  1  0.616470  0.115158  0.685901  1
  N  N19  1  0.355255  0.339200  0.447011  1
