# generated using pymatgen
data_Th2ZnSi2Ni
_symmetry_space_group_name_H-M   'P 1'
_cell_length_a   4.12566800
_cell_length_b   4.12566911
_cell_length_c   8.30520200
_cell_angle_alpha   90.00000000
_cell_angle_beta   90.00000000
_cell_angle_gamma   120.00000714
_symmetry_Int_Tables_number   1
_chemical_formula_structural   Th2ZnSi2Ni
_chemical_formula_sum   'Th2 Zn1 Si2 Ni1'
_cell_volume   122.42481893
_cell_formula_units_Z   1
loop_
 _symmetry_equiv_pos_site_id
 _symmetry_equiv_pos_as_xyz
  1  'x, y, z'
loop_
 _atom_site_type_symbol
 _atom_site_label
 _atom_site_symmetry_multiplicity
 _atom_site_fract_x
 _atom_site_fract_y
 _atom_site_fract_z
 _atom_site_occupancy
  Th  Th0  1  0.666667  0.333333  0.734588  1
  Th  Th1  1  0.666667  0.333333  0.265412  1
  Zn  Zn2  1  0.000000  0.000000  0.000000  1
  Si  Si3  1  0.333333  0.666667  0.500000  1
  Si  Si4  1  0.333333  0.666667  0.000000  1
  Ni  Ni5  1  0.000000  0.000000  0.500000  1
