# generated using pymatgen
data_Zr10TlPb7
_symmetry_space_group_name_H-M   'P 1'
_cell_length_a   9.00761600
_cell_length_b   9.00761749
_cell_length_c   6.05283000
_cell_angle_alpha   90.00000000
_cell_angle_beta   90.00000000
_cell_angle_gamma   119.99999454
_symmetry_Int_Tables_number   1
_chemical_formula_structural   Zr10TlPb7
_chemical_formula_sum   'Zr10 Tl1 Pb7'
_cell_volume   425.31326797
_cell_formula_units_Z   1
loop_
 _symmetry_equiv_pos_site_id
 _symmetry_equiv_pos_as_xyz
  1  'x, y, z'
loop_
 _atom_site_type_symbol
 _atom_site_label
 _atom_site_symmetry_multiplicity
 _atom_site_fract_x
 _atom_site_fract_y
 _atom_site_fract_z
 _atom_site_occupancy
  Zr  Zr0  1  0.666666  0.333333  0.000000  1
  Zr  Zr1  1  0.333333  0.666666  0.000000  1
  Zr  Zr2  1  0.282127  0.000000  0.249821  1
  Zr  Zr3  1  0.000000  0.282127  0.249821  1
  Zr  Zr4  1  0.717873  0.717873  0.249821  1
  Zr  Zr5  1  0.666666  0.333333  0.500000  1
  Zr  Zr6  1  0.333333  0.666666  0.500000  1
  Zr  Zr7  1  0.717874  0.000000  0.750180  1
  Zr  Zr8  1  0.282126  0.282127  0.750180  1
  Zr  Zr9  1  0.000000  0.717873  0.750180  1
  Tl  Tl10  1  0.000000  0.000000  0.000000  1
  Pb  Pb11  1  0.617162  0.000000  0.249460  1
  Pb  Pb12  1  0.382838  0.382839  0.249460  1
  Pb  Pb13  1  0.000000  0.617162  0.249460  1
  Pb  Pb14  1  0.000000  0.000000  0.500000  1
  Pb  Pb15  1  0.382839  0.000000  0.750541  1
  Pb  Pb16  1  0.000000  0.382839  0.750541  1
  Pb  Pb17  1  0.617162  0.617162  0.750541  1
