# generated using pymatgen
data_Nd2AlPt6
_symmetry_space_group_name_H-M   'P 1'
_cell_length_a   6.87675796
_cell_length_b   6.87675795
_cell_length_c   6.87675949
_cell_angle_alpha   49.29304647
_cell_angle_beta   49.29304562
_cell_angle_gamma   49.29304177
_symmetry_Int_Tables_number   1
_chemical_formula_structural   Nd2AlPt6
_chemical_formula_sum   'Nd2 Al1 Pt6'
_cell_volume   171.69987056
_cell_formula_units_Z   1
loop_
 _symmetry_equiv_pos_site_id
 _symmetry_equiv_pos_as_xyz
  1  'x, y, z'
loop_
 _atom_site_type_symbol
 _atom_site_label
 _atom_site_symmetry_multiplicity
 _atom_site_fract_x
 _atom_site_fract_y
 _atom_site_fract_z
 _atom_site_occupancy
  Nd  Nd0  1  0.220358  0.220358  0.220358  1
  Nd  Nd1  1  0.779642  0.779642  0.779642  1
  Al  Al2  1  0.500000  0.500000  0.500000  1
  Pt  Pt3  1  0.732725  0.228823  0.228824  1
  Pt  Pt4  1  0.228823  0.732725  0.228824  1
  Pt  Pt5  1  0.771177  0.771177  0.267274  1
  Pt  Pt6  1  0.228823  0.228823  0.732726  1
  Pt  Pt7  1  0.771177  0.267275  0.771176  1
  Pt  Pt8  1  0.267275  0.771177  0.771176  1
