# generated using pymatgen
data_NaUNiSe3
_symmetry_space_group_name_H-M   'P 1'
_cell_length_a   7.12075961
_cell_length_b   7.12075952
_cell_length_c   10.36983100
_cell_angle_alpha   90.00000000
_cell_angle_beta   90.00000000
_cell_angle_gamma   148.02486638
_symmetry_Int_Tables_number   1
_chemical_formula_structural   NaUNiSe3
_chemical_formula_sum   'Na2 U2 Ni2 Se6'
_cell_volume   278.44039871
_cell_formula_units_Z   2
loop_
 _symmetry_equiv_pos_site_id
 _symmetry_equiv_pos_as_xyz
  1  'x, y, z'
loop_
 _atom_site_type_symbol
 _atom_site_label
 _atom_site_symmetry_multiplicity
 _atom_site_fract_x
 _atom_site_fract_y
 _atom_site_fract_z
 _atom_site_occupancy
  Na  Na0  1  0.743760  0.256242  0.250000  1
  Na  Na1  1  0.256242  0.743760  0.750000  1
  U  U2  1  0.500001  0.500001  0.000000  1
  U  U3  1  0.500001  0.500001  0.500000  1
  Ni  Ni4  1  0.023317  0.976685  0.250000  1
  Ni  Ni5  1  0.976685  0.023317  0.750000  1
  Se  Se6  1  0.135509  0.864493  0.073377  1
  Se  Se7  1  0.420792  0.579210  0.250000  1
  Se  Se8  1  0.135509  0.864493  0.426623  1
  Se  Se9  1  0.864493  0.135509  0.573377  1
  Se  Se10  1  0.579210  0.420792  0.750000  1
  Se  Se11  1  0.864493  0.135509  0.926624  1
