# generated using pymatgen
data_ZrSc3(Ga10Ru3)2
_symmetry_space_group_name_H-M   'P 1'
_cell_length_a   8.84294313
_cell_length_b   8.84294313
_cell_length_c   6.21981100
_cell_angle_alpha   90.00000000
_cell_angle_beta   90.00000000
_cell_angle_gamma   89.98030303
_symmetry_Int_Tables_number   1
_chemical_formula_structural   ZrSc3(Ga10Ru3)2
_chemical_formula_sum   'Zr1 Sc3 Ga20 Ru6'
_cell_volume   486.37453268
_cell_formula_units_Z   1
loop_
 _symmetry_equiv_pos_site_id
 _symmetry_equiv_pos_as_xyz
  1  'x, y, z'
loop_
 _atom_site_type_symbol
 _atom_site_label
 _atom_site_symmetry_multiplicity
 _atom_site_fract_x
 _atom_site_fract_y
 _atom_site_fract_z
 _atom_site_occupancy
  Zr  Zr0  1  0.179854  0.679854  0.000000  1
  Sc  Sc1  1  0.818586  0.318586  0.000000  1
  Sc  Sc2  1  0.683047  0.817295  0.000000  1
  Sc  Sc3  1  0.317295  0.183047  0.000000  1
  Ga  Ga4  1  0.062442  0.206978  0.712990  1
  Ga  Ga5  1  0.937024  0.792080  0.711987  1
  Ga  Ga6  1  0.563116  0.292244  0.713929  1
  Ga  Ga7  1  0.437403  0.708622  0.712558  1
  Ga  Ga8  1  0.792244  0.063116  0.713929  1
  Ga  Ga9  1  0.208622  0.937403  0.712558  1
  Ga  Ga10  1  0.706978  0.562442  0.712990  1
  Ga  Ga11  1  0.292080  0.437024  0.711987  1
  Ga  Ga12  1  0.937024  0.792080  0.288013  1
  Ga  Ga13  1  0.062442  0.206978  0.287010  1
  Ga  Ga14  1  0.437403  0.708622  0.287442  1
  Ga  Ga15  1  0.563116  0.292244  0.286071  1
  Ga  Ga16  1  0.208622  0.937403  0.287442  1
  Ga  Ga17  1  0.792244  0.063116  0.286071  1
  Ga  Ga18  1  0.292080  0.437024  0.288013  1
  Ga  Ga19  1  0.706978  0.562442  0.287010  1
  Ga  Ga20  1  0.999644  0.499644  0.724098  1
  Ga  Ga21  1  0.500863  0.000863  0.728078  1
  Ga  Ga22  1  0.999644  0.499644  0.275902  1
  Ga  Ga23  1  0.500863  0.000863  0.271922  1
  Ru  Ru24  1  0.177695  0.677695  0.500000  1
  Ru  Ru25  1  0.823090  0.323090  0.500000  1
  Ru  Ru26  1  0.677046  0.823009  0.500000  1
  Ru  Ru27  1  0.323009  0.177046  0.500000  1
  Ru  Ru28  1  0.001207  0.998338  0.000000  1
  Ru  Ru29  1  0.498338  0.501207  0.000000  1
