# generated using pymatgen
data_Ce3Np(B4Ru)4
_symmetry_space_group_name_H-M   'P 1'
_cell_length_a   3.60495300
_cell_length_b   5.99224252
_cell_length_c   11.62090097
_cell_angle_alpha   90.13810109
_cell_angle_beta   90.00000000
_cell_angle_gamma   90.00000000
_symmetry_Int_Tables_number   1
_chemical_formula_structural   Ce3Np(B4Ru)4
_chemical_formula_sum   'Ce3 Np1 B16 Ru4'
_cell_volume   251.03109896
_cell_formula_units_Z   1
loop_
 _symmetry_equiv_pos_site_id
 _symmetry_equiv_pos_as_xyz
  1  'x, y, z'
loop_
 _atom_site_type_symbol
 _atom_site_label
 _atom_site_symmetry_multiplicity
 _atom_site_fract_x
 _atom_site_fract_y
 _atom_site_fract_z
 _atom_site_occupancy
  Ce  Ce0  1  0.500000  0.628170  0.149756  1
  Ce  Ce1  1  0.500000  0.371540  0.849078  1
  Ce  Ce2  1  0.500000  0.127897  0.351532  1
  Np  Np3  1  0.500000  0.873121  0.650809  1
  B  B4  1  0.000000  0.974297  0.190450  1
  B  B5  1  0.000000  0.024597  0.806327  1
  B  B6  1  0.000000  0.474469  0.310740  1
  B  B7  1  0.000000  0.528587  0.690957  1
  B  B8  1  0.000000  0.785989  0.315031  1
  B  B9  1  0.000000  0.208327  0.685916  1
  B  B10  1  0.000000  0.285049  0.185924  1
  B  B11  1  0.000000  0.715427  0.810091  1
  B  B12  1  0.000000  0.864877  0.470160  1
  B  B13  1  0.000000  0.133309  0.533799  1
  B  B14  1  0.000000  0.362720  0.031167  1
  B  B15  1  0.000000  0.638197  0.967268  1
  B  B16  1  0.000000  0.888524  0.045176  1
  B  B17  1  0.000000  0.111634  0.953172  1
  B  B18  1  0.000000  0.388882  0.455680  1
  B  B19  1  0.000000  0.616569  0.547974  1
  Ru  Ru20  1  0.500000  0.640354  0.409422  1
  Ru  Ru21  1  0.500000  0.358498  0.594054  1
  Ru  Ru22  1  0.500000  0.138406  0.092326  1
  Ru  Ru23  1  0.500000  0.860558  0.903190  1
