# generated using pymatgen
data_TbYb3MgRu
_symmetry_space_group_name_H-M   'P 1'
_cell_length_a   9.93673307
_cell_length_b   9.93673343
_cell_length_c   9.93673300
_cell_angle_alpha   59.99999810
_cell_angle_beta   59.99999690
_cell_angle_gamma   60.00000298
_symmetry_Int_Tables_number   1
_chemical_formula_structural   TbYb3MgRu
_chemical_formula_sum   'Tb4 Yb12 Mg4 Ru4'
_cell_volume   693.77057929
_cell_formula_units_Z   4
loop_
 _symmetry_equiv_pos_site_id
 _symmetry_equiv_pos_as_xyz
  1  'x, y, z'
loop_
 _atom_site_type_symbol
 _atom_site_label
 _atom_site_symmetry_multiplicity
 _atom_site_fract_x
 _atom_site_fract_y
 _atom_site_fract_z
 _atom_site_occupancy
  Tb  Tb0  1  0.338597  0.338597  0.338597  1
  Tb  Tb1  1  0.338597  0.338597  0.984208  1
  Tb  Tb2  1  0.338597  0.984208  0.338597  1
  Tb  Tb3  1  0.984208  0.338597  0.338597  1
  Yb  Yb4  1  0.952742  0.547258  0.547258  1
  Yb  Yb5  1  0.547258  0.952742  0.952742  1
  Yb  Yb6  1  0.547258  0.952742  0.547258  1
  Yb  Yb7  1  0.952742  0.547258  0.952742  1
  Yb  Yb8  1  0.547258  0.547258  0.952742  1
  Yb  Yb9  1  0.952742  0.952742  0.547258  1
  Yb  Yb10  1  0.809461  0.190539  0.190539  1
  Yb  Yb11  1  0.190539  0.809461  0.809461  1
  Yb  Yb12  1  0.190539  0.809461  0.190539  1
  Yb  Yb13  1  0.809461  0.190539  0.809461  1
  Yb  Yb14  1  0.190539  0.190539  0.809461  1
  Yb  Yb15  1  0.809461  0.809461  0.190539  1
  Mg  Mg16  1  0.577341  0.577341  0.577341  1
  Mg  Mg17  1  0.577341  0.577341  0.267978  1
  Mg  Mg18  1  0.577341  0.267978  0.577341  1
  Mg  Mg19  1  0.267978  0.577341  0.577341  1
  Ru  Ru20  1  0.138780  0.138780  0.138780  1
  Ru  Ru21  1  0.138780  0.138780  0.583660  1
  Ru  Ru22  1  0.138780  0.583660  0.138780  1
  Ru  Ru23  1  0.583660  0.138780  0.138780  1
