# generated using pymatgen
data_Pr5TcMoO12
_symmetry_space_group_name_H-M   'P 1'
_cell_length_a   7.11423741
_cell_length_b   7.11423773
_cell_length_c   7.86812211
_cell_angle_alpha   73.89297391
_cell_angle_beta   73.89297433
_cell_angle_gamma   49.64107099
_symmetry_Int_Tables_number   1
_chemical_formula_structural   Pr5TcMoO12
_chemical_formula_sum   'Pr5 Tc1 Mo1 O12'
_cell_volume   288.92446263
_cell_formula_units_Z   1
loop_
 _symmetry_equiv_pos_site_id
 _symmetry_equiv_pos_as_xyz
  1  'x, y, z'
loop_
 _atom_site_type_symbol
 _atom_site_label
 _atom_site_symmetry_multiplicity
 _atom_site_fract_x
 _atom_site_fract_y
 _atom_site_fract_z
 _atom_site_occupancy
  Pr  Pr0  1  0.297748  0.317248  0.357186  1
  Pr  Pr1  1  0.682752  0.702252  0.642814  1
  Pr  Pr2  1  0.684444  0.691925  0.170230  1
  Pr  Pr3  1  0.308075  0.315556  0.829770  1
  Pr  Pr4  1  0.994608  0.005392  0.500000  1
  Tc  Tc5  1  0.233936  0.766064  0.000000  1
  Mo  Mo6  1  0.787311  0.212689  0.000000  1
  O  O7  1  0.088962  0.596155  0.579783  1
  O  O8  1  0.005491  0.993203  0.193183  1
  O  O9  1  0.403845  0.911038  0.420217  1
  O  O10  1  0.505459  0.494162  0.169011  1
  O  O11  1  0.091454  0.581006  0.079753  1
  O  O12  1  0.897195  0.409416  0.424936  1
  O  O13  1  0.006797  0.994509  0.806817  1
  O  O14  1  0.590584  0.102804  0.575064  1
  O  O15  1  0.505838  0.494541  0.830989  1
  O  O16  1  0.593674  0.097167  0.077462  1
  O  O17  1  0.418994  0.908546  0.920247  1
  O  O18  1  0.902833  0.406326  0.922538  1
