# generated using pymatgen
data_Nd4Al18RuRh4Au
_symmetry_space_group_name_H-M   'P 1'
_cell_length_a   7.65566717
_cell_length_b   7.65566643
_cell_length_c   9.63049774
_cell_angle_alpha   89.93605917
_cell_angle_beta   89.93606181
_cell_angle_gamma   119.31557787
_symmetry_Int_Tables_number   1
_chemical_formula_structural   Nd4Al18RuRh4Au
_chemical_formula_sum   'Nd4 Al18 Ru1 Rh4 Au1'
_cell_volume   492.15105627
_cell_formula_units_Z   1
loop_
 _symmetry_equiv_pos_site_id
 _symmetry_equiv_pos_as_xyz
  1  'x, y, z'
loop_
 _atom_site_type_symbol
 _atom_site_label
 _atom_site_symmetry_multiplicity
 _atom_site_fract_x
 _atom_site_fract_y
 _atom_site_fract_z
 _atom_site_occupancy
  Nd  Nd0  1  0.996095  0.674328  0.749606  1
  Nd  Nd1  1  0.003765  0.325502  0.250161  1
  Nd  Nd2  1  0.674498  0.996235  0.749839  1
  Nd  Nd3  1  0.325672  0.003905  0.250394  1
  Al  Al4  1  0.137721  0.138493  0.757777  1
  Al  Al5  1  0.861507  0.862279  0.242223  1
  Al  Al6  1  0.003079  0.345154  0.576732  1
  Al  Al7  1  0.993444  0.652671  0.423343  1
  Al  Al8  1  0.998306  0.663910  0.072893  1
  Al  Al9  1  0.336090  0.001694  0.927107  1
  Al  Al10  1  0.001915  0.336844  0.927308  1
  Al  Al11  1  0.663156  0.998085  0.072692  1
  Al  Al12  1  0.654846  0.996921  0.423268  1
  Al  Al13  1  0.347329  0.006556  0.576657  1
  Al  Al14  1  0.334064  0.334166  0.046119  1
  Al  Al15  1  0.665834  0.665936  0.953881  1
  Al  Al16  1  0.657217  0.654758  0.551587  1
  Al  Al17  1  0.345242  0.342783  0.448413  1
  Al  Al18  1  0.339191  0.549912  0.751176  1
  Al  Al19  1  0.660247  0.449407  0.250184  1
  Al  Al20  1  0.550593  0.339753  0.749816  1
  Al  Al21  1  0.450088  0.660809  0.248824  1
  Ru  Ru22  1  0.671609  0.328391  0.500000  1
  Rh  Rh23  1  0.328823  0.671177  0.500000  1
  Rh  Rh24  1  0.328755  0.671245  0.000000  1
  Rh  Rh25  1  0.671089  0.328911  0.000000  1
  Rh  Rh26  1  0.999879  0.000121  0.000000  1
  Au  Au27  1  0.999947  0.000053  0.500000  1
