# generated using pymatgen
data_Ba4Sr3CaGa4F28
_symmetry_space_group_name_H-M   'P 1'
_cell_length_a   5.67811300
_cell_length_b   5.59871467
_cell_length_c   20.12196978
_cell_angle_alpha   75.88274311
_cell_angle_beta   90.00000000
_cell_angle_gamma   90.00000000
_symmetry_Int_Tables_number   1
_chemical_formula_structural   Ba4Sr3CaGa4F28
_chemical_formula_sum   'Ba4 Sr3 Ca1 Ga4 F28'
_cell_volume   620.36088923
_cell_formula_units_Z   1
loop_
 _symmetry_equiv_pos_site_id
 _symmetry_equiv_pos_as_xyz
  1  'x, y, z'
loop_
 _atom_site_type_symbol
 _atom_site_label
 _atom_site_symmetry_multiplicity
 _atom_site_fract_x
 _atom_site_fract_y
 _atom_site_fract_z
 _atom_site_occupancy
  Ba  Ba0  1  0.253259  0.314051  0.431375  1
  Ba  Ba1  1  0.748904  0.691217  0.564665  1
  Ba  Ba2  1  0.748904  0.308783  0.935335  1
  Ba  Ba3  1  0.253259  0.685949  0.068625  1
  Sr  Sr4  1  0.314960  0.500000  0.750000  1
  Sr  Sr5  1  0.791514  0.000000  0.750000  1
  Sr  Sr6  1  0.208633  0.000000  0.250000  1
  Ca  Ca7  1  0.676817  0.500000  0.250000  1
  Ga  Ga8  1  0.223539  0.184128  0.614547  1
  Ga  Ga9  1  0.774180  0.180182  0.118901  1
  Ga  Ga10  1  0.223539  0.815872  0.885453  1
  Ga  Ga11  1  0.774180  0.819818  0.381099  1
  F  F12  1  0.048434  0.851276  0.434307  1
  F  F13  1  0.048434  0.148724  0.065693  1
  F  F14  1  0.954508  0.151982  0.559452  1
  F  F15  1  0.954508  0.848018  0.940548  1
  F  F16  1  0.022283  0.354383  0.669051  1
  F  F17  1  0.022283  0.645617  0.830949  1
  F  F18  1  0.967654  0.643843  0.326064  1
  F  F19  1  0.967654  0.356157  0.173936  1
  F  F20  1  0.287024  0.498125  0.552948  1
  F  F21  1  0.287024  0.501875  0.947052  1
  F  F22  1  0.712394  0.507135  0.444267  1
  F  F23  1  0.712394  0.492865  0.055733  1
  F  F24  1  0.590562  0.029539  0.062944  1
  F  F25  1  0.590562  0.970461  0.437056  1
  F  F26  1  0.408482  0.968740  0.940565  1
  F  F27  1  0.408482  0.031260  0.559435  1
  F  F28  1  0.860187  0.878258  0.184045  1
  F  F29  1  0.860187  0.121742  0.315955  1
  F  F30  1  0.135396  0.111560  0.819287  1
  F  F31  1  0.135396  0.888440  0.680713  1
  F  F32  1  0.480707  0.756444  0.828655  1
  F  F33  1  0.480707  0.243556  0.671345  1
  F  F34  1  0.518660  0.248670  0.174495  1
  F  F35  1  0.518660  0.751330  0.325505  1
  F  F36  1  0.377804  0.716590  0.190388  1
  F  F37  1  0.377804  0.283410  0.309612  1
  F  F38  1  0.640061  0.278814  0.812573  1
  F  F39  1  0.640061  0.721186  0.687427  1
