# generated using pymatgen
data_Y19Ho(CoSb2)4
_symmetry_space_group_name_H-M   'P 1'
_cell_length_a   7.93774439
_cell_length_b   8.80197015
_cell_length_c   12.24478841
_cell_angle_alpha   89.99640391
_cell_angle_beta   89.97045405
_cell_angle_gamma   89.97930807
_symmetry_Int_Tables_number   1
_chemical_formula_structural   Y19Ho(CoSb2)4
_chemical_formula_sum   'Y19 Ho1 Co4 Sb8'
_cell_volume   855.51612431
_cell_formula_units_Z   1
loop_
 _symmetry_equiv_pos_site_id
 _symmetry_equiv_pos_as_xyz
  1  'x, y, z'
loop_
 _atom_site_type_symbol
 _atom_site_label
 _atom_site_symmetry_multiplicity
 _atom_site_fract_x
 _atom_site_fract_y
 _atom_site_fract_z
 _atom_site_occupancy
  Y  Y0  1  0.156319  0.749959  0.204028  1
  Y  Y1  1  0.656090  0.250382  0.296170  1
  Y  Y2  1  0.843544  0.250032  0.795820  1
  Y  Y3  1  0.343539  0.749899  0.704171  1
  Y  Y4  1  0.455620  0.750034  0.998245  1
  Y  Y5  1  0.956676  0.250601  0.501649  1
  Y  Y6  1  0.544247  0.250041  0.001803  1
  Y  Y7  1  0.045439  0.749226  0.498017  1
  Y  Y8  1  0.623767  0.749679  0.306241  1
  Y  Y9  1  0.124065  0.250140  0.193990  1
  Y  Y10  1  0.375824  0.250279  0.693484  1
  Y  Y11  1  0.876134  0.750095  0.806426  1
  Y  Y12  1  0.821988  0.964955  0.066159  1
  Y  Y13  1  0.321875  0.035154  0.433896  1
  Y  Y14  1  0.178014  0.465422  0.933955  1
  Y  Y15  1  0.678051  0.534504  0.565946  1
  Y  Y16  1  0.178018  0.034668  0.933922  1
  Y  Y17  1  0.678006  0.965446  0.565788  1
  Y  Y18  1  0.821980  0.535154  0.066161  1
  Ho  Ho19  1  0.323785  0.464713  0.434478  1
  Co  Co20  1  0.433762  0.748657  0.490304  1
  Co  Co21  1  0.934528  0.250044  0.009529  1
  Co  Co22  1  0.564037  0.250686  0.509151  1
  Co  Co23  1  0.065612  0.750042  0.990472  1
  Sb  Sb24  1  0.929745  0.991952  0.327318  1
  Sb  Sb25  1  0.429901  0.008114  0.172944  1
  Sb  Sb26  1  0.069795  0.492029  0.673111  1
  Sb  Sb27  1  0.570071  0.508040  0.827086  1
  Sb  Sb28  1  0.069973  0.008006  0.672708  1
  Sb  Sb29  1  0.569929  0.992082  0.826966  1
  Sb  Sb30  1  0.930058  0.508027  0.327075  1
  Sb  Sb31  1  0.429607  0.491940  0.172984  1
