# generated using pymatgen
data_CePr5Ho10(CdRu)4
_symmetry_space_group_name_H-M   'P 1'
_cell_length_a   9.80015878
_cell_length_b   9.77770152
_cell_length_c   9.77770161
_cell_angle_alpha   59.05716311
_cell_angle_beta   59.29969233
_cell_angle_gamma   59.29968361
_symmetry_Int_Tables_number   1
_chemical_formula_structural   CePr5Ho10(CdRu)4
_chemical_formula_sum   'Ce1 Pr5 Ho10 Cd4 Ru4'
_cell_volume   650.71118203
_cell_formula_units_Z   1
loop_
 _symmetry_equiv_pos_site_id
 _symmetry_equiv_pos_as_xyz
  1  'x, y, z'
loop_
 _atom_site_type_symbol
 _atom_site_label
 _atom_site_symmetry_multiplicity
 _atom_site_fract_x
 _atom_site_fract_y
 _atom_site_fract_z
 _atom_site_occupancy
  Ce  Ce0  1  0.341367  0.340345  0.340345  1
  Pr  Pr1  1  0.561429  0.558928  0.938704  1
  Pr  Pr2  1  0.941486  0.557259  0.938959  1
  Pr  Pr3  1  0.557110  0.942119  0.942119  1
  Pr  Pr4  1  0.941486  0.938959  0.557259  1
  Pr  Pr5  1  0.561429  0.938704  0.558928  1
  Ho  Ho6  1  0.943714  0.555436  0.555436  1
  Ho  Ho7  1  0.185646  0.188771  0.814277  1
  Ho  Ho8  1  0.814000  0.187782  0.812929  1
  Ho  Ho9  1  0.185512  0.814651  0.814650  1
  Ho  Ho10  1  0.814000  0.812930  0.187782  1
  Ho  Ho11  1  0.185645  0.814277  0.188770  1
  Ho  Ho12  1  0.814895  0.186931  0.186931  1
  Ho  Ho13  1  0.344253  0.345800  0.962074  1
  Ho  Ho14  1  0.344253  0.962074  0.345800  1
  Ho  Ho15  1  0.960170  0.345998  0.345998  1
  Cd  Cd16  1  0.578380  0.578586  0.262705  1
  Cd  Cd17  1  0.578380  0.262705  0.578586  1
  Cd  Cd18  1  0.261039  0.577838  0.577838  1
  Cd  Cd19  1  0.580308  0.578080  0.578080  1
  Ru  Ru20  1  0.144331  0.150487  0.576128  1
  Ru  Ru21  1  0.144331  0.576128  0.150487  1
  Ru  Ru22  1  0.576200  0.145751  0.145751  1
  Ru  Ru23  1  0.140637  0.139465  0.139465  1
