# generated using pymatgen
data_Pr3In3Rh2Pb
_symmetry_space_group_name_H-M   'P 1'
_cell_length_a   7.82780300
_cell_length_b   7.82780303
_cell_length_c   4.25567600
_cell_angle_alpha   90.00000000
_cell_angle_beta   90.00000000
_cell_angle_gamma   120.00000410
_symmetry_Int_Tables_number   1
_chemical_formula_structural   Pr3In3Rh2Pb
_chemical_formula_sum   'Pr3 In3 Rh2 Pb1'
_cell_volume   225.82860214
_cell_formula_units_Z   1
loop_
 _symmetry_equiv_pos_site_id
 _symmetry_equiv_pos_as_xyz
  1  'x, y, z'
loop_
 _atom_site_type_symbol
 _atom_site_label
 _atom_site_symmetry_multiplicity
 _atom_site_fract_x
 _atom_site_fract_y
 _atom_site_fract_z
 _atom_site_occupancy
  Pr  Pr0  1  0.976399  0.581968  0.500000  1
  Pr  Pr1  1  0.418032  0.394430  0.500000  1
  Pr  Pr2  1  0.605570  0.023601  0.500000  1
  In  In3  1  0.766615  0.750644  0.000000  1
  In  In4  1  0.984029  0.233385  0.000000  1
  In  In5  1  0.249356  0.015971  0.000000  1
  Rh  Rh6  1  0.000000  0.000000  0.500000  1
  Rh  Rh7  1  0.666667  0.333333  0.000000  1
  Pb  Pb8  1  0.333333  0.666667  0.000000  1
