# generated using pymatgen
data_SmEr3Cr6O24
_symmetry_space_group_name_H-M   'P 1'
_cell_length_a   9.96713885
_cell_length_b   9.96713680
_cell_length_c   9.96713800
_cell_angle_alpha   58.17005537
_cell_angle_beta   58.17006269
_cell_angle_gamma   58.17006581
_symmetry_Int_Tables_number   1
_chemical_formula_structural   SmEr3Cr6O24
_chemical_formula_sum   'Sm1 Er3 Cr6 O24'
_cell_volume   670.79531966
_cell_formula_units_Z   1
loop_
 _symmetry_equiv_pos_site_id
 _symmetry_equiv_pos_as_xyz
  1  'x, y, z'
loop_
 _atom_site_type_symbol
 _atom_site_label
 _atom_site_symmetry_multiplicity
 _atom_site_fract_x
 _atom_site_fract_y
 _atom_site_fract_z
 _atom_site_occupancy
  Sm  Sm0  1  0.858534  0.858534  0.858534  1
  Er  Er1  1  0.642122  0.642122  0.642122  1
  Er  Er2  1  0.358175  0.358175  0.358175  1
  Er  Er3  1  0.141990  0.141990  0.141990  1
  Cr  Cr4  1  0.749529  0.035026  0.462545  1
  Cr  Cr5  1  0.966739  0.530496  0.254028  1
  Cr  Cr6  1  0.530496  0.254028  0.966740  1
  Cr  Cr7  1  0.462544  0.749529  0.035027  1
  Cr  Cr8  1  0.035027  0.462544  0.749529  1
  Cr  Cr9  1  0.254028  0.966739  0.530496  1
  O  O10  1  0.919152  0.062320  0.293883  1
  O  O11  1  0.775077  0.006812  0.627760  1
  O  O12  1  0.997992  0.366373  0.223290  1
  O  O13  1  0.701711  0.087300  0.940302  1
  O  O14  1  0.581169  0.205272  0.435537  1
  O  O15  1  0.867226  0.497121  0.722610  1
  O  O16  1  0.500091  0.279869  0.133227  1
  O  O17  1  0.795455  0.560330  0.420937  1
  O  O18  1  0.940302  0.701711  0.087300  1
  O  O19  1  0.560330  0.420937  0.795455  1
  O  O20  1  0.366373  0.223290  0.997992  1
  O  O21  1  0.279869  0.133227  0.500091  1
  O  O22  1  0.722610  0.867226  0.497121  1
  O  O23  1  0.627760  0.775077  0.006812  1
  O  O24  1  0.435537  0.581169  0.205272  1
  O  O25  1  0.062320  0.293883  0.919152  1
  O  O26  1  0.205272  0.435537  0.581169  1
  O  O27  1  0.497121  0.722610  0.867226  1
  O  O28  1  0.133227  0.500091  0.279869  1
  O  O29  1  0.420937  0.795455  0.560330  1
  O  O30  1  0.293883  0.919152  0.062320  1
  O  O31  1  0.006812  0.627760  0.775077  1
  O  O32  1  0.223290  0.997992  0.366373  1
  O  O33  1  0.087300  0.940302  0.701711  1
