# generated using pymatgen
data_Na3LiCr2F12
_symmetry_space_group_name_H-M   'P 1'
_cell_length_a   5.17050100
_cell_length_b   5.17050100
_cell_length_c   18.26964500
_cell_angle_alpha   90.00000000
_cell_angle_beta   90.00000000
_cell_angle_gamma   90.00000000
_symmetry_Int_Tables_number   1
_chemical_formula_structural   Na3LiCr2F12
_chemical_formula_sum   'Na6 Li2 Cr4 F24'
_cell_volume   488.42216180
_cell_formula_units_Z   2
loop_
 _symmetry_equiv_pos_site_id
 _symmetry_equiv_pos_as_xyz
  1  'x, y, z'
loop_
 _atom_site_type_symbol
 _atom_site_label
 _atom_site_symmetry_multiplicity
 _atom_site_fract_x
 _atom_site_fract_y
 _atom_site_fract_z
 _atom_site_occupancy
  Na  Na0  1  0.000000  0.500000  0.306853  1
  Na  Na1  1  0.500000  0.000000  0.693147  1
  Na  Na2  1  0.500000  0.000000  0.193147  1
  Na  Na3  1  0.000000  0.500000  0.806853  1
  Na  Na4  1  0.000000  0.000000  0.500000  1
  Na  Na5  1  0.500000  0.500000  0.000000  1
  Li  Li6  1  0.000000  0.000000  0.000000  1
  Li  Li7  1  0.500000  0.500000  0.500000  1
  Cr  Cr8  1  0.000000  0.500000  0.123566  1
  Cr  Cr9  1  0.500000  0.000000  0.876434  1
  Cr  Cr10  1  0.500000  0.000000  0.376434  1
  Cr  Cr11  1  0.000000  0.500000  0.623566  1
  F  F12  1  0.211413  0.206500  0.381117  1
  F  F13  1  0.788587  0.793500  0.381117  1
  F  F14  1  0.206500  0.788587  0.618883  1
  F  F15  1  0.288587  0.706500  0.118883  1
  F  F16  1  0.793500  0.211413  0.618883  1
  F  F17  1  0.711413  0.293500  0.118883  1
  F  F18  1  0.293500  0.288587  0.881117  1
  F  F19  1  0.706500  0.711413  0.881117  1
  F  F20  1  0.147258  0.296596  0.196172  1
  F  F21  1  0.852742  0.703404  0.196172  1
  F  F22  1  0.296596  0.852742  0.803828  1
  F  F23  1  0.352742  0.796596  0.303828  1
  F  F24  1  0.703404  0.147258  0.803828  1
  F  F25  1  0.647258  0.203404  0.303828  1
  F  F26  1  0.203404  0.352742  0.696172  1
  F  F27  1  0.796596  0.647258  0.696172  1
  F  F28  1  0.149532  0.287154  0.050254  1
  F  F29  1  0.850468  0.712846  0.050254  1
  F  F30  1  0.287154  0.850468  0.949746  1
  F  F31  1  0.350468  0.787154  0.449746  1
  F  F32  1  0.712846  0.149532  0.949746  1
  F  F33  1  0.649532  0.212846  0.449746  1
  F  F34  1  0.212846  0.350468  0.550254  1
  F  F35  1  0.787154  0.649532  0.550254  1
