# generated using pymatgen
data_Ce3Ho7(Pb3C)2
_symmetry_space_group_name_H-M   'P 1'
_cell_length_a   9.09193586
_cell_length_b   9.11961507
_cell_length_c   6.58867100
_cell_angle_alpha   90.00000000
_cell_angle_beta   90.00000000
_cell_angle_gamma   119.67282174
_symmetry_Int_Tables_number   1
_chemical_formula_structural   Ce3Ho7(Pb3C)2
_chemical_formula_sum   'Ce3 Ho7 Pb6 C2'
_cell_volume   474.66117997
_cell_formula_units_Z   1
loop_
 _symmetry_equiv_pos_site_id
 _symmetry_equiv_pos_as_xyz
  1  'x, y, z'
loop_
 _atom_site_type_symbol
 _atom_site_label
 _atom_site_symmetry_multiplicity
 _atom_site_fract_x
 _atom_site_fract_y
 _atom_site_fract_z
 _atom_site_occupancy
  Ce  Ce0  1  0.212657  0.998920  0.250000  1
  Ce  Ce1  1  0.787672  0.999607  0.750000  1
  Ce  Ce2  1  0.999675  0.211169  0.250000  1
  Ho  Ho3  1  0.000671  0.786747  0.750000  1
  Ho  Ho4  1  0.786419  0.785633  0.250000  1
  Ho  Ho5  1  0.212942  0.211803  0.750000  1
  Ho  Ho6  1  0.332937  0.666820  0.999596  1
  Ho  Ho7  1  0.666901  0.334151  0.999625  1
  Ho  Ho8  1  0.666901  0.334151  0.500375  1
  Ho  Ho9  1  0.332937  0.666820  0.500404  1
  Pb  Pb10  1  0.593088  0.998204  0.250000  1
  Pb  Pb11  1  0.404067  0.000048  0.750000  1
  Pb  Pb12  1  0.998791  0.593724  0.250000  1
  Pb  Pb13  1  0.001837  0.406736  0.750000  1
  Pb  Pb14  1  0.407892  0.407713  0.250000  1
  Pb  Pb15  1  0.594975  0.593536  0.750000  1
  C  C16  1  0.999819  0.002109  0.000739  1
  C  C17  1  0.999819  0.002109  0.499261  1
