# generated using pymatgen
data_AcTb(ReH9)2
_symmetry_space_group_name_H-M   'P 1'
_cell_length_a   5.01208813
_cell_length_b   5.01207131
_cell_length_c   8.68508800
_cell_angle_alpha   90.68494949
_cell_angle_beta   89.31315504
_cell_angle_gamma   120.82828989
_symmetry_Int_Tables_number   1
_chemical_formula_structural   AcTb(ReH9)2
_chemical_formula_sum   'Ac1 Tb1 Re2 H18'
_cell_volume   187.33287525
_cell_formula_units_Z   1
loop_
 _symmetry_equiv_pos_site_id
 _symmetry_equiv_pos_as_xyz
  1  'x, y, z'
loop_
 _atom_site_type_symbol
 _atom_site_label
 _atom_site_symmetry_multiplicity
 _atom_site_fract_x
 _atom_site_fract_y
 _atom_site_fract_z
 _atom_site_occupancy
  Ac  Ac0  1  0.000000  0.000000  0.500000  1
  Tb  Tb1  1  0.000000  0.000000  0.000000  1
  Re  Re2  1  0.325589  0.674360  0.759677  1
  Re  Re3  1  0.674411  0.325640  0.240323  1
  H  H4  1  0.470841  0.529122  0.620198  1
  H  H5  1  0.529159  0.470878  0.379802  1
  H  H6  1  0.446694  0.553210  0.915363  1
  H  H7  1  0.553306  0.446790  0.084637  1
  H  H8  1  0.459670  0.959911  0.897474  1
  H  H9  1  0.960018  0.459789  0.102551  1
  H  H10  1  0.482269  0.966110  0.621852  1
  H  H11  1  0.966130  0.482305  0.378152  1
  H  H12  1  0.540330  0.040089  0.102526  1
  H  H13  1  0.039982  0.540211  0.897449  1
  H  H14  1  0.517731  0.033890  0.378148  1
  H  H15  1  0.033870  0.517695  0.621848  1
  H  H16  1  0.728708  0.869120  0.769301  1
  H  H17  1  0.869164  0.728761  0.230711  1
  H  H18  1  0.271292  0.130880  0.230699  1
  H  H19  1  0.130836  0.271239  0.769289  1
  H  H20  1  0.128200  0.871737  0.762304  1
  H  H21  1  0.871800  0.128263  0.237696  1
