# generated using pymatgen
data_TbErThSi2
_symmetry_space_group_name_H-M   'P 1'
_cell_length_a   7.57347762
_cell_length_b   7.57347762
_cell_length_c   4.22586100
_cell_angle_alpha   90.00000000
_cell_angle_beta   90.00000000
_cell_angle_gamma   90.13965584
_symmetry_Int_Tables_number   1
_chemical_formula_structural   TbErThSi2
_chemical_formula_sum   'Tb2 Er2 Th2 Si4'
_cell_volume   242.38436989
_cell_formula_units_Z   2
loop_
 _symmetry_equiv_pos_site_id
 _symmetry_equiv_pos_as_xyz
  1  'x, y, z'
loop_
 _atom_site_type_symbol
 _atom_site_label
 _atom_site_symmetry_multiplicity
 _atom_site_fract_x
 _atom_site_fract_y
 _atom_site_fract_z
 _atom_site_occupancy
  Tb  Tb0  1  0.174323  0.325677  0.500000  1
  Tb  Tb1  1  0.825677  0.674323  0.500000  1
  Er  Er2  1  0.000000  0.000000  0.000000  1
  Er  Er3  1  0.500000  0.500000  0.000000  1
  Th  Th4  1  0.321160  0.821160  0.500000  1
  Th  Th5  1  0.678840  0.178840  0.500000  1
  Si  Si6  1  0.620244  0.879756  0.000000  1
  Si  Si7  1  0.379756  0.120244  0.000000  1
  Si  Si8  1  0.885096  0.385096  0.000000  1
  Si  Si9  1  0.114904  0.614904  0.000000  1
