# generated using pymatgen
data_Nd2Dy2Al3ZnPt4
_symmetry_space_group_name_H-M   'P 1'
_cell_length_a   4.45967100
_cell_length_b   6.95709082
_cell_length_c   7.89291441
_cell_angle_alpha   89.92244725
_cell_angle_beta   90.00000000
_cell_angle_gamma   90.00000000
_symmetry_Int_Tables_number   1
_chemical_formula_structural   Nd2Dy2Al3ZnPt4
_chemical_formula_sum   'Nd2 Dy2 Al3 Zn1 Pt4'
_cell_volume   244.88799158
_cell_formula_units_Z   1
loop_
 _symmetry_equiv_pos_site_id
 _symmetry_equiv_pos_as_xyz
  1  'x, y, z'
loop_
 _atom_site_type_symbol
 _atom_site_label
 _atom_site_symmetry_multiplicity
 _atom_site_fract_x
 _atom_site_fract_y
 _atom_site_fract_z
 _atom_site_occupancy
  Nd  Nd0  1  0.750000  0.534381  0.823928  1
  Nd  Nd1  1  0.750000  0.028617  0.680777  1
  Dy  Dy2  1  0.250000  0.470023  0.184792  1
  Dy  Dy3  1  0.250000  0.969452  0.310344  1
  Al  Al4  1  0.750000  0.145014  0.066907  1
  Al  Al5  1  0.750000  0.642095  0.435334  1
  Al  Al6  1  0.250000  0.352309  0.560122  1
  Zn  Zn7  1  0.250000  0.849375  0.936998  1
  Pt  Pt8  1  0.250000  0.722520  0.600157  1
  Pt  Pt9  1  0.750000  0.276286  0.378768  1
  Pt  Pt10  1  0.750000  0.776400  0.130660  1
  Pt  Pt11  1  0.250000  0.233529  0.891209  1
