# generated using pymatgen
data_Th2Zn19Ag3
_symmetry_space_group_name_H-M   'P 1'
_cell_length_a   8.33746942
_cell_length_b   8.36683971
_cell_length_c   8.35101498
_cell_angle_alpha   100.06684779
_cell_angle_beta   99.75142808
_cell_angle_gamma   131.03268844
_symmetry_Int_Tables_number   1
_chemical_formula_structural   Th2Zn19Ag3
_chemical_formula_sum   'Th2 Zn19 Ag3'
_cell_volume   399.76327982
_cell_formula_units_Z   1
loop_
 _symmetry_equiv_pos_site_id
 _symmetry_equiv_pos_as_xyz
  1  'x, y, z'
loop_
 _atom_site_type_symbol
 _atom_site_label
 _atom_site_symmetry_multiplicity
 _atom_site_fract_x
 _atom_site_fract_y
 _atom_site_fract_z
 _atom_site_occupancy
  Th  Th0  1  0.750927  0.252220  0.502277  1
  Th  Th1  1  0.000974  0.999096  0.999802  1
  Zn  Zn2  1  0.374378  0.622203  0.251093  1
  Zn  Zn3  1  0.374837  0.125235  0.749400  1
  Zn  Zn4  1  0.371810  0.621478  0.745842  1
  Zn  Zn5  1  0.874197  0.624931  0.250166  1
  Zn  Zn6  1  0.819945  0.491791  0.913768  1
  Zn  Zn7  1  0.934326  0.351201  0.171961  1
  Zn  Zn8  1  0.172937  0.758971  0.828435  1
  Zn  Zn9  1  0.096661  0.424406  0.914503  1
  Zn  Zn10  1  0.507036  0.181095  0.084693  1
  Zn  Zn11  1  0.930128  0.758647  0.586149  1
  Zn  Zn12  1  0.821456  0.903810  0.331721  1
  Zn  Zn13  1  0.578297  0.492097  0.671877  1
  Zn  Zn14  1  0.656067  0.827605  0.586776  1
  Zn  Zn15  1  0.242786  0.071286  0.415168  1
  Zn  Zn16  1  0.093480  0.178821  0.671602  1
  Zn  Zn17  1  0.508115  0.421635  0.328779  1
  Zn  Zn18  1  0.657086  0.072371  0.825614  1
  Zn  Zn19  1  0.237682  0.826442  0.173057  1
  Zn  Zn20  1  0.169775  0.341520  0.412402  1
  Ag  Ag21  1  0.250252  0.750819  0.500526  1
  Ag  Ag22  1  0.498202  0.495090  0.998006  1
  Ag  Ag23  1  0.578638  0.907225  0.086380  1
