# generated using pymatgen
data_Zr5Mn4Co12(TcP4)3
_symmetry_space_group_name_H-M   'P 1'
_cell_length_a   11.93161400
_cell_length_b   11.94775551
_cell_length_c   3.66063100
_cell_angle_alpha   90.00000000
_cell_angle_beta   90.00000000
_cell_angle_gamma   119.95397208
_symmetry_Int_Tables_number   1
_chemical_formula_structural   Zr5Mn4Co12(TcP4)3
_chemical_formula_sum   'Zr5 Mn4 Co12 Tc3 P12'
_cell_volume   452.14043660
_cell_formula_units_Z   1
loop_
 _symmetry_equiv_pos_site_id
 _symmetry_equiv_pos_as_xyz
  1  'x, y, z'
loop_
 _atom_site_type_symbol
 _atom_site_label
 _atom_site_symmetry_multiplicity
 _atom_site_fract_x
 _atom_site_fract_y
 _atom_site_fract_z
 _atom_site_occupancy
  Zr  Zr0  1  0.666761  0.333091  0.000000  1
  Zr  Zr1  1  0.335858  0.668253  0.000000  1
  Zr  Zr2  1  0.819899  0.820516  0.500000  1
  Zr  Zr3  1  0.180129  0.999998  0.500000  1
  Zr  Zr4  1  0.000357  0.180181  0.500000  1
  Mn  Mn5  1  0.198827  0.375572  0.000000  1
  Mn  Mn6  1  0.176980  0.802305  0.000000  1
  Mn  Mn7  1  0.123754  0.476442  0.500000  1
  Mn  Mn8  1  0.355280  0.877146  0.500000  1
  Co  Co9  1  0.819784  0.626450  0.000000  1
  Co  Co10  1  0.803577  0.178910  0.000000  1
  Co  Co11  1  0.375280  0.195974  0.000000  1
  Co  Co12  1  0.519479  0.645835  0.500000  1
  Co  Co13  1  0.645766  0.516861  0.500000  1
  Co  Co14  1  0.869212  0.355357  0.500000  1
  Co  Co15  1  0.486173  0.130816  0.500000  1
  Co  Co16  1  0.998955  0.999085  0.000000  1
  Co  Co17  1  0.718453  0.999598  0.500000  1
  Co  Co18  1  0.996144  0.716896  0.500000  1
  Co  Co19  1  0.626835  0.821149  0.000000  1
  Co  Co20  1  0.283576  0.280350  0.500000  1
  Tc  Tc21  1  0.449342  0.447286  0.000000  1
  Tc  Tc22  1  0.551399  0.000055  0.000000  1
  Tc  Tc23  1  0.997354  0.550903  0.000000  1
  P  P24  1  0.641482  0.642230  0.000000  1
  P  P25  1  0.357756  0.002586  0.000000  1
  P  P26  1  0.997100  0.355048  0.000000  1
  P  P27  1  0.482475  0.316043  0.500000  1
  P  P28  1  0.685558  0.165888  0.500000  1
  P  P29  1  0.833042  0.518746  0.500000  1
  P  P30  1  0.519667  0.833510  0.500000  1
  P  P31  1  0.165292  0.683776  0.500000  1
  P  P32  1  0.823135  0.000363  0.000000  1
  P  P33  1  0.000659  0.824072  0.000000  1
  P  P34  1  0.318831  0.482560  0.500000  1
  P  P35  1  0.175829  0.176151  0.000000  1
