# generated using pymatgen
data_BaReSb12Ru2Au
_symmetry_space_group_name_H-M   'P 1'
_cell_length_a   8.29125421
_cell_length_b   8.27686461
_cell_length_c   8.26559716
_cell_angle_alpha   109.46262731
_cell_angle_beta   109.55377217
_cell_angle_gamma   109.60385424
_symmetry_Int_Tables_number   1
_chemical_formula_structural   BaReSb12Ru2Au
_chemical_formula_sum   'Ba1 Re1 Sb12 Ru2 Au1'
_cell_volume   435.53761855
_cell_formula_units_Z   1
loop_
 _symmetry_equiv_pos_site_id
 _symmetry_equiv_pos_as_xyz
  1  'x, y, z'
loop_
 _atom_site_type_symbol
 _atom_site_label
 _atom_site_symmetry_multiplicity
 _atom_site_fract_x
 _atom_site_fract_y
 _atom_site_fract_z
 _atom_site_occupancy
  Ba  Ba0  1  0.000000  0.000000  0.000000  1
  Re  Re1  1  0.500000  0.500000  0.500000  1
  Sb  Sb2  1  0.163335  0.805290  0.661690  1
  Sb  Sb3  1  0.158860  0.498573  0.337570  1
  Sb  Sb4  1  0.501099  0.661345  0.840086  1
  Sb  Sb5  1  0.339655  0.840428  0.178613  1
  Sb  Sb6  1  0.805658  0.641423  0.143031  1
  Sb  Sb7  1  0.641699  0.837909  0.498310  1
  Sb  Sb8  1  0.194342  0.358577  0.856969  1
  Sb  Sb9  1  0.660345  0.159572  0.821387  1
  Sb  Sb10  1  0.358301  0.162091  0.501690  1
  Sb  Sb11  1  0.498901  0.338655  0.159914  1
  Sb  Sb12  1  0.841140  0.501427  0.662430  1
  Sb  Sb13  1  0.836665  0.194710  0.338310  1
  Ru  Ru14  1  0.500000  0.000000  0.000000  1
  Ru  Ru15  1  0.000000  0.500000  0.000000  1
  Au  Au16  1  0.000000  0.000000  0.500000  1
