# generated using pymatgen
data_Dy3Sc(ZnGa)4
_symmetry_space_group_name_H-M   'P 1'
_cell_length_a   4.41927000
_cell_length_b   7.60444474
_cell_length_c   7.15321300
_cell_angle_alpha   89.97466144
_cell_angle_beta   90.00000000
_cell_angle_gamma   90.00000000
_symmetry_Int_Tables_number   1
_chemical_formula_structural   Dy3Sc(ZnGa)4
_chemical_formula_sum   'Dy3 Sc1 Zn4 Ga4'
_cell_volume   240.39152871
_cell_formula_units_Z   1
loop_
 _symmetry_equiv_pos_site_id
 _symmetry_equiv_pos_as_xyz
  1  'x, y, z'
loop_
 _atom_site_type_symbol
 _atom_site_label
 _atom_site_symmetry_multiplicity
 _atom_site_fract_x
 _atom_site_fract_y
 _atom_site_fract_z
 _atom_site_occupancy
  Dy  Dy0  1  0.250000  0.245257  0.001234  1
  Dy  Dy1  1  0.750000  0.744878  0.501499  1
  Dy  Dy2  1  0.750000  0.756182  0.001130  1
  Sc  Sc3  1  0.250000  0.253066  0.501181  1
  Zn  Zn4  1  0.250000  0.917365  0.231240  1
  Zn  Zn5  1  0.250000  0.578325  0.713280  1
  Zn  Zn6  1  0.750000  0.088653  0.698879  1
  Zn  Zn7  1  0.750000  0.415976  0.216185  1
  Ga  Ga8  1  0.250000  0.918267  0.772480  1
  Ga  Ga9  1  0.250000  0.577557  0.285019  1
  Ga  Ga10  1  0.750000  0.089444  0.296290  1
  Ga  Ga11  1  0.750000  0.415029  0.781586  1
