# generated using pymatgen
data_PrNd5PtAu7
_symmetry_space_group_name_H-M   'P 1'
_cell_length_a   8.24487591
_cell_length_b   8.25997466
_cell_length_c   8.24686015
_cell_angle_alpha   113.85127976
_cell_angle_beta   113.70766755
_cell_angle_gamma   113.76607498
_symmetry_Int_Tables_number   1
_chemical_formula_structural   PrNd5PtAu7
_chemical_formula_sum   'Pr1 Nd5 Pt1 Au7'
_cell_volume   346.83852273
_cell_formula_units_Z   1
loop_
 _symmetry_equiv_pos_site_id
 _symmetry_equiv_pos_as_xyz
  1  'x, y, z'
loop_
 _atom_site_type_symbol
 _atom_site_label
 _atom_site_symmetry_multiplicity
 _atom_site_fract_x
 _atom_site_fract_y
 _atom_site_fract_z
 _atom_site_occupancy
  Pr  Pr0  1  0.268252  0.388595  0.017061  1
  Nd  Nd1  1  0.388401  0.017609  0.267849  1
  Nd  Nd2  1  0.017085  0.267721  0.387984  1
  Nd  Nd3  1  0.732473  0.611694  0.982920  1
  Nd  Nd4  1  0.611436  0.982438  0.732008  1
  Nd  Nd5  1  0.982952  0.732153  0.611757  1
  Pt  Pt6  1  0.998815  0.998465  0.999690  1
  Au  Au7  1  0.500642  0.500366  0.501336  1
  Au  Au8  1  0.572490  0.235874  0.074460  1
  Au  Au9  1  0.236092  0.074314  0.571341  1
  Au  Au10  1  0.073892  0.571989  0.236605  1
  Au  Au11  1  0.428271  0.764068  0.925405  1
  Au  Au12  1  0.764430  0.926063  0.428331  1
  Au  Au13  1  0.924769  0.428651  0.763250  1
