# generated using pymatgen
data_Tb4Fe4P12Ru7Rh9
_symmetry_space_group_name_H-M   'P 1'
_cell_length_a   3.86453200
_cell_length_b   10.73529887
_cell_length_c   12.35109263
_cell_angle_alpha   90.08580187
_cell_angle_beta   90.00000000
_cell_angle_gamma   90.00000000
_symmetry_Int_Tables_number   1
_chemical_formula_structural   Tb4Fe4P12Ru7Rh9
_chemical_formula_sum   'Tb4 Fe4 P12 Ru7 Rh9'
_cell_volume   512.40804439
_cell_formula_units_Z   1
loop_
 _symmetry_equiv_pos_site_id
 _symmetry_equiv_pos_as_xyz
  1  'x, y, z'
loop_
 _atom_site_type_symbol
 _atom_site_label
 _atom_site_symmetry_multiplicity
 _atom_site_fract_x
 _atom_site_fract_y
 _atom_site_fract_z
 _atom_site_occupancy
  Tb  Tb0  1  0.250000  0.583090  0.706391  1
  Tb  Tb1  1  0.250000  0.916724  0.207698  1
  Tb  Tb2  1  0.750000  0.416526  0.293796  1
  Tb  Tb3  1  0.750000  0.083669  0.792461  1
  Fe  Fe4  1  0.250000  0.462607  0.935205  1
  Fe  Fe5  1  0.250000  0.037830  0.435249  1
  Fe  Fe6  1  0.750000  0.537388  0.064127  1
  Fe  Fe7  1  0.750000  0.962084  0.564432  1
  P  P8  1  0.250000  0.428483  0.106853  1
  P  P9  1  0.250000  0.071795  0.606792  1
  P  P10  1  0.750000  0.571756  0.892478  1
  P  P11  1  0.750000  0.928774  0.392892  1
  P  P12  1  0.250000  0.269255  0.873780  1
  P  P13  1  0.250000  0.230542  0.374068  1
  P  P14  1  0.750000  0.727873  0.128645  1
  P  P15  1  0.750000  0.769685  0.625835  1
  P  P16  1  0.250000  0.597209  0.396066  1
  P  P17  1  0.250000  0.901276  0.891833  1
  P  P18  1  0.750000  0.402324  0.604318  1
  P  P19  1  0.750000  0.101271  0.105848  1
  Ru  Ru20  1  0.250000  0.710081  0.987598  1
  Ru  Ru21  1  0.250000  0.792425  0.485772  1
  Ru  Ru22  1  0.750000  0.291296  0.012395  1
  Ru  Ru23  1  0.750000  0.207742  0.513610  1
  Ru  Ru24  1  0.250000  0.403735  0.488283  1
  Ru  Ru25  1  0.250000  0.093832  0.988409  1
  Ru  Ru26  1  0.750000  0.596335  0.511986  1
  Rh  Rh27  1  0.750000  0.904042  0.014534  1
  Rh  Rh28  1  0.250000  0.232636  0.178219  1
  Rh  Rh29  1  0.250000  0.266835  0.679030  1
  Rh  Rh30  1  0.750000  0.768413  0.821669  1
  Rh  Rh31  1  0.750000  0.733075  0.321410  1
  Rh  Rh32  1  0.250000  0.885055  0.700929  1
  Rh  Rh33  1  0.250000  0.614011  0.202852  1
  Rh  Rh34  1  0.750000  0.114369  0.297544  1
  Rh  Rh35  1  0.750000  0.385959  0.796991  1
