# generated using pymatgen
data_SrTb4Tm2NiI12
_symmetry_space_group_name_H-M   'P 1'
_cell_length_a   9.75557884
_cell_length_b   9.75320547
_cell_length_c   9.75523872
_cell_angle_alpha   106.28577263
_cell_angle_beta   106.07997514
_cell_angle_gamma   106.09137156
_symmetry_Int_Tables_number   1
_chemical_formula_structural   SrTb4Tm2NiI12
_chemical_formula_sum   'Sr1 Tb4 Tm2 Ni1 I12'
_cell_volume   790.19838342
_cell_formula_units_Z   1
loop_
 _symmetry_equiv_pos_site_id
 _symmetry_equiv_pos_as_xyz
  1  'x, y, z'
loop_
 _atom_site_type_symbol
 _atom_site_label
 _atom_site_symmetry_multiplicity
 _atom_site_fract_x
 _atom_site_fract_y
 _atom_site_fract_z
 _atom_site_occupancy
  Sr  Sr0  1  0.499641  0.499785  0.499705  1
  Tb  Tb1  1  0.979966  0.708366  0.906430  1
  Tb  Tb2  1  0.091547  0.020354  0.291311  1
  Tb  Tb3  1  0.291445  0.092590  0.019970  1
  Tb  Tb4  1  0.019808  0.291580  0.092274  1
  Tm  Tm5  1  0.908457  0.979317  0.714533  1
  Tm  Tm6  1  0.714607  0.908750  0.979944  1
  Ni  Ni7  1  0.000905  0.000481  0.000955  1
  I  I8  1  0.924348  0.320159  0.773073  1
  I  I9  1  0.774120  0.925318  0.321643  1
  I  I10  1  0.326249  0.776690  0.925957  1
  I  I11  1  0.074156  0.675538  0.223170  1
  I  I12  1  0.217885  0.072596  0.674542  1
  I  I13  1  0.674308  0.218679  0.072713  1
  I  I14  1  0.554705  0.866945  0.634062  1
  I  I15  1  0.630065  0.554282  0.866422  1
  I  I16  1  0.864833  0.634110  0.549668  1
  I  I17  1  0.449055  0.134941  0.368969  1
  I  I18  1  0.369164  0.449984  0.135152  1
  I  I19  1  0.134737  0.369535  0.449508  1
