# generated using pymatgen
data_Zr10Be2AlSb5
_symmetry_space_group_name_H-M   'P 1'
_cell_length_a   8.54449100
_cell_length_b   8.56751458
_cell_length_c   5.78692800
_cell_angle_alpha   90.00000000
_cell_angle_beta   90.00000000
_cell_angle_gamma   119.91114034
_symmetry_Int_Tables_number   1
_chemical_formula_structural   Zr10Be2AlSb5
_chemical_formula_sum   'Zr10 Be2 Al1 Sb5'
_cell_volume   367.20444922
_cell_formula_units_Z   1
loop_
 _symmetry_equiv_pos_site_id
 _symmetry_equiv_pos_as_xyz
  1  'x, y, z'
loop_
 _atom_site_type_symbol
 _atom_site_label
 _atom_site_symmetry_multiplicity
 _atom_site_fract_x
 _atom_site_fract_y
 _atom_site_fract_z
 _atom_site_occupancy
  Zr  Zr0  1  0.260966  0.000000  0.250000  1
  Zr  Zr1  1  0.251067  0.249860  0.750000  1
  Zr  Zr2  1  0.001206  0.750140  0.750000  1
  Zr  Zr3  1  0.992097  0.253616  0.250000  1
  Zr  Zr4  1  0.738481  0.746384  0.250000  1
  Zr  Zr5  1  0.750816  0.000000  0.750000  1
  Zr  Zr6  1  0.335032  0.668146  0.002778  1
  Zr  Zr7  1  0.666887  0.331854  0.497222  1
  Zr  Zr8  1  0.666887  0.331854  0.002778  1
  Zr  Zr9  1  0.335032  0.668146  0.497222  1
  Be  Be10  1  0.999559  0.000000  0.018129  1
  Be  Be11  1  0.999559  0.000000  0.481871  1
  Al  Al12  1  0.611365  0.000000  0.250000  1
  Sb  Sb13  1  0.609731  0.609356  0.750000  1
  Sb  Sb14  1  0.000374  0.390644  0.750000  1
  Sb  Sb15  1  0.999017  0.614191  0.250000  1
  Sb  Sb16  1  0.384825  0.385809  0.250000  1
  Sb  Sb17  1  0.397102  0.000000  0.750000  1
