# generated using pymatgen
data_Li4ReNi9P7
_symmetry_space_group_name_H-M   'P 1'
_cell_length_a   8.95126600
_cell_length_b   8.97451001
_cell_length_c   3.57207800
_cell_angle_alpha   90.00000000
_cell_angle_beta   90.00000000
_cell_angle_gamma   120.12387419
_symmetry_Int_Tables_number   1
_chemical_formula_structural   Li4ReNi9P7
_chemical_formula_sum   'Li4 Re1 Ni9 P7'
_cell_volume   248.20088015
_cell_formula_units_Z   1
loop_
 _symmetry_equiv_pos_site_id
 _symmetry_equiv_pos_as_xyz
  1  'x, y, z'
loop_
 _atom_site_type_symbol
 _atom_site_label
 _atom_site_symmetry_multiplicity
 _atom_site_fract_x
 _atom_site_fract_y
 _atom_site_fract_z
 _atom_site_occupancy
  Li  Li0  1  0.442383  0.211242  0.500000  1
  Li  Li1  1  0.789344  0.233427  0.500000  1
  Li  Li2  1  0.335427  0.671438  0.000000  1
  Li  Li3  1  0.997225  0.002742  0.500000  1
  Re  Re4  1  0.758790  0.548081  0.500000  1
  Ni  Ni5  1  0.277672  0.377000  0.500000  1
  Ni  Ni6  1  0.620277  0.897357  0.500000  1
  Ni  Ni7  1  0.108252  0.720807  0.500000  1
  Ni  Ni8  1  0.497148  0.449809  0.000000  1
  Ni  Ni9  1  0.549211  0.054087  0.000000  1
  Ni  Ni10  1  0.955942  0.497221  0.000000  1
  Ni  Ni11  1  0.725887  0.766385  0.000000  1
  Ni  Ni12  1  0.234100  0.959644  0.000000  1
  Ni  Ni13  1  0.039810  0.275885  0.000000  1
  P  P14  1  0.963985  0.754079  0.000000  1
  P  P15  1  0.238247  0.205024  0.000000  1
  P  P16  1  0.790155  0.035558  0.000000  1
  P  P17  1  0.670728  0.338350  0.000000  1
  P  P18  1  0.539217  0.622369  0.500000  1
  P  P19  1  0.378812  0.917480  0.500000  1
  P  P20  1  0.087386  0.462014  0.500000  1
