# generated using pymatgen
data_Ac2La2Ga3Si
_symmetry_space_group_name_H-M   'P 1'
_cell_length_a   7.47557120
_cell_length_b   7.47557115
_cell_length_c   7.05936508
_cell_angle_alpha   89.55805620
_cell_angle_beta   90.44194554
_cell_angle_gamma   143.90017509
_symmetry_Int_Tables_number   1
_chemical_formula_structural   Ac2La2Ga3Si
_chemical_formula_sum   'Ac2 La2 Ga3 Si1'
_cell_volume   232.43329857
_cell_formula_units_Z   1
loop_
 _symmetry_equiv_pos_site_id
 _symmetry_equiv_pos_as_xyz
  1  'x, y, z'
loop_
 _atom_site_type_symbol
 _atom_site_label
 _atom_site_symmetry_multiplicity
 _atom_site_fract_x
 _atom_site_fract_y
 _atom_site_fract_z
 _atom_site_occupancy
  Ac  Ac0  1  0.274475  0.725525  0.255099  1
  Ac  Ac1  1  0.723492  0.276508  0.744790  1
  La  La2  1  0.552107  0.447893  0.252914  1
  La  La3  1  0.450696  0.549304  0.749534  1
  Ga  Ga4  1  0.089941  0.910059  0.933581  1
  Ga  Ga5  1  0.909864  0.090136  0.061415  1
  Ga  Ga6  1  0.913375  0.086625  0.439872  1
  Si  Si7  1  0.086049  0.913951  0.562795  1
