# generated using pymatgen
data_TaNbNiF12
_symmetry_space_group_name_H-M   'P 1'
_cell_length_a   5.24210946
_cell_length_b   5.58533790
_cell_length_c   9.26790571
_cell_angle_alpha   104.79991728
_cell_angle_beta   90.67967409
_cell_angle_gamma   118.99630739
_symmetry_Int_Tables_number   1
_chemical_formula_structural   TaNbNiF12
_chemical_formula_sum   'Ta1 Nb1 Ni1 F12'
_cell_volume   226.49314454
_cell_formula_units_Z   1
loop_
 _symmetry_equiv_pos_site_id
 _symmetry_equiv_pos_as_xyz
  1  'x, y, z'
loop_
 _atom_site_type_symbol
 _atom_site_label
 _atom_site_symmetry_multiplicity
 _atom_site_fract_x
 _atom_site_fract_y
 _atom_site_fract_z
 _atom_site_occupancy
  Ta  Ta0  1  0.223814  0.495949  0.741866  1
  Nb  Nb1  1  0.776648  0.505285  0.259906  1
  Ni  Ni2  1  0.999753  0.000020  0.999715  1
  F  F3  1  0.812613  0.259295  0.707874  1
  F  F4  1  0.189559  0.742054  0.291159  1
  F  F5  1  0.181692  0.753242  0.924040  1
  F  F6  1  0.701868  0.723008  0.425435  1
  F  F7  1  0.296159  0.277711  0.576588  1
  F  F8  1  0.782293  0.260700  0.364819  1
  F  F9  1  0.217954  0.737137  0.635658  1
  F  F10  1  0.344582  0.255762  0.174932  1
  F  F11  1  0.653592  0.743321  0.823735  1
  F  F12  1  0.773100  0.735443  0.124029  1
  F  F13  1  0.228062  0.265858  0.875024  1
  F  F14  1  0.818311  0.245216  0.075219  1
