# generated using pymatgen
data_Zr4BBr6
_symmetry_space_group_name_H-M   'P 1'
_cell_length_a   3.67542700
_cell_length_b   12.60786444
_cell_length_c   13.02937300
_cell_angle_alpha   89.72956801
_cell_angle_beta   90.00000000
_cell_angle_gamma   90.00000000
_symmetry_Int_Tables_number   1
_chemical_formula_structural   Zr4BBr6
_chemical_formula_sum   'Zr8 B2 Br12'
_cell_volume   603.76510824
_cell_formula_units_Z   2
loop_
 _symmetry_equiv_pos_site_id
 _symmetry_equiv_pos_as_xyz
  1  'x, y, z'
loop_
 _atom_site_type_symbol
 _atom_site_label
 _atom_site_symmetry_multiplicity
 _atom_site_fract_x
 _atom_site_fract_y
 _atom_site_fract_z
 _atom_site_occupancy
  Zr  Zr0  1  0.000000  0.095587  0.076271  1
  Zr  Zr1  1  0.000000  0.904396  0.923643  1
  Zr  Zr2  1  0.000000  0.595946  0.423457  1
  Zr  Zr3  1  0.000000  0.404249  0.576824  1
  Zr  Zr4  1  0.500000  0.115929  0.864229  1
  Zr  Zr5  1  0.500000  0.884170  0.135780  1
  Zr  Zr6  1  0.500000  0.615609  0.635393  1
  Zr  Zr7  1  0.500000  0.384459  0.364710  1
  B  B8  1  0.500000  0.999968  0.999941  1
  B  B9  1  0.500000  0.499973  0.500010  1
  Br  Br10  1  0.500000  0.266831  0.681230  1
  Br  Br11  1  0.500000  0.732895  0.318474  1
  Br  Br12  1  0.500000  0.767479  0.819048  1
  Br  Br13  1  0.500000  0.232260  0.180675  1
  Br  Br14  1  0.000000  0.260601  0.934883  1
  Br  Br15  1  0.000000  0.739524  0.065096  1
  Br  Br16  1  0.000000  0.483851  0.240190  1
  Br  Br17  1  0.000000  0.515777  0.760265  1
  Br  Br18  1  0.000000  0.983668  0.260008  1
  Br  Br19  1  0.000000  0.016325  0.740059  1
  Br  Br20  1  0.000000  0.239702  0.435406  1
  Br  Br21  1  0.000000  0.760803  0.564406  1
