# generated using pymatgen
data_Sm3Tm4Th(ReB6)4
_symmetry_space_group_name_H-M   'P 1'
_cell_length_a   3.70832000
_cell_length_b   9.18778460
_cell_length_c   11.61834877
_cell_angle_alpha   89.95843775
_cell_angle_beta   90.00000000
_cell_angle_gamma   90.00000000
_symmetry_Int_Tables_number   1
_chemical_formula_structural   Sm3Tm4Th(ReB6)4
_chemical_formula_sum   'Sm3 Tm4 Th1 Re4 B24'
_cell_volume   395.85150778
_cell_formula_units_Z   1
loop_
 _symmetry_equiv_pos_site_id
 _symmetry_equiv_pos_as_xyz
  1  'x, y, z'
loop_
 _atom_site_type_symbol
 _atom_site_label
 _atom_site_symmetry_multiplicity
 _atom_site_fract_x
 _atom_site_fract_y
 _atom_site_fract_z
 _atom_site_occupancy
  Sm  Sm0  1  0.000000  0.323467  0.414148  1
  Sm  Sm1  1  0.000000  0.677091  0.585229  1
  Sm  Sm2  1  0.000000  0.822004  0.086632  1
  Tm  Tm3  1  0.000000  0.943097  0.370045  1
  Tm  Tm4  1  0.000000  0.056312  0.628861  1
  Tm  Tm5  1  0.000000  0.444121  0.131006  1
  Tm  Tm6  1  0.000000  0.557503  0.869572  1
  Th  Th7  1  0.000000  0.177509  0.914450  1
  Re  Re8  1  0.000000  0.639534  0.319592  1
  Re  Re9  1  0.000000  0.359947  0.680609  1
  Re  Re10  1  0.000000  0.139284  0.180592  1
  Re  Re11  1  0.000000  0.860848  0.819543  1
  B  B12  1  0.500000  0.554460  0.431356  1
  B  B13  1  0.500000  0.445519  0.568426  1
  B  B14  1  0.500000  0.054714  0.069912  1
  B  B15  1  0.500000  0.944232  0.930822  1
  B  B16  1  0.500000  0.750590  0.416765  1
  B  B17  1  0.500000  0.249654  0.582535  1
  B  B18  1  0.500000  0.250636  0.084661  1
  B  B19  1  0.500000  0.748798  0.916703  1
  B  B20  1  0.500000  0.792285  0.265874  1
  B  B21  1  0.500000  0.208308  0.733206  1
  B  B22  1  0.500000  0.292262  0.234813  1
  B  B23  1  0.500000  0.707692  0.765701  1
  B  B24  1  0.500000  0.630180  0.185728  1
  B  B25  1  0.500000  0.370484  0.813648  1
  B  B26  1  0.500000  0.129818  0.314882  1
  B  B27  1  0.500000  0.869310  0.684824  1
  B  B28  1  0.500000  0.983190  0.214055  1
  B  B29  1  0.500000  0.015082  0.785941  1
  B  B30  1  0.500000  0.483693  0.287069  1
  B  B31  1  0.500000  0.516651  0.712756  1
  B  B32  1  0.500000  0.598349  0.027292  1
  B  B33  1  0.500000  0.403663  0.973417  1
  B  B34  1  0.500000  0.097452  0.472727  1
  B  B35  1  0.500000  0.902265  0.526607  1
