# generated using pymatgen
data_Er3In3Cu2Ni
_symmetry_space_group_name_H-M   'P 1'
_cell_length_a   7.42528100
_cell_length_b   7.42528214
_cell_length_c   3.89063100
_cell_angle_alpha   90.00000000
_cell_angle_beta   90.00000000
_cell_angle_gamma   119.99999939
_symmetry_Int_Tables_number   1
_chemical_formula_structural   Er3In3Cu2Ni
_chemical_formula_sum   'Er3 In3 Cu2 Ni1'
_cell_volume   185.77040628
_cell_formula_units_Z   1
loop_
 _symmetry_equiv_pos_site_id
 _symmetry_equiv_pos_as_xyz
  1  'x, y, z'
loop_
 _atom_site_type_symbol
 _atom_site_label
 _atom_site_symmetry_multiplicity
 _atom_site_fract_x
 _atom_site_fract_y
 _atom_site_fract_z
 _atom_site_occupancy
  Er  Er0  1  0.012117  0.592759  0.500000  1
  Er  Er1  1  0.407241  0.419358  0.500000  1
  Er  Er2  1  0.580642  0.987883  0.500000  1
  In  In3  1  0.746198  0.745558  0.000000  1
  In  In4  1  0.999359  0.253802  0.000000  1
  In  In5  1  0.254442  0.000641  0.000000  1
  Cu  Cu6  1  0.000000  0.000000  0.500000  1
  Cu  Cu7  1  0.666667  0.333333  0.000000  1
  Ni  Ni8  1  0.333333  0.666667  0.000000  1
