# generated using pymatgen
data_HfZrTaW3
_symmetry_space_group_name_H-M   'P 1'
_cell_length_a   5.41032621
_cell_length_b   5.41032638
_cell_length_c   5.47504111
_cell_angle_alpha   60.39023730
_cell_angle_beta   60.39023475
_cell_angle_gamma   59.99999837
_symmetry_Int_Tables_number   1
_chemical_formula_structural   HfZrTaW3
_chemical_formula_sum   'Hf1 Zr1 Ta1 W3'
_cell_volume   113.98715667
_cell_formula_units_Z   1
loop_
 _symmetry_equiv_pos_site_id
 _symmetry_equiv_pos_as_xyz
  1  'x, y, z'
loop_
 _atom_site_type_symbol
 _atom_site_label
 _atom_site_symmetry_multiplicity
 _atom_site_fract_x
 _atom_site_fract_y
 _atom_site_fract_z
 _atom_site_occupancy
  Hf  Hf0  1  0.249560  0.249560  0.251320  1
  Zr  Zr1  1  0.000457  0.000457  0.998630  1
  Ta  Ta2  1  0.624945  0.624945  0.125164  1
  W  W3  1  0.624922  0.125194  0.624962  1
  W  W4  1  0.125194  0.624922  0.624962  1
  W  W5  1  0.624922  0.624922  0.624962  1
