# generated using pymatgen
data_ErTmLu6(B6Rh)4
_symmetry_space_group_name_H-M   'P 1'
_cell_length_a   3.59759600
_cell_length_b   9.08036019
_cell_length_c   11.40649400
_cell_angle_alpha   90.01300007
_cell_angle_beta   90.00000000
_cell_angle_gamma   90.00000000
_symmetry_Int_Tables_number   1
_chemical_formula_structural   ErTmLu6(B6Rh)4
_chemical_formula_sum   'Er1 Tm1 Lu6 B24 Rh4'
_cell_volume   372.62126264
_cell_formula_units_Z   1
loop_
 _symmetry_equiv_pos_site_id
 _symmetry_equiv_pos_as_xyz
  1  'x, y, z'
loop_
 _atom_site_type_symbol
 _atom_site_label
 _atom_site_symmetry_multiplicity
 _atom_site_fract_x
 _atom_site_fract_y
 _atom_site_fract_z
 _atom_site_occupancy
  Er  Er0  1  0.500000  0.321726  0.413526  1
  Tm  Tm1  1  0.500000  0.678357  0.586489  1
  Lu  Lu2  1  0.500000  0.178598  0.913663  1
  Lu  Lu3  1  0.500000  0.821377  0.086312  1
  Lu  Lu4  1  0.500000  0.444405  0.126423  1
  Lu  Lu5  1  0.500000  0.555641  0.873549  1
  Lu  Lu6  1  0.500000  0.055551  0.626862  1
  Lu  Lu7  1  0.500000  0.944298  0.373187  1
  B  B8  1  0.000000  0.107155  0.470919  1
  B  B9  1  0.000000  0.892567  0.529161  1
  B  B10  1  0.000000  0.391640  0.970590  1
  B  B11  1  0.000000  0.608384  0.029387  1
  B  B12  1  0.000000  0.132286  0.316416  1
  B  B13  1  0.000000  0.867510  0.683492  1
  B  B14  1  0.000000  0.367212  0.816914  1
  B  B15  1  0.000000  0.632796  0.183067  1
  B  B16  1  0.000000  0.053673  0.064780  1
  B  B17  1  0.000000  0.946327  0.935193  1
  B  B18  1  0.000000  0.446319  0.565457  1
  B  B19  1  0.000000  0.554004  0.434718  1
  B  B20  1  0.000000  0.482214  0.286330  1
  B  B21  1  0.000000  0.518053  0.713536  1
  B  B22  1  0.000000  0.018290  0.787037  1
  B  B23  1  0.000000  0.981663  0.212975  1
  B  B24  1  0.000000  0.250304  0.078806  1
  B  B25  1  0.000000  0.749704  0.921157  1
  B  B26  1  0.000000  0.249307  0.579594  1
  B  B27  1  0.000000  0.750627  0.420645  1
  B  B28  1  0.000000  0.295082  0.235665  1
  B  B29  1  0.000000  0.704840  0.764129  1
  B  B30  1  0.000000  0.204575  0.736606  1
  B  B31  1  0.000000  0.795405  0.263415  1
  Rh  Rh32  1  0.500000  0.139421  0.178628  1
  Rh  Rh33  1  0.500000  0.860483  0.821296  1
  Rh  Rh34  1  0.500000  0.359779  0.679729  1
  Rh  Rh35  1  0.500000  0.640429  0.320349  1
