# generated using pymatgen
data_Sr4SmU5O18
_symmetry_space_group_name_H-M   'P 1'
_cell_length_a   6.93615460
_cell_length_b   7.76711837
_cell_length_c   8.74445268
_cell_angle_alpha   100.66506780
_cell_angle_beta   98.21843550
_cell_angle_gamma   107.16059084
_symmetry_Int_Tables_number   1
_chemical_formula_structural   Sr4SmU5O18
_chemical_formula_sum   'Sr4 Sm1 U5 O18'
_cell_volume   432.44901501
_cell_formula_units_Z   1
loop_
 _symmetry_equiv_pos_site_id
 _symmetry_equiv_pos_as_xyz
  1  'x, y, z'
loop_
 _atom_site_type_symbol
 _atom_site_label
 _atom_site_symmetry_multiplicity
 _atom_site_fract_x
 _atom_site_fract_y
 _atom_site_fract_z
 _atom_site_occupancy
  Sr  Sr0  1  0.801846  0.105327  0.587777  1
  Sr  Sr1  1  0.597764  0.695259  0.194240  1
  Sr  Sr2  1  0.402236  0.304741  0.805760  1
  Sr  Sr3  1  0.198154  0.894673  0.412223  1
  Sm  Sm4  1  0.000000  0.500000  0.000000  1
  U  U5  1  0.000000  0.000000  0.000000  1
  U  U6  1  0.795682  0.582569  0.591362  1
  U  U7  1  0.623745  0.199328  0.196925  1
  U  U8  1  0.376255  0.800672  0.803075  1
  U  U9  1  0.204318  0.417431  0.408638  1
  O  O10  1  0.824991  0.785974  0.472242  1
  O  O11  1  0.998989  0.231354  0.178815  1
  O  O12  1  0.681191  0.403018  0.069134  1
  O  O13  1  0.455577  0.999029  0.682608  1
  O  O14  1  0.857538  0.348824  0.421055  1
  O  O15  1  0.493089  0.391823  0.343189  1
  O  O16  1  0.230750  0.599190  0.263855  1
  O  O17  1  0.976991  0.805077  0.137285  1
  O  O18  1  0.662409  0.934649  0.991997  1
  O  O19  1  0.337591  0.065351  0.008003  1
  O  O20  1  0.023009  0.194923  0.862715  1
  O  O21  1  0.769250  0.400810  0.736145  1
  O  O22  1  0.506911  0.608177  0.656811  1
  O  O23  1  0.142462  0.651176  0.578945  1
  O  O24  1  0.544423  0.000971  0.317392  1
  O  O25  1  0.318809  0.596982  0.930866  1
  O  O26  1  0.001011  0.768646  0.821185  1
  O  O27  1  0.175009  0.214026  0.527758  1
