# generated using pymatgen
data_Dy4Ga18Co2IrRuPt2
_symmetry_space_group_name_H-M   'P 1'
_cell_length_a   7.51211927
_cell_length_b   7.51211969
_cell_length_c   9.41791800
_cell_angle_alpha   89.95549580
_cell_angle_beta   89.95549579
_cell_angle_gamma   119.66907530
_symmetry_Int_Tables_number   1
_chemical_formula_structural   Dy4Ga18Co2IrRuPt2
_chemical_formula_sum   'Dy4 Ga18 Co2 Ir1 Ru1 Pt2'
_cell_volume   461.79429108
_cell_formula_units_Z   1
loop_
 _symmetry_equiv_pos_site_id
 _symmetry_equiv_pos_as_xyz
  1  'x, y, z'
loop_
 _atom_site_type_symbol
 _atom_site_label
 _atom_site_symmetry_multiplicity
 _atom_site_fract_x
 _atom_site_fract_y
 _atom_site_fract_z
 _atom_site_occupancy
  Dy  Dy0  1  0.989933  0.671538  0.249900  1
  Dy  Dy1  1  0.995353  0.318405  0.749687  1
  Dy  Dy2  1  0.681595  0.004647  0.250313  1
  Dy  Dy3  1  0.328462  0.010067  0.750100  1
  Ga  Ga4  1  0.142430  0.141198  0.250022  1
  Ga  Ga5  1  0.858802  0.857570  0.749978  1
  Ga  Ga6  1  0.008919  0.348159  0.078438  1
  Ga  Ga7  1  0.009499  0.659123  0.921339  1
  Ga  Ga8  1  0.012447  0.662015  0.579833  1
  Ga  Ga9  1  0.337985  0.987553  0.420167  1
  Ga  Ga10  1  0.011611  0.348145  0.420571  1
  Ga  Ga11  1  0.651855  0.988389  0.579429  1
  Ga  Ga12  1  0.651841  0.991081  0.921562  1
  Ga  Ga13  1  0.340877  0.990501  0.078661  1
  Ga  Ga14  1  0.337674  0.345172  0.566154  1
  Ga  Ga15  1  0.654828  0.662326  0.433846  1
  Ga  Ga16  1  0.655756  0.660963  0.063670  1
  Ga  Ga17  1  0.339037  0.344244  0.936330  1
  Ga  Ga18  1  0.336637  0.565720  0.249474  1
  Ga  Ga19  1  0.664420  0.453097  0.751686  1
  Ga  Ga20  1  0.546903  0.335580  0.248314  1
  Ga  Ga21  1  0.434280  0.663363  0.750526  1
  Co  Co22  1  0.329932  0.670068  0.000000  1
  Co  Co23  1  0.330532  0.669468  0.500000  1
  Ir  Ir24  1  0.673383  0.326617  0.500000  1
  Ru  Ru25  1  0.673373  0.326627  0.000000  1
  Pt  Pt26  1  0.000561  0.999439  0.000000  1
  Pt  Pt27  1  0.001074  0.998926  0.500000  1
