# generated using pymatgen
data_Tm12GaCo4Sn
_symmetry_space_group_name_H-M   'P 1'
_cell_length_a   8.19231575
_cell_length_b   8.19231503
_cell_length_c   8.19231537
_cell_angle_alpha   112.11555656
_cell_angle_beta   109.47135251
_cell_angle_gamma   106.86925099
_symmetry_Int_Tables_number   1
_chemical_formula_structural   Tm12GaCo4Sn
_chemical_formula_sum   'Tm12 Ga1 Co4 Sn1'
_cell_volume   422.36387934
_cell_formula_units_Z   1
loop_
 _symmetry_equiv_pos_site_id
 _symmetry_equiv_pos_as_xyz
  1  'x, y, z'
loop_
 _atom_site_type_symbol
 _atom_site_label
 _atom_site_symmetry_multiplicity
 _atom_site_fract_x
 _atom_site_fract_y
 _atom_site_fract_z
 _atom_site_occupancy
  Tm  Tm0  1  0.564718  0.266842  0.297875  1
  Tm  Tm1  1  0.180959  0.218916  0.399875  1
  Tm  Tm2  1  0.180959  0.781084  0.962044  1
  Tm  Tm3  1  0.675133  0.487617  0.812484  1
  Tm  Tm4  1  0.675133  0.862649  0.187516  1
  Tm  Tm5  1  0.968967  0.266842  0.702125  1
  Tm  Tm6  1  0.031033  0.733158  0.297875  1
  Tm  Tm7  1  0.324867  0.137351  0.812484  1
  Tm  Tm8  1  0.324867  0.512383  0.187516  1
  Tm  Tm9  1  0.819041  0.218916  0.037956  1
  Tm  Tm10  1  0.819041  0.781084  0.600125  1
  Tm  Tm11  1  0.435282  0.733158  0.702125  1
  Ga  Ga12  1  0.000000  0.500000  0.500000  1
  Co  Co13  1  0.884602  0.884602  0.000000  1
  Co  Co14  1  0.342783  0.500000  0.842783  1
  Co  Co15  1  0.657217  0.500000  0.157217  1
  Co  Co16  1  0.115398  0.115398  0.000000  1
  Sn  Sn17  1  0.500000  0.000000  0.500000  1
