# generated using pymatgen
data_Zr6Zn17AsPt6
_symmetry_space_group_name_H-M   'P 1'
_cell_length_a   8.84024720
_cell_length_b   8.84024735
_cell_length_c   8.84024800
_cell_angle_alpha   60.00000503
_cell_angle_beta   60.00000450
_cell_angle_gamma   60.00000137
_symmetry_Int_Tables_number   1
_chemical_formula_structural   Zr6Zn17AsPt6
_chemical_formula_sum   'Zr6 Zn17 As1 Pt6'
_cell_volume   488.51546033
_cell_formula_units_Z   1
loop_
 _symmetry_equiv_pos_site_id
 _symmetry_equiv_pos_as_xyz
  1  'x, y, z'
loop_
 _atom_site_type_symbol
 _atom_site_label
 _atom_site_symmetry_multiplicity
 _atom_site_fract_x
 _atom_site_fract_y
 _atom_site_fract_z
 _atom_site_occupancy
  Zr  Zr0  1  0.714948  0.285052  0.285052  1
  Zr  Zr1  1  0.285052  0.714948  0.714948  1
  Zr  Zr2  1  0.285052  0.714948  0.285052  1
  Zr  Zr3  1  0.714948  0.285052  0.714948  1
  Zr  Zr4  1  0.285052  0.285052  0.714948  1
  Zr  Zr5  1  0.714948  0.714948  0.285052  1
  Zn  Zn6  1  0.124130  0.124130  0.124130  1
  Zn  Zn7  1  0.875870  0.875870  0.875870  1
  Zn  Zn8  1  0.124130  0.124130  0.627610  1
  Zn  Zn9  1  0.124130  0.627610  0.124130  1
  Zn  Zn10  1  0.875870  0.875870  0.372390  1
  Zn  Zn11  1  0.875870  0.372390  0.875870  1
  Zn  Zn12  1  0.627610  0.124130  0.124130  1
  Zn  Zn13  1  0.372390  0.875870  0.875870  1
  Zn  Zn14  1  0.339763  0.339763  0.339763  1
  Zn  Zn15  1  0.660237  0.660237  0.660237  1
  Zn  Zn16  1  0.339763  0.339763  0.980712  1
  Zn  Zn17  1  0.339763  0.980712  0.339763  1
  Zn  Zn18  1  0.660237  0.660237  0.019288  1
  Zn  Zn19  1  0.660237  0.019288  0.660237  1
  Zn  Zn20  1  0.980712  0.339763  0.339763  1
  Zn  Zn21  1  0.019288  0.660237  0.660237  1
  Zn  Zn22  1  0.000000  0.000000  0.000000  1
  As  As23  1  0.500000  0.500000  0.500000  1
  Pt  Pt24  1  0.500000  0.000000  0.000000  1
  Pt  Pt25  1  0.000000  0.500000  0.500000  1
  Pt  Pt26  1  0.000000  0.500000  0.000000  1
  Pt  Pt27  1  0.500000  0.000000  0.500000  1
  Pt  Pt28  1  0.000000  0.000000  0.500000  1
  Pt  Pt29  1  0.500000  0.500000  0.000000  1
