# generated using pymatgen
data_Nd6PaP12Rh17
_symmetry_space_group_name_H-M   'P 1'
_cell_length_a   4.02087200
_cell_length_b   11.33583800
_cell_length_c   13.06077200
_cell_angle_alpha   90.00000000
_cell_angle_beta   90.00000000
_cell_angle_gamma   90.00000000
_symmetry_Int_Tables_number   1
_chemical_formula_structural   Nd6PaP12Rh17
_chemical_formula_sum   'Nd6 Pa1 P12 Rh17'
_cell_volume   595.30938188
_cell_formula_units_Z   1
loop_
 _symmetry_equiv_pos_site_id
 _symmetry_equiv_pos_as_xyz
  1  'x, y, z'
loop_
 _atom_site_type_symbol
 _atom_site_label
 _atom_site_symmetry_multiplicity
 _atom_site_fract_x
 _atom_site_fract_y
 _atom_site_fract_z
 _atom_site_occupancy
  Nd  Nd0  1  0.000000  0.500000  0.524111  1
  Nd  Nd1  1  0.500000  0.000000  0.477677  1
  Nd  Nd2  1  0.500000  0.821486  0.207289  1
  Nd  Nd3  1  0.500000  0.178514  0.207289  1
  Nd  Nd4  1  0.000000  0.681772  0.797154  1
  Nd  Nd5  1  0.000000  0.318228  0.797154  1
  Pa  Pa6  1  0.500000  0.500000  0.160995  1
  P  P7  1  0.500000  0.500000  0.878972  1
  P  P8  1  0.000000  0.000000  0.117589  1
  P  P9  1  0.500000  0.500000  0.369247  1
  P  P10  1  0.000000  0.000000  0.650746  1
  P  P11  1  0.500000  0.311256  0.618307  1
  P  P12  1  0.500000  0.688744  0.618307  1
  P  P13  1  0.000000  0.187516  0.386837  1
  P  P14  1  0.000000  0.812484  0.386837  1
  P  P15  1  0.500000  0.853363  0.887196  1
  P  P16  1  0.500000  0.146637  0.887196  1
  P  P17  1  0.000000  0.668076  0.100728  1
  P  P18  1  0.000000  0.331924  0.100728  1
  Rh  Rh19  1  0.000000  0.000000  0.827182  1
  Rh  Rh20  1  0.500000  0.500000  0.701068  1
  Rh  Rh21  1  0.000000  0.000000  0.297139  1
  Rh  Rh22  1  0.000000  0.500000  0.985905  1
  Rh  Rh23  1  0.500000  0.000000  0.017412  1
  Rh  Rh24  1  0.500000  0.327677  0.988970  1
  Rh  Rh25  1  0.500000  0.672323  0.988970  1
  Rh  Rh26  1  0.000000  0.161241  0.001117  1
  Rh  Rh27  1  0.000000  0.838759  0.001117  1
  Rh  Rh28  1  0.500000  0.286099  0.436621  1
  Rh  Rh29  1  0.500000  0.713901  0.436621  1
  Rh  Rh30  1  0.000000  0.202127  0.572833  1
  Rh  Rh31  1  0.000000  0.797873  0.572833  1
  Rh  Rh32  1  0.500000  0.876220  0.709045  1
  Rh  Rh33  1  0.500000  0.123780  0.709045  1
  Rh  Rh34  1  0.000000  0.626725  0.289881  1
  Rh  Rh35  1  0.000000  0.373275  0.289881  1
