# generated using pymatgen
data_Sc2Mn5Fe6CoP7
_symmetry_space_group_name_H-M   'P 1'
_cell_length_a   9.06045070
_cell_length_b   9.04682646
_cell_length_c   3.54933500
_cell_angle_alpha   90.00000000
_cell_angle_beta   90.00000000
_cell_angle_gamma   120.48589491
_symmetry_Int_Tables_number   1
_chemical_formula_structural   Sc2Mn5Fe6CoP7
_chemical_formula_sum   'Sc2 Mn5 Fe6 Co1 P7'
_cell_volume   250.71273866
_cell_formula_units_Z   1
loop_
 _symmetry_equiv_pos_site_id
 _symmetry_equiv_pos_as_xyz
  1  'x, y, z'
loop_
 _atom_site_type_symbol
 _atom_site_label
 _atom_site_symmetry_multiplicity
 _atom_site_fract_x
 _atom_site_fract_y
 _atom_site_fract_z
 _atom_site_occupancy
  Sc  Sc0  1  0.995413  0.993429  0.000000  1
  Sc  Sc1  1  0.669655  0.338239  0.500000  1
  Mn  Mn2  1  0.946327  0.231302  0.500000  1
  Mn  Mn3  1  0.287048  0.052748  0.500000  1
  Mn  Mn4  1  0.436228  0.539593  0.500000  1
  Mn  Mn5  1  0.103161  0.563984  0.500000  1
  Mn  Mn6  1  0.461299  0.900112  0.500000  1
  Fe  Fe7  1  0.388593  0.289997  0.000000  1
  Fe  Fe8  1  0.900459  0.609468  0.000000  1
  Fe  Fe9  1  0.713217  0.098922  0.000000  1
  Fe  Fe10  1  0.606469  0.782937  0.000000  1
  Fe  Fe11  1  0.175046  0.388334  0.000000  1
  Fe  Fe12  1  0.214049  0.826861  0.000000  1
  Co  Co13  1  0.769900  0.717882  0.500000  1
  P  P14  1  0.629892  0.548675  0.000000  1
  P  P15  1  0.917596  0.377695  0.000000  1
  P  P16  1  0.462687  0.085295  0.000000  1
  P  P17  1  0.740649  0.948798  0.500000  1
  P  P18  1  0.210688  0.254317  0.500000  1
  P  P19  1  0.040702  0.784023  0.500000  1
  P  P20  1  0.330925  0.667388  0.000000  1
