# generated using pymatgen
data_Ba4SrLa(Sn4Bi)2
_symmetry_space_group_name_H-M   'P 1'
_cell_length_a   9.23041912
_cell_length_b   9.23041875
_cell_length_c   9.24681488
_cell_angle_alpha   119.94136840
_cell_angle_beta   119.94136535
_cell_angle_gamma   90.00000543
_symmetry_Int_Tables_number   1
_chemical_formula_structural   Ba4SrLa(Sn4Bi)2
_chemical_formula_sum   'Ba4 Sr1 La1 Sn8 Bi2'
_cell_volume   558.06904414
_cell_formula_units_Z   1
loop_
 _symmetry_equiv_pos_site_id
 _symmetry_equiv_pos_as_xyz
  1  'x, y, z'
loop_
 _atom_site_type_symbol
 _atom_site_label
 _atom_site_symmetry_multiplicity
 _atom_site_fract_x
 _atom_site_fract_y
 _atom_site_fract_z
 _atom_site_occupancy
  Ba  Ba0  1  0.661230  0.161230  0.000000  1
  Ba  Ba1  1  0.338770  0.838770  0.000000  1
  Ba  Ba2  1  0.838770  0.661230  0.000000  1
  Ba  Ba3  1  0.161230  0.338770  0.000000  1
  Sr  Sr4  1  0.750000  0.750000  0.500000  1
  La  La5  1  0.250000  0.250000  0.500000  1
  Sn  Sn6  1  0.335008  0.838420  0.385548  1
  Sn  Sn7  1  0.661580  0.164992  0.614452  1
  Sn  Sn8  1  0.050540  0.547128  0.385548  1
  Sn  Sn9  1  0.547128  0.335008  0.385548  1
  Sn  Sn10  1  0.164992  0.952872  0.614452  1
  Sn  Sn11  1  0.952872  0.449460  0.614452  1
  Sn  Sn12  1  0.449460  0.661580  0.614452  1
  Sn  Sn13  1  0.838420  0.050540  0.385548  1
  Bi  Bi14  1  0.005466  0.005466  0.010932  1
  Bi  Bi15  1  0.494534  0.494534  0.989068  1
