# generated using pymatgen
data_LaPr4Ir3
_symmetry_space_group_name_H-M   'P 1'
_cell_length_a   11.36683200
_cell_length_b   11.38625500
_cell_length_c   6.65688800
_cell_angle_alpha   90.00000000
_cell_angle_beta   90.00000000
_cell_angle_gamma   90.00000000
_symmetry_Int_Tables_number   1
_chemical_formula_structural   LaPr4Ir3
_chemical_formula_sum   'La4 Pr16 Ir12'
_cell_volume   861.57204103
_cell_formula_units_Z   4
loop_
 _symmetry_equiv_pos_site_id
 _symmetry_equiv_pos_as_xyz
  1  'x, y, z'
loop_
 _atom_site_type_symbol
 _atom_site_label
 _atom_site_symmetry_multiplicity
 _atom_site_fract_x
 _atom_site_fract_y
 _atom_site_fract_z
 _atom_site_occupancy
  La  La0  1  0.292952  0.091923  0.385999  1
  La  La1  1  0.292952  0.908077  0.885999  1
  La  La2  1  0.707048  0.091923  0.885999  1
  La  La3  1  0.707048  0.908077  0.385999  1
  Pr  Pr4  1  0.590612  0.789732  0.882797  1
  Pr  Pr5  1  0.590612  0.210268  0.382797  1
  Pr  Pr6  1  0.409388  0.789732  0.382797  1
  Pr  Pr7  1  0.409388  0.210268  0.882797  1
  Pr  Pr8  1  0.208003  0.410492  0.617150  1
  Pr  Pr9  1  0.208003  0.589508  0.117150  1
  Pr  Pr10  1  0.791997  0.410492  0.117150  1
  Pr  Pr11  1  0.791997  0.589508  0.617150  1
  Pr  Pr12  1  0.909382  0.708095  0.114907  1
  Pr  Pr13  1  0.909382  0.291905  0.614907  1
  Pr  Pr14  1  0.090618  0.708095  0.614907  1
  Pr  Pr15  1  0.090618  0.291905  0.114907  1
  Pr  Pr16  1  0.000000  0.000000  0.498290  1
  Pr  Pr17  1  0.000000  0.000000  0.998290  1
  Pr  Pr18  1  0.500000  0.500000  0.001880  1
  Pr  Pr19  1  0.500000  0.500000  0.501880  1
  Ir  Ir20  1  0.844955  0.153123  0.247728  1
  Ir  Ir21  1  0.844955  0.846877  0.747728  1
  Ir  Ir22  1  0.155045  0.153123  0.747728  1
  Ir  Ir23  1  0.155045  0.846877  0.247728  1
  Ir  Ir24  1  0.653673  0.346406  0.750669  1
  Ir  Ir25  1  0.653673  0.653594  0.250669  1
  Ir  Ir26  1  0.346327  0.346406  0.250669  1
  Ir  Ir27  1  0.346327  0.653594  0.750669  1
  Ir  Ir28  1  0.500000  0.000000  0.118048  1
  Ir  Ir29  1  0.500000  0.000000  0.618048  1
  Ir  Ir30  1  0.000000  0.500000  0.883279  1
  Ir  Ir31  1  0.000000  0.500000  0.383279  1
