# generated using pymatgen
data_Cs2Mn2BeS4
_symmetry_space_group_name_H-M   'P 1'
_cell_length_a   7.55210070
_cell_length_b   7.55210058
_cell_length_c   5.73138500
_cell_angle_alpha   90.00000000
_cell_angle_beta   90.00000000
_cell_angle_gamma   135.37161467
_symmetry_Int_Tables_number   1
_chemical_formula_structural   Cs2Mn2BeS4
_chemical_formula_sum   'Cs2 Mn2 Be1 S4'
_cell_volume   229.63864898
_cell_formula_units_Z   1
loop_
 _symmetry_equiv_pos_site_id
 _symmetry_equiv_pos_as_xyz
  1  'x, y, z'
loop_
 _atom_site_type_symbol
 _atom_site_label
 _atom_site_symmetry_multiplicity
 _atom_site_fract_x
 _atom_site_fract_y
 _atom_site_fract_z
 _atom_site_occupancy
  Cs  Cs0  1  0.500000  0.000000  0.243868  1
  Cs  Cs1  1  0.000000  0.500000  0.756132  1
  Mn  Mn2  1  0.000000  0.000000  0.500000  1
  Mn  Mn3  1  0.500000  0.500000  0.000000  1
  Be  Be4  1  0.500000  0.500000  0.500000  1
  S  S5  1  0.191014  0.366688  0.278950  1
  S  S6  1  0.633312  0.808986  0.721050  1
  S  S7  1  0.808986  0.633312  0.278950  1
  S  S8  1  0.366688  0.191014  0.721050  1
