# generated using pymatgen
data_Tb3Y5Re(B8Os)3
_symmetry_space_group_name_H-M   'P 1'
_cell_length_a   3.66888500
_cell_length_b   9.17237500
_cell_length_c   11.55889502
_cell_angle_alpha   89.90805298
_cell_angle_beta   90.00000000
_cell_angle_gamma   90.00000000
_symmetry_Int_Tables_number   1
_chemical_formula_structural   Tb3Y5Re(B8Os)3
_chemical_formula_sum   'Tb3 Y5 Re1 B24 Os3'
_cell_volume   388.98393139
_cell_formula_units_Z   1
loop_
 _symmetry_equiv_pos_site_id
 _symmetry_equiv_pos_as_xyz
  1  'x, y, z'
loop_
 _atom_site_type_symbol
 _atom_site_label
 _atom_site_symmetry_multiplicity
 _atom_site_fract_x
 _atom_site_fract_y
 _atom_site_fract_z
 _atom_site_occupancy
  Tb  Tb0  1  0.000000  0.822729  0.085299  1
  Tb  Tb1  1  0.000000  0.179653  0.911741  1
  Tb  Tb2  1  0.000000  0.322947  0.416095  1
  Y  Y3  1  0.000000  0.676313  0.586908  1
  Y  Y4  1  0.000000  0.443131  0.127893  1
  Y  Y5  1  0.000000  0.556087  0.872475  1
  Y  Y6  1  0.000000  0.942749  0.372476  1
  Y  Y7  1  0.000000  0.056744  0.626987  1
  Re  Re8  1  0.000000  0.362762  0.678507  1
  B  B9  1  0.500000  0.053732  0.067161  1
  B  B10  1  0.500000  0.946460  0.932518  1
  B  B11  1  0.500000  0.553446  0.432378  1
  B  B12  1  0.500000  0.447243  0.567169  1
  B  B13  1  0.500000  0.247527  0.080736  1
  B  B14  1  0.500000  0.752600  0.919435  1
  B  B15  1  0.500000  0.747228  0.419179  1
  B  B16  1  0.500000  0.252474  0.580887  1
  B  B17  1  0.500000  0.289623  0.233542  1
  B  B18  1  0.500000  0.709792  0.767192  1
  B  B19  1  0.500000  0.790084  0.266449  1
  B  B20  1  0.500000  0.209341  0.733532  1
  B  B21  1  0.500000  0.130969  0.314100  1
  B  B22  1  0.500000  0.868511  0.686301  1
  B  B23  1  0.500000  0.631651  0.185784  1
  B  B24  1  0.500000  0.368690  0.813877  1
  B  B25  1  0.500000  0.483464  0.287352  1
  B  B26  1  0.500000  0.517695  0.712747  1
  B  B27  1  0.500000  0.983190  0.212200  1
  B  B28  1  0.500000  0.016819  0.787264  1
  B  B29  1  0.500000  0.106715  0.469665  1
  B  B30  1  0.500000  0.891527  0.529769  1
  B  B31  1  0.500000  0.608105  0.030360  1
  B  B32  1  0.500000  0.392434  0.970675  1
  Os  Os33  1  0.000000  0.137103  0.178449  1
  Os  Os34  1  0.000000  0.862850  0.821985  1
  Os  Os35  1  0.000000  0.637612  0.320911  1
