# generated using pymatgen
data_Pr4NdGeSe4
_symmetry_space_group_name_H-M   'P 1'
_cell_length_a   7.43724187
_cell_length_b   7.43724001
_cell_length_c   7.43724100
_cell_angle_alpha   99.48386547
_cell_angle_beta   99.48386307
_cell_angle_gamma   132.10260606
_symmetry_Int_Tables_number   1
_chemical_formula_structural   Pr4NdGeSe4
_chemical_formula_sum   'Pr4 Nd1 Ge1 Se4'
_cell_volume   278.93984218
_cell_formula_units_Z   1
loop_
 _symmetry_equiv_pos_site_id
 _symmetry_equiv_pos_as_xyz
  1  'x, y, z'
loop_
 _atom_site_type_symbol
 _atom_site_label
 _atom_site_symmetry_multiplicity
 _atom_site_fract_x
 _atom_site_fract_y
 _atom_site_fract_z
 _atom_site_occupancy
  Pr  Pr0  1  0.400814  0.791960  0.192773  1
  Pr  Pr1  1  0.599186  0.208040  0.807227  1
  Pr  Pr2  1  0.208040  0.400814  0.608855  1
  Pr  Pr3  1  0.791960  0.599186  0.391145  1
  Nd  Nd4  1  0.000000  0.000000  0.000000  1
  Ge  Ge5  1  0.500000  0.500000  0.000000  1
  Se  Se6  1  0.097545  0.697847  0.795391  1
  Se  Se7  1  0.697847  0.902455  0.600300  1
  Se  Se8  1  0.302153  0.097545  0.399700  1
  Se  Se9  1  0.902455  0.302153  0.204609  1
