# generated using pymatgen
data_Y2Ho3Er(BO3)6
_symmetry_space_group_name_H-M   'P 1'
_cell_length_a   6.56724000
_cell_length_b   6.56990095
_cell_length_c   9.61583711
_cell_angle_alpha   70.39921809
_cell_angle_beta   70.40081242
_cell_angle_gamma   60.03143314
_symmetry_Int_Tables_number   1
_chemical_formula_structural   Y2Ho3Er(BO3)6
_chemical_formula_sum   'Y2 Ho3 Er1 B6 O18'
_cell_volume   331.34836314
_cell_formula_units_Z   1
loop_
 _symmetry_equiv_pos_site_id
 _symmetry_equiv_pos_as_xyz
  1  'x, y, z'
loop_
 _atom_site_type_symbol
 _atom_site_label
 _atom_site_symmetry_multiplicity
 _atom_site_fract_x
 _atom_site_fract_y
 _atom_site_fract_z
 _atom_site_occupancy
  Y  Y0  1  0.000074  0.499957  0.499999  1
  Y  Y1  1  0.500026  0.000012  0.999973  1
  Ho  Ho2  1  0.170718  0.657724  0.999325  1
  Ho  Ho3  1  0.342454  0.829184  0.500683  1
  Ho  Ho4  1  0.829271  0.342246  0.000706  1
  Er  Er5  1  0.657688  0.170758  0.499342  1
  B  B6  1  0.917887  0.842524  0.746463  1
  B  B7  1  0.158216  0.081975  0.753089  1
  B  B8  1  0.081547  0.157752  0.253531  1
  B  B9  1  0.842058  0.918293  0.246982  1
  B  B10  1  0.675720  0.324156  0.749765  1
  B  B11  1  0.324613  0.675284  0.250168  1
  O  O12  1  0.965530  0.784102  0.602343  1
  O  O13  1  0.216721  0.033865  0.897282  1
  O  O14  1  0.033105  0.216576  0.397647  1
  O  O15  1  0.783387  0.966160  0.102836  1
  O  O16  1  0.871032  0.684089  0.888215  1
  O  O17  1  0.317035  0.128999  0.611550  1
  O  O18  1  0.128815  0.316006  0.111783  1
  O  O19  1  0.683667  0.871624  0.388686  1
  O  O20  1  0.517925  0.386331  0.891759  1
  O  O21  1  0.613565  0.481683  0.607815  1
  O  O22  1  0.482227  0.613501  0.108119  1
  O  O23  1  0.387344  0.516879  0.391929  1
  O  O24  1  0.916449  0.299795  0.752575  1
  O  O25  1  0.699907  0.083915  0.746762  1
  O  O26  1  0.083723  0.700120  0.247440  1
  O  O27  1  0.299792  0.916093  0.252943  1
  O  O28  1  0.135534  0.864747  0.749789  1
  O  O29  1  0.863970  0.135650  0.250499  1
