# generated using pymatgen
data_Ac2C2Se
_symmetry_space_group_name_H-M   'P 1'
_cell_length_a   7.87032962
_cell_length_b   7.87032948
_cell_length_c   7.55710954
_cell_angle_alpha   77.60478832
_cell_angle_beta   77.60478887
_cell_angle_gamma   32.04353747
_symmetry_Int_Tables_number   1
_chemical_formula_structural   Ac2C2Se
_chemical_formula_sum   'Ac4 C4 Se2'
_cell_volume   242.08572007
_cell_formula_units_Z   2
loop_
 _symmetry_equiv_pos_site_id
 _symmetry_equiv_pos_as_xyz
  1  'x, y, z'
loop_
 _atom_site_type_symbol
 _atom_site_label
 _atom_site_symmetry_multiplicity
 _atom_site_fract_x
 _atom_site_fract_y
 _atom_site_fract_z
 _atom_site_occupancy
  Ac  Ac0  1  0.563444  0.159340  0.141974  1
  Ac  Ac1  1  0.159340  0.563444  0.641974  1
  Ac  Ac2  1  0.436556  0.840660  0.858026  1
  Ac  Ac3  1  0.840660  0.436556  0.358026  1
  C  C4  1  0.364862  0.089879  0.472064  1
  C  C5  1  0.910121  0.635138  0.027936  1
  C  C6  1  0.635138  0.910121  0.527936  1
  C  C7  1  0.089879  0.364862  0.972064  1
  Se  Se8  1  0.790765  0.209235  0.750000  1
  Se  Se9  1  0.209235  0.790765  0.250000  1
