# generated using pymatgen
data_TbPrPa(Ga2Co3)3
_symmetry_space_group_name_H-M   'P 1'
_cell_length_a   4.18971500
_cell_length_b   8.65702393
_cell_length_c   8.65021510
_cell_angle_alpha   60.00614972
_cell_angle_beta   90.00000000
_cell_angle_gamma   90.00000000
_symmetry_Int_Tables_number   1
_chemical_formula_structural   TbPrPa(Ga2Co3)3
_chemical_formula_sum   'Tb1 Pr1 Pa1 Ga6 Co9'
_cell_volume   271.72997417
_cell_formula_units_Z   1
loop_
 _symmetry_equiv_pos_site_id
 _symmetry_equiv_pos_as_xyz
  1  'x, y, z'
loop_
 _atom_site_type_symbol
 _atom_site_label
 _atom_site_symmetry_multiplicity
 _atom_site_fract_x
 _atom_site_fract_y
 _atom_site_fract_z
 _atom_site_occupancy
  Tb  Tb0  1  0.500000  0.666575  0.667038  1
  Pr  Pr1  1  0.500000  0.333939  0.332762  1
  Pa  Pa2  1  0.000000  0.999915  0.000207  1
  Ga  Ga3  1  0.000000  0.495675  0.507961  1
  Ga  Ga4  1  0.000000  0.507926  0.996792  1
  Ga  Ga5  1  0.000000  0.996765  0.495333  1
  Ga  Ga6  1  0.500000  0.726139  0.274914  1
  Ga  Ga7  1  0.500000  0.275379  0.998522  1
  Ga  Ga8  1  0.500000  0.998301  0.725946  1
  Co  Co9  1  0.000000  0.170576  0.171577  1
  Co  Co10  1  0.000000  0.171661  0.658408  1
  Co  Co11  1  0.000000  0.657375  0.171013  1
  Co  Co12  1  0.000000  0.827355  0.825759  1
  Co  Co13  1  0.000000  0.347398  0.827430  1
  Co  Co14  1  0.000000  0.825892  0.346733  1
  Co  Co15  1  0.500000  0.297858  0.703189  1
  Co  Co16  1  0.500000  0.702634  0.998619  1
  Co  Co17  1  0.500000  0.998537  0.297897  1
