# generated using pymatgen
data_Tm8Hf11TiSi16
_symmetry_space_group_name_H-M   'P 1'
_cell_length_a   7.22795737
_cell_length_b   7.22795737
_cell_length_c   13.25080767
_cell_angle_alpha   89.93207832
_cell_angle_beta   90.06792168
_cell_angle_gamma   90.01985333
_symmetry_Int_Tables_number   1
_chemical_formula_structural   Tm8Hf11TiSi16
_chemical_formula_sum   'Tm8 Hf11 Ti1 Si16'
_cell_volume   692.26580459
_cell_formula_units_Z   1
loop_
 _symmetry_equiv_pos_site_id
 _symmetry_equiv_pos_as_xyz
  1  'x, y, z'
loop_
 _atom_site_type_symbol
 _atom_site_label
 _atom_site_symmetry_multiplicity
 _atom_site_fract_x
 _atom_site_fract_y
 _atom_site_fract_z
 _atom_site_occupancy
  Tm  Tm0  1  0.343552  0.002243  0.465760  1
  Tm  Tm1  1  0.497598  0.842837  0.714391  1
  Tm  Tm2  1  0.503584  0.156440  0.216243  1
  Tm  Tm3  1  0.842837  0.497598  0.285609  1
  Tm  Tm4  1  0.156440  0.503584  0.783757  1
  Tm  Tm5  1  0.656820  0.996622  0.965437  1
  Tm  Tm6  1  0.002243  0.343552  0.534240  1
  Tm  Tm7  1  0.996622  0.656820  0.034563  1
  Hf  Hf8  1  0.325935  0.325935  0.000000  1
  Hf  Hf9  1  0.174372  0.825583  0.250708  1
  Hf  Hf10  1  0.825583  0.174372  0.749292  1
  Hf  Hf11  1  0.148445  0.003821  0.875331  1
  Hf  Hf12  1  0.496851  0.648698  0.126281  1
  Hf  Hf13  1  0.503706  0.352547  0.624060  1
  Hf  Hf14  1  0.648698  0.496851  0.873719  1
  Hf  Hf15  1  0.352547  0.503706  0.375940  1
  Hf  Hf16  1  0.851225  0.995090  0.376469  1
  Hf  Hf17  1  0.003821  0.148445  0.124669  1
  Hf  Hf18  1  0.995090  0.851225  0.623531  1
  Ti  Ti19  1  0.674639  0.674639  0.500000  1
  Si  Si20  1  0.205728  0.137931  0.681349  1
  Si  Si21  1  0.361868  0.705568  0.931765  1
  Si  Si22  1  0.638600  0.295229  0.432104  1
  Si  Si23  1  0.705568  0.361868  0.068235  1
  Si  Si24  1  0.295229  0.638600  0.567896  1
  Si  Si25  1  0.794607  0.861541  0.182426  1
  Si  Si26  1  0.137931  0.205728  0.318651  1
  Si  Si27  1  0.861541  0.794607  0.817574  1
  Si  Si28  1  0.298045  0.952394  0.064916  1
  Si  Si29  1  0.549555  0.795984  0.317114  1
  Si  Si30  1  0.452901  0.202218  0.814142  1
  Si  Si31  1  0.795984  0.549555  0.682886  1
  Si  Si32  1  0.202218  0.452901  0.185858  1
  Si  Si33  1  0.701600  0.045624  0.564115  1
  Si  Si34  1  0.952394  0.298045  0.935084  1
  Si  Si35  1  0.045624  0.701600  0.435885  1
