# generated using pymatgen
data_SrDy2Tm(Pt2O7)2
_symmetry_space_group_name_H-M   'P 1'
_cell_length_a   7.32814951
_cell_length_b   7.30503030
_cell_length_c   7.30503041
_cell_angle_alpha   60.04443180
_cell_angle_beta   60.06662666
_cell_angle_gamma   60.06662804
_symmetry_Int_Tables_number   1
_chemical_formula_structural   SrDy2Tm(Pt2O7)2
_chemical_formula_sum   'Sr1 Dy2 Tm1 Pt4 O14'
_cell_volume   276.88913829
_cell_formula_units_Z   1
loop_
 _symmetry_equiv_pos_site_id
 _symmetry_equiv_pos_as_xyz
  1  'x, y, z'
loop_
 _atom_site_type_symbol
 _atom_site_label
 _atom_site_symmetry_multiplicity
 _atom_site_fract_x
 _atom_site_fract_y
 _atom_site_fract_z
 _atom_site_occupancy
  Sr  Sr0  1  0.125000  0.625000  0.625000  1
  Dy  Dy1  1  0.625000  0.625000  0.125000  1
  Dy  Dy2  1  0.625000  0.125000  0.625000  1
  Tm  Tm3  1  0.625000  0.625000  0.625000  1
  Pt  Pt4  1  0.125000  0.125000  0.125000  1
  Pt  Pt5  1  0.625000  0.125000  0.125000  1
  Pt  Pt6  1  0.125000  0.625000  0.125000  1
  Pt  Pt7  1  0.125000  0.125000  0.625000  1
  O  O8  1  0.024617  0.459348  0.459348  1
  O  O9  1  0.785480  0.787240  0.215276  1
  O  O10  1  0.785765  0.213288  0.213288  1
  O  O11  1  0.464520  0.034724  0.462760  1
  O  O12  1  0.026977  0.055563  0.458829  1
  O  O13  1  0.026977  0.458829  0.055563  1
  O  O14  1  0.726960  0.755614  0.755614  1
  O  O15  1  0.523040  0.494386  0.494386  1
  O  O16  1  0.785480  0.215276  0.787240  1
  O  O17  1  0.223023  0.791171  0.194437  1
  O  O18  1  0.223023  0.194437  0.791171  1
  O  O19  1  0.464235  0.036712  0.036712  1
  O  O20  1  0.464520  0.462760  0.034724  1
  O  O21  1  0.225383  0.790652  0.790652  1
