# generated using pymatgen
data_Nd3P7N13
_symmetry_space_group_name_H-M   'P 1'
_cell_length_a   7.24721114
_cell_length_b   7.24721146
_cell_length_c   7.24721300
_cell_angle_alpha   109.07094315
_cell_angle_beta   109.07094403
_cell_angle_gamma   109.07095739
_symmetry_Int_Tables_number   1
_chemical_formula_structural   Nd3P7N13
_chemical_formula_sum   'Nd3 P7 N13'
_cell_volume   297.27886453
_cell_formula_units_Z   1
loop_
 _symmetry_equiv_pos_site_id
 _symmetry_equiv_pos_as_xyz
  1  'x, y, z'
loop_
 _atom_site_type_symbol
 _atom_site_label
 _atom_site_symmetry_multiplicity
 _atom_site_fract_x
 _atom_site_fract_y
 _atom_site_fract_z
 _atom_site_occupancy
  Nd  Nd0  1  0.688563  0.024581  0.024581  1
  Nd  Nd1  1  0.024581  0.024581  0.688563  1
  Nd  Nd2  1  0.024581  0.688563  0.024581  1
  P  P3  1  0.144778  0.144778  0.144778  1
  P  P4  1  0.256464  0.760719  0.512246  1
  P  P5  1  0.760719  0.256464  0.512246  1
  P  P6  1  0.760719  0.512246  0.256464  1
  P  P7  1  0.256464  0.512246  0.760719  1
  P  P8  1  0.512246  0.760719  0.256464  1
  P  P9  1  0.512246  0.256464  0.760719  1
  N  N10  1  0.901879  0.901879  0.901879  1
  N  N11  1  0.767256  0.337469  0.337469  1
  N  N12  1  0.337469  0.767256  0.337469  1
  N  N13  1  0.286481  0.587980  0.587980  1
  N  N14  1  0.587980  0.587980  0.286481  1
  N  N15  1  0.388826  0.730942  0.006296  1
  N  N16  1  0.006296  0.730942  0.388826  1
  N  N17  1  0.587980  0.286481  0.587980  1
  N  N18  1  0.730942  0.006296  0.388826  1
  N  N19  1  0.388826  0.006296  0.730942  1
  N  N20  1  0.730942  0.388826  0.006296  1
  N  N21  1  0.337469  0.337469  0.767256  1
  N  N22  1  0.006296  0.388826  0.730942  1
