# generated using pymatgen
data_Dy7Y9Cd2(Ni2Ag)2
_symmetry_space_group_name_H-M   'P 1'
_cell_length_a   9.50337874
_cell_length_b   9.49976741
_cell_length_c   9.51198976
_cell_angle_alpha   60.07965273
_cell_angle_beta   60.21717787
_cell_angle_gamma   60.09668307
_symmetry_Int_Tables_number   1
_chemical_formula_structural   Dy7Y9Cd2(Ni2Ag)2
_chemical_formula_sum   'Dy7 Y9 Cd2 Ni4 Ag2'
_cell_volume   609.02413129
_cell_formula_units_Z   1
loop_
 _symmetry_equiv_pos_site_id
 _symmetry_equiv_pos_as_xyz
  1  'x, y, z'
loop_
 _atom_site_type_symbol
 _atom_site_label
 _atom_site_symmetry_multiplicity
 _atom_site_fract_x
 _atom_site_fract_y
 _atom_site_fract_z
 _atom_site_occupancy
  Dy  Dy0  1  0.596917  0.597581  0.597751  1
  Dy  Dy1  1  0.600475  0.600098  0.201341  1
  Dy  Dy2  1  0.600417  0.200143  0.600212  1
  Dy  Dy3  1  0.200313  0.600437  0.600467  1
  Dy  Dy4  1  0.061493  0.439207  0.440797  1
  Dy  Dy5  1  0.438526  0.060941  0.061508  1
  Dy  Dy6  1  0.439275  0.061911  0.440357  1
  Y  Y7  1  0.060797  0.438109  0.061147  1
  Y  Y8  1  0.440406  0.439971  0.060043  1
  Y  Y9  1  0.061261  0.061160  0.438475  1
  Y  Y10  1  0.183288  0.814251  0.814095  1
  Y  Y11  1  0.812666  0.183335  0.188975  1
  Y  Y12  1  0.813442  0.183804  0.814053  1
  Y  Y13  1  0.183464  0.813365  0.188632  1
  Y  Y14  1  0.812266  0.812931  0.188293  1
  Y  Y15  1  0.186707  0.186578  0.812382  1
  Cd  Cd16  1  0.831308  0.509687  0.829220  1
  Cd  Cd17  1  0.509698  0.830979  0.829192  1
  Ni  Ni18  1  0.392736  0.392687  0.396053  1
  Ni  Ni19  1  0.393348  0.391341  0.821237  1
  Ni  Ni20  1  0.393520  0.821738  0.391389  1
  Ni  Ni21  1  0.820931  0.393417  0.392997  1
  Ag  Ag22  1  0.832556  0.832450  0.830874  1
  Ag  Ag23  1  0.834189  0.833878  0.500511  1
