# generated using pymatgen
data_Tb6Nd2Cd2PdRu
_symmetry_space_group_name_H-M   'P 1'
_cell_length_a   9.76451987
_cell_length_b   9.76374085
_cell_length_c   9.82464003
_cell_angle_alpha   59.79871686
_cell_angle_beta   59.79085363
_cell_angle_gamma   59.84053451
_symmetry_Int_Tables_number   1
_chemical_formula_structural   Tb6Nd2Cd2PdRu
_chemical_formula_sum   'Tb12 Nd4 Cd4 Pd2 Ru2'
_cell_volume   659.46511419
_cell_formula_units_Z   2
loop_
 _symmetry_equiv_pos_site_id
 _symmetry_equiv_pos_as_xyz
  1  'x, y, z'
loop_
 _atom_site_type_symbol
 _atom_site_label
 _atom_site_symmetry_multiplicity
 _atom_site_fract_x
 _atom_site_fract_y
 _atom_site_fract_z
 _atom_site_occupancy
  Tb  Tb0  1  0.348984  0.348729  0.354171  1
  Tb  Tb1  1  0.348729  0.348984  0.948116  1
  Tb  Tb2  1  0.344053  0.955326  0.350654  1
  Tb  Tb3  1  0.955326  0.344053  0.349967  1
  Tb  Tb4  1  0.819153  0.185954  0.188462  1
  Tb  Tb5  1  0.185954  0.819153  0.806431  1
  Tb  Tb6  1  0.186738  0.817492  0.189702  1
  Tb  Tb7  1  0.817492  0.186738  0.806068  1
  Tb  Tb8  1  0.187401  0.187401  0.812599  1
  Tb  Tb9  1  0.809310  0.809310  0.190690  1
  Tb  Tb10  1  0.939978  0.554244  0.564048  1
  Tb  Tb11  1  0.554244  0.939978  0.941729  1
  Nd  Nd12  1  0.558885  0.936938  0.566479  1
  Nd  Nd13  1  0.936938  0.558885  0.937697  1
  Nd  Nd14  1  0.563912  0.563912  0.936088  1
  Nd  Nd15  1  0.937640  0.937640  0.562360  1
  Cd  Cd16  1  0.581645  0.578407  0.579515  1
  Cd  Cd17  1  0.578407  0.581645  0.260433  1
  Cd  Cd18  1  0.580151  0.258013  0.582042  1
  Cd  Cd19  1  0.258013  0.580151  0.579796  1
  Pd  Pd20  1  0.144572  0.572179  0.142758  1
  Pd  Pd21  1  0.572179  0.144572  0.140490  1
  Ru  Ru22  1  0.147675  0.142621  0.136166  1
  Ru  Ru23  1  0.142621  0.147675  0.573538  1
