# generated using pymatgen
data_ScTa5FeB4Ru9
_symmetry_space_group_name_H-M   'P 1'
_cell_length_a   9.36848770
_cell_length_b   9.36848748
_cell_length_c   3.04917800
_cell_angle_alpha   90.00000000
_cell_angle_beta   90.00000000
_cell_angle_gamma   89.79498610
_symmetry_Int_Tables_number   1
_chemical_formula_structural   ScTa5FeB4Ru9
_chemical_formula_sum   'Sc1 Ta5 Fe1 B4 Ru9'
_cell_volume   267.62024810
_cell_formula_units_Z   1
loop_
 _symmetry_equiv_pos_site_id
 _symmetry_equiv_pos_as_xyz
  1  'x, y, z'
loop_
 _atom_site_type_symbol
 _atom_site_label
 _atom_site_symmetry_multiplicity
 _atom_site_fract_x
 _atom_site_fract_y
 _atom_site_fract_z
 _atom_site_occupancy
  Sc  Sc0  1  0.822379  0.677621  0.000000  1
  Ta  Ta1  1  0.178010  0.321990  0.000000  1
  Ta  Ta2  1  0.328995  0.828886  0.000000  1
  Ta  Ta3  1  0.671114  0.171005  0.000000  1
  Ta  Ta4  1  0.502060  0.501203  0.000000  1
  Ta  Ta5  1  0.998797  0.997940  0.000000  1
  Fe  Fe6  1  0.497878  0.002122  0.500000  1
  B  B7  1  0.612537  0.887463  0.000000  1
  B  B8  1  0.387894  0.112106  0.000000  1
  B  B9  1  0.121397  0.621281  0.000000  1
  B  B10  1  0.878719  0.378603  0.000000  1
  Ru  Ru11  1  0.560923  0.726883  0.500000  1
  Ru  Ru12  1  0.430330  0.277745  0.500000  1
  Ru  Ru13  1  0.078253  0.783709  0.500000  1
  Ru  Ru14  1  0.930512  0.215846  0.500000  1
  Ru  Ru15  1  0.284154  0.569488  0.500000  1
  Ru  Ru16  1  0.716291  0.421747  0.500000  1
  Ru  Ru17  1  0.222255  0.069670  0.500000  1
  Ru  Ru18  1  0.773117  0.939077  0.500000  1
  Ru  Ru19  1  0.004386  0.495614  0.500000  1
