# generated using pymatgen
data_Nd9LuIn6
_symmetry_space_group_name_H-M   'P 1'
_cell_length_a   6.19828650
_cell_length_b   9.41831083
_cell_length_c   9.41831096
_cell_angle_alpha   83.78398000
_cell_angle_beta   70.78856514
_cell_angle_gamma   70.78856782
_symmetry_Int_Tables_number   1
_chemical_formula_structural   Nd9LuIn6
_chemical_formula_sum   'Nd9 Lu1 In6'
_cell_volume   490.28379069
_cell_formula_units_Z   1
loop_
 _symmetry_equiv_pos_site_id
 _symmetry_equiv_pos_as_xyz
  1  'x, y, z'
loop_
 _atom_site_type_symbol
 _atom_site_label
 _atom_site_symmetry_multiplicity
 _atom_site_fract_x
 _atom_site_fract_y
 _atom_site_fract_z
 _atom_site_occupancy
  Nd  Nd0  1  0.723214  0.863444  0.693578  1
  Nd  Nd1  1  0.280236  0.136556  0.306422  1
  Nd  Nd2  1  0.776786  0.306422  0.136556  1
  Nd  Nd3  1  0.219764  0.693578  0.863444  1
  Nd  Nd4  1  0.583209  0.693578  0.136556  1
  Nd  Nd5  1  0.413343  0.306422  0.863444  1
  Nd  Nd6  1  0.086657  0.136556  0.693578  1
  Nd  Nd7  1  0.916791  0.863444  0.306422  1
  Nd  Nd8  1  0.750000  0.500000  0.500000  1
  Lu  Lu9  1  0.250000  0.500000  0.500000  1
  In  In10  1  0.163175  0.500000  0.181877  1
  In  In11  1  0.845052  0.500000  0.818123  1
  In  In12  1  0.336825  0.818123  0.500000  1
  In  In13  1  0.654948  0.181877  0.500000  1
  In  In14  1  0.250000  0.000000  0.000000  1
  In  In15  1  0.750000  0.000000  0.000000  1
