# generated using pymatgen
data_Er11TmCo3Ni
_symmetry_space_group_name_H-M   'P 1'
_cell_length_a   6.15980606
_cell_length_b   6.86608397
_cell_length_c   9.37880206
_cell_angle_alpha   90.00023284
_cell_angle_beta   89.98699815
_cell_angle_gamma   90.05801481
_symmetry_Int_Tables_number   1
_chemical_formula_structural   Er11TmCo3Ni
_chemical_formula_sum   'Er11 Tm1 Co3 Ni1'
_cell_volume   396.66445528
_cell_formula_units_Z   1
loop_
 _symmetry_equiv_pos_site_id
 _symmetry_equiv_pos_as_xyz
  1  'x, y, z'
loop_
 _atom_site_type_symbol
 _atom_site_label
 _atom_site_symmetry_multiplicity
 _atom_site_fract_x
 _atom_site_fract_y
 _atom_site_fract_z
 _atom_site_occupancy
  Er  Er0  1  0.176366  0.180047  0.435416  1
  Er  Er1  1  0.677172  0.322854  0.567068  1
  Er  Er2  1  0.822216  0.822857  0.931043  1
  Er  Er3  1  0.677123  0.322936  0.932990  1
  Er  Er4  1  0.822298  0.822930  0.569057  1
  Er  Er5  1  0.326380  0.675539  0.434451  1
  Er  Er6  1  0.176472  0.180058  0.064606  1
  Er  Er7  1  0.858627  0.536947  0.249886  1
  Er  Er8  1  0.634247  0.040625  0.249951  1
  Er  Er9  1  0.138108  0.458595  0.750064  1
  Er  Er10  1  0.361612  0.958753  0.750089  1
  Tm  Tm11  1  0.326380  0.675611  0.065478  1
  Co  Co12  1  0.448674  0.388073  0.249915  1
  Co  Co13  1  0.953197  0.112452  0.749983  1
  Co  Co14  1  0.546363  0.611851  0.750114  1
  Ni  Ni15  1  0.054767  0.889873  0.249888  1
