# generated using pymatgen
data_Dy4Y2ScCo17P12
_symmetry_space_group_name_H-M   'P 1'
_cell_length_a   3.71623600
_cell_length_b   10.59775200
_cell_length_c   12.29284100
_cell_angle_alpha   90.00000000
_cell_angle_beta   90.00000000
_cell_angle_gamma   90.00000000
_symmetry_Int_Tables_number   1
_chemical_formula_structural   Dy4Y2ScCo17P12
_chemical_formula_sum   'Dy4 Y2 Sc1 Co17 P12'
_cell_volume   484.13814602
_cell_formula_units_Z   1
loop_
 _symmetry_equiv_pos_site_id
 _symmetry_equiv_pos_as_xyz
  1  'x, y, z'
loop_
 _atom_site_type_symbol
 _atom_site_label
 _atom_site_symmetry_multiplicity
 _atom_site_fract_x
 _atom_site_fract_y
 _atom_site_fract_z
 _atom_site_occupancy
  Dy  Dy0  1  0.500000  0.821461  0.207325  1
  Dy  Dy1  1  0.500000  0.178539  0.207325  1
  Dy  Dy2  1  0.000000  0.682620  0.795686  1
  Dy  Dy3  1  0.000000  0.317380  0.795686  1
  Y  Y4  1  0.000000  0.500000  0.527606  1
  Y  Y5  1  0.500000  0.000000  0.477776  1
  Sc  Sc6  1  0.500000  0.500000  0.152399  1
  Co  Co7  1  0.000000  0.000000  0.837474  1
  Co  Co8  1  0.500000  0.500000  0.703799  1
  Co  Co9  1  0.000000  0.000000  0.295794  1
  Co  Co10  1  0.000000  0.500000  0.984525  1
  Co  Co11  1  0.500000  0.000000  0.013067  1
  Co  Co12  1  0.500000  0.326862  0.989737  1
  Co  Co13  1  0.500000  0.673138  0.989737  1
  Co  Co14  1  0.000000  0.162013  0.001390  1
  Co  Co15  1  0.000000  0.837987  0.001390  1
  Co  Co16  1  0.500000  0.294516  0.434114  1
  Co  Co17  1  0.500000  0.705484  0.434114  1
  Co  Co18  1  0.000000  0.202065  0.570652  1
  Co  Co19  1  0.000000  0.797935  0.570652  1
  Co  Co20  1  0.500000  0.880387  0.707910  1
  Co  Co21  1  0.500000  0.119613  0.707910  1
  Co  Co22  1  0.000000  0.622567  0.296446  1
  Co  Co23  1  0.000000  0.377433  0.296446  1
  P  P24  1  0.500000  0.500000  0.883199  1
  P  P25  1  0.000000  0.000000  0.115974  1
  P  P26  1  0.500000  0.500000  0.357689  1
  P  P27  1  0.000000  0.000000  0.655578  1
  P  P28  1  0.500000  0.308897  0.617904  1
  P  P29  1  0.500000  0.691103  0.617904  1
  P  P30  1  0.000000  0.189198  0.386112  1
  P  P31  1  0.000000  0.810802  0.386112  1
  P  P32  1  0.500000  0.851734  0.889150  1
  P  P33  1  0.500000  0.148266  0.889150  1
  P  P34  1  0.000000  0.663406  0.101133  1
  P  P35  1  0.000000  0.336594  0.101133  1
