# generated using pymatgen
data_Yb3Cd3PdPt2
_symmetry_space_group_name_H-M   'P 1'
_cell_length_a   7.50325600
_cell_length_b   7.50325673
_cell_length_c   4.05766700
_cell_angle_alpha   90.00000000
_cell_angle_beta   90.00000000
_cell_angle_gamma   120.00001440
_symmetry_Int_Tables_number   1
_chemical_formula_structural   Yb3Cd3PdPt2
_chemical_formula_sum   'Yb3 Cd3 Pd1 Pt2'
_cell_volume   197.83655574
_cell_formula_units_Z   1
loop_
 _symmetry_equiv_pos_site_id
 _symmetry_equiv_pos_as_xyz
  1  'x, y, z'
loop_
 _atom_site_type_symbol
 _atom_site_label
 _atom_site_symmetry_multiplicity
 _atom_site_fract_x
 _atom_site_fract_y
 _atom_site_fract_z
 _atom_site_occupancy
  Yb  Yb0  1  0.409198  0.409198  0.500000  1
  Yb  Yb1  1  0.590802  0.000000  0.500000  1
  Yb  Yb2  1  0.000000  0.590802  0.500000  1
  Cd  Cd3  1  0.745399  0.745399  0.000000  1
  Cd  Cd4  1  0.254601  0.000000  0.000000  1
  Cd  Cd5  1  0.000000  0.254601  0.000000  1
  Pd  Pd6  1  0.000000  0.000000  0.500000  1
  Pt  Pt7  1  0.666667  0.333333  0.000000  1
  Pt  Pt8  1  0.333333  0.666667  0.000000  1
