# generated using pymatgen
data_Tb3Sn3IrPdRu
_symmetry_space_group_name_H-M   'P 1'
_cell_length_a   7.68704200
_cell_length_b   7.68704317
_cell_length_c   3.83555800
_cell_angle_alpha   90.00000000
_cell_angle_beta   90.00000000
_cell_angle_gamma   119.99999498
_symmetry_Int_Tables_number   1
_chemical_formula_structural   Tb3Sn3IrPdRu
_chemical_formula_sum   'Tb3 Sn3 Ir1 Pd1 Ru1'
_cell_volume   196.28078306
_cell_formula_units_Z   1
loop_
 _symmetry_equiv_pos_site_id
 _symmetry_equiv_pos_as_xyz
  1  'x, y, z'
loop_
 _atom_site_type_symbol
 _atom_site_label
 _atom_site_symmetry_multiplicity
 _atom_site_fract_x
 _atom_site_fract_y
 _atom_site_fract_z
 _atom_site_occupancy
  Tb  Tb0  1  0.602527  0.014253  0.000000  1
  Tb  Tb1  1  0.985747  0.588274  0.000000  1
  Tb  Tb2  1  0.411726  0.397473  0.000000  1
  Sn  Sn3  1  0.258676  0.996968  0.500000  1
  Sn  Sn4  1  0.003032  0.261708  0.500000  1
  Sn  Sn5  1  0.738292  0.741324  0.500000  1
  Ir  Ir6  1  0.666667  0.333333  0.500000  1
  Pd  Pd7  1  0.333333  0.666667  0.500000  1
  Ru  Ru8  1  0.000000  0.000000  0.000000  1
