# generated using pymatgen
data_OsCl30
_symmetry_space_group_name_H-M   'P 1'
_cell_length_a   13.76460922
_cell_length_b   13.76460951
_cell_length_c   16.11461212
_cell_angle_alpha   83.85190641
_cell_angle_beta   83.85190717
_cell_angle_gamma   125.00635279
_symmetry_Int_Tables_number   1
_chemical_formula_structural   OsCl30
_chemical_formula_sum   'Os1 Cl30'
_cell_volume   2432.58485467
_cell_formula_units_Z   1
loop_
 _symmetry_equiv_pos_site_id
 _symmetry_equiv_pos_as_xyz
  1  'x, y, z'
loop_
 _atom_site_type_symbol
 _atom_site_label
 _atom_site_symmetry_multiplicity
 _atom_site_fract_x
 _atom_site_fract_y
 _atom_site_fract_z
 _atom_site_occupancy
  Os  Os0  1  0.000000  0.000000  0.000000  1
  Cl  Cl1  1  0.947094  0.947094  0.148710  1
  Cl  Cl2  1  0.052906  0.052906  0.851290  1
  Cl  Cl3  1  0.058660  0.191459  0.005263  1
  Cl  Cl4  1  0.941340  0.808541  0.994737  1
  Cl  Cl5  1  0.191459  0.058660  0.005263  1
  Cl  Cl6  1  0.808541  0.941340  0.994737  1
  Cl  Cl7  1  0.203717  0.743602  0.063568  1
  Cl  Cl8  1  0.796283  0.256398  0.936432  1
  Cl  Cl9  1  0.701023  0.076611  0.263520  1
  Cl  Cl10  1  0.256398  0.796283  0.936432  1
  Cl  Cl11  1  0.298977  0.923389  0.736480  1
  Cl  Cl12  1  0.743602  0.203717  0.063568  1
  Cl  Cl13  1  0.976612  0.198508  0.781989  1
  Cl  Cl14  1  0.923389  0.298977  0.736480  1
  Cl  Cl15  1  0.023388  0.801492  0.218011  1
  Cl  Cl16  1  0.076611  0.701023  0.263520  1
  Cl  Cl17  1  0.801492  0.023388  0.218011  1
  Cl  Cl18  1  0.198508  0.976612  0.781989  1
  Cl  Cl19  1  0.464707  0.546401  0.258874  1
  Cl  Cl20  1  0.535293  0.453599  0.741126  1
  Cl  Cl21  1  0.508015  0.206411  0.451123  1
  Cl  Cl22  1  0.453599  0.535293  0.741126  1
  Cl  Cl23  1  0.491985  0.793589  0.548877  1
  Cl  Cl24  1  0.546401  0.464707  0.258874  1
  Cl  Cl25  1  0.240179  0.429670  0.543497  1
  Cl  Cl26  1  0.793589  0.491985  0.548877  1
  Cl  Cl27  1  0.759821  0.570330  0.456503  1
  Cl  Cl28  1  0.206411  0.508015  0.451123  1
  Cl  Cl29  1  0.570330  0.759821  0.456503  1
  Cl  Cl30  1  0.429670  0.240179  0.543497  1
