# generated using pymatgen
data_Tb7Nd6Th3(CdIr)4
_symmetry_space_group_name_H-M   'P 1'
_cell_length_a   9.86062161
_cell_length_b   9.85077106
_cell_length_c   9.85077200
_cell_angle_alpha   60.00000357
_cell_angle_beta   60.03304402
_cell_angle_gamma   60.03305001
_symmetry_Int_Tables_number   1
_chemical_formula_structural   Tb7Nd6Th3(CdIr)4
_chemical_formula_sum   'Tb7 Nd6 Th3 Cd4 Ir4'
_cell_volume   676.93435101
_cell_formula_units_Z   1
loop_
 _symmetry_equiv_pos_site_id
 _symmetry_equiv_pos_as_xyz
  1  'x, y, z'
loop_
 _atom_site_type_symbol
 _atom_site_label
 _atom_site_symmetry_multiplicity
 _atom_site_fract_x
 _atom_site_fract_y
 _atom_site_fract_z
 _atom_site_occupancy
  Tb  Tb0  1  0.953522  0.348826  0.348826  1
  Tb  Tb1  1  0.812635  0.188424  0.188424  1
  Tb  Tb2  1  0.188766  0.812663  0.812663  1
  Tb  Tb3  1  0.188766  0.812663  0.185909  1
  Tb  Tb4  1  0.812635  0.188424  0.810518  1
  Tb  Tb5  1  0.188766  0.185909  0.812663  1
  Tb  Tb6  1  0.812635  0.810518  0.188424  1
  Nd  Nd7  1  0.937945  0.562222  0.562222  1
  Nd  Nd8  1  0.562006  0.937883  0.937883  1
  Nd  Nd9  1  0.562006  0.937883  0.562227  1
  Nd  Nd10  1  0.937945  0.562222  0.937611  1
  Nd  Nd11  1  0.562006  0.562227  0.937883  1
  Nd  Nd12  1  0.937945  0.937611  0.562222  1
  Th  Th13  1  0.345439  0.348200  0.348200  1
  Th  Th14  1  0.345439  0.348200  0.958162  1
  Th  Th15  1  0.345439  0.958162  0.348200  1
  Cd  Cd16  1  0.580469  0.579244  0.579244  1
  Cd  Cd17  1  0.580469  0.579244  0.261043  1
  Cd  Cd18  1  0.580469  0.261043  0.579244  1
  Cd  Cd19  1  0.258987  0.580337  0.580337  1
  Ir  Ir20  1  0.145116  0.141327  0.141327  1
  Ir  Ir21  1  0.145116  0.141327  0.572230  1
  Ir  Ir22  1  0.145116  0.572230  0.141327  1
  Ir  Ir23  1  0.570361  0.143213  0.143213  1
