# generated using pymatgen
data_Np3Zn22
_symmetry_space_group_name_H-M   'P 1'
_cell_length_a   11.90954262
_cell_length_b   8.57431105
_cell_length_c   8.57431100
_cell_angle_alpha   90.00000000
_cell_angle_beta   111.09875556
_cell_angle_gamma   111.09875342
_symmetry_Int_Tables_number   1
_chemical_formula_structural   Np3Zn22
_chemical_formula_sum   'Np6 Zn44'
_cell_volume   753.62265056
_cell_formula_units_Z   2
loop_
 _symmetry_equiv_pos_site_id
 _symmetry_equiv_pos_as_xyz
  1  'x, y, z'
loop_
 _atom_site_type_symbol
 _atom_site_label
 _atom_site_symmetry_multiplicity
 _atom_site_fract_x
 _atom_site_fract_y
 _atom_site_fract_z
 _atom_site_occupancy
  Np  Np0  1  0.505866  0.252932  0.002932  1
  Np  Np1  1  0.994135  0.497068  0.247068  1
  Np  Np2  1  0.250000  0.125000  0.375000  1
  Np  Np3  1  0.750000  0.875000  0.625000  1
  Np  Np4  1  0.005866  0.502932  0.752932  1
  Np  Np5  1  0.494134  0.747067  0.997067  1
  Zn  Zn6  1  0.000000  0.000000  0.000000  1
  Zn  Zn7  1  0.236274  0.118138  0.017443  1
  Zn  Zn8  1  0.121726  0.320716  0.080769  1
  Zn  Zn9  1  0.121726  0.801009  0.080769  1
  Zn  Zn10  1  0.247727  0.623863  0.093012  1
  Zn  Zn11  1  0.747727  0.154715  0.123863  1
  Zn  Zn12  1  0.747727  0.593012  0.123863  1
  Zn  Zn13  1  0.378274  0.419230  0.179284  1
  Zn  Zn14  1  0.378274  0.959044  0.179284  1
  Zn  Zn15  1  0.977588  0.143310  0.238795  1
  Zn  Zn16  1  0.977588  0.834279  0.238795  1
  Zn  Zn17  1  0.763726  0.881862  0.281169  1
  Zn  Zn18  1  0.621725  0.040955  0.301008  1
  Zn  Zn19  1  0.621725  0.580770  0.301008  1
  Zn  Zn20  1  0.477587  0.738794  0.334278  1
  Zn  Zn21  1  0.752273  0.376137  0.345285  1
  Zn  Zn22  1  0.522412  0.261206  0.356690  1
  Zn  Zn23  1  0.263726  0.482556  0.381862  1
  Zn  Zn24  1  0.263726  0.781169  0.381862  1
  Zn  Zn25  1  0.878275  0.198992  0.459044  1
  Zn  Zn26  1  0.878275  0.679284  0.459044  1
  Zn  Zn27  1  0.500000  0.000000  0.500000  1
  Zn  Zn28  1  0.500000  0.500000  0.500000  1
  Zn  Zn29  1  0.000000  0.000000  0.500000  1
  Zn  Zn30  1  0.121726  0.320716  0.540956  1
  Zn  Zn31  1  0.121726  0.801009  0.540956  1
  Zn  Zn32  1  0.736274  0.218831  0.618137  1
  Zn  Zn33  1  0.736274  0.517443  0.618137  1
  Zn  Zn34  1  0.477587  0.738794  0.643309  1
  Zn  Zn35  1  0.247727  0.623863  0.654716  1
  Zn  Zn36  1  0.522412  0.261206  0.665722  1
  Zn  Zn37  1  0.378274  0.419230  0.698991  1
  Zn  Zn38  1  0.378274  0.959044  0.698991  1
  Zn  Zn39  1  0.236274  0.118138  0.718832  1
  Zn  Zn40  1  0.022413  0.165722  0.761205  1
  Zn  Zn41  1  0.022413  0.856691  0.761205  1
  Zn  Zn42  1  0.621725  0.040955  0.820716  1
  Zn  Zn43  1  0.621725  0.580770  0.820716  1
  Zn  Zn44  1  0.252273  0.406988  0.876136  1
  Zn  Zn45  1  0.252273  0.845285  0.876136  1
  Zn  Zn46  1  0.752273  0.376137  0.906989  1
  Zn  Zn47  1  0.878275  0.198992  0.919231  1
  Zn  Zn48  1  0.878275  0.679284  0.919231  1
  Zn  Zn49  1  0.763726  0.881862  0.982558  1
