# generated using pymatgen
data_Nd4Mg(InAu5)2
_symmetry_space_group_name_H-M   'P 1'
_cell_length_a   8.72523244
_cell_length_b   8.72521837
_cell_length_c   10.33772000
_cell_angle_alpha   90.00000000
_cell_angle_beta   90.00000000
_cell_angle_gamma   107.95277547
_symmetry_Int_Tables_number   1
_chemical_formula_structural   Nd4Mg(InAu5)2
_chemical_formula_sum   'Nd8 Mg2 In4 Au20'
_cell_volume   748.68743471
_cell_formula_units_Z   2
loop_
 _symmetry_equiv_pos_site_id
 _symmetry_equiv_pos_as_xyz
  1  'x, y, z'
loop_
 _atom_site_type_symbol
 _atom_site_label
 _atom_site_symmetry_multiplicity
 _atom_site_fract_x
 _atom_site_fract_y
 _atom_site_fract_z
 _atom_site_occupancy
  Nd  Nd0  1  0.700676  0.299318  0.000000  1
  Nd  Nd1  1  0.200676  0.799318  0.500000  1
  Nd  Nd2  1  0.799969  0.799975  0.298020  1
  Nd  Nd3  1  0.299969  0.299975  0.201980  1
  Nd  Nd4  1  0.799324  0.200682  0.500000  1
  Nd  Nd5  1  0.299324  0.700682  0.000000  1
  Nd  Nd6  1  0.700031  0.700025  0.798020  1
  Nd  Nd7  1  0.200031  0.200025  0.701980  1
  Mg  Mg8  1  0.000000  0.000000  0.000000  1
  Mg  Mg9  1  0.500000  0.500000  0.500000  1
  In  In10  1  0.516204  0.016204  0.250000  1
  In  In11  1  0.983796  0.483796  0.750000  1
  In  In12  1  0.016204  0.516204  0.250000  1
  In  In13  1  0.483796  0.983796  0.750000  1
  Au  Au14  1  0.165226  0.432277  0.476000  1
  Au  Au15  1  0.904486  0.904487  0.594819  1
  Au  Au16  1  0.567721  0.834774  0.524001  1
  Au  Au17  1  0.892395  0.166685  0.205889  1
  Au  Au18  1  0.392395  0.666685  0.294111  1
  Au  Au19  1  0.666684  0.392393  0.294109  1
  Au  Au20  1  0.404486  0.404487  0.905181  1
  Au  Au21  1  0.932279  0.665226  0.024001  1
  Au  Au22  1  0.333316  0.607607  0.705891  1
  Au  Au23  1  0.334774  0.067723  0.976000  1
  Au  Au24  1  0.595514  0.595513  0.094819  1
  Au  Au25  1  0.665226  0.932277  0.024000  1
  Au  Au26  1  0.095514  0.095513  0.405181  1
  Au  Au27  1  0.607605  0.333315  0.705889  1
  Au  Au28  1  0.107605  0.833315  0.794111  1
  Au  Au29  1  0.067721  0.334774  0.975999  1
  Au  Au30  1  0.834774  0.567723  0.524000  1
  Au  Au31  1  0.166684  0.892393  0.205891  1
  Au  Au32  1  0.432279  0.165226  0.475999  1
  Au  Au33  1  0.833316  0.107607  0.794109  1
