# generated using pymatgen
data_Ac10Pr5Sm5Sn16
_symmetry_space_group_name_H-M   'P 1'
_cell_length_a   8.52080892
_cell_length_b   8.67639809
_cell_length_c   16.55765924
_cell_angle_alpha   89.71103834
_cell_angle_beta   90.00383134
_cell_angle_gamma   90.07693644
_symmetry_Int_Tables_number   1
_chemical_formula_structural   Ac10Pr5Sm5Sn16
_chemical_formula_sum   'Ac10 Pr5 Sm5 Sn16'
_cell_volume   1224.08991922
_cell_formula_units_Z   1
loop_
 _symmetry_equiv_pos_site_id
 _symmetry_equiv_pos_as_xyz
  1  'x, y, z'
loop_
 _atom_site_type_symbol
 _atom_site_label
 _atom_site_symmetry_multiplicity
 _atom_site_fract_x
 _atom_site_fract_y
 _atom_site_fract_z
 _atom_site_occupancy
  Ac  Ac0  1  0.488310  0.819733  0.904201  1
  Ac  Ac1  1  0.988704  0.680705  0.596032  1
  Ac  Ac2  1  0.513141  0.176826  0.400470  1
  Ac  Ac3  1  0.013124  0.322905  0.098951  1
  Ac  Ac4  1  0.512508  0.182000  0.099184  1
  Ac  Ac5  1  0.012250  0.318050  0.400841  1
  Ac  Ac6  1  0.484681  0.817999  0.596879  1
  Ac  Ac7  1  0.985236  0.682265  0.903395  1
  Ac  Ac8  1  0.640648  0.340420  0.883775  1
  Ac  Ac9  1  0.140865  0.159378  0.616390  1
  Pr  Pr10  1  0.360547  0.659751  0.374409  1
  Pr  Pr11  1  0.860327  0.840485  0.125487  1
  Pr  Pr12  1  0.355539  0.660449  0.121372  1
  Pr  Pr13  1  0.855593  0.839974  0.378316  1
  Pr  Pr14  1  0.644621  0.338134  0.623095  1
  Sm  Sm15  1  0.144686  0.161544  0.876534  1
  Sm  Sm16  1  0.306061  0.497595  0.751786  1
  Sm  Sm17  1  0.807232  0.001946  0.749131  1
  Sm  Sm18  1  0.694277  0.500851  0.250347  1
  Sm  Sm19  1  0.194396  0.998961  0.249480  1
  Sn  Sn20  1  0.193463  0.962760  0.042350  1
  Sn  Sn21  1  0.693622  0.538528  0.456305  1
  Sn  Sn22  1  0.790796  0.038263  0.542502  1
  Sn  Sn23  1  0.289441  0.459195  0.956985  1
  Sn  Sn24  1  0.819180  0.036771  0.958644  1
  Sn  Sn25  1  0.316137  0.464365  0.540909  1
  Sn  Sn26  1  0.196820  0.951660  0.449457  1
  Sn  Sn27  1  0.696554  0.548273  0.050585  1
  Sn  Sn28  1  0.682909  0.645891  0.748955  1
  Sn  Sn29  1  0.182747  0.855770  0.751896  1
  Sn  Sn30  1  0.317734  0.358354  0.249391  1
  Sn  Sn31  1  0.817385  0.141749  0.250506  1
  Sn  Sn32  1  0.442827  0.121149  0.752281  1
  Sn  Sn33  1  0.945504  0.377383  0.749177  1
  Sn  Sn34  1  0.556074  0.873601  0.248735  1
  Sn  Sn35  1  0.056061  0.626318  0.251245  1
