# generated using pymatgen
data_Tm6FeCo22
_symmetry_space_group_name_H-M   'P 1'
_cell_length_a   8.29515600
_cell_length_b   8.29515667
_cell_length_c   8.29515600
_cell_angle_alpha   119.99999735
_cell_angle_beta   90.00000000
_cell_angle_gamma   119.99999735
_symmetry_Int_Tables_number   1
_chemical_formula_structural   Tm6FeCo22
_chemical_formula_sum   'Tm6 Fe1 Co22'
_cell_volume   403.60705162
_cell_formula_units_Z   1
loop_
 _symmetry_equiv_pos_site_id
 _symmetry_equiv_pos_as_xyz
  1  'x, y, z'
loop_
 _atom_site_type_symbol
 _atom_site_label
 _atom_site_symmetry_multiplicity
 _atom_site_fract_x
 _atom_site_fract_y
 _atom_site_fract_z
 _atom_site_occupancy
  Tm  Tm0  1  0.713479  0.000000  0.286520  1
  Tm  Tm1  1  0.286521  0.000000  0.286521  1
  Tm  Tm2  1  0.286521  0.573042  0.286521  1
  Tm  Tm3  1  0.286520  0.000000  0.713479  1
  Tm  Tm4  1  0.713479  0.000000  0.713479  1
  Tm  Tm5  1  0.713479  0.426959  0.713479  1
  Fe  Fe6  1  0.000000  0.000000  0.000000  1
  Co  Co7  1  0.500001  0.000000  0.000000  1
  Co  Co8  1  0.000000  0.500001  0.000000  1
  Co  Co9  1  0.500001  0.500001  0.000000  1
  Co  Co10  1  0.676665  0.353330  0.029996  1
  Co  Co11  1  0.876685  0.753369  0.123315  1
  Co  Co12  1  0.369945  0.246630  0.123315  1
  Co  Co13  1  0.876685  0.246630  0.123315  1
  Co  Co14  1  0.676665  0.353330  0.323334  1
  Co  Co15  1  0.676665  0.646670  0.323334  1
  Co  Co16  1  0.970004  0.646670  0.323334  1
  Co  Co17  1  0.123315  0.246630  0.369945  1
  Co  Co18  1  0.000000  0.000000  0.500001  1
  Co  Co19  1  0.000000  0.500001  0.500001  1
  Co  Co20  1  0.500001  0.500001  0.500001  1
  Co  Co21  1  0.876685  0.753369  0.630054  1
  Co  Co22  1  0.029996  0.353330  0.676665  1
  Co  Co23  1  0.323334  0.353330  0.676665  1
  Co  Co24  1  0.323334  0.646670  0.676665  1
  Co  Co25  1  0.123315  0.246630  0.876685  1
  Co  Co26  1  0.123315  0.753369  0.876685  1
  Co  Co27  1  0.630054  0.753369  0.876685  1
  Co  Co28  1  0.323334  0.646670  0.970004  1
