# generated using pymatgen
data_Nd4HoTm5Si8
_symmetry_space_group_name_H-M   'P 1'
_cell_length_a   7.71518000
_cell_length_b   7.71630593
_cell_length_c   14.19644171
_cell_angle_alpha   90.05621558
_cell_angle_beta   90.00000000
_cell_angle_gamma   90.00000000
_symmetry_Int_Tables_number   1
_chemical_formula_structural   Nd4HoTm5Si8
_chemical_formula_sum   'Nd8 Ho2 Tm10 Si16'
_cell_volume   845.15194480
_cell_formula_units_Z   2
loop_
 _symmetry_equiv_pos_site_id
 _symmetry_equiv_pos_as_xyz
  1  'x, y, z'
loop_
 _atom_site_type_symbol
 _atom_site_label
 _atom_site_symmetry_multiplicity
 _atom_site_fract_x
 _atom_site_fract_y
 _atom_site_fract_z
 _atom_site_occupancy
  Nd  Nd0  1  0.642175  0.992683  0.458991  1
  Nd  Nd1  1  0.357743  0.007244  0.958997  1
  Nd  Nd2  1  0.992748  0.642198  0.540932  1
  Nd  Nd3  1  0.492748  0.857802  0.209068  1
  Nd  Nd4  1  0.507086  0.142251  0.709072  1
  Nd  Nd5  1  0.857743  0.492756  0.791003  1
  Nd  Nd6  1  0.142175  0.507317  0.291009  1
  Nd  Nd7  1  0.007086  0.357749  0.040928  1
  Ho  Ho8  1  0.493157  0.359893  0.124202  1
  Ho  Ho9  1  0.993157  0.140107  0.625798  1
  Tm  Tm10  1  0.859771  0.006586  0.874228  1
  Tm  Tm11  1  0.140188  0.993238  0.374212  1
  Tm  Tm12  1  0.506771  0.640215  0.624184  1
  Tm  Tm13  1  0.359771  0.493414  0.875772  1
  Tm  Tm14  1  0.640188  0.506762  0.375788  1
  Tm  Tm15  1  0.006771  0.859785  0.125816  1
  Tm  Tm16  1  0.318440  0.318368  0.499934  1
  Tm  Tm17  1  0.181897  0.818043  0.750075  1
  Tm  Tm18  1  0.818440  0.181632  0.250066  1
  Tm  Tm19  1  0.681897  0.681957  0.999925  1
  Si  Si20  1  0.289637  0.937304  0.561602  1
  Si  Si21  1  0.711135  0.061851  0.061642  1
  Si  Si22  1  0.937612  0.289449  0.437890  1
  Si  Si23  1  0.437612  0.210551  0.312110  1
  Si  Si24  1  0.562269  0.789116  0.811758  1
  Si  Si25  1  0.211135  0.438149  0.688358  1
  Si  Si26  1  0.789637  0.562696  0.188398  1
  Si  Si27  1  0.062269  0.710884  0.938242  1
  Si  Si28  1  0.795288  0.848503  0.687837  1
  Si  Si29  1  0.203799  0.150500  0.187810  1
  Si  Si30  1  0.849071  0.795602  0.312327  1
  Si  Si31  1  0.349071  0.704398  0.437673  1
  Si  Si32  1  0.651211  0.295585  0.937337  1
  Si  Si33  1  0.703799  0.349500  0.562190  1
  Si  Si34  1  0.295288  0.651497  0.062163  1
  Si  Si35  1  0.151211  0.204415  0.812663  1
