# generated using pymatgen
data_Ti7AlCr2(Si3C)2
_symmetry_space_group_name_H-M   'P 1'
_cell_length_a   7.38048300
_cell_length_b   7.38048345
_cell_length_c   4.98515600
_cell_angle_alpha   90.00000000
_cell_angle_beta   90.00000000
_cell_angle_gamma   120.00000247
_symmetry_Int_Tables_number   1
_chemical_formula_structural   Ti7AlCr2(Si3C)2
_chemical_formula_sum   'Ti7 Al1 Cr2 Si6 C2'
_cell_volume   235.16840248
_cell_formula_units_Z   1
loop_
 _symmetry_equiv_pos_site_id
 _symmetry_equiv_pos_as_xyz
  1  'x, y, z'
loop_
 _atom_site_type_symbol
 _atom_site_label
 _atom_site_symmetry_multiplicity
 _atom_site_fract_x
 _atom_site_fract_y
 _atom_site_fract_z
 _atom_site_occupancy
  Ti  Ti0  1  0.333333  0.666667  0.500000  1
  Ti  Ti1  1  0.232323  0.998344  0.252257  1
  Ti  Ti2  1  0.766022  0.998344  0.747743  1
  Ti  Ti3  1  0.001656  0.233978  0.252257  1
  Ti  Ti4  1  0.001656  0.767677  0.747743  1
  Ti  Ti5  1  0.766022  0.767677  0.252257  1
  Ti  Ti6  1  0.232323  0.233978  0.747743  1
  Al  Al7  1  0.666667  0.333333  0.500000  1
  Cr  Cr8  1  0.333333  0.666667  0.000000  1
  Cr  Cr9  1  0.666667  0.333333  0.000000  1
  Si  Si10  1  0.589897  0.998657  0.229180  1
  Si  Si11  1  0.408760  0.998657  0.770820  1
  Si  Si12  1  0.001343  0.591240  0.229180  1
  Si  Si13  1  0.001343  0.410103  0.770820  1
  Si  Si14  1  0.408760  0.410103  0.229180  1
  Si  Si15  1  0.589897  0.591240  0.770820  1
  C  C16  1  0.000000  0.000000  0.000000  1
  C  C17  1  0.000000  0.000000  0.500000  1
