# generated using pymatgen
data_Y6Ho7Th3Tl2(CdIr2)2
_symmetry_space_group_name_H-M   'P 1'
_cell_length_a   9.72891886
_cell_length_b   9.71431883
_cell_length_c   9.71431900
_cell_angle_alpha   59.99999601
_cell_angle_beta   60.04962584
_cell_angle_gamma   60.04962873
_symmetry_Int_Tables_number   1
_chemical_formula_structural   Y6Ho7Th3Tl2(CdIr2)2
_chemical_formula_sum   'Y6 Ho7 Th3 Tl2 Cd2 Ir4'
_cell_volume   649.68022630
_cell_formula_units_Z   1
loop_
 _symmetry_equiv_pos_site_id
 _symmetry_equiv_pos_as_xyz
  1  'x, y, z'
loop_
 _atom_site_type_symbol
 _atom_site_label
 _atom_site_symmetry_multiplicity
 _atom_site_fract_x
 _atom_site_fract_y
 _atom_site_fract_z
 _atom_site_occupancy
  Y  Y0  1  0.938834  0.562834  0.562246  1
  Y  Y1  1  0.563504  0.938960  0.934510  1
  Y  Y2  1  0.563504  0.938960  0.563026  1
  Y  Y3  1  0.938834  0.562834  0.936086  1
  Y  Y4  1  0.562801  0.563516  0.936842  1
  Y  Y5  1  0.936541  0.937635  0.562912  1
  Ho  Ho6  1  0.948390  0.350117  0.350747  1
  Ho  Ho7  1  0.812945  0.187537  0.188958  1
  Ho  Ho8  1  0.186178  0.813188  0.813904  1
  Ho  Ho9  1  0.186178  0.813188  0.186729  1
  Ho  Ho10  1  0.812945  0.187537  0.810560  1
  Ho  Ho11  1  0.186116  0.185540  0.814171  1
  Ho  Ho12  1  0.813124  0.809596  0.188640  1
  Th  Th13  1  0.347301  0.349547  0.350466  1
  Th  Th14  1  0.347301  0.349547  0.952687  1
  Th  Th15  1  0.346418  0.952987  0.350297  1
  Tl  Tl16  1  0.587336  0.582640  0.585258  1
  Tl  Tl17  1  0.587336  0.582640  0.244766  1
  Cd  Cd18  1  0.584813  0.249089  0.583049  1
  Cd  Cd19  1  0.247740  0.582958  0.584652  1
  Ir  Ir20  1  0.143480  0.141944  0.141806  1
  Ir  Ir21  1  0.143480  0.141944  0.572772  1
  Ir  Ir22  1  0.144386  0.572267  0.141674  1
  Ir  Ir23  1  0.570520  0.142998  0.143241  1
