# generated using pymatgen
data_LaPr3CdIr
_symmetry_space_group_name_H-M   'P 1'
_cell_length_a   10.06091304
_cell_length_b   10.06091389
_cell_length_c   10.06091300
_cell_angle_alpha   59.99999965
_cell_angle_beta   59.99999684
_cell_angle_gamma   60.00000260
_symmetry_Int_Tables_number   1
_chemical_formula_structural   LaPr3CdIr
_chemical_formula_sum   'La4 Pr12 Cd4 Ir4'
_cell_volume   720.10731076
_cell_formula_units_Z   4
loop_
 _symmetry_equiv_pos_site_id
 _symmetry_equiv_pos_as_xyz
  1  'x, y, z'
loop_
 _atom_site_type_symbol
 _atom_site_label
 _atom_site_symmetry_multiplicity
 _atom_site_fract_x
 _atom_site_fract_y
 _atom_site_fract_z
 _atom_site_occupancy
  La  La0  1  0.347483  0.347483  0.347483  1
  La  La1  1  0.347483  0.347483  0.957551  1
  La  La2  1  0.347483  0.957551  0.347483  1
  La  La3  1  0.957551  0.347483  0.347483  1
  Pr  Pr4  1  0.809742  0.190258  0.190258  1
  Pr  Pr5  1  0.190258  0.809742  0.809742  1
  Pr  Pr6  1  0.190258  0.809742  0.190258  1
  Pr  Pr7  1  0.809742  0.190258  0.809742  1
  Pr  Pr8  1  0.190258  0.190258  0.809742  1
  Pr  Pr9  1  0.809742  0.809742  0.190258  1
  Pr  Pr10  1  0.938788  0.561212  0.561212  1
  Pr  Pr11  1  0.561212  0.938788  0.938788  1
  Pr  Pr12  1  0.561212  0.938788  0.561212  1
  Pr  Pr13  1  0.938788  0.561212  0.938788  1
  Pr  Pr14  1  0.561212  0.561212  0.938788  1
  Pr  Pr15  1  0.938788  0.938788  0.561212  1
  Cd  Cd16  1  0.580066  0.580066  0.580066  1
  Cd  Cd17  1  0.580066  0.580066  0.259801  1
  Cd  Cd18  1  0.580066  0.259801  0.580066  1
  Cd  Cd19  1  0.259801  0.580066  0.580066  1
  Ir  Ir20  1  0.142081  0.142081  0.142081  1
  Ir  Ir21  1  0.142081  0.142081  0.573758  1
  Ir  Ir22  1  0.142081  0.573758  0.142081  1
  Ir  Ir23  1  0.573758  0.142081  0.142081  1
