# generated using pymatgen
data_Ba14CdSb11
_symmetry_space_group_name_H-M   'P 1'
_cell_length_a   17.94240912
_cell_length_b   17.94240996
_cell_length_c   17.94241000
_cell_angle_alpha   117.77309710
_cell_angle_beta   117.77309850
_cell_angle_gamma   93.90242304
_symmetry_Int_Tables_number   1
_chemical_formula_structural   Ba14CdSb11
_chemical_formula_sum   'Ba56 Cd4 Sb44'
_cell_volume   4211.30316161
_cell_formula_units_Z   4
loop_
 _symmetry_equiv_pos_site_id
 _symmetry_equiv_pos_as_xyz
  1  'x, y, z'
loop_
 _atom_site_type_symbol
 _atom_site_label
 _atom_site_symmetry_multiplicity
 _atom_site_fract_x
 _atom_site_fract_y
 _atom_site_fract_z
 _atom_site_occupancy
  Ba  Ba0  1  0.351043  0.687368  0.975989  1
  Ba  Ba1  1  0.937367  0.101042  0.475990  1
  Ba  Ba2  1  0.775611  0.497454  0.367125  1
  Ba  Ba3  1  0.125000  0.519645  0.894645  1
  Ba  Ba4  1  0.625000  0.230355  0.105355  1
  Ba  Ba5  1  0.711379  0.375054  0.024012  1
  Ba  Ba6  1  0.002546  0.724388  0.632875  1
  Ba  Ba7  1  0.851042  0.875054  0.663675  1
  Ba  Ba8  1  0.125053  0.601042  0.163675  1
  Ba  Ba9  1  0.498626  0.145403  0.396873  1
  Ba  Ba10  1  0.895402  0.998530  0.146777  1
  Ba  Ba11  1  0.354598  0.001375  0.603127  1
  Ba  Ba12  1  0.974389  0.752546  0.132875  1
  Ba  Ba13  1  0.038621  0.874946  0.475988  1
  Ba  Ba14  1  0.538621  0.062632  0.163675  1
  Ba  Ba15  1  0.474389  0.341513  0.221843  1
  Ba  Ba16  1  0.398247  0.751470  0.396873  1
  Ba  Ba17  1  0.395402  0.248625  0.896873  1
  Ba  Ba18  1  0.898958  0.374946  0.836325  1
  Ba  Ba19  1  0.351753  0.498530  0.103127  1
  Ba  Ba20  1  0.480356  0.375000  0.605356  1
  Ba  Ba21  1  0.437368  0.961379  0.836325  1
  Ba  Ba22  1  0.630329  0.997454  0.721843  1
  Ba  Ba23  1  0.751376  0.648248  0.146779  1
  Ba  Ba24  1  0.312632  0.288621  0.663675  1
  Ba  Ba25  1  0.124946  0.788621  0.975989  1
  Ba  Ba26  1  0.247454  0.380329  0.221843  1
  Ba  Ba27  1  0.501469  0.604597  0.853222  1
  Ba  Ba28  1  0.812633  0.148958  0.024010  1
  Ba  Ba29  1  0.769644  0.875000  0.394644  1
  Ba  Ba30  1  0.658487  0.880329  0.132875  1
  Ba  Ba31  1  0.158488  0.025612  0.778158  1
  Ba  Ba32  1  0.998624  0.601752  0.353221  1
  Ba  Ba33  1  0.591512  0.224388  0.721842  1
  Ba  Ba34  1  0.851753  0.748625  0.853222  1
  Ba  Ba35  1  0.619671  0.841513  0.867125  1
  Ba  Ba36  1  0.625054  0.461379  0.524011  1
  Ba  Ba37  1  0.269644  0.875000  0.894644  1
  Ba  Ba38  1  0.275611  0.908487  0.278157  1
  Ba  Ba39  1  0.747454  0.525612  0.867125  1
  Ba  Ba40  1  0.898247  0.501375  0.646778  1
  Ba  Ba41  1  0.125000  0.019645  0.394645  1
  Ba  Ba42  1  0.248531  0.645403  0.646778  1
  Ba  Ba43  1  0.748531  0.101752  0.603127  1
  Ba  Ba44  1  0.980356  0.375000  0.105356  1
  Ba  Ba45  1  0.001469  0.148248  0.896873  1
  Ba  Ba46  1  0.211379  0.187368  0.336325  1
  Ba  Ba47  1  0.625000  0.730355  0.605355  1
  Ba  Ba48  1  0.854598  0.251470  0.353223  1
  Ba  Ba49  1  0.119671  0.252546  0.778157  1
  Ba  Ba50  1  0.502546  0.869671  0.278157  1
  Ba  Ba51  1  0.130329  0.408487  0.632875  1
  Ba  Ba52  1  0.624947  0.648958  0.336325  1
  Ba  Ba53  1  0.251374  0.104597  0.103127  1
  Ba  Ba54  1  0.091513  0.369671  0.367125  1
  Ba  Ba55  1  0.398957  0.562632  0.524011  1
  Cd  Cd56  1  0.500000  0.500000  0.000000  1
  Cd  Cd57  1  0.750000  0.250000  0.500000  1
  Cd  Cd58  1  0.250000  0.750000  0.500000  1
  Cd  Cd59  1  0.000000  0.000000  0.000000  1
  Sb  Sb60  1  0.896997  0.539957  0.093393  1
  Sb  Sb61  1  0.450159  0.809441  0.634269  1
  Sb  Sb62  1  0.853003  0.710043  0.406607  1
  Sb  Sb63  1  0.690559  0.049841  0.365730  1
  Sb  Sb64  1  0.553604  0.146999  0.857041  1
  Sb  Sb65  1  0.559441  0.425172  0.859282  1
  Sb  Sb66  1  0.880199  0.880199  0.260397  1
  Sb  Sb67  1  0.803435  0.210043  0.857039  1
  Sb  Sb68  1  0.500000  0.000000  0.500000  1
  Sb  Sb69  1  0.675172  0.309441  0.359282  1
  Sb  Sb70  1  0.074828  0.940559  0.140718  1
  Sb  Sb71  1  0.289957  0.696563  0.142958  1
  Sb  Sb72  1  0.574828  0.434110  0.134270  1
  Sb  Sb73  1  0.196396  0.103001  0.642959  1
  Sb  Sb74  1  0.750000  0.750000  0.000000  1
  Sb  Sb75  1  0.119801  0.380199  0.000000  1
  Sb  Sb76  1  0.065889  0.925172  0.865730  1
  Sb  Sb77  1  0.175172  0.815890  0.365730  1
  Sb  Sb78  1  0.799841  0.934110  0.859282  1
  Sb  Sb79  1  0.460043  0.553437  0.357042  1
  Sb  Sb80  1  0.190559  0.824828  0.640718  1
  Sb  Sb81  1  0.946565  0.039957  0.642961  1
  Sb  Sb82  1  0.250000  0.250000  0.000000  1
  Sb  Sb83  1  0.059441  0.200159  0.134270  1
  Sb  Sb84  1  0.130199  0.630199  0.760397  1
  Sb  Sb85  1  0.184111  0.549841  0.359282  1
  Sb  Sb86  1  0.960043  0.603001  0.906605  1
  Sb  Sb87  1  0.565889  0.700159  0.140718  1
  Sb  Sb88  1  0.303437  0.446395  0.593394  1
  Sb  Sb89  1  0.869801  0.369801  0.239603  1
  Sb  Sb90  1  0.619801  0.619801  0.739603  1
  Sb  Sb91  1  0.353001  0.946395  0.142958  1
  Sb  Sb92  1  0.369801  0.130199  0.500000  1
  Sb  Sb93  1  0.396999  0.303605  0.357042  1
  Sb  Sb94  1  0.299841  0.440559  0.865731  1
  Sb  Sb95  1  0.696395  0.053437  0.093395  1
  Sb  Sb96  1  0.446563  0.803605  0.906606  1
  Sb  Sb97  1  0.630199  0.869801  0.500000  1
  Sb  Sb98  1  0.000000  0.500000  0.500000  1
  Sb  Sb99  1  0.380199  0.119801  0.000000  1
  Sb  Sb100  1  0.950159  0.315890  0.640718  1
  Sb  Sb101  1  0.053605  0.196563  0.406605  1
  Sb  Sb102  1  0.684111  0.324828  0.634270  1
  Sb  Sb103  1  0.789957  0.646999  0.593395  1
