# generated using pymatgen
data_Y20Al6OsRu
_symmetry_space_group_name_H-M   'P 1'
_cell_length_a   9.59547100
_cell_length_b   9.59547019
_cell_length_c   9.65829000
_cell_angle_alpha   90.00000000
_cell_angle_beta   90.00000000
_cell_angle_gamma   119.99999935
_symmetry_Int_Tables_number   1
_chemical_formula_structural   Y20Al6OsRu
_chemical_formula_sum   'Y20 Al6 Os1 Ru1'
_cell_volume   770.12892234
_cell_formula_units_Z   1
loop_
 _symmetry_equiv_pos_site_id
 _symmetry_equiv_pos_as_xyz
  1  'x, y, z'
loop_
 _atom_site_type_symbol
 _atom_site_label
 _atom_site_symmetry_multiplicity
 _atom_site_fract_x
 _atom_site_fract_y
 _atom_site_fract_z
 _atom_site_occupancy
  Y  Y0  1  0.000000  0.000000  0.499642  1
  Y  Y1  1  0.000000  0.000000  0.000358  1
  Y  Y2  1  0.207178  0.792822  0.440850  1
  Y  Y3  1  0.207178  0.414356  0.440850  1
  Y  Y4  1  0.585644  0.792822  0.440850  1
  Y  Y5  1  0.792759  0.207241  0.559839  1
  Y  Y6  1  0.792759  0.585516  0.559839  1
  Y  Y7  1  0.414484  0.207241  0.559839  1
  Y  Y8  1  0.792759  0.207241  0.940161  1
  Y  Y9  1  0.792759  0.585516  0.940161  1
  Y  Y10  1  0.414484  0.207241  0.940161  1
  Y  Y11  1  0.207178  0.792822  0.059150  1
  Y  Y12  1  0.207178  0.414356  0.059150  1
  Y  Y13  1  0.585644  0.792822  0.059150  1
  Y  Y14  1  0.538950  0.461050  0.250000  1
  Y  Y15  1  0.538950  0.077900  0.250000  1
  Y  Y16  1  0.922100  0.461050  0.250000  1
  Y  Y17  1  0.459963  0.540037  0.750000  1
  Y  Y18  1  0.459963  0.919927  0.750000  1
  Y  Y19  1  0.080073  0.540037  0.750000  1
  Al  Al20  1  0.887782  0.112218  0.250000  1
  Al  Al21  1  0.887782  0.775564  0.250000  1
  Al  Al22  1  0.224436  0.112218  0.250000  1
  Al  Al23  1  0.111848  0.888152  0.750000  1
  Al  Al24  1  0.111848  0.223694  0.750000  1
  Al  Al25  1  0.776306  0.888152  0.750000  1
  Os  Os26  1  0.333333  0.666667  0.250000  1
  Ru  Ru27  1  0.666667  0.333333  0.750000  1
