# generated using pymatgen
data_Yb8Si6IrPd7
_symmetry_space_group_name_H-M   'P 1'
_cell_length_a   10.69689517
_cell_length_b   10.67688703
_cell_length_c   7.73768270
_cell_angle_alpha   71.05418902
_cell_angle_beta   71.28269439
_cell_angle_gamma   31.16677683
_symmetry_Int_Tables_number   1
_chemical_formula_structural   Yb8Si6IrPd7
_chemical_formula_sum   'Yb8 Si6 Ir1 Pd7'
_cell_volume   430.89538169
_cell_formula_units_Z   1
loop_
 _symmetry_equiv_pos_site_id
 _symmetry_equiv_pos_as_xyz
  1  'x, y, z'
loop_
 _atom_site_type_symbol
 _atom_site_label
 _atom_site_symmetry_multiplicity
 _atom_site_fract_x
 _atom_site_fract_y
 _atom_site_fract_z
 _atom_site_occupancy
  Yb  Yb0  1  0.933608  0.199318  0.328006  1
  Yb  Yb1  1  0.072737  0.792906  0.665455  1
  Yb  Yb2  1  0.794642  0.071990  0.170808  1
  Yb  Yb3  1  0.443354  0.215039  0.905544  1
  Yb  Yb4  1  0.791507  0.550138  0.590880  1
  Yb  Yb5  1  0.204550  0.454163  0.411274  1
  Yb  Yb6  1  0.211001  0.923717  0.830202  1
  Yb  Yb7  1  0.550957  0.789410  0.095150  1
  Si  Si8  1  0.297699  0.046944  0.433926  1
  Si  Si9  1  0.391567  0.603661  0.257292  1
  Si  Si10  1  0.046786  0.297615  0.931968  1
  Si  Si11  1  0.693936  0.969092  0.565013  1
  Si  Si12  1  0.951003  0.704973  0.066808  1
  Si  Si13  1  0.619459  0.375085  0.747139  1
  Ir  Ir14  1  0.578035  0.298804  0.527270  1
  Pd  Pd15  1  0.704059  0.419541  0.968564  1
  Pd  Pd16  1  0.296518  0.577945  0.027866  1
  Pd  Pd17  1  0.427956  0.699588  0.474028  1
  Pd  Pd18  1  0.638394  0.921332  0.320657  1
  Pd  Pd19  1  0.909196  0.647871  0.819206  1
  Pd  Pd20  1  0.365888  0.076361  0.682625  1
  Pd  Pd21  1  0.077147  0.364507  0.180322  1
