# generated using pymatgen
data_Dy16InHg3RuRh3
_symmetry_space_group_name_H-M   'P 1'
_cell_length_a   9.63558527
_cell_length_b   9.63558537
_cell_length_c   9.63558516
_cell_angle_alpha   59.68312752
_cell_angle_beta   59.68312685
_cell_angle_gamma   59.68313103
_symmetry_Int_Tables_number   1
_chemical_formula_structural   Dy16InHg3RuRh3
_chemical_formula_sum   'Dy16 In1 Hg3 Ru1 Rh3'
_cell_volume   628.03195956
_cell_formula_units_Z   1
loop_
 _symmetry_equiv_pos_site_id
 _symmetry_equiv_pos_as_xyz
  1  'x, y, z'
loop_
 _atom_site_type_symbol
 _atom_site_label
 _atom_site_symmetry_multiplicity
 _atom_site_fract_x
 _atom_site_fract_y
 _atom_site_fract_z
 _atom_site_occupancy
  Dy  Dy0  1  0.687360  0.311358  0.311358  1
  Dy  Dy1  1  0.689935  0.689935  0.310360  1
  Dy  Dy2  1  0.311358  0.687360  0.311358  1
  Dy  Dy3  1  0.936266  0.936266  0.561243  1
  Dy  Dy4  1  0.149139  0.149139  0.551075  1
  Dy  Dy5  1  0.561272  0.939968  0.561272  1
  Dy  Dy6  1  0.149671  0.149671  0.149671  1
  Dy  Dy7  1  0.311358  0.311358  0.687360  1
  Dy  Dy8  1  0.939968  0.561272  0.561272  1
  Dy  Dy9  1  0.561272  0.561272  0.939968  1
  Dy  Dy10  1  0.561243  0.936266  0.936266  1
  Dy  Dy11  1  0.936266  0.561243  0.936266  1
  Dy  Dy12  1  0.149139  0.551075  0.149139  1
  Dy  Dy13  1  0.310360  0.689935  0.689935  1
  Dy  Dy14  1  0.689935  0.310360  0.689935  1
  Dy  Dy15  1  0.551075  0.149139  0.149139  1
  In  In16  1  0.920011  0.920011  0.920011  1
  Hg  Hg17  1  0.915210  0.915210  0.255427  1
  Hg  Hg18  1  0.255427  0.915210  0.915210  1
  Hg  Hg19  1  0.915210  0.255427  0.915210  1
  Ru  Ru20  1  0.357787  0.357787  0.357787  1
  Rh  Rh21  1  0.926996  0.356869  0.356869  1
  Rh  Rh22  1  0.356869  0.356869  0.926996  1
  Rh  Rh23  1  0.356869  0.926996  0.356869  1
