# generated using pymatgen
data_YPa3(Co2Sn)2
_symmetry_space_group_name_H-M   'P 1'
_cell_length_a   7.38031093
_cell_length_b   7.38031016
_cell_length_c   3.52451200
_cell_angle_alpha   90.00000000
_cell_angle_beta   90.00000000
_cell_angle_gamma   92.34727874
_symmetry_Int_Tables_number   1
_chemical_formula_structural   YPa3(Co2Sn)2
_chemical_formula_sum   'Y1 Pa3 Co4 Sn2'
_cell_volume   191.81550678
_cell_formula_units_Z   1
loop_
 _symmetry_equiv_pos_site_id
 _symmetry_equiv_pos_as_xyz
  1  'x, y, z'
loop_
 _atom_site_type_symbol
 _atom_site_label
 _atom_site_symmetry_multiplicity
 _atom_site_fract_x
 _atom_site_fract_y
 _atom_site_fract_z
 _atom_site_occupancy
  Y  Y0  1  0.828958  0.671042  0.500000  1
  Pa  Pa1  1  0.674600  0.169621  0.500000  1
  Pa  Pa2  1  0.330379  0.825400  0.500000  1
  Pa  Pa3  1  0.169572  0.330428  0.500000  1
  Co  Co4  1  0.878398  0.345036  0.000000  1
  Co  Co5  1  0.154964  0.621602  0.000000  1
  Co  Co6  1  0.355340  0.144660  0.000000  1
  Co  Co7  1  0.601818  0.898182  0.000000  1
  Sn  Sn8  1  0.507328  0.501357  0.000000  1
  Sn  Sn9  1  0.998643  0.992672  0.000000  1
