# generated using pymatgen
data_Dy4Lu(SiSb)2
_symmetry_space_group_name_H-M   'P 1'
_cell_length_a   8.50243072
_cell_length_b   8.50243127
_cell_length_c   7.82740100
_cell_angle_alpha   90.00000000
_cell_angle_beta   90.00000000
_cell_angle_gamma   125.39627050
_symmetry_Int_Tables_number   1
_chemical_formula_structural   Dy4Lu(SiSb)2
_chemical_formula_sum   'Dy8 Lu2 Si4 Sb4'
_cell_volume   461.26404844
_cell_formula_units_Z   2
loop_
 _symmetry_equiv_pos_site_id
 _symmetry_equiv_pos_as_xyz
  1  'x, y, z'
loop_
 _atom_site_type_symbol
 _atom_site_label
 _atom_site_symmetry_multiplicity
 _atom_site_fract_x
 _atom_site_fract_y
 _atom_site_fract_z
 _atom_site_occupancy
  Dy  Dy0  1  0.040507  0.292763  0.334158  1
  Dy  Dy1  1  0.959493  0.707237  0.665842  1
  Dy  Dy2  1  0.459493  0.207237  0.834158  1
  Dy  Dy3  1  0.792763  0.540507  0.165842  1
  Dy  Dy4  1  0.540507  0.792763  0.165842  1
  Dy  Dy5  1  0.207237  0.459493  0.834158  1
  Dy  Dy6  1  0.707237  0.959493  0.665842  1
  Dy  Dy7  1  0.292763  0.040507  0.334158  1
  Lu  Lu8  1  0.000000  0.000000  0.000000  1
  Lu  Lu9  1  0.500000  0.500000  0.500000  1
  Si  Si10  1  0.367582  0.367582  0.131447  1
  Si  Si11  1  0.632418  0.632418  0.868553  1
  Si  Si12  1  0.132418  0.132418  0.631447  1
  Si  Si13  1  0.867582  0.867582  0.368553  1
  Sb  Sb14  1  0.794710  0.205290  0.000000  1
  Sb  Sb15  1  0.205290  0.794710  0.000000  1
  Sb  Sb16  1  0.705290  0.294710  0.500000  1
  Sb  Sb17  1  0.294710  0.705290  0.500000  1
