# generated using pymatgen
data_TbY3Al18TcPd5
_symmetry_space_group_name_H-M   'P 1'
_cell_length_a   7.64951521
_cell_length_b   7.64903756
_cell_length_c   9.52327665
_cell_angle_alpha   90.14762830
_cell_angle_beta   90.14910402
_cell_angle_gamma   119.76507810
_symmetry_Int_Tables_number   1
_chemical_formula_structural   TbY3Al18TcPd5
_chemical_formula_sum   'Tb1 Y3 Al18 Tc1 Pd5'
_cell_volume   483.69897842
_cell_formula_units_Z   1
loop_
 _symmetry_equiv_pos_site_id
 _symmetry_equiv_pos_as_xyz
  1  'x, y, z'
loop_
 _atom_site_type_symbol
 _atom_site_label
 _atom_site_symmetry_multiplicity
 _atom_site_fract_x
 _atom_site_fract_y
 _atom_site_fract_z
 _atom_site_occupancy
  Tb  Tb0  1  0.331214  0.005366  0.751206  1
  Y  Y1  1  0.994633  0.668904  0.248761  1
  Y  Y2  1  0.004735  0.330508  0.750981  1
  Y  Y3  1  0.669533  0.995317  0.248999  1
  Al  Al4  1  0.128856  0.130573  0.249379  1
  Al  Al5  1  0.869429  0.871078  0.750615  1
  Al  Al6  1  0.996629  0.334128  0.074564  1
  Al  Al7  1  0.994197  0.659069  0.925572  1
  Al  Al8  1  0.999272  0.666944  0.577734  1
  Al  Al9  1  0.332951  0.000679  0.422225  1
  Al  Al10  1  0.000965  0.334398  0.423456  1
  Al  Al11  1  0.665658  0.999013  0.576505  1
  Al  Al12  1  0.666011  0.003363  0.925518  1
  Al  Al13  1  0.340812  0.005693  0.074529  1
  Al  Al14  1  0.334232  0.335157  0.559067  1
  Al  Al15  1  0.664854  0.665734  0.440836  1
  Al  Al16  1  0.667600  0.660948  0.053130  1
  Al  Al17  1  0.339026  0.332511  0.946981  1
  Al  Al18  1  0.336705  0.545612  0.249218  1
  Al  Al19  1  0.661124  0.453205  0.754099  1
  Al  Al20  1  0.546923  0.338903  0.245923  1
  Al  Al21  1  0.454449  0.663374  0.750766  1
  Tc  Tc22  1  0.672682  0.327284  0.000057  1
  Pd  Pd23  1  0.328104  0.671863  0.000030  1
  Pd  Pd24  1  0.327473  0.672458  0.499935  1
  Pd  Pd25  1  0.671687  0.328346  0.499953  1
  Pd  Pd26  1  0.000605  0.999354  0.000043  1
  Pd  Pd27  1  0.999641  0.000222  0.499917  1
