# generated using pymatgen
data_La3Pr3FeCl10
_symmetry_space_group_name_H-M   'P 1'
_cell_length_a   7.45548557
_cell_length_b   9.29460248
_cell_length_c   9.08602800
_cell_angle_alpha   108.25554272
_cell_angle_beta   95.76650124
_cell_angle_gamma   107.25396855
_symmetry_Int_Tables_number   1
_chemical_formula_structural   La3Pr3FeCl10
_chemical_formula_sum   'La3 Pr3 Fe1 Cl10'
_cell_volume   557.89339531
_cell_formula_units_Z   1
loop_
 _symmetry_equiv_pos_site_id
 _symmetry_equiv_pos_as_xyz
  1  'x, y, z'
loop_
 _atom_site_type_symbol
 _atom_site_label
 _atom_site_symmetry_multiplicity
 _atom_site_fract_x
 _atom_site_fract_y
 _atom_site_fract_z
 _atom_site_occupancy
  La  La0  1  0.128680  0.053520  0.772221  1
  La  La1  1  0.618920  0.847051  0.796583  1
  La  La2  1  0.871813  0.948195  0.227782  1
  Pr  Pr3  1  0.030698  0.688089  0.896150  1
  Pr  Pr4  1  0.375746  0.148434  0.198330  1
  Pr  Pr5  1  0.971667  0.313484  0.106669  1
  Fe  Fe6  1  0.999426  0.999936  0.999596  1
  Cl  Cl7  1  0.199608  0.746036  0.648085  1
  Cl  Cl8  1  0.650482  0.542111  0.726755  1
  Cl  Cl9  1  0.242816  0.080459  0.452371  1
  Cl  Cl10  1  0.796182  0.253499  0.350267  1
  Cl  Cl11  1  0.549049  0.171585  0.927354  1
  Cl  Cl12  1  0.760207  0.921060  0.545177  1
  Cl  Cl13  1  0.910828  0.631766  0.163504  1
  Cl  Cl14  1  0.352800  0.455402  0.275558  1
  Cl  Cl15  1  0.090892  0.369946  0.838524  1
  Cl  Cl16  1  0.450184  0.829427  0.075076  1
