# generated using pymatgen
data_Tb2ThNi9
_symmetry_space_group_name_H-M   'P 1'
_cell_length_a   5.01322626
_cell_length_b   5.01322550
_cell_length_c   8.76118461
_cell_angle_alpha   73.37512387
_cell_angle_beta   73.37512505
_cell_angle_gamma   60.00000797
_symmetry_Int_Tables_number   1
_chemical_formula_structural   Tb2ThNi9
_chemical_formula_sum   'Tb2 Th1 Ni9'
_cell_volume   179.98343406
_cell_formula_units_Z   1
loop_
 _symmetry_equiv_pos_site_id
 _symmetry_equiv_pos_as_xyz
  1  'x, y, z'
loop_
 _atom_site_type_symbol
 _atom_site_label
 _atom_site_symmetry_multiplicity
 _atom_site_fract_x
 _atom_site_fract_y
 _atom_site_fract_z
 _atom_site_occupancy
  Tb  Tb0  1  0.139697  0.139697  0.580910  1
  Tb  Tb1  1  0.860303  0.860303  0.419090  1
  Th  Th2  1  0.000000  0.000000  0.000000  1
  Ni  Ni3  1  0.081837  0.582944  0.752273  1
  Ni  Ni4  1  0.582944  0.582944  0.752273  1
  Ni  Ni5  1  0.582944  0.081837  0.752273  1
  Ni  Ni6  1  0.918163  0.417056  0.247727  1
  Ni  Ni7  1  0.417056  0.417056  0.247727  1
  Ni  Ni8  1  0.417056  0.918163  0.247727  1
  Ni  Ni9  1  0.333146  0.333146  0.000560  1
  Ni  Ni10  1  0.666854  0.666854  0.999440  1
  Ni  Ni11  1  0.500000  0.500000  0.500000  1
