# generated using pymatgen
data_Pr4Zn4RuPt3
_symmetry_space_group_name_H-M   'P 1'
_cell_length_a   4.32716300
_cell_length_b   7.18852056
_cell_length_c   8.21566709
_cell_angle_alpha   89.79685586
_cell_angle_beta   90.00000000
_cell_angle_gamma   90.00000000
_symmetry_Int_Tables_number   1
_chemical_formula_structural   Pr4Zn4RuPt3
_chemical_formula_sum   'Pr4 Zn4 Ru1 Pt3'
_cell_volume   255.55411425
_cell_formula_units_Z   1
loop_
 _symmetry_equiv_pos_site_id
 _symmetry_equiv_pos_as_xyz
  1  'x, y, z'
loop_
 _atom_site_type_symbol
 _atom_site_label
 _atom_site_symmetry_multiplicity
 _atom_site_fract_x
 _atom_site_fract_y
 _atom_site_fract_z
 _atom_site_occupancy
  Pr  Pr0  1  0.250000  0.030065  0.685719  1
  Pr  Pr1  1  0.250000  0.526803  0.808109  1
  Pr  Pr2  1  0.750000  0.978138  0.305208  1
  Pr  Pr3  1  0.750000  0.470394  0.201589  1
  Zn  Zn4  1  0.250000  0.158595  0.074332  1
  Zn  Zn5  1  0.250000  0.651538  0.429747  1
  Zn  Zn6  1  0.750000  0.845198  0.927738  1
  Zn  Zn7  1  0.750000  0.340058  0.569305  1
  Ru  Ru8  1  0.250000  0.267523  0.391940  1
  Pt  Pt9  1  0.250000  0.772397  0.106192  1
  Pt  Pt10  1  0.750000  0.729088  0.607310  1
  Pt  Pt11  1  0.750000  0.230202  0.892812  1
