# generated using pymatgen
data_Dy2Er2Tc5Os3
_symmetry_space_group_name_H-M   'P 1'
_cell_length_a   5.32050418
_cell_length_b   5.24607345
_cell_length_c   9.02641802
_cell_angle_alpha   89.99999641
_cell_angle_beta   90.00734737
_cell_angle_gamma   119.53832179
_symmetry_Int_Tables_number   1
_chemical_formula_structural   Dy2Er2Tc5Os3
_chemical_formula_sum   'Dy2 Er2 Tc5 Os3'
_cell_volume   219.19714782
_cell_formula_units_Z   1
loop_
 _symmetry_equiv_pos_site_id
 _symmetry_equiv_pos_as_xyz
  1  'x, y, z'
loop_
 _atom_site_type_symbol
 _atom_site_label
 _atom_site_symmetry_multiplicity
 _atom_site_fract_x
 _atom_site_fract_y
 _atom_site_fract_z
 _atom_site_occupancy
  Dy  Dy0  1  0.332116  0.666059  0.437530  1
  Dy  Dy1  1  0.669847  0.334923  0.564119  1
  Er  Er2  1  0.669945  0.334971  0.935987  1
  Er  Er3  1  0.332002  0.666001  0.062310  1
  Tc  Tc4  1  0.828545  0.171297  0.248870  1
  Tc  Tc5  1  0.828545  0.657248  0.248870  1
  Tc  Tc6  1  0.340855  0.170427  0.248756  1
  Tc  Tc7  1  0.170136  0.830520  0.751074  1
  Tc  Tc8  1  0.170136  0.339615  0.751074  1
  Os  Os9  1  0.002174  0.001087  0.500714  1
  Os  Os10  1  0.002184  0.001092  0.999392  1
  Os  Os11  1  0.653517  0.826759  0.751304  1
