# generated using pymatgen
data_Cs2Np(SiO3)3
_symmetry_space_group_name_H-M   'P 1'
_cell_length_a   7.47223700
_cell_length_b   7.47223529
_cell_length_c   10.77738200
_cell_angle_alpha   90.00000000
_cell_angle_beta   90.00000000
_cell_angle_gamma   119.99999361
_symmetry_Int_Tables_number   1
_chemical_formula_structural   Cs2Np(SiO3)3
_chemical_formula_sum   'Cs4 Np2 Si6 O18'
_cell_volume   521.12884579
_cell_formula_units_Z   2
loop_
 _symmetry_equiv_pos_site_id
 _symmetry_equiv_pos_as_xyz
  1  'x, y, z'
loop_
 _atom_site_type_symbol
 _atom_site_label
 _atom_site_symmetry_multiplicity
 _atom_site_fract_x
 _atom_site_fract_y
 _atom_site_fract_z
 _atom_site_occupancy
  Cs  Cs0  1  0.333333  0.666667  0.436043  1
  Cs  Cs1  1  0.666667  0.333333  0.936043  1
  Cs  Cs2  1  0.666667  0.333333  0.563957  1
  Cs  Cs3  1  0.333333  0.666667  0.063957  1
  Np  Np4  1  0.000000  0.000000  0.500000  1
  Np  Np5  1  0.000000  0.000000  0.000000  1
  Si  Si6  1  0.603589  0.759435  0.750000  1
  Si  Si7  1  0.844154  0.603589  0.250000  1
  Si  Si8  1  0.759435  0.155846  0.250000  1
  Si  Si9  1  0.240565  0.844154  0.750000  1
  Si  Si10  1  0.155846  0.396411  0.750000  1
  Si  Si11  1  0.396411  0.240565  0.250000  1
  O  O12  1  0.269176  0.204500  0.378177  1
  O  O13  1  0.064676  0.269176  0.878177  1
  O  O14  1  0.204500  0.935324  0.878177  1
  O  O15  1  0.795500  0.064676  0.378177  1
  O  O16  1  0.935324  0.730824  0.378177  1
  O  O17  1  0.730824  0.795500  0.878177  1
  O  O18  1  0.730824  0.795500  0.621823  1
  O  O19  1  0.935324  0.730824  0.121823  1
  O  O20  1  0.795500  0.064676  0.121823  1
  O  O21  1  0.204500  0.935324  0.621823  1
  O  O22  1  0.064676  0.269176  0.621823  1
  O  O23  1  0.269176  0.204500  0.121823  1
  O  O24  1  0.512174  0.098980  0.250000  1
  O  O25  1  0.413193  0.512174  0.750000  1
  O  O26  1  0.098980  0.586807  0.750000  1
  O  O27  1  0.901020  0.413193  0.250000  1
  O  O28  1  0.586807  0.487826  0.250000  1
  O  O29  1  0.487826  0.901020  0.750000  1
