# generated using pymatgen
data_Ce4Mg4Cr3H22
_symmetry_space_group_name_H-M   'P 1'
_cell_length_a   6.75325700
_cell_length_b   6.75325700
_cell_length_c   6.75325700
_cell_angle_alpha   90.00000000
_cell_angle_beta   90.00000000
_cell_angle_gamma   90.00000000
_symmetry_Int_Tables_number   1
_chemical_formula_structural   Ce4Mg4Cr3H22
_chemical_formula_sum   'Ce4 Mg4 Cr3 H22'
_cell_volume   307.99228104
_cell_formula_units_Z   1
loop_
 _symmetry_equiv_pos_site_id
 _symmetry_equiv_pos_as_xyz
  1  'x, y, z'
loop_
 _atom_site_type_symbol
 _atom_site_label
 _atom_site_symmetry_multiplicity
 _atom_site_fract_x
 _atom_site_fract_y
 _atom_site_fract_z
 _atom_site_occupancy
  Ce  Ce0  1  0.280700  0.280700  0.719300  1
  Ce  Ce1  1  0.280700  0.719300  0.280700  1
  Ce  Ce2  1  0.719300  0.280700  0.280700  1
  Ce  Ce3  1  0.719300  0.719300  0.719300  1
  Mg  Mg4  1  0.787603  0.787603  0.212397  1
  Mg  Mg5  1  0.787603  0.212397  0.787603  1
  Mg  Mg6  1  0.212397  0.787603  0.787603  1
  Mg  Mg7  1  0.212397  0.212397  0.212397  1
  Cr  Cr8  1  0.000000  0.000000  0.500000  1
  Cr  Cr9  1  0.000000  0.500000  0.000000  1
  Cr  Cr10  1  0.500000  0.000000  0.000000  1
  H  H11  1  0.000000  0.500000  0.250985  1
  H  H12  1  0.500000  0.749015  0.000000  1
  H  H13  1  0.749015  0.000000  0.500000  1
  H  H14  1  0.000000  0.749015  0.500000  1
  H  H15  1  0.500000  0.000000  0.250985  1
  H  H16  1  0.749015  0.500000  0.000000  1
  H  H17  1  0.000000  0.500000  0.749015  1
  H  H18  1  0.500000  0.250985  0.000000  1
  H  H19  1  0.000000  0.250985  0.500000  1
  H  H20  1  0.500000  0.000000  0.749015  1
  H  H21  1  0.250985  0.000000  0.500000  1
  H  H22  1  0.250985  0.500000  0.000000  1
  H  H23  1  0.000000  0.000000  0.249694  1
  H  H24  1  0.000000  0.750306  0.000000  1
  H  H25  1  0.750306  0.000000  0.000000  1
  H  H26  1  0.000000  0.000000  0.750306  1
  H  H27  1  0.000000  0.249694  0.000000  1
  H  H28  1  0.249694  0.000000  0.000000  1
  H  H29  1  0.623954  0.623954  0.376046  1
  H  H30  1  0.623954  0.376046  0.623954  1
  H  H31  1  0.376046  0.623954  0.623954  1
  H  H32  1  0.376046  0.376046  0.376046  1
