# generated using pymatgen
data_Ti4MnVRh10
_symmetry_space_group_name_H-M   'P 1'
_cell_length_a   3.98585700
_cell_length_b   5.42177531
_cell_length_c   10.63415024
_cell_angle_alpha   88.37030944
_cell_angle_beta   90.00000000
_cell_angle_gamma   90.00000000
_symmetry_Int_Tables_number   1
_chemical_formula_structural   Ti4MnVRh10
_chemical_formula_sum   'Ti4 Mn1 V1 Rh10'
_cell_volume   229.71550949
_cell_formula_units_Z   1
loop_
 _symmetry_equiv_pos_site_id
 _symmetry_equiv_pos_as_xyz
  1  'x, y, z'
loop_
 _atom_site_type_symbol
 _atom_site_label
 _atom_site_symmetry_multiplicity
 _atom_site_fract_x
 _atom_site_fract_y
 _atom_site_fract_z
 _atom_site_occupancy
  Ti  Ti0  1  0.500000  0.323316  0.143601  1
  Ti  Ti1  1  0.500000  0.676684  0.856399  1
  Ti  Ti2  1  0.500000  0.805811  0.363605  1
  Ti  Ti3  1  0.500000  0.194189  0.636395  1
  Mn  Mn4  1  0.000000  0.500000  0.500000  1
  V  V5  1  0.000000  0.000000  0.000000  1
  Rh  Rh6  1  0.000000  0.000000  0.500000  1
  Rh  Rh7  1  0.000000  0.500000  0.000000  1
  Rh  Rh8  1  0.000000  0.064472  0.238399  1
  Rh  Rh9  1  0.000000  0.935528  0.761601  1
  Rh  Rh10  1  0.000000  0.562935  0.259061  1
  Rh  Rh11  1  0.000000  0.437065  0.740939  1
  Rh  Rh12  1  0.500000  0.295116  0.388440  1
  Rh  Rh13  1  0.500000  0.704884  0.611560  1
  Rh  Rh14  1  0.500000  0.806741  0.105303  1
  Rh  Rh15  1  0.500000  0.193259  0.894697  1
