# generated using pymatgen
data_Tb8Ti10NbSi16Au
_symmetry_space_group_name_H-M   'P 1'
_cell_length_a   7.08926921
_cell_length_b   7.08926943
_cell_length_c   12.94289327
_cell_angle_alpha   90.19270993
_cell_angle_beta   89.80728646
_cell_angle_gamma   89.59500757
_symmetry_Int_Tables_number   1
_chemical_formula_structural   Tb8Ti10NbSi16Au
_chemical_formula_sum   'Tb8 Ti10 Nb1 Si16 Au1'
_cell_volume   650.45689705
_cell_formula_units_Z   1
loop_
 _symmetry_equiv_pos_site_id
 _symmetry_equiv_pos_as_xyz
  1  'x, y, z'
loop_
 _atom_site_type_symbol
 _atom_site_label
 _atom_site_symmetry_multiplicity
 _atom_site_fract_x
 _atom_site_fract_y
 _atom_site_fract_z
 _atom_site_occupancy
  Tb  Tb0  1  0.340746  0.002421  0.467368  1
  Tb  Tb1  1  0.497340  0.839772  0.717005  1
  Tb  Tb2  1  0.501261  0.158503  0.214162  1
  Tb  Tb3  1  0.839772  0.497340  0.282995  1
  Tb  Tb4  1  0.158503  0.501261  0.785838  1
  Tb  Tb5  1  0.656401  0.000367  0.968609  1
  Tb  Tb6  1  0.002421  0.340746  0.532632  1
  Tb  Tb7  1  0.000367  0.656401  0.031391  1
  Ti  Ti8  1  0.174509  0.826424  0.249344  1
  Ti  Ti9  1  0.826424  0.174509  0.750656  1
  Ti  Ti10  1  0.148731  0.007870  0.877567  1
  Ti  Ti11  1  0.493633  0.651468  0.124077  1
  Ti  Ti12  1  0.508688  0.350963  0.625671  1
  Ti  Ti13  1  0.651468  0.493633  0.875923  1
  Ti  Ti14  1  0.350963  0.508688  0.374329  1
  Ti  Ti15  1  0.848016  0.990954  0.375231  1
  Ti  Ti16  1  0.007870  0.148731  0.122433  1
  Ti  Ti17  1  0.990954  0.848016  0.624769  1
  Nb  Nb18  1  0.673086  0.673086  0.500000  1
  Si  Si19  1  0.201597  0.131046  0.685452  1
  Si  Si20  1  0.374543  0.718267  0.930577  1
  Si  Si21  1  0.630020  0.294626  0.433954  1
  Si  Si22  1  0.718267  0.374543  0.069423  1
  Si  Si23  1  0.294626  0.630020  0.566046  1
  Si  Si24  1  0.798526  0.869013  0.183569  1
  Si  Si25  1  0.131046  0.201597  0.314548  1
  Si  Si26  1  0.869013  0.798526  0.816431  1
  Si  Si27  1  0.285335  0.937512  0.066080  1
  Si  Si28  1  0.546312  0.791874  0.313635  1
  Si  Si29  1  0.454787  0.207854  0.809985  1
  Si  Si30  1  0.791874  0.546312  0.686365  1
  Si  Si31  1  0.207854  0.454787  0.190015  1
  Si  Si32  1  0.709661  0.048121  0.564721  1
  Si  Si33  1  0.937512  0.285335  0.933920  1
  Si  Si34  1  0.048121  0.709661  0.435279  1
  Au  Au35  1  0.329754  0.329754  0.000000  1
