# generated using pymatgen
data_Ta12Co8OsW3N4
_symmetry_space_group_name_H-M   'P 1'
_cell_length_a   8.14094997
_cell_length_b   8.14095039
_cell_length_c   8.14095098
_cell_angle_alpha   59.67431416
_cell_angle_beta   59.67431259
_cell_angle_gamma   59.67431445
_symmetry_Int_Tables_number   1
_chemical_formula_structural   Ta12Co8OsW3N4
_chemical_formula_sum   'Ta12 Co8 Os1 W3 N4'
_cell_volume   378.69101479
_cell_formula_units_Z   1
loop_
 _symmetry_equiv_pos_site_id
 _symmetry_equiv_pos_as_xyz
  1  'x, y, z'
loop_
 _atom_site_type_symbol
 _atom_site_label
 _atom_site_symmetry_multiplicity
 _atom_site_fract_x
 _atom_site_fract_y
 _atom_site_fract_z
 _atom_site_occupancy
  Ta  Ta0  1  0.807616  0.807616  0.195007  1
  Ta  Ta1  1  0.189497  0.189497  0.810135  1
  Ta  Ta2  1  0.807616  0.195007  0.807616  1
  Ta  Ta3  1  0.189497  0.810135  0.189497  1
  Ta  Ta4  1  0.195007  0.807616  0.807616  1
  Ta  Ta5  1  0.810135  0.189497  0.189497  1
  Ta  Ta6  1  0.442384  0.442384  0.054993  1
  Ta  Ta7  1  0.060503  0.060503  0.439865  1
  Ta  Ta8  1  0.442384  0.054993  0.442384  1
  Ta  Ta9  1  0.060503  0.439865  0.060503  1
  Ta  Ta10  1  0.054993  0.442384  0.442384  1
  Ta  Ta11  1  0.439865  0.060503  0.060503  1
  Co  Co12  1  0.734609  0.421964  0.421964  1
  Co  Co13  1  0.421964  0.734609  0.421964  1
  Co  Co14  1  0.421964  0.421964  0.734609  1
  Co  Co15  1  0.419321  0.419321  0.419321  1
  Co  Co16  1  0.515391  0.828036  0.828036  1
  Co  Co17  1  0.828036  0.515391  0.828036  1
  Co  Co18  1  0.828036  0.828036  0.515391  1
  Co  Co19  1  0.830679  0.830679  0.830679  1
  Os  Os20  1  0.625000  0.625000  0.625000  1
  W  W21  1  0.125000  0.625000  0.625000  1
  W  W22  1  0.625000  0.125000  0.625000  1
  W  W23  1  0.625000  0.625000  0.125000  1
  N  N24  1  0.625000  0.125000  0.125000  1
  N  N25  1  0.125000  0.625000  0.125000  1
  N  N26  1  0.125000  0.125000  0.625000  1
  N  N27  1  0.125000  0.125000  0.125000  1
