# generated using pymatgen
data_DyCo4MoP3
_symmetry_space_group_name_H-M   'P 1'
_cell_length_a   3.71059400
_cell_length_b   10.42282300
_cell_length_c   11.86824300
_cell_angle_alpha   90.00000000
_cell_angle_beta   90.00000000
_cell_angle_gamma   90.00000000
_symmetry_Int_Tables_number   1
_chemical_formula_structural   DyCo4MoP3
_chemical_formula_sum   'Dy4 Co16 Mo4 P12'
_cell_volume   459.00268972
_cell_formula_units_Z   4
loop_
 _symmetry_equiv_pos_site_id
 _symmetry_equiv_pos_as_xyz
  1  'x, y, z'
loop_
 _atom_site_type_symbol
 _atom_site_label
 _atom_site_symmetry_multiplicity
 _atom_site_fract_x
 _atom_site_fract_y
 _atom_site_fract_z
 _atom_site_occupancy
  Dy  Dy0  1  0.250000  0.582917  0.704259  1
  Dy  Dy1  1  0.250000  0.917083  0.204259  1
  Dy  Dy2  1  0.750000  0.417083  0.295741  1
  Dy  Dy3  1  0.750000  0.082917  0.795741  1
  Co  Co4  1  0.250000  0.406093  0.489217  1
  Co  Co5  1  0.250000  0.093907  0.989217  1
  Co  Co6  1  0.750000  0.593907  0.510783  1
  Co  Co7  1  0.750000  0.906093  0.010783  1
  Co  Co8  1  0.250000  0.221763  0.177775  1
  Co  Co9  1  0.250000  0.278237  0.677775  1
  Co  Co10  1  0.750000  0.778237  0.822225  1
  Co  Co11  1  0.750000  0.721763  0.322225  1
  Co  Co12  1  0.250000  0.886990  0.700551  1
  Co  Co13  1  0.250000  0.613010  0.200551  1
  Co  Co14  1  0.750000  0.113010  0.299449  1
  Co  Co15  1  0.750000  0.386990  0.799449  1
  Co  Co16  1  0.250000  0.465670  0.932906  1
  Co  Co17  1  0.250000  0.034330  0.432906  1
  Co  Co18  1  0.750000  0.534330  0.067094  1
  Co  Co19  1  0.750000  0.965670  0.567094  1
  Mo  Mo20  1  0.250000  0.708665  0.987642  1
  Mo  Mo21  1  0.250000  0.791335  0.487642  1
  Mo  Mo22  1  0.750000  0.291335  0.012358  1
  Mo  Mo23  1  0.750000  0.208665  0.512358  1
  P  P24  1  0.250000  0.420439  0.115089  1
  P  P25  1  0.250000  0.079561  0.615089  1
  P  P26  1  0.750000  0.579561  0.884911  1
  P  P27  1  0.750000  0.920439  0.384911  1
  P  P28  1  0.250000  0.269238  0.864856  1
  P  P29  1  0.250000  0.230762  0.364856  1
  P  P30  1  0.750000  0.730762  0.135144  1
  P  P31  1  0.750000  0.769238  0.635144  1
  P  P32  1  0.250000  0.595697  0.391268  1
  P  P33  1  0.250000  0.904303  0.891268  1
  P  P34  1  0.750000  0.404303  0.608732  1
  P  P35  1  0.750000  0.095697  0.108732  1
