# generated using pymatgen
data_YbCo3(Ni3B2)3
_symmetry_space_group_name_H-M   'P 1'
_cell_length_a   5.98377839
_cell_length_b   5.98377834
_cell_length_c   5.98377849
_cell_angle_alpha   104.49846748
_cell_angle_beta   104.49847273
_cell_angle_gamma   104.49847334
_symmetry_Int_Tables_number   1
_chemical_formula_structural   YbCo3(Ni3B2)3
_chemical_formula_sum   'Yb1 Co3 Ni9 B6'
_cell_volume   189.29393905
_cell_formula_units_Z   1
loop_
 _symmetry_equiv_pos_site_id
 _symmetry_equiv_pos_as_xyz
  1  'x, y, z'
loop_
 _atom_site_type_symbol
 _atom_site_label
 _atom_site_symmetry_multiplicity
 _atom_site_fract_x
 _atom_site_fract_y
 _atom_site_fract_z
 _atom_site_occupancy
  Yb  Yb0  1  0.000000  0.000000  0.000000  1
  Co  Co1  1  0.866637  0.133363  0.500000  1
  Co  Co2  1  0.133363  0.500000  0.866637  1
  Co  Co3  1  0.500000  0.866637  0.133363  1
  Ni  Ni4  1  0.868890  0.500000  0.131110  1
  Ni  Ni5  1  0.500000  0.131110  0.868890  1
  Ni  Ni6  1  0.131110  0.868890  0.500000  1
  Ni  Ni7  1  0.813400  0.548660  0.546633  1
  Ni  Ni8  1  0.548660  0.546633  0.813400  1
  Ni  Ni9  1  0.546633  0.813400  0.548660  1
  Ni  Ni10  1  0.186600  0.453367  0.451340  1
  Ni  Ni11  1  0.453367  0.451340  0.186600  1
  Ni  Ni12  1  0.451340  0.186600  0.453367  1
  B  B13  1  0.328539  0.762940  0.769533  1
  B  B14  1  0.762940  0.769533  0.328539  1
  B  B15  1  0.769533  0.328539  0.762940  1
  B  B16  1  0.671461  0.230467  0.237060  1
  B  B17  1  0.230467  0.237060  0.671461  1
  B  B18  1  0.237060  0.671461  0.230467  1
