# generated using pymatgen
data_Y5Er3(Sc3Sn4)4
_symmetry_space_group_name_H-M   'P 1'
_cell_length_a   7.72899351
_cell_length_b   8.00033282
_cell_length_c   14.90130100
_cell_angle_alpha   89.98834079
_cell_angle_beta   89.94538771
_cell_angle_gamma   90.02323567
_symmetry_Int_Tables_number   1
_chemical_formula_structural   Y5Er3(Sc3Sn4)4
_chemical_formula_sum   'Y5 Er3 Sc12 Sn16'
_cell_volume   921.41428843
_cell_formula_units_Z   1
loop_
 _symmetry_equiv_pos_site_id
 _symmetry_equiv_pos_as_xyz
  1  'x, y, z'
loop_
 _atom_site_type_symbol
 _atom_site_label
 _atom_site_symmetry_multiplicity
 _atom_site_fract_x
 _atom_site_fract_y
 _atom_site_fract_z
 _atom_site_occupancy
  Y  Y0  1  0.989192  0.177334  0.094675  1
  Y  Y1  1  0.011023  0.822589  0.905189  1
  Y  Y2  1  0.510667  0.677134  0.905684  1
  Y  Y3  1  0.010772  0.822167  0.593816  1
  Y  Y4  1  0.489447  0.322562  0.094773  1
  Er  Er5  1  0.988569  0.178663  0.405749  1
  Er  Er6  1  0.487961  0.322186  0.405529  1
  Er  Er7  1  0.511585  0.677931  0.594112  1
  Sc  Sc8  1  0.175346  0.495265  0.749512  1
  Sc  Sc9  1  0.824730  0.504660  0.250671  1
  Sc  Sc10  1  0.324990  0.995201  0.250471  1
  Sc  Sc11  1  0.675027  0.004842  0.749383  1
  Sc  Sc12  1  0.345579  0.161093  0.626698  1
  Sc  Sc13  1  0.654657  0.838905  0.373198  1
  Sc  Sc14  1  0.154666  0.660357  0.373441  1
  Sc  Sc15  1  0.655669  0.839165  0.127732  1
  Sc  Sc16  1  0.845845  0.339200  0.626426  1
  Sc  Sc17  1  0.344862  0.161110  0.872556  1
  Sc  Sc18  1  0.844577  0.338912  0.872825  1
  Sc  Sc19  1  0.155485  0.660952  0.127564  1
  Sn  Sn20  1  0.037625  0.125686  0.749634  1
  Sn  Sn21  1  0.962713  0.874713  0.250588  1
  Sn  Sn22  1  0.462386  0.625164  0.250360  1
  Sn  Sn23  1  0.537850  0.374847  0.749531  1
  Sn  Sn24  1  0.316608  0.849885  0.749362  1
  Sn  Sn25  1  0.684135  0.150191  0.251172  1
  Sn  Sn26  1  0.183660  0.349827  0.250905  1
  Sn  Sn27  1  0.815332  0.649434  0.749553  1
  Sn  Sn28  1  0.188877  0.456610  0.542212  1
  Sn  Sn29  1  0.811187  0.542127  0.457333  1
  Sn  Sn30  1  0.312774  0.958048  0.457080  1
  Sn  Sn31  1  0.814915  0.543567  0.042693  1
  Sn  Sn32  1  0.685873  0.043404  0.541998  1
  Sn  Sn33  1  0.185185  0.456475  0.957526  1
  Sn  Sn34  1  0.685390  0.043073  0.957486  1
  Sn  Sn35  1  0.314843  0.956721  0.042567  1
