# generated using pymatgen
data_Ho2Lu2Sc3AlPt4
_symmetry_space_group_name_H-M   'P 1'
_cell_length_a   4.49321700
_cell_length_b   6.96002123
_cell_length_c   8.25556388
_cell_angle_alpha   87.01479249
_cell_angle_beta   90.00000000
_cell_angle_gamma   90.00000000
_symmetry_Int_Tables_number   1
_chemical_formula_structural   Ho2Lu2Sc3AlPt4
_chemical_formula_sum   'Ho2 Lu2 Sc3 Al1 Pt4'
_cell_volume   257.82496517
_cell_formula_units_Z   1
loop_
 _symmetry_equiv_pos_site_id
 _symmetry_equiv_pos_as_xyz
  1  'x, y, z'
loop_
 _atom_site_type_symbol
 _atom_site_label
 _atom_site_symmetry_multiplicity
 _atom_site_fract_x
 _atom_site_fract_y
 _atom_site_fract_z
 _atom_site_occupancy
  Ho  Ho0  1  0.250000  0.040072  0.672310  1
  Ho  Ho1  1  0.750000  0.990657  0.340865  1
  Lu  Lu2  1  0.250000  0.519568  0.816190  1
  Lu  Lu3  1  0.750000  0.467026  0.181906  1
  Sc  Sc4  1  0.250000  0.133816  0.070430  1
  Sc  Sc5  1  0.250000  0.642670  0.434805  1
  Sc  Sc6  1  0.750000  0.858219  0.929996  1
  Al  Al7  1  0.750000  0.362798  0.567327  1
  Pt  Pt8  1  0.250000  0.265676  0.382607  1
  Pt  Pt9  1  0.250000  0.739493  0.100855  1
  Pt  Pt10  1  0.750000  0.732499  0.616768  1
  Pt  Pt11  1  0.750000  0.247508  0.885942  1
