# generated using pymatgen
data_Sm6RuI10
_symmetry_space_group_name_H-M   'P 1'
_cell_length_a   7.88756715
_cell_length_b   9.89233553
_cell_length_c   9.89907804
_cell_angle_alpha   107.10941266
_cell_angle_beta   96.97662765
_cell_angle_gamma   104.76845976
_symmetry_Int_Tables_number   1
_chemical_formula_structural   Sm6RuI10
_chemical_formula_sum   'Sm6 Ru1 I10'
_cell_volume   697.50497023
_cell_formula_units_Z   1
loop_
 _symmetry_equiv_pos_site_id
 _symmetry_equiv_pos_as_xyz
  1  'x, y, z'
loop_
 _atom_site_type_symbol
 _atom_site_label
 _atom_site_symmetry_multiplicity
 _atom_site_fract_x
 _atom_site_fract_y
 _atom_site_fract_z
 _atom_site_occupancy
  Sm  Sm0  1  0.115977  0.043022  0.758891  1
  Sm  Sm1  1  0.884023  0.956978  0.241109  1
  Sm  Sm2  1  0.967936  0.281369  0.082584  1
  Sm  Sm3  1  0.649817  0.874342  0.831604  1
  Sm  Sm4  1  0.350183  0.125658  0.168396  1
  Sm  Sm5  1  0.032064  0.718631  0.917416  1
  Ru  Ru6  1  0.000000  0.000000  0.000000  1
  I  I7  1  0.349496  0.450608  0.272092  1
  I  I8  1  0.650504  0.549392  0.727908  1
  I  I9  1  0.742259  0.912832  0.539604  1
  I  I10  1  0.086557  0.370389  0.819628  1
  I  I11  1  0.913443  0.629611  0.180372  1
  I  I12  1  0.454200  0.815805  0.091273  1
  I  I13  1  0.545800  0.184195  0.908727  1
  I  I14  1  0.783751  0.257511  0.346362  1
  I  I15  1  0.216249  0.742489  0.653638  1
  I  I16  1  0.257741  0.087168  0.460396  1
