# generated using pymatgen
data_Er10Si16Ag
_symmetry_space_group_name_H-M   'P 1'
_cell_length_a   11.04826487
_cell_length_b   11.04603000
_cell_length_c   11.04838284
_cell_angle_alpha   144.73016098
_cell_angle_beta   136.51404699
_cell_angle_gamma   57.18520418
_symmetry_Int_Tables_number   1
_chemical_formula_structural   Er10Si16Ag
_chemical_formula_sum   'Er10 Si16 Ag1'
_cell_volume   531.45902505
_cell_formula_units_Z   1
loop_
 _symmetry_equiv_pos_site_id
 _symmetry_equiv_pos_as_xyz
  1  'x, y, z'
loop_
 _atom_site_type_symbol
 _atom_site_label
 _atom_site_symmetry_multiplicity
 _atom_site_fract_x
 _atom_site_fract_y
 _atom_site_fract_z
 _atom_site_occupancy
  Er  Er0  1  0.053207  0.565909  0.021367  1
  Er  Er1  1  0.352689  0.370122  0.521169  1
  Er  Er2  1  0.154122  0.165612  0.521446  1
  Er  Er3  1  0.451333  0.963246  0.014695  1
  Er  Er4  1  0.644169  0.165599  0.011477  1
  Er  Er5  1  0.948545  0.963237  0.511909  1
  Er  Er6  1  0.848961  0.370128  0.017444  1
  Er  Er7  1  0.544535  0.565914  0.512705  1
  Er  Er8  1  0.251715  0.765026  0.013102  1
  Er  Er9  1  0.751926  0.765060  0.513324  1
  Si  Si10  1  0.118204  0.079087  0.960891  1
  Si  Si11  1  0.797208  0.169640  0.372444  1
  Si  Si12  1  0.300410  0.899391  0.598987  1
  Si  Si13  1  0.399880  0.501529  0.101654  1
  Si  Si14  1  0.880794  0.854934  0.974156  1
  Si  Si15  1  0.104637  0.710891  0.606269  1
  Si  Si16  1  0.199807  0.582042  0.382247  1
  Si  Si17  1  0.699375  0.295383  0.596016  1
  Si  Si18  1  0.002075  0.432318  0.430272  1
  Si  Si19  1  0.714480  0.668403  0.953936  1
  Si  Si20  1  0.600952  0.702571  0.101635  1
  Si  Si21  1  0.999507  0.081365  0.081869  1
  Si  Si22  1  0.501121  0.391117  0.890010  1
  Si  Si23  1  0.284882  0.241078  0.956210  1
  Si  Si24  1  0.583822  0.041000  0.457186  1
  Si  Si25  1  0.415963  0.873063  0.457108  1
  Ag  Ag26  1  0.895681  0.505253  0.609389  1
