# generated using pymatgen
data_CsLaTa6Cl18
_symmetry_space_group_name_H-M   'P 1'
_cell_length_a   9.42961500
_cell_length_b   9.42961550
_cell_length_c   17.58142800
_cell_angle_alpha   90.00000000
_cell_angle_beta   90.00000000
_cell_angle_gamma   119.99999475
_symmetry_Int_Tables_number   1
_chemical_formula_structural   CsLaTa6Cl18
_chemical_formula_sum   'Cs2 La2 Ta12 Cl36'
_cell_volume   1353.85685027
_cell_formula_units_Z   2
loop_
 _symmetry_equiv_pos_site_id
 _symmetry_equiv_pos_as_xyz
  1  'x, y, z'
loop_
 _atom_site_type_symbol
 _atom_site_label
 _atom_site_symmetry_multiplicity
 _atom_site_fract_x
 _atom_site_fract_y
 _atom_site_fract_z
 _atom_site_occupancy
  Cs  Cs0  1  0.333333  0.666667  0.750000  1
  Cs  Cs1  1  0.666667  0.333333  0.250000  1
  La  La2  1  0.666667  0.333333  0.750000  1
  La  La3  1  0.333333  0.666667  0.250000  1
  Ta  Ta4  1  0.845055  0.037191  0.566777  1
  Ta  Ta5  1  0.154945  0.962809  0.433223  1
  Ta  Ta6  1  0.962809  0.807863  0.566777  1
  Ta  Ta7  1  0.845055  0.807863  0.933223  1
  Ta  Ta8  1  0.037191  0.192137  0.433223  1
  Ta  Ta9  1  0.154945  0.192137  0.066777  1
  Ta  Ta10  1  0.192137  0.154945  0.566777  1
  Ta  Ta11  1  0.962809  0.154945  0.933223  1
  Ta  Ta12  1  0.807863  0.845055  0.433223  1
  Ta  Ta13  1  0.037191  0.845055  0.066777  1
  Ta  Ta14  1  0.192137  0.037191  0.933223  1
  Ta  Ta15  1  0.807863  0.962809  0.066777  1
  Cl  Cl16  1  0.640080  0.078393  0.657225  1
  Cl  Cl17  1  0.359920  0.921607  0.342775  1
  Cl  Cl18  1  0.921607  0.561686  0.657225  1
  Cl  Cl19  1  0.640080  0.561686  0.842775  1
  Cl  Cl20  1  0.078393  0.438314  0.342775  1
  Cl  Cl21  1  0.359920  0.438314  0.157225  1
  Cl  Cl22  1  0.438314  0.359920  0.657225  1
  Cl  Cl23  1  0.921607  0.359920  0.842775  1
  Cl  Cl24  1  0.561686  0.640080  0.342775  1
  Cl  Cl25  1  0.078393  0.640080  0.157225  1
  Cl  Cl26  1  0.438314  0.078393  0.842775  1
  Cl  Cl27  1  0.561686  0.921607  0.157225  1
  Cl  Cl28  1  0.043957  0.230528  0.659513  1
  Cl  Cl29  1  0.956043  0.769472  0.340487  1
  Cl  Cl30  1  0.769472  0.813429  0.659513  1
  Cl  Cl31  1  0.043957  0.813429  0.840487  1
  Cl  Cl32  1  0.230528  0.186571  0.340487  1
  Cl  Cl33  1  0.956043  0.186571  0.159513  1
  Cl  Cl34  1  0.186571  0.956043  0.659513  1
  Cl  Cl35  1  0.769472  0.956043  0.840487  1
  Cl  Cl36  1  0.813429  0.043957  0.340487  1
  Cl  Cl37  1  0.230528  0.043957  0.159513  1
  Cl  Cl38  1  0.186571  0.230528  0.840487  1
  Cl  Cl39  1  0.813429  0.769472  0.159513  1
  Cl  Cl40  1  0.273683  0.414522  0.500117  1
  Cl  Cl41  1  0.726317  0.585478  0.499883  1
  Cl  Cl42  1  0.585478  0.859162  0.500117  1
  Cl  Cl43  1  0.273683  0.859162  0.999883  1
  Cl  Cl44  1  0.414522  0.140838  0.499883  1
  Cl  Cl45  1  0.726317  0.140838  0.000117  1
  Cl  Cl46  1  0.140838  0.726317  0.500117  1
  Cl  Cl47  1  0.585478  0.726317  0.999883  1
  Cl  Cl48  1  0.859162  0.273683  0.499883  1
  Cl  Cl49  1  0.414522  0.273683  0.000117  1
  Cl  Cl50  1  0.140838  0.414522  0.999883  1
  Cl  Cl51  1  0.859162  0.585478  0.000117  1
