# generated using pymatgen
data_Sc2B2AsRuRh4
_symmetry_space_group_name_H-M   'P 1'
_cell_length_a   9.28565200
_cell_length_b   9.28565200
_cell_length_c   3.13750700
_cell_angle_alpha   90.00000000
_cell_angle_beta   90.00000000
_cell_angle_gamma   90.00000000
_symmetry_Int_Tables_number   1
_chemical_formula_structural   Sc2B2AsRuRh4
_chemical_formula_sum   'Sc4 B4 As2 Ru2 Rh8'
_cell_volume   270.52631106
_cell_formula_units_Z   2
loop_
 _symmetry_equiv_pos_site_id
 _symmetry_equiv_pos_as_xyz
  1  'x, y, z'
loop_
 _atom_site_type_symbol
 _atom_site_label
 _atom_site_symmetry_multiplicity
 _atom_site_fract_x
 _atom_site_fract_y
 _atom_site_fract_z
 _atom_site_occupancy
  Sc  Sc0  1  0.673038  0.173038  0.000000  1
  Sc  Sc1  1  0.326962  0.826962  0.000000  1
  Sc  Sc2  1  0.173038  0.326962  0.000000  1
  Sc  Sc3  1  0.826962  0.673038  0.000000  1
  B  B4  1  0.123241  0.623241  0.000000  1
  B  B5  1  0.876759  0.376759  0.000000  1
  B  B6  1  0.623241  0.876759  0.000000  1
  B  B7  1  0.376759  0.123241  0.000000  1
  As  As8  1  0.500000  0.500000  0.000000  1
  As  As9  1  0.000000  0.000000  0.000000  1
  Ru  Ru10  1  0.500000  0.000000  0.500000  1
  Ru  Ru11  1  0.000000  0.500000  0.500000  1
  Rh  Rh12  1  0.573388  0.715232  0.500000  1
  Rh  Rh13  1  0.426612  0.284768  0.500000  1
  Rh  Rh14  1  0.073388  0.784768  0.500000  1
  Rh  Rh15  1  0.926612  0.215232  0.500000  1
  Rh  Rh16  1  0.284768  0.573388  0.500000  1
  Rh  Rh17  1  0.715232  0.426612  0.500000  1
  Rh  Rh18  1  0.215232  0.073388  0.500000  1
  Rh  Rh19  1  0.784768  0.926612  0.500000  1
