# generated using pymatgen
data_Pr3AgHg3Pd2
_symmetry_space_group_name_H-M   'P 1'
_cell_length_a   8.03560400
_cell_length_b   8.03560460
_cell_length_c   3.90208500
_cell_angle_alpha   90.00000000
_cell_angle_beta   90.00000000
_cell_angle_gamma   120.00008863
_symmetry_Int_Tables_number   1
_chemical_formula_structural   Pr3AgHg3Pd2
_chemical_formula_sum   'Pr3 Ag1 Hg3 Pd2'
_cell_volume   218.20467654
_cell_formula_units_Z   1
loop_
 _symmetry_equiv_pos_site_id
 _symmetry_equiv_pos_as_xyz
  1  'x, y, z'
loop_
 _atom_site_type_symbol
 _atom_site_label
 _atom_site_symmetry_multiplicity
 _atom_site_fract_x
 _atom_site_fract_y
 _atom_site_fract_z
 _atom_site_occupancy
  Pr  Pr0  1  0.408515  0.408515  0.500000  1
  Pr  Pr1  1  0.591490  0.999993  0.500000  1
  Pr  Pr2  1  0.999993  0.591490  0.500000  1
  Ag  Ag3  1  0.999998  0.999998  0.500000  1
  Hg  Hg4  1  0.729541  0.729541  0.000000  1
  Hg  Hg5  1  0.270457  0.000002  0.000000  1
  Hg  Hg6  1  0.000002  0.270457  0.000000  1
  Pd  Pd7  1  0.666667  0.333337  0.000000  1
  Pd  Pd8  1  0.333337  0.666667  0.000000  1
