# generated using pymatgen
data_TbPr9B2Cl15
_symmetry_space_group_name_H-M   'P 1'
_cell_length_a   9.08239468
_cell_length_b   9.92562804
_cell_length_c   10.72679320
_cell_angle_alpha   90.74184515
_cell_angle_beta   114.54960444
_cell_angle_gamma   111.16584926
_symmetry_Int_Tables_number   1
_chemical_formula_structural   TbPr9B2Cl15
_chemical_formula_sum   'Tb1 Pr9 B2 Cl15'
_cell_volume   804.97068691
_cell_formula_units_Z   1
loop_
 _symmetry_equiv_pos_site_id
 _symmetry_equiv_pos_as_xyz
  1  'x, y, z'
loop_
 _atom_site_type_symbol
 _atom_site_label
 _atom_site_symmetry_multiplicity
 _atom_site_fract_x
 _atom_site_fract_y
 _atom_site_fract_z
 _atom_site_occupancy
  Tb  Tb0  1  0.275425  0.924443  0.952451  1
  Pr  Pr1  1  0.809960  0.418736  0.277188  1
  Pr  Pr2  1  0.186281  0.580769  0.720746  1
  Pr  Pr3  1  0.680574  0.743397  0.818970  1
  Pr  Pr4  1  0.317416  0.254753  0.181391  1
  Pr  Pr5  1  0.527569  0.699802  0.102908  1
  Pr  Pr6  1  0.471668  0.299831  0.896672  1
  Pr  Pr7  1  0.589632  0.035934  0.333731  1
  Pr  Pr8  1  0.404434  0.961454  0.664548  1
  Pr  Pr9  1  0.738408  0.079232  0.049717  1
  B  B10  1  0.463049  0.818494  0.875149  1
  B  B11  1  0.531030  0.178684  0.122433  1
  Cl  Cl12  1  0.007027  0.996379  0.997369  1
  Cl  Cl13  1  0.633312  0.883277  0.586610  1
  Cl  Cl14  1  0.363420  0.115606  0.413589  1
  Cl  Cl15  1  0.881754  0.298970  0.521595  1
  Cl  Cl16  1  0.115716  0.699186  0.475613  1
  Cl  Cl17  1  0.288938  0.770459  0.170670  1
  Cl  Cl18  1  0.702727  0.232797  0.816595  1
  Cl  Cl19  1  0.057264  0.346044  0.227899  1
  Cl  Cl20  1  0.165866  0.050254  0.715939  1
  Cl  Cl21  1  0.832877  0.942923  0.294739  1
  Cl  Cl22  1  0.235330  0.410568  0.946053  1
  Cl  Cl23  1  0.762549  0.588318  0.053195  1
  Cl  Cl24  1  0.405994  0.468864  0.660377  1
  Cl  Cl25  1  0.592132  0.530603  0.339447  1
  Cl  Cl26  1  0.959648  0.670221  0.784406  1
