# generated using pymatgen
data_YThInGa2
_symmetry_space_group_name_H-M   'P 1'
_cell_length_a   7.35461009
_cell_length_b   7.35461009
_cell_length_c   4.47429600
_cell_angle_alpha   90.00000000
_cell_angle_beta   90.00000000
_cell_angle_gamma   88.80174343
_symmetry_Int_Tables_number   1
_chemical_formula_structural   YThInGa2
_chemical_formula_sum   'Y2 Th2 In2 Ga4'
_cell_volume   241.96304211
_cell_formula_units_Z   2
loop_
 _symmetry_equiv_pos_site_id
 _symmetry_equiv_pos_as_xyz
  1  'x, y, z'
loop_
 _atom_site_type_symbol
 _atom_site_label
 _atom_site_symmetry_multiplicity
 _atom_site_fract_x
 _atom_site_fract_y
 _atom_site_fract_z
 _atom_site_occupancy
  Y  Y0  1  0.172073  0.327927  0.500000  1
  Y  Y1  1  0.827927  0.672073  0.500000  1
  Th  Th2  1  0.673352  0.173352  0.500000  1
  Th  Th3  1  0.326648  0.826648  0.500000  1
  In  In4  1  0.000000  0.000000  0.000000  1
  In  In5  1  0.500000  0.500000  0.000000  1
  Ga  Ga6  1  0.122370  0.622370  0.000000  1
  Ga  Ga7  1  0.877630  0.377630  0.000000  1
  Ga  Ga8  1  0.625842  0.874158  0.000000  1
  Ga  Ga9  1  0.374158  0.125842  0.000000  1
