# generated using pymatgen
data_Nd6Ho10MgCd3Ir4
_symmetry_space_group_name_H-M   'P 1'
_cell_length_a   9.74759381
_cell_length_b   9.74759392
_cell_length_c   9.74759349
_cell_angle_alpha   59.87646715
_cell_angle_beta   59.87646751
_cell_angle_gamma   59.87647110
_symmetry_Int_Tables_number   1
_chemical_formula_structural   Nd6Ho10MgCd3Ir4
_chemical_formula_sum   'Nd6 Ho10 Mg1 Cd3 Ir4'
_cell_volume   653.06777613
_cell_formula_units_Z   1
loop_
 _symmetry_equiv_pos_site_id
 _symmetry_equiv_pos_as_xyz
  1  'x, y, z'
loop_
 _atom_site_type_symbol
 _atom_site_label
 _atom_site_symmetry_multiplicity
 _atom_site_fract_x
 _atom_site_fract_y
 _atom_site_fract_z
 _atom_site_occupancy
  Nd  Nd0  1  0.940572  0.559855  0.559855  1
  Nd  Nd1  1  0.558329  0.941255  0.941255  1
  Nd  Nd2  1  0.559855  0.940572  0.559855  1
  Nd  Nd3  1  0.941255  0.558329  0.941255  1
  Nd  Nd4  1  0.559855  0.559855  0.940572  1
  Nd  Nd5  1  0.941255  0.941255  0.558329  1
  Ho  Ho6  1  0.347331  0.347331  0.347331  1
  Ho  Ho7  1  0.347087  0.347087  0.959885  1
  Ho  Ho8  1  0.347087  0.959885  0.347087  1
  Ho  Ho9  1  0.959885  0.347087  0.347087  1
  Ho  Ho10  1  0.811731  0.187574  0.187574  1
  Ho  Ho11  1  0.184933  0.813574  0.813574  1
  Ho  Ho12  1  0.187574  0.811731  0.187574  1
  Ho  Ho13  1  0.813574  0.184933  0.813574  1
  Ho  Ho14  1  0.187574  0.187574  0.811731  1
  Ho  Ho15  1  0.813574  0.813574  0.184933  1
  Mg  Mg16  1  0.576182  0.576182  0.576182  1
  Cd  Cd17  1  0.579895  0.579895  0.260600  1
  Cd  Cd18  1  0.579895  0.260600  0.579895  1
  Cd  Cd19  1  0.260600  0.579895  0.579895  1
  Ir  Ir20  1  0.141310  0.141310  0.141310  1
  Ir  Ir21  1  0.142257  0.142257  0.576131  1
  Ir  Ir22  1  0.142257  0.576131  0.142257  1
  Ir  Ir23  1  0.576131  0.142257  0.142257  1
