# generated using pymatgen
data_La2Ho3Ir2
_symmetry_space_group_name_H-M   'P 1'
_cell_length_a   6.56548311
_cell_length_b   7.22059082
_cell_length_c   8.83976573
_cell_angle_alpha   97.01748138
_cell_angle_beta   111.79956425
_cell_angle_gamma   89.99999430
_symmetry_Int_Tables_number   1
_chemical_formula_structural   La2Ho3Ir2
_chemical_formula_sum   'La4 Ho6 Ir4'
_cell_volume   385.71294869
_cell_formula_units_Z   2
loop_
 _symmetry_equiv_pos_site_id
 _symmetry_equiv_pos_as_xyz
  1  'x, y, z'
loop_
 _atom_site_type_symbol
 _atom_site_label
 _atom_site_symmetry_multiplicity
 _atom_site_fract_x
 _atom_site_fract_y
 _atom_site_fract_z
 _atom_site_occupancy
  La  La0  1  0.974647  0.918453  0.194506  1
  La  La1  1  0.780142  0.581547  0.805494  1
  La  La2  1  0.025353  0.081547  0.805494  1
  La  La3  1  0.219858  0.418453  0.194506  1
  Ho  Ho4  1  0.642442  0.817317  0.433509  1
  Ho  Ho5  1  0.208932  0.682683  0.566491  1
  Ho  Ho6  1  0.357558  0.182683  0.566491  1
  Ho  Ho7  1  0.791068  0.317317  0.433509  1
  Ho  Ho8  1  0.429976  0.750000  0.000000  1
  Ho  Ho9  1  0.570024  0.250000  0.000000  1
  Ir  Ir10  1  0.815610  0.575288  0.226601  1
  Ir  Ir11  1  0.589010  0.924712  0.773399  1
  Ir  Ir12  1  0.184390  0.424712  0.773399  1
  Ir  Ir13  1  0.410990  0.075288  0.226601  1
