# generated using pymatgen
data_YbCe3(Nb3Ge4)2
_symmetry_space_group_name_H-M   'P 1'
_cell_length_a   7.09514300
_cell_length_b   7.24380061
_cell_length_c   13.69846556
_cell_angle_alpha   89.99736047
_cell_angle_beta   90.00000000
_cell_angle_gamma   90.00000000
_symmetry_Int_Tables_number   1
_chemical_formula_structural   YbCe3(Nb3Ge4)2
_chemical_formula_sum   'Yb2 Ce6 Nb12 Ge16'
_cell_volume   704.04361155
_cell_formula_units_Z   2
loop_
 _symmetry_equiv_pos_site_id
 _symmetry_equiv_pos_as_xyz
  1  'x, y, z'
loop_
 _atom_site_type_symbol
 _atom_site_label
 _atom_site_symmetry_multiplicity
 _atom_site_fract_x
 _atom_site_fract_y
 _atom_site_fract_z
 _atom_site_occupancy
  Yb  Yb0  1  0.494503  0.673214  0.904683  1
  Yb  Yb1  1  0.994503  0.826786  0.595317  1
  Ce  Ce2  1  0.498815  0.671544  0.594165  1
  Ce  Ce3  1  0.998815  0.828456  0.905835  1
  Ce  Ce4  1  0.502746  0.327629  0.092662  1
  Ce  Ce5  1  0.002746  0.172371  0.407338  1
  Ce  Ce6  1  0.502738  0.328469  0.408318  1
  Ce  Ce7  1  0.002738  0.171531  0.091682  1
  Nb  Nb8  1  0.655167  0.171614  0.626916  1
  Nb  Nb9  1  0.155167  0.328386  0.873084  1
  Nb  Nb10  1  0.338511  0.832184  0.127532  1
  Nb  Nb11  1  0.838511  0.667816  0.372468  1
  Nb  Nb12  1  0.341475  0.831278  0.372567  1
  Nb  Nb13  1  0.841475  0.668722  0.127433  1
  Nb  Nb14  1  0.663562  0.168360  0.873091  1
  Nb  Nb15  1  0.163562  0.331640  0.626909  1
  Nb  Nb16  1  0.835247  0.488904  0.751520  1
  Nb  Nb17  1  0.335247  0.011096  0.748480  1
  Nb  Nb18  1  0.166710  0.507869  0.249561  1
  Nb  Nb19  1  0.666710  0.992131  0.250439  1
  Ge  Ge20  1  0.671894  0.956444  0.457299  1
  Ge  Ge21  1  0.171894  0.543556  0.042701  1
  Ge  Ge22  1  0.332626  0.040573  0.954260  1
  Ge  Ge23  1  0.832626  0.459427  0.545740  1
  Ge  Ge24  1  0.324136  0.039065  0.544958  1
  Ge  Ge25  1  0.824136  0.460935  0.955042  1
  Ge  Ge26  1  0.669600  0.954089  0.043172  1
  Ge  Ge27  1  0.169600  0.545911  0.456828  1
  Ge  Ge28  1  0.461033  0.375969  0.752477  1
  Ge  Ge29  1  0.961033  0.124031  0.747523  1
  Ge  Ge30  1  0.539351  0.626026  0.249459  1
  Ge  Ge31  1  0.039351  0.873974  0.250541  1
  Ge  Ge32  1  0.694382  0.863704  0.750916  1
  Ge  Ge33  1  0.194382  0.636296  0.749084  1
  Ge  Ge34  1  0.307503  0.135300  0.250030  1
  Ge  Ge35  1  0.807503  0.364700  0.249970  1
