# generated using pymatgen
data_Tb8Er2Tl7InPt4
_symmetry_space_group_name_H-M   'P 1'
_cell_length_a   3.62920600
_cell_length_b   8.28637332
_cell_length_c   18.49777927
_cell_angle_alpha   90.10269487
_cell_angle_beta   90.00000000
_cell_angle_gamma   90.00000000
_symmetry_Int_Tables_number   1
_chemical_formula_structural   Tb8Er2Tl7InPt4
_chemical_formula_sum   'Tb8 Er2 Tl7 In1 Pt4'
_cell_volume   556.28200426
_cell_formula_units_Z   1
loop_
 _symmetry_equiv_pos_site_id
 _symmetry_equiv_pos_as_xyz
  1  'x, y, z'
loop_
 _atom_site_type_symbol
 _atom_site_label
 _atom_site_symmetry_multiplicity
 _atom_site_fract_x
 _atom_site_fract_y
 _atom_site_fract_z
 _atom_site_occupancy
  Tb  Tb0  1  0.000000  0.114622  0.413120  1
  Tb  Tb1  1  0.000000  0.885183  0.586001  1
  Tb  Tb2  1  0.000000  0.384436  0.912684  1
  Tb  Tb3  1  0.000000  0.615383  0.087388  1
  Tb  Tb4  1  0.000000  0.242981  0.220699  1
  Tb  Tb5  1  0.000000  0.757227  0.779822  1
  Tb  Tb6  1  0.000000  0.000014  0.000175  1
  Tb  Tb7  1  0.000000  0.502624  0.499644  1
  Er  Er8  1  0.000000  0.256153  0.719977  1
  Er  Er9  1  0.000000  0.742697  0.280111  1
  Tl  Tl10  1  0.500000  0.424031  0.353007  1
  Tl  Tl11  1  0.500000  0.579156  0.647636  1
  Tl  Tl12  1  0.500000  0.079707  0.851960  1
  Tl  Tl13  1  0.500000  0.920563  0.148142  1
  Tl  Tl14  1  0.500000  0.292897  0.065650  1
  Tl  Tl15  1  0.500000  0.706861  0.934318  1
  Tl  Tl16  1  0.500000  0.208513  0.565147  1
  In  In17  1  0.500000  0.793797  0.433027  1
  Pt  Pt18  1  0.500000  0.018297  0.304200  1
  Pt  Pt19  1  0.500000  0.976987  0.697208  1
  Pt  Pt20  1  0.500000  0.470288  0.801693  1
  Pt  Pt21  1  0.500000  0.527583  0.198390  1
