# generated using pymatgen
data_YTm6Fe2Co4Sn23
_symmetry_space_group_name_H-M   'P 1'
_cell_length_a   9.65320400
_cell_length_b   9.65485536
_cell_length_c   9.96331677
_cell_angle_alpha   90.03926164
_cell_angle_beta   90.00000000
_cell_angle_gamma   119.99434224
_symmetry_Int_Tables_number   1
_chemical_formula_structural   YTm6Fe2Co4Sn23
_chemical_formula_sum   'Y1 Tm6 Fe2 Co4 Sn23'
_cell_volume   804.22292181
_cell_formula_units_Z   1
loop_
 _symmetry_equiv_pos_site_id
 _symmetry_equiv_pos_as_xyz
  1  'x, y, z'
loop_
 _atom_site_type_symbol
 _atom_site_label
 _atom_site_symmetry_multiplicity
 _atom_site_fract_x
 _atom_site_fract_y
 _atom_site_fract_z
 _atom_site_occupancy
  Y  Y0  1  0.998282  0.996565  0.996422  1
  Tm  Tm1  1  0.039648  0.519849  0.306571  1
  Tm  Tm2  1  0.479740  0.959480  0.306722  1
  Tm  Tm3  1  0.480201  0.519849  0.306571  1
  Tm  Tm4  1  0.961728  0.482334  0.694484  1
  Tm  Tm5  1  0.518733  0.037466  0.695596  1
  Tm  Tm6  1  0.520606  0.482334  0.694484  1
  Fe  Fe7  1  0.167877  0.831656  0.801845  1
  Fe  Fe8  1  0.663779  0.831656  0.801845  1
  Co  Co9  1  0.168676  0.337352  0.802279  1
  Co  Co10  1  0.830859  0.168815  0.197296  1
  Co  Co11  1  0.337956  0.168815  0.197296  1
  Co  Co12  1  0.830729  0.661458  0.197063  1
  Sn  Sn13  1  0.000141  0.000283  0.499321  1
  Sn  Sn14  1  0.117905  0.880876  0.273770  1
  Sn  Sn15  1  0.762970  0.880876  0.273770  1
  Sn  Sn16  1  0.118786  0.237572  0.274635  1
  Sn  Sn17  1  0.881197  0.118428  0.726639  1
  Sn  Sn18  1  0.237232  0.118428  0.726639  1
  Sn  Sn19  1  0.881824  0.763647  0.726806  1
  Sn  Sn20  1  0.345928  0.999421  0.999537  1
  Sn  Sn21  1  0.653381  0.653727  0.999795  1
  Sn  Sn22  1  0.999867  0.347075  0.999916  1
  Sn  Sn23  1  0.347208  0.347075  0.999916  1
  Sn  Sn24  1  0.000346  0.653727  0.999795  1
  Sn  Sn25  1  0.653493  0.999421  0.999537  1
  Sn  Sn26  1  0.781836  0.563672  0.452324  1
  Sn  Sn27  1  0.781718  0.218441  0.452730  1
  Sn  Sn28  1  0.436725  0.218441  0.452730  1
  Sn  Sn29  1  0.218427  0.436855  0.547916  1
  Sn  Sn30  1  0.218408  0.781798  0.547581  1
  Sn  Sn31  1  0.563390  0.781798  0.547581  1
  Sn  Sn32  1  0.666788  0.333575  0.182342  1
  Sn  Sn33  1  0.334101  0.668203  0.817880  1
  Sn  Sn34  1  0.666395  0.332790  0.878539  1
  Sn  Sn35  1  0.333118  0.666238  0.121829  1
