# generated using pymatgen
data_Eu20GaSi10Hg
_symmetry_space_group_name_H-M   'P 1'
_cell_length_a   7.82421400
_cell_length_b   7.82421400
_cell_length_c   14.71062700
_cell_angle_alpha   90.00000000
_cell_angle_beta   90.00000000
_cell_angle_gamma   90.00000000
_symmetry_Int_Tables_number   1
_chemical_formula_structural   Eu20GaSi10Hg
_chemical_formula_sum   'Eu20 Ga1 Si10 Hg1'
_cell_volume   900.55994049
_cell_formula_units_Z   1
loop_
 _symmetry_equiv_pos_site_id
 _symmetry_equiv_pos_as_xyz
  1  'x, y, z'
loop_
 _atom_site_type_symbol
 _atom_site_label
 _atom_site_symmetry_multiplicity
 _atom_site_fract_x
 _atom_site_fract_y
 _atom_site_fract_z
 _atom_site_occupancy
  Eu  Eu0  1  0.817663  0.829569  0.601368  1
  Eu  Eu1  1  0.175876  0.827343  0.110734  1
  Eu  Eu2  1  0.171071  0.817925  0.398540  1
  Eu  Eu3  1  0.000000  0.500000  0.725854  1
  Eu  Eu4  1  0.828929  0.182075  0.398540  1
  Eu  Eu5  1  0.682075  0.671071  0.398540  1
  Eu  Eu6  1  0.670431  0.317663  0.601368  1
  Eu  Eu7  1  0.329569  0.682337  0.601368  1
  Eu  Eu8  1  0.000000  0.500000  0.249248  1
  Eu  Eu9  1  0.672657  0.675876  0.110734  1
  Eu  Eu10  1  0.686099  0.336696  0.889409  1
  Eu  Eu11  1  0.836696  0.813901  0.889409  1
  Eu  Eu12  1  0.317925  0.328929  0.398540  1
  Eu  Eu13  1  0.182337  0.170431  0.601368  1
  Eu  Eu14  1  0.824124  0.172657  0.110734  1
  Eu  Eu15  1  0.313901  0.663304  0.889409  1
  Eu  Eu16  1  0.327343  0.324124  0.110734  1
  Eu  Eu17  1  0.500000  0.000000  0.270291  1
  Eu  Eu18  1  0.163304  0.186099  0.889409  1
  Eu  Eu19  1  0.500000  0.000000  0.751619  1
  Ga  Ga20  1  0.000000  0.500000  0.007543  1
  Si  Si21  1  0.610412  0.389065  0.254537  1
  Si  Si22  1  0.111619  0.890178  0.745946  1
  Si  Si23  1  0.390178  0.388381  0.745946  1
  Si  Si24  1  0.389588  0.610935  0.254537  1
  Si  Si25  1  0.889065  0.889588  0.254537  1
  Si  Si26  1  0.609822  0.611619  0.745946  1
  Si  Si27  1  0.000000  0.500000  0.503139  1
  Si  Si28  1  0.888381  0.109822  0.745946  1
  Si  Si29  1  0.500000  0.000000  0.496144  1
  Si  Si30  1  0.110935  0.110412  0.254537  1
  Hg  Hg31  1  0.500000  0.000000  0.994028  1
