# generated using pymatgen
data_YHo7(CdCo)2
_symmetry_space_group_name_H-M   'P 1'
_cell_length_a   9.45522255
_cell_length_b   9.45522208
_cell_length_c   9.45060000
_cell_angle_alpha   60.01616236
_cell_angle_beta   60.01616398
_cell_angle_gamma   59.96765801
_symmetry_Int_Tables_number   1
_chemical_formula_structural   YHo7(CdCo)2
_chemical_formula_sum   'Y2 Ho14 Cd4 Co4'
_cell_volume   597.43080833
_cell_formula_units_Z   2
loop_
 _symmetry_equiv_pos_site_id
 _symmetry_equiv_pos_as_xyz
  1  'x, y, z'
loop_
 _atom_site_type_symbol
 _atom_site_label
 _atom_site_symmetry_multiplicity
 _atom_site_fract_x
 _atom_site_fract_y
 _atom_site_fract_z
 _atom_site_occupancy
  Y  Y0  1  0.812673  0.812673  0.187327  1
  Y  Y1  1  0.187327  0.187327  0.812673  1
  Ho  Ho2  1  0.596433  0.596433  0.596425  1
  Ho  Ho3  1  0.596433  0.596433  0.210708  1
  Ho  Ho4  1  0.596425  0.210708  0.596433  1
  Ho  Ho5  1  0.210708  0.596425  0.596433  1
  Ho  Ho6  1  0.062440  0.437560  0.437560  1
  Ho  Ho7  1  0.437560  0.062440  0.062440  1
  Ho  Ho8  1  0.437560  0.062440  0.437560  1
  Ho  Ho9  1  0.062440  0.437560  0.062440  1
  Ho  Ho10  1  0.437498  0.437498  0.062502  1
  Ho  Ho11  1  0.062502  0.062502  0.437498  1
  Ho  Ho12  1  0.188697  0.811303  0.811303  1
  Ho  Ho13  1  0.811303  0.188697  0.188697  1
  Ho  Ho14  1  0.811303  0.188697  0.811303  1
  Ho  Ho15  1  0.188697  0.811303  0.188697  1
  Cd  Cd16  1  0.830653  0.830653  0.830074  1
  Cd  Cd17  1  0.830653  0.830653  0.508620  1
  Cd  Cd18  1  0.830074  0.508620  0.830653  1
  Cd  Cd19  1  0.508620  0.830074  0.830653  1
  Co  Co20  1  0.391517  0.391517  0.390583  1
  Co  Co21  1  0.391517  0.391517  0.826382  1
  Co  Co22  1  0.390583  0.826382  0.391517  1
  Co  Co23  1  0.826382  0.390583  0.391517  1
