# generated using pymatgen
data_DyTm3(Sc4Bi3)4
_symmetry_space_group_name_H-M   'P 1'
_cell_length_a   7.87059305
_cell_length_b   9.05319900
_cell_length_c   11.53372807
_cell_angle_alpha   90.00000000
_cell_angle_beta   89.98705048
_cell_angle_gamma   90.00000000
_symmetry_Int_Tables_number   1
_chemical_formula_structural   DyTm3(Sc4Bi3)4
_chemical_formula_sum   'Dy1 Tm3 Sc16 Bi12'
_cell_volume   821.82475971
_cell_formula_units_Z   1
loop_
 _symmetry_equiv_pos_site_id
 _symmetry_equiv_pos_as_xyz
  1  'x, y, z'
loop_
 _atom_site_type_symbol
 _atom_site_label
 _atom_site_symmetry_multiplicity
 _atom_site_fract_x
 _atom_site_fract_y
 _atom_site_fract_z
 _atom_site_occupancy
  Dy  Dy0  1  0.184510  0.250000  0.781140  1
  Tm  Tm1  1  0.815106  0.750000  0.218389  1
  Tm  Tm2  1  0.315110  0.750000  0.281598  1
  Tm  Tm3  1  0.684810  0.250000  0.718364  1
  Sc  Sc4  1  0.019070  0.250000  0.511209  1
  Sc  Sc5  1  0.980547  0.750000  0.488598  1
  Sc  Sc6  1  0.480763  0.750000  0.011492  1
  Sc  Sc7  1  0.519612  0.250000  0.988815  1
  Sc  Sc8  1  0.351206  0.250000  0.280052  1
  Sc  Sc9  1  0.648965  0.750000  0.719848  1
  Sc  Sc10  1  0.148821  0.750000  0.780082  1
  Sc  Sc11  1  0.851038  0.250000  0.219953  1
  Sc  Sc12  1  0.193741  0.067228  0.062149  1
  Sc  Sc13  1  0.806394  0.932848  0.938043  1
  Sc  Sc14  1  0.306228  0.932841  0.561851  1
  Sc  Sc15  1  0.806394  0.567152  0.938043  1
  Sc  Sc16  1  0.693878  0.067265  0.438017  1
  Sc  Sc17  1  0.193741  0.432772  0.062149  1
  Sc  Sc18  1  0.693878  0.432735  0.438017  1
  Sc  Sc19  1  0.306228  0.567159  0.561851  1
  Bi  Bi20  1  0.403545  0.250000  0.534312  1
  Bi  Bi21  1  0.596823  0.750000  0.465283  1
  Bi  Bi22  1  0.096928  0.750000  0.034691  1
  Bi  Bi23  1  0.902257  0.250000  0.966039  1
  Bi  Bi24  1  0.064955  0.008709  0.327947  1
  Bi  Bi25  1  0.934447  0.990745  0.671816  1
  Bi  Bi26  1  0.435933  0.990545  0.828118  1
  Bi  Bi27  1  0.934447  0.509255  0.671816  1
  Bi  Bi28  1  0.564867  0.008657  0.172128  1
  Bi  Bi29  1  0.064955  0.491291  0.327947  1
  Bi  Bi30  1  0.564867  0.491343  0.172128  1
  Bi  Bi31  1  0.435933  0.509455  0.828118  1
