# generated using pymatgen
data_Dy3Er3Al24(RuRh3)2
_symmetry_space_group_name_H-M   'P 1'
_cell_length_a   8.82098300
_cell_length_b   8.82098243
_cell_length_c   9.48848900
_cell_angle_alpha   90.00000000
_cell_angle_beta   90.00000000
_cell_angle_gamma   119.99999837
_symmetry_Int_Tables_number   1
_chemical_formula_structural   Dy3Er3Al24(RuRh3)2
_chemical_formula_sum   'Dy3 Er3 Al24 Ru2 Rh6'
_cell_volume   639.38381653
_cell_formula_units_Z   1
loop_
 _symmetry_equiv_pos_site_id
 _symmetry_equiv_pos_as_xyz
  1  'x, y, z'
loop_
 _atom_site_type_symbol
 _atom_site_label
 _atom_site_symmetry_multiplicity
 _atom_site_fract_x
 _atom_site_fract_y
 _atom_site_fract_z
 _atom_site_occupancy
  Dy  Dy0  1  0.808581  0.191419  0.750000  1
  Dy  Dy1  1  0.808581  0.617163  0.750000  1
  Dy  Dy2  1  0.382837  0.191419  0.750000  1
  Er  Er3  1  0.192580  0.807420  0.250000  1
  Er  Er4  1  0.192580  0.385160  0.250000  1
  Er  Er5  1  0.614840  0.807420  0.250000  1
  Al  Al6  1  0.561541  0.438459  0.250000  1
  Al  Al7  1  0.561541  0.123082  0.250000  1
  Al  Al8  1  0.876918  0.438459  0.250000  1
  Al  Al9  1  0.438087  0.561913  0.750000  1
  Al  Al10  1  0.438087  0.876175  0.750000  1
  Al  Al11  1  0.123825  0.561913  0.750000  1
  Al  Al12  1  0.325818  0.162909  0.423648  1
  Al  Al13  1  0.837091  0.162909  0.423648  1
  Al  Al14  1  0.837091  0.674182  0.423648  1
  Al  Al15  1  0.673978  0.836989  0.575912  1
  Al  Al16  1  0.163011  0.836989  0.575912  1
  Al  Al17  1  0.163011  0.326022  0.575912  1
  Al  Al18  1  0.673978  0.836989  0.924088  1
  Al  Al19  1  0.163011  0.836989  0.924088  1
  Al  Al20  1  0.163011  0.326022  0.924088  1
  Al  Al21  1  0.325818  0.162909  0.076352  1
  Al  Al22  1  0.837091  0.162909  0.076352  1
  Al  Al23  1  0.837091  0.674182  0.076352  1
  Al  Al24  1  0.666667  0.333333  0.529026  1
  Al  Al25  1  0.333333  0.666667  0.470102  1
  Al  Al26  1  0.333333  0.666667  0.029898  1
  Al  Al27  1  0.666667  0.333333  0.970974  1
  Al  Al28  1  0.000000  0.000000  0.250000  1
  Al  Al29  1  0.000000  0.000000  0.750000  1
  Ru  Ru30  1  0.000000  0.000000  0.499460  1
  Ru  Ru31  1  0.000000  0.000000  0.000540  1
  Rh  Rh32  1  0.499825  0.500175  0.499540  1
  Rh  Rh33  1  0.499825  0.999650  0.499540  1
  Rh  Rh34  1  0.000350  0.500175  0.499540  1
  Rh  Rh35  1  0.499825  0.500175  0.000460  1
  Rh  Rh36  1  0.499825  0.999650  0.000460  1
  Rh  Rh37  1  0.000350  0.500175  0.000460  1
