# generated using pymatgen
data_Sc16Ga5Fe2Hg
_symmetry_space_group_name_H-M   'P 1'
_cell_length_a   9.45506049
_cell_length_b   9.45512725
_cell_length_c   6.37410700
_cell_angle_alpha   90.07022655
_cell_angle_beta   89.92786412
_cell_angle_gamma   120.01956064
_symmetry_Int_Tables_number   1
_chemical_formula_structural   Sc16Ga5Fe2Hg
_chemical_formula_sum   'Sc16 Ga5 Fe2 Hg1'
_cell_volume   493.39595912
_cell_formula_units_Z   1
loop_
 _symmetry_equiv_pos_site_id
 _symmetry_equiv_pos_as_xyz
  1  'x, y, z'
loop_
 _atom_site_type_symbol
 _atom_site_label
 _atom_site_symmetry_multiplicity
 _atom_site_fract_x
 _atom_site_fract_y
 _atom_site_fract_z
 _atom_site_occupancy
  Sc  Sc0  1  0.534095  0.066820  0.524929  1
  Sc  Sc1  1  0.933173  0.465897  0.524934  1
  Sc  Sc2  1  0.532932  0.467019  0.527930  1
  Sc  Sc3  1  0.473832  0.938748  0.024881  1
  Sc  Sc4  1  0.061247  0.526175  0.024895  1
  Sc  Sc5  1  0.467114  0.532913  0.024525  1
  Sc  Sc6  1  0.174677  0.348996  0.730548  1
  Sc  Sc7  1  0.651009  0.825322  0.730505  1
  Sc  Sc8  1  0.175645  0.824347  0.730770  1
  Sc  Sc9  1  0.818761  0.646428  0.227165  1
  Sc  Sc10  1  0.353540  0.181204  0.227131  1
  Sc  Sc11  1  0.825467  0.174564  0.232640  1
  Sc  Sc12  1  0.666038  0.333956  0.900053  1
  Sc  Sc13  1  0.335082  0.664943  0.409005  1
  Sc  Sc14  1  0.998935  0.001101  0.509314  1
  Sc  Sc15  1  0.996705  0.003275  0.004532  1
  Ga  Ga16  1  0.836772  0.674518  0.767105  1
  Ga  Ga17  1  0.325452  0.163221  0.767085  1
  Ga  Ga18  1  0.836444  0.163573  0.768285  1
  Ga  Ga19  1  0.162460  0.326087  0.268165  1
  Ga  Ga20  1  0.673958  0.837582  0.268123  1
  Fe  Fe21  1  0.667301  0.332549  0.294923  1
  Fe  Fe22  1  0.333501  0.666677  0.798710  1
  Hg  Hg23  1  0.165862  0.834083  0.269529  1
