# generated using pymatgen
data_Dy4Zn3(Ga5Pd2)3
_symmetry_space_group_name_H-M   'P 1'
_cell_length_a   7.61850200
_cell_length_b   7.64021412
_cell_length_c   9.56275700
_cell_angle_alpha   90.00000000
_cell_angle_beta   90.00000000
_cell_angle_gamma   119.30425922
_symmetry_Int_Tables_number   1
_chemical_formula_structural   Dy4Zn3(Ga5Pd2)3
_chemical_formula_sum   'Dy4 Zn3 Ga15 Pd6'
_cell_volume   485.39030906
_cell_formula_units_Z   1
loop_
 _symmetry_equiv_pos_site_id
 _symmetry_equiv_pos_as_xyz
  1  'x, y, z'
loop_
 _atom_site_type_symbol
 _atom_site_label
 _atom_site_symmetry_multiplicity
 _atom_site_fract_x
 _atom_site_fract_y
 _atom_site_fract_z
 _atom_site_occupancy
  Dy  Dy0  1  0.996520  0.670802  0.250000  1
  Dy  Dy1  1  0.003186  0.329908  0.750000  1
  Dy  Dy2  1  0.672726  0.999064  0.250000  1
  Dy  Dy3  1  0.329356  0.002924  0.750000  1
  Zn  Zn4  1  0.138907  0.137596  0.250000  1
  Zn  Zn5  1  0.865585  0.865137  0.750000  1
  Zn  Zn6  1  0.342009  0.544404  0.250000  1
  Ga  Ga7  1  0.006484  0.336303  0.086206  1
  Ga  Ga8  1  0.996630  0.666825  0.917550  1
  Ga  Ga9  1  0.996630  0.666825  0.582450  1
  Ga  Ga10  1  0.333445  0.000323  0.415772  1
  Ga  Ga11  1  0.006484  0.336303  0.413794  1
  Ga  Ga12  1  0.667637  0.998306  0.583088  1
  Ga  Ga13  1  0.667637  0.998306  0.916912  1
  Ga  Ga14  1  0.333445  0.000323  0.084228  1
  Ga  Ga15  1  0.330936  0.330634  0.561934  1
  Ga  Ga16  1  0.664235  0.667143  0.432133  1
  Ga  Ga17  1  0.664235  0.667143  0.067867  1
  Ga  Ga18  1  0.330936  0.330634  0.938066  1
  Ga  Ga19  1  0.657618  0.454989  0.750000  1
  Ga  Ga20  1  0.539806  0.341644  0.250000  1
  Ga  Ga21  1  0.456751  0.657288  0.750000  1
  Pd  Pd22  1  0.673983  0.326894  0.000073  1
  Pd  Pd23  1  0.326584  0.672995  0.996495  1
  Pd  Pd24  1  0.326584  0.672995  0.503505  1
  Pd  Pd25  1  0.673983  0.326894  0.499927  1
  Pd  Pd26  1  0.998837  0.998701  0.000638  1
  Pd  Pd27  1  0.998837  0.998701  0.499362  1
