# generated using pymatgen
data_Tb4AgPt
_symmetry_space_group_name_H-M   'P 1'
_cell_length_a   9.64709855
_cell_length_b   9.64709879
_cell_length_c   9.64709900
_cell_angle_alpha   59.99999585
_cell_angle_beta   59.99999503
_cell_angle_gamma   59.99999949
_symmetry_Int_Tables_number   1
_chemical_formula_structural   Tb4AgPt
_chemical_formula_sum   'Tb16 Ag4 Pt4'
_cell_volume   634.85588093
_cell_formula_units_Z   4
loop_
 _symmetry_equiv_pos_site_id
 _symmetry_equiv_pos_as_xyz
  1  'x, y, z'
loop_
 _atom_site_type_symbol
 _atom_site_label
 _atom_site_symmetry_multiplicity
 _atom_site_fract_x
 _atom_site_fract_y
 _atom_site_fract_z
 _atom_site_occupancy
  Tb  Tb0  1  0.354899  0.354899  0.354899  1
  Tb  Tb1  1  0.354899  0.354899  0.935302  1
  Tb  Tb2  1  0.354899  0.935302  0.354899  1
  Tb  Tb3  1  0.935302  0.354899  0.354899  1
  Tb  Tb4  1  0.810760  0.189240  0.189240  1
  Tb  Tb5  1  0.189240  0.810760  0.810760  1
  Tb  Tb6  1  0.189240  0.810760  0.189240  1
  Tb  Tb7  1  0.810760  0.189240  0.810760  1
  Tb  Tb8  1  0.189240  0.189240  0.810760  1
  Tb  Tb9  1  0.810760  0.810760  0.189240  1
  Tb  Tb10  1  0.934179  0.565821  0.565821  1
  Tb  Tb11  1  0.565821  0.934179  0.934179  1
  Tb  Tb12  1  0.565821  0.934179  0.565821  1
  Tb  Tb13  1  0.934179  0.565821  0.934179  1
  Tb  Tb14  1  0.565821  0.565821  0.934179  1
  Tb  Tb15  1  0.934179  0.934179  0.565821  1
  Ag  Ag16  1  0.582848  0.582848  0.582848  1
  Ag  Ag17  1  0.582848  0.582848  0.251455  1
  Ag  Ag18  1  0.582848  0.251455  0.582848  1
  Ag  Ag19  1  0.251455  0.582848  0.582848  1
  Pt  Pt20  1  0.144168  0.144168  0.144168  1
  Pt  Pt21  1  0.144168  0.144168  0.567497  1
  Pt  Pt22  1  0.144168  0.567497  0.144168  1
  Pt  Pt23  1  0.567497  0.144168  0.144168  1
