# generated using pymatgen
data_Nd2Dy3Lu3Sb20
_symmetry_space_group_name_H-M   'P 1'
_cell_length_a   4.27258900
_cell_length_b   13.20537581
_cell_length_c   14.64227670
_cell_angle_alpha   77.74819519
_cell_angle_beta   90.00000000
_cell_angle_gamma   90.00000000
_symmetry_Int_Tables_number   1
_chemical_formula_structural   Nd2Dy3Lu3Sb20
_chemical_formula_sum   'Nd2 Dy3 Lu3 Sb20'
_cell_volume   807.31831481
_cell_formula_units_Z   1
loop_
 _symmetry_equiv_pos_site_id
 _symmetry_equiv_pos_as_xyz
  1  'x, y, z'
loop_
 _atom_site_type_symbol
 _atom_site_label
 _atom_site_symmetry_multiplicity
 _atom_site_fract_x
 _atom_site_fract_y
 _atom_site_fract_z
 _atom_site_occupancy
  Nd  Nd0  1  0.250000  0.668376  0.577039  1
  Nd  Nd1  1  0.250000  0.951692  0.358005  1
  Dy  Dy2  1  0.750000  0.338760  0.143006  1
  Dy  Dy3  1  0.750000  0.331095  0.423798  1
  Dy  Dy4  1  0.750000  0.048267  0.641133  1
  Lu  Lu5  1  0.250000  0.396514  0.772484  1
  Lu  Lu6  1  0.750000  0.603189  0.225966  1
  Lu  Lu7  1  0.250000  0.662266  0.856941  1
  Sb  Sb8  1  0.250000  0.145213  0.782103  1
  Sb  Sb9  1  0.750000  0.852534  0.215518  1
  Sb  Sb10  1  0.250000  0.145029  0.483053  1
  Sb  Sb11  1  0.750000  0.859614  0.520851  1
  Sb  Sb12  1  0.250000  0.154550  0.171177  1
  Sb  Sb13  1  0.750000  0.844463  0.829804  1
  Sb  Sb14  1  0.250000  0.421057  0.974497  1
  Sb  Sb15  1  0.750000  0.580287  0.023494  1
  Sb  Sb16  1  0.750000  0.030535  0.904692  1
  Sb  Sb17  1  0.250000  0.969180  0.094227  1
  Sb  Sb18  1  0.750000  0.142266  0.321435  1
  Sb  Sb19  1  0.250000  0.862163  0.680824  1
  Sb  Sb20  1  0.750000  0.281901  0.936386  1
  Sb  Sb21  1  0.250000  0.719270  0.060845  1
  Sb  Sb22  1  0.750000  0.289038  0.654691  1
  Sb  Sb23  1  0.250000  0.707473  0.343828  1
  Sb  Sb24  1  0.750000  0.573700  0.741800  1
  Sb  Sb25  1  0.250000  0.425924  0.264208  1
  Sb  Sb26  1  0.750000  0.571826  0.442684  1
  Sb  Sb27  1  0.250000  0.423817  0.555512  1
