# generated using pymatgen
data_TbTmNb3P7Rh9
_symmetry_space_group_name_H-M   'P 1'
_cell_length_a   3.92488800
_cell_length_b   9.65449371
_cell_length_c   9.65463902
_cell_angle_alpha   119.97892049
_cell_angle_beta   89.99951553
_cell_angle_gamma   89.99935961
_symmetry_Int_Tables_number   1
_chemical_formula_structural   TbTmNb3P7Rh9
_chemical_formula_sum   'Tb1 Tm1 Nb3 P7 Rh9'
_cell_volume   316.89519504
_cell_formula_units_Z   1
loop_
 _symmetry_equiv_pos_site_id
 _symmetry_equiv_pos_as_xyz
  1  'x, y, z'
loop_
 _atom_site_type_symbol
 _atom_site_label
 _atom_site_symmetry_multiplicity
 _atom_site_fract_x
 _atom_site_fract_y
 _atom_site_fract_z
 _atom_site_occupancy
  Tb  Tb0  1  0.261198  0.666653  0.333439  1
  Tm  Tm1  1  0.762082  0.333352  0.666614  1
  Nb  Nb2  1  0.762129  0.095541  0.873930  1
  Nb  Nb3  1  0.762121  0.126145  0.221542  1
  Nb  Nb4  1  0.762129  0.778289  0.904491  1
  P  P5  1  0.262405  0.999974  0.000022  1
  P  P6  1  0.761605  0.876696  0.589776  1
  P  P7  1  0.761587  0.410133  0.286743  1
  P  P8  1  0.761587  0.713218  0.123464  1
  P  P9  1  0.262320  0.117819  0.417252  1
  P  P10  1  0.262328  0.582824  0.700647  1
  P  P11  1  0.262332  0.299435  0.882236  1
  Rh  Rh12  1  0.261875  0.883372  0.162741  1
  Rh  Rh13  1  0.261887  0.837044  0.720588  1
  Rh  Rh14  1  0.261881  0.279539  0.116700  1
  Rh  Rh15  1  0.761813  0.610020  0.556776  1
  Rh  Rh16  1  0.761805  0.443252  0.053107  1
  Rh  Rh17  1  0.761807  0.946958  0.390139  1
  Rh  Rh18  1  0.261700  0.367327  0.440102  1
  Rh  Rh19  1  0.261708  0.559631  0.927163  1
  Rh  Rh20  1  0.261702  0.072778  0.632526  1
