# generated using pymatgen
data_YbPr4Er5Si8
_symmetry_space_group_name_H-M   'P 1'
_cell_length_a   7.77028206
_cell_length_b   7.77028900
_cell_length_c   14.47617800
_cell_angle_alpha   90.00069313
_cell_angle_beta   90.00694603
_cell_angle_gamma   90.00017688
_symmetry_Int_Tables_number   1
_chemical_formula_structural   YbPr4Er5Si8
_chemical_formula_sum   'Yb2 Pr8 Er10 Si16'
_cell_volume   874.03307398
_cell_formula_units_Z   2
loop_
 _symmetry_equiv_pos_site_id
 _symmetry_equiv_pos_as_xyz
  1  'x, y, z'
loop_
 _atom_site_type_symbol
 _atom_site_label
 _atom_site_symmetry_multiplicity
 _atom_site_fract_x
 _atom_site_fract_y
 _atom_site_fract_z
 _atom_site_occupancy
  Yb  Yb0  1  0.684648  0.683787  0.499265  1
  Yb  Yb1  1  0.815547  0.183651  0.750801  1
  Pr  Pr2  1  0.990999  0.640925  0.041923  1
  Pr  Pr3  1  0.007873  0.360861  0.542405  1
  Pr  Pr4  1  0.639876  0.991196  0.957535  1
  Pr  Pr5  1  0.140502  0.508135  0.791784  1
  Pr  Pr6  1  0.859899  0.491105  0.292405  1
  Pr  Pr7  1  0.508801  0.140864  0.207958  1
  Pr  Pr8  1  0.492093  0.860783  0.707619  1
  Pr  Pr9  1  0.359335  0.008256  0.458256  1
  Er  Er10  1  0.362972  0.492830  0.375576  1
  Er  Er11  1  0.863662  0.006353  0.374166  1
  Er  Er12  1  0.991608  0.138065  0.126343  1
  Er  Er13  1  0.005378  0.864238  0.625491  1
  Er  Er14  1  0.636195  0.506223  0.875783  1
  Er  Er15  1  0.494799  0.364335  0.624772  1
  Er  Er16  1  0.508653  0.637878  0.123531  1
  Er  Er17  1  0.137202  0.992850  0.874400  1
  Er  Er18  1  0.183777  0.814247  0.249282  1
  Er  Er19  1  0.316344  0.314258  0.000701  1
  Si  Si20  1  0.074173  0.711942  0.438216  1
  Si  Si21  1  0.936147  0.289035  0.942210  1
  Si  Si22  1  0.711871  0.073273  0.558792  1
  Si  Si23  1  0.211672  0.434898  0.188790  1
  Si  Si24  1  0.788067  0.573150  0.691250  1
  Si  Si25  1  0.425994  0.211876  0.811949  1
  Si  Si26  1  0.563811  0.789073  0.307729  1
  Si  Si27  1  0.288232  0.934602  0.061135  1
  Si  Si28  1  0.848858  0.790280  0.811814  1
  Si  Si29  1  0.153208  0.202889  0.309728  1
  Si  Si30  1  0.797154  0.846529  0.190578  1
  Si  Si31  1  0.289630  0.651033  0.561862  1
  Si  Si32  1  0.702724  0.346283  0.059315  1
  Si  Si33  1  0.651208  0.290273  0.438299  1
  Si  Si34  1  0.346816  0.702876  0.940122  1
  Si  Si35  1  0.210276  0.151144  0.688215  1
