# generated using pymatgen
data_Y4Zn4Ir3Rh
_symmetry_space_group_name_H-M   'P 1'
_cell_length_a   4.09519600
_cell_length_b   7.00859603
_cell_length_c   8.07617636
_cell_angle_alpha   89.91262977
_cell_angle_beta   90.00000000
_cell_angle_gamma   90.00000000
_symmetry_Int_Tables_number   1
_chemical_formula_structural   Y4Zn4Ir3Rh
_chemical_formula_sum   'Y4 Zn4 Ir3 Rh1'
_cell_volume   231.79870726
_cell_formula_units_Z   1
loop_
 _symmetry_equiv_pos_site_id
 _symmetry_equiv_pos_as_xyz
  1  'x, y, z'
loop_
 _atom_site_type_symbol
 _atom_site_label
 _atom_site_symmetry_multiplicity
 _atom_site_fract_x
 _atom_site_fract_y
 _atom_site_fract_z
 _atom_site_occupancy
  Y  Y0  1  0.250000  0.532211  0.183568  1
  Y  Y1  1  0.750000  0.470184  0.817101  1
  Y  Y2  1  0.750000  0.965596  0.684660  1
  Y  Y3  1  0.250000  0.030434  0.314775  1
  Zn  Zn4  1  0.250000  0.642245  0.566358  1
  Zn  Zn5  1  0.750000  0.358088  0.433686  1
  Zn  Zn6  1  0.750000  0.857602  0.066748  1
  Zn  Zn7  1  0.250000  0.142304  0.934128  1
  Ir  Ir8  1  0.250000  0.761867  0.877652  1
  Ir  Ir9  1  0.750000  0.239448  0.120789  1
  Ir  Ir10  1  0.750000  0.738747  0.380505  1
  Rh  Rh11  1  0.250000  0.261275  0.620030  1
