# generated using pymatgen
data_NdTa5NbSn6
_symmetry_space_group_name_H-M   'P 1'
_cell_length_a   5.81212000
_cell_length_b   5.81211940
_cell_length_c   9.63682500
_cell_angle_alpha   90.00000000
_cell_angle_beta   90.00000000
_cell_angle_gamma   120.01163114
_symmetry_Int_Tables_number   1
_chemical_formula_structural   NdTa5NbSn6
_chemical_formula_sum   'Nd1 Ta5 Nb1 Sn6'
_cell_volume   281.89202621
_cell_formula_units_Z   1
loop_
 _symmetry_equiv_pos_site_id
 _symmetry_equiv_pos_as_xyz
  1  'x, y, z'
loop_
 _atom_site_type_symbol
 _atom_site_label
 _atom_site_symmetry_multiplicity
 _atom_site_fract_x
 _atom_site_fract_y
 _atom_site_fract_z
 _atom_site_occupancy
  Nd  Nd0  1  0.000000  0.000000  0.999884  1
  Ta  Ta1  1  0.000000  0.500000  0.750075  1
  Ta  Ta2  1  0.500000  0.500000  0.749510  1
  Ta  Ta3  1  0.500000  0.000000  0.750075  1
  Ta  Ta4  1  0.000000  0.500000  0.250274  1
  Ta  Ta5  1  0.500000  0.000000  0.250274  1
  Nb  Nb6  1  0.500000  0.500000  0.250375  1
  Sn  Sn7  1  0.666947  0.333053  0.500063  1
  Sn  Sn8  1  0.333053  0.666947  0.500063  1
  Sn  Sn9  1  0.666593  0.333407  0.000029  1
  Sn  Sn10  1  0.333407  0.666593  0.000029  1
  Sn  Sn11  1  0.000000  0.000000  0.666097  1
  Sn  Sn12  1  0.000000  0.000000  0.333250  1
