# generated using pymatgen
data_KSr2Lu(ReN3)4
_symmetry_space_group_name_H-M   'P 1'
_cell_length_a   7.51291952
_cell_length_b   7.51291990
_cell_length_c   6.25116436
_cell_angle_alpha   77.40248476
_cell_angle_beta   77.40247116
_cell_angle_gamma   86.90952100
_symmetry_Int_Tables_number   1
_chemical_formula_structural   KSr2Lu(ReN3)4
_chemical_formula_sum   'K1 Sr2 Lu1 Re4 N12'
_cell_volume   336.04909227
_cell_formula_units_Z   1
loop_
 _symmetry_equiv_pos_site_id
 _symmetry_equiv_pos_as_xyz
  1  'x, y, z'
loop_
 _atom_site_type_symbol
 _atom_site_label
 _atom_site_symmetry_multiplicity
 _atom_site_fract_x
 _atom_site_fract_y
 _atom_site_fract_z
 _atom_site_occupancy
  K  K0  1  0.311021  0.688979  0.750000  1
  Sr  Sr1  1  0.095418  0.904582  0.250000  1
  Sr  Sr2  1  0.692859  0.307141  0.250000  1
  Lu  Lu3  1  0.904096  0.095904  0.750000  1
  Re  Re4  1  0.634447  0.799711  0.231041  1
  Re  Re5  1  0.200289  0.365553  0.268959  1
  Re  Re6  1  0.376022  0.206612  0.753765  1
  Re  Re7  1  0.793388  0.623978  0.746235  1
  N  N8  1  0.349373  0.319988  0.001369  1
  N  N9  1  0.009484  0.211292  0.378814  1
  N  N10  1  0.788708  0.990516  0.121186  1
  N  N11  1  0.204189  0.037427  0.825253  1
  N  N12  1  0.636848  0.650918  0.018483  1
  N  N13  1  0.880596  0.397036  0.804837  1
  N  N14  1  0.111561  0.582934  0.197165  1
  N  N15  1  0.962573  0.795811  0.674747  1
  N  N16  1  0.417066  0.888439  0.302835  1
  N  N17  1  0.680012  0.650627  0.498631  1
  N  N18  1  0.602964  0.119404  0.695163  1
  N  N19  1  0.349082  0.363152  0.481517  1
