# generated using pymatgen
data_Gd3CrOsC6
_symmetry_space_group_name_H-M   'P 1'
_cell_length_a   8.31066400
_cell_length_b   8.31066337
_cell_length_c   5.06338400
_cell_angle_alpha   90.00000000
_cell_angle_beta   90.00000000
_cell_angle_gamma   119.99999453
_symmetry_Int_Tables_number   1
_chemical_formula_structural   Gd3CrOsC6
_chemical_formula_sum   'Gd6 Cr2 Os2 C12'
_cell_volume   302.86070997
_cell_formula_units_Z   2
loop_
 _symmetry_equiv_pos_site_id
 _symmetry_equiv_pos_as_xyz
  1  'x, y, z'
loop_
 _atom_site_type_symbol
 _atom_site_label
 _atom_site_symmetry_multiplicity
 _atom_site_fract_x
 _atom_site_fract_y
 _atom_site_fract_z
 _atom_site_occupancy
  Gd  Gd0  1  0.624251  0.690802  0.750000  1
  Gd  Gd1  1  0.933450  0.624251  0.250000  1
  Gd  Gd2  1  0.690802  0.066550  0.250000  1
  Gd  Gd3  1  0.309198  0.933450  0.750000  1
  Gd  Gd4  1  0.066550  0.375749  0.750000  1
  Gd  Gd5  1  0.375749  0.309198  0.250000  1
  Cr  Cr6  1  0.000000  0.000000  0.500000  1
  Cr  Cr7  1  0.000000  0.000000  0.000000  1
  Os  Os8  1  0.666667  0.333333  0.750000  1
  Os  Os9  1  0.333333  0.666667  0.250000  1
  C  C10  1  0.960740  0.776399  0.750000  1
  C  C11  1  0.184341  0.960740  0.250000  1
  C  C12  1  0.776399  0.815659  0.250000  1
  C  C13  1  0.223601  0.184341  0.750000  1
  C  C14  1  0.815659  0.039260  0.750000  1
  C  C15  1  0.039260  0.223601  0.250000  1
  C  C16  1  0.870547  0.587718  0.750000  1
  C  C17  1  0.282828  0.870547  0.250000  1
  C  C18  1  0.587718  0.717172  0.250000  1
  C  C19  1  0.412282  0.282828  0.750000  1
  C  C20  1  0.129453  0.412282  0.250000  1
  C  C21  1  0.717172  0.129453  0.750000  1
