# generated using pymatgen
data_KRbGa2(SnSe4)2
_symmetry_space_group_name_H-M   'P 1'
_cell_length_a   13.24795500
_cell_length_b   7.61938899
_cell_length_c   18.73081070
_cell_angle_alpha   82.27039374
_cell_angle_beta   90.00000000
_cell_angle_gamma   90.00000000
_symmetry_Int_Tables_number   1
_chemical_formula_structural   KRbGa2(SnSe4)2
_chemical_formula_sum   'K4 Rb4 Ga8 Sn8 Se32'
_cell_volume   1873.53347000
_cell_formula_units_Z   4
loop_
 _symmetry_equiv_pos_site_id
 _symmetry_equiv_pos_as_xyz
  1  'x, y, z'
loop_
 _atom_site_type_symbol
 _atom_site_label
 _atom_site_symmetry_multiplicity
 _atom_site_fract_x
 _atom_site_fract_y
 _atom_site_fract_z
 _atom_site_occupancy
  K  K0  1  0.442331  0.770414  0.322516  1
  K  K1  1  0.557669  0.229586  0.677484  1
  K  K2  1  0.942331  0.229586  0.177484  1
  K  K3  1  0.057669  0.770414  0.822516  1
  Rb  Rb4  1  0.602642  0.248468  0.047348  1
  Rb  Rb5  1  0.397358  0.751532  0.952652  1
  Rb  Rb6  1  0.102642  0.751532  0.452652  1
  Rb  Rb7  1  0.897358  0.248468  0.547348  1
  Ga  Ga8  1  0.754416  0.987391  0.341918  1
  Ga  Ga9  1  0.245584  0.012609  0.658082  1
  Ga  Ga10  1  0.254416  0.012609  0.158082  1
  Ga  Ga11  1  0.745584  0.987391  0.841918  1
  Ga  Ga12  1  0.751734  0.471208  0.358361  1
  Ga  Ga13  1  0.248266  0.528792  0.641639  1
  Ga  Ga14  1  0.251734  0.528792  0.141639  1
  Ga  Ga15  1  0.748266  0.471208  0.858361  1
  Sn  Sn16  1  0.705750  0.744877  0.182705  1
  Sn  Sn17  1  0.294250  0.255123  0.817295  1
  Sn  Sn18  1  0.205750  0.255123  0.317295  1
  Sn  Sn19  1  0.794250  0.744877  0.682705  1
  Sn  Sn20  1  0.816088  0.714568  0.013591  1
  Sn  Sn21  1  0.183912  0.285432  0.986409  1
  Sn  Sn22  1  0.316088  0.285432  0.486409  1
  Sn  Sn23  1  0.683912  0.714568  0.513591  1
  Se  Se24  1  0.171516  0.951840  0.278557  1
  Se  Se25  1  0.828484  0.048160  0.721443  1
  Se  Se26  1  0.671516  0.048160  0.221443  1
  Se  Se27  1  0.328484  0.951840  0.778557  1
  Se  Se28  1  0.861249  0.728129  0.347993  1
  Se  Se29  1  0.138751  0.271871  0.652007  1
  Se  Se30  1  0.361249  0.271871  0.152007  1
  Se  Se31  1  0.638751  0.728129  0.847993  1
  Se  Se32  1  0.629038  0.753962  0.052936  1
  Se  Se33  1  0.370962  0.246038  0.947064  1
  Se  Se34  1  0.129038  0.246038  0.447064  1
  Se  Se35  1  0.870962  0.753962  0.552936  1
  Se  Se36  1  0.622265  0.489971  0.263447  1
  Se  Se37  1  0.377735  0.510029  0.736553  1
  Se  Se38  1  0.122265  0.510029  0.236553  1
  Se  Se39  1  0.877735  0.489971  0.763447  1
  Se  Se40  1  0.612468  0.972330  0.427200  1
  Se  Se41  1  0.387532  0.027670  0.572800  1
  Se  Se42  1  0.112468  0.027670  0.072800  1
  Se  Se43  1  0.887532  0.972330  0.927200  1
  Se  Se44  1  0.891341  0.706639  0.142597  1
  Se  Se45  1  0.108659  0.293361  0.857403  1
  Se  Se46  1  0.391341  0.293361  0.357403  1
  Se  Se47  1  0.608659  0.706639  0.642597  1
  Se  Se48  1  0.369837  0.771884  0.146024  1
  Se  Se49  1  0.630163  0.228116  0.853976  1
  Se  Se50  1  0.869837  0.228116  0.353976  1
  Se  Se51  1  0.130163  0.771884  0.646024  1
  Se  Se52  1  0.657009  0.410342  0.473936  1
  Se  Se53  1  0.342991  0.589658  0.526064  1
  Se  Se54  1  0.157009  0.589658  0.026064  1
  Se  Se55  1  0.842991  0.410342  0.973936  1
