# generated using pymatgen
data_Sr6ErFe(BO3)6
_symmetry_space_group_name_H-M   'P 1'
_cell_length_a   7.76460829
_cell_length_b   7.76460905
_cell_length_c   7.76460944
_cell_angle_alpha   105.24079680
_cell_angle_beta   105.24079554
_cell_angle_gamma   105.24081166
_symmetry_Int_Tables_number   1
_chemical_formula_structural   Sr6ErFe(BO3)6
_chemical_formula_sum   'Sr6 Er1 Fe1 B6 O18'
_cell_volume   407.11963010
_cell_formula_units_Z   1
loop_
 _symmetry_equiv_pos_site_id
 _symmetry_equiv_pos_as_xyz
  1  'x, y, z'
loop_
 _atom_site_type_symbol
 _atom_site_label
 _atom_site_symmetry_multiplicity
 _atom_site_fract_x
 _atom_site_fract_y
 _atom_site_fract_z
 _atom_site_occupancy
  Sr  Sr0  1  0.649375  0.266049  0.162907  1
  Sr  Sr1  1  0.162907  0.649375  0.266048  1
  Sr  Sr2  1  0.733951  0.837093  0.350625  1
  Sr  Sr3  1  0.266049  0.162907  0.649375  1
  Sr  Sr4  1  0.837093  0.350625  0.733951  1
  Sr  Sr5  1  0.350625  0.733951  0.837093  1
  Er  Er6  1  0.000000  0.000000  0.000000  1
  Fe  Fe7  1  0.500000  0.500000  0.500000  1
  B  B8  1  0.295385  0.377445  0.046515  1
  B  B9  1  0.377445  0.046516  0.295385  1
  B  B10  1  0.046516  0.295385  0.377445  1
  B  B11  1  0.953484  0.704615  0.622555  1
  B  B12  1  0.622555  0.953484  0.704615  1
  B  B13  1  0.704615  0.622555  0.953484  1
  O  O14  1  0.728407  0.815993  0.015554  1
  O  O15  1  0.804464  0.547788  0.068969  1
  O  O16  1  0.984446  0.271593  0.184007  1
  O  O17  1  0.452211  0.931030  0.195536  1
  O  O18  1  0.431924  0.498089  0.226194  1
  O  O19  1  0.184007  0.984446  0.271593  1
  O  O20  1  0.498089  0.226194  0.431923  1
  O  O21  1  0.931030  0.195537  0.452211  1
  O  O22  1  0.226194  0.431924  0.498089  1
  O  O23  1  0.773806  0.568076  0.501911  1
  O  O24  1  0.068970  0.804463  0.547789  1
  O  O25  1  0.501911  0.773806  0.568077  1
  O  O26  1  0.815993  0.015554  0.728407  1
  O  O27  1  0.568076  0.501911  0.773806  1
  O  O28  1  0.547789  0.068970  0.804464  1
  O  O29  1  0.015554  0.728407  0.815993  1
  O  O30  1  0.195536  0.452212  0.931031  1
  O  O31  1  0.271593  0.184007  0.984446  1
