# generated using pymatgen
data_Np4Al18Pd5W
_symmetry_space_group_name_H-M   'P 1'
_cell_length_a   7.63898485
_cell_length_b   7.63898620
_cell_length_c   9.49403396
_cell_angle_alpha   89.33484713
_cell_angle_beta   89.33484462
_cell_angle_gamma   118.24301699
_symmetry_Int_Tables_number   1
_chemical_formula_structural   Np4Al18Pd5W
_chemical_formula_sum   'Np4 Al18 Pd5 W1'
_cell_volume   487.93447408
_cell_formula_units_Z   1
loop_
 _symmetry_equiv_pos_site_id
 _symmetry_equiv_pos_as_xyz
  1  'x, y, z'
loop_
 _atom_site_type_symbol
 _atom_site_label
 _atom_site_symmetry_multiplicity
 _atom_site_fract_x
 _atom_site_fract_y
 _atom_site_fract_z
 _atom_site_occupancy
  Np  Np0  1  0.995001  0.684997  0.241691  1
  Np  Np1  1  0.004999  0.315003  0.758309  1
  Np  Np2  1  0.684997  0.995001  0.241691  1
  Np  Np3  1  0.315003  0.004999  0.758309  1
  Al  Al4  1  0.140213  0.140213  0.252014  1
  Al  Al5  1  0.859787  0.859787  0.747986  1
  Al  Al6  1  0.007038  0.342403  0.081758  1
  Al  Al7  1  0.992962  0.657597  0.918242  1
  Al  Al8  1  0.000425  0.658618  0.577151  1
  Al  Al9  1  0.341382  0.999575  0.422849  1
  Al  Al10  1  0.999575  0.341382  0.422849  1
  Al  Al11  1  0.658618  0.000425  0.577151  1
  Al  Al12  1  0.657597  0.992962  0.918242  1
  Al  Al13  1  0.342403  0.007038  0.081758  1
  Al  Al14  1  0.331298  0.331298  0.553675  1
  Al  Al15  1  0.668702  0.668702  0.446325  1
  Al  Al16  1  0.664059  0.664059  0.050272  1
  Al  Al17  1  0.335941  0.335941  0.949728  1
  Al  Al18  1  0.345093  0.556202  0.252000  1
  Al  Al19  1  0.654907  0.443798  0.748000  1
  Al  Al20  1  0.556202  0.345093  0.252000  1
  Al  Al21  1  0.443798  0.654907  0.748000  1
  Pd  Pd22  1  0.672393  0.327607  0.000000  1
  Pd  Pd23  1  0.327607  0.672393  0.000000  1
  Pd  Pd24  1  0.329471  0.670529  0.500000  1
  Pd  Pd25  1  0.670529  0.329471  0.500000  1
  Pd  Pd26  1  0.000000  0.000000  0.500000  1
  W  W27  1  0.000000  0.000000  0.000000  1
