# generated using pymatgen
data_TbEr2(Al3Os)4
_symmetry_space_group_name_H-M   'P 1'
_cell_length_a   8.81654800
_cell_length_b   8.81242038
_cell_length_c   9.59894400
_cell_angle_alpha   90.00000000
_cell_angle_beta   90.00000000
_cell_angle_gamma   120.01549533
_symmetry_Int_Tables_number   1
_chemical_formula_structural   TbEr2(Al3Os)4
_chemical_formula_sum   'Tb2 Er4 Al24 Os8'
_cell_volume   645.77323268
_cell_formula_units_Z   2
loop_
 _symmetry_equiv_pos_site_id
 _symmetry_equiv_pos_as_xyz
  1  'x, y, z'
loop_
 _atom_site_type_symbol
 _atom_site_label
 _atom_site_symmetry_multiplicity
 _atom_site_fract_x
 _atom_site_fract_y
 _atom_site_fract_z
 _atom_site_occupancy
  Tb  Tb0  1  0.192845  0.385690  0.250000  1
  Tb  Tb1  1  0.807155  0.614310  0.750000  1
  Er  Er2  1  0.611654  0.805956  0.250000  1
  Er  Er3  1  0.388346  0.194044  0.750000  1
  Er  Er4  1  0.194301  0.805956  0.250000  1
  Er  Er5  1  0.805699  0.194044  0.750000  1
  Al  Al6  1  0.333525  0.667051  0.018755  1
  Al  Al7  1  0.666475  0.332949  0.981245  1
  Al  Al8  1  0.666475  0.332949  0.518755  1
  Al  Al9  1  0.333525  0.667051  0.481245  1
  Al  Al10  1  0.163856  0.327713  0.575296  1
  Al  Al11  1  0.836144  0.672287  0.424704  1
  Al  Al12  1  0.671878  0.835763  0.573768  1
  Al  Al13  1  0.836144  0.672287  0.075296  1
  Al  Al14  1  0.328122  0.164237  0.426232  1
  Al  Al15  1  0.163856  0.327713  0.924704  1
  Al  Al16  1  0.163885  0.835763  0.573768  1
  Al  Al17  1  0.328122  0.164237  0.073768  1
  Al  Al18  1  0.836115  0.164237  0.426232  1
  Al  Al19  1  0.671878  0.835763  0.926232  1
  Al  Al20  1  0.836115  0.164237  0.073768  1
  Al  Al21  1  0.163885  0.835763  0.926232  1
  Al  Al22  1  0.561427  0.122853  0.250000  1
  Al  Al23  1  0.438573  0.877147  0.750000  1
  Al  Al24  1  0.876767  0.438868  0.250000  1
  Al  Al25  1  0.123233  0.561132  0.750000  1
  Al  Al26  1  0.562101  0.438868  0.250000  1
  Al  Al27  1  0.437899  0.561132  0.750000  1
  Al  Al28  1  0.999185  0.998369  0.250000  1
  Al  Al29  1  0.000815  0.001631  0.750000  1
  Os  Os30  1  0.500000  0.000000  0.000000  1
  Os  Os31  1  0.000000  0.500000  0.000000  1
  Os  Os32  1  0.500000  0.000000  0.500000  1
  Os  Os33  1  0.500000  0.500000  0.000000  1
  Os  Os34  1  0.000000  0.500000  0.500000  1
  Os  Os35  1  0.500000  0.500000  0.500000  1
  Os  Os36  1  0.000000  0.000000  0.000000  1
  Os  Os37  1  0.000000  0.000000  0.500000  1
