# generated using pymatgen
data_Ti3Co2Mo
_symmetry_space_group_name_H-M   'P 1'
_cell_length_a   4.28287800
_cell_length_b   4.28287700
_cell_length_c   5.26883500
_cell_angle_alpha   90.00000000
_cell_angle_beta   90.00000000
_cell_angle_gamma   120.00000769
_symmetry_Int_Tables_number   1
_chemical_formula_structural   Ti3Co2Mo
_chemical_formula_sum   'Ti3 Co2 Mo1'
_cell_volume   83.69827404
_cell_formula_units_Z   1
loop_
 _symmetry_equiv_pos_site_id
 _symmetry_equiv_pos_as_xyz
  1  'x, y, z'
loop_
 _atom_site_type_symbol
 _atom_site_label
 _atom_site_symmetry_multiplicity
 _atom_site_fract_x
 _atom_site_fract_y
 _atom_site_fract_z
 _atom_site_occupancy
  Ti  Ti0  1  0.666667  0.333333  0.171451  1
  Ti  Ti1  1  0.333333  0.666667  0.828549  1
  Ti  Ti2  1  0.000000  0.000000  0.500000  1
  Co  Co3  1  0.666667  0.333333  0.659545  1
  Co  Co4  1  0.333333  0.666667  0.340455  1
  Mo  Mo5  1  0.000000  0.000000  0.000000  1
