# generated using pymatgen
data_LaHo5U4O20
_symmetry_space_group_name_H-M   'P 1'
_cell_length_a   6.66507815
_cell_length_b   7.52809369
_cell_length_c   8.46838580
_cell_angle_alpha   100.93920792
_cell_angle_beta   97.87846390
_cell_angle_gamma   107.27225058
_symmetry_Int_Tables_number   1
_chemical_formula_structural   LaHo5U4O20
_chemical_formula_sum   'La1 Ho5 U4 O20'
_cell_volume   389.80082264
_cell_formula_units_Z   1
loop_
 _symmetry_equiv_pos_site_id
 _symmetry_equiv_pos_as_xyz
  1  'x, y, z'
loop_
 _atom_site_type_symbol
 _atom_site_label
 _atom_site_symmetry_multiplicity
 _atom_site_fract_x
 _atom_site_fract_y
 _atom_site_fract_z
 _atom_site_occupancy
  La  La0  1  0.000000  0.500000  0.500000  1
  Ho  Ho1  1  0.614426  0.706106  0.700468  1
  Ho  Ho2  1  0.385574  0.293894  0.299532  1
  Ho  Ho3  1  0.197859  0.898228  0.894709  1
  Ho  Ho4  1  0.802141  0.101772  0.105291  1
  Ho  Ho5  1  0.000000  0.000000  0.500000  1
  U  U6  1  0.404522  0.805857  0.301145  1
  U  U7  1  0.199776  0.400035  0.902037  1
  U  U8  1  0.800224  0.599965  0.097963  1
  U  U9  1  0.595478  0.194143  0.698855  1
  O  O10  1  0.439423  0.530569  0.136854  1
  O  O11  1  0.555224  0.986503  0.841715  1
  O  O12  1  0.269003  0.143630  0.745779  1
  O  O13  1  0.369534  0.594865  0.439387  1
  O  O14  1  0.055369  0.734514  0.329421  1
  O  O15  1  0.444776  0.013497  0.158285  1
  O  O16  1  0.149432  0.182822  0.032241  1
  O  O17  1  0.560577  0.469431  0.863146  1
  O  O18  1  0.853963  0.336379  0.950847  1
  O  O19  1  0.263405  0.611290  0.767324  1
  O  O20  1  0.952291  0.783122  0.658457  1
  O  O21  1  0.354655  0.063350  0.453785  1
  O  O22  1  0.645345  0.936650  0.546215  1
  O  O23  1  0.047709  0.216878  0.341543  1
  O  O24  1  0.736595  0.388710  0.232676  1
  O  O25  1  0.146037  0.663621  0.049153  1
  O  O26  1  0.850568  0.817178  0.967759  1
  O  O27  1  0.944631  0.265486  0.670579  1
  O  O28  1  0.630466  0.405135  0.560613  1
  O  O29  1  0.730997  0.856370  0.254221  1
