# generated using pymatgen
data_Sc6Ni19P13Ir
_symmetry_space_group_name_H-M   'P 1'
_cell_length_a   12.56679200
_cell_length_b   12.56679327
_cell_length_c   3.63274000
_cell_angle_alpha   90.00000000
_cell_angle_beta   90.00000000
_cell_angle_gamma   120.00000193
_symmetry_Int_Tables_number   1
_chemical_formula_structural   Sc6Ni19P13Ir
_chemical_formula_sum   'Sc6 Ni19 P13 Ir1'
_cell_volume   496.83689238
_cell_formula_units_Z   1
loop_
 _symmetry_equiv_pos_site_id
 _symmetry_equiv_pos_as_xyz
  1  'x, y, z'
loop_
 _atom_site_type_symbol
 _atom_site_label
 _atom_site_symmetry_multiplicity
 _atom_site_fract_x
 _atom_site_fract_y
 _atom_site_fract_z
 _atom_site_occupancy
  Sc  Sc0  1  0.467999  0.186227  0.000000  1
  Sc  Sc1  1  0.718227  0.532001  0.000000  1
  Sc  Sc2  1  0.813773  0.281773  0.000000  1
  Sc  Sc3  1  0.527162  0.809726  0.500000  1
  Sc  Sc4  1  0.282565  0.472838  0.500000  1
  Sc  Sc5  1  0.190274  0.717435  0.500000  1
  Ni  Ni6  1  0.333333  0.666667  0.000000  1
  Ni  Ni7  1  0.197974  0.093768  0.000000  1
  Ni  Ni8  1  0.895795  0.802026  0.000000  1
  Ni  Ni9  1  0.906232  0.104205  0.000000  1
  Ni  Ni10  1  0.846758  0.924906  0.500000  1
  Ni  Ni11  1  0.078148  0.153242  0.500000  1
  Ni  Ni12  1  0.075094  0.921852  0.500000  1
  Ni  Ni13  1  0.436261  0.420731  0.000000  1
  Ni  Ni14  1  0.984471  0.563739  0.000000  1
  Ni  Ni15  1  0.579269  0.015529  0.000000  1
  Ni  Ni16  1  0.564065  0.586858  0.500000  1
  Ni  Ni17  1  0.022793  0.435935  0.500000  1
  Ni  Ni18  1  0.413142  0.977207  0.500000  1
  Ni  Ni19  1  0.079218  0.323668  0.000000  1
  Ni  Ni20  1  0.244449  0.920782  0.000000  1
  Ni  Ni21  1  0.676332  0.755551  0.000000  1
  Ni  Ni22  1  0.931966  0.681305  0.500000  1
  Ni  Ni23  1  0.749339  0.068034  0.500000  1
  Ni  Ni24  1  0.318695  0.250661  0.500000  1
  P  P25  1  0.233415  0.288406  0.000000  1
  P  P26  1  0.054991  0.766585  0.000000  1
  P  P27  1  0.711594  0.945009  0.000000  1
  P  P28  1  0.766906  0.714425  0.500000  1
  P  P29  1  0.947520  0.233094  0.500000  1
  P  P30  1  0.285575  0.052480  0.500000  1
  P  P31  1  0.473051  0.616559  0.000000  1
  P  P32  1  0.143508  0.526949  0.000000  1
  P  P33  1  0.383441  0.856492  0.000000  1
  P  P34  1  0.520954  0.389240  0.500000  1
  P  P35  1  0.868286  0.479046  0.500000  1
  P  P36  1  0.610760  0.131714  0.500000  1
  P  P37  1  0.000000  0.000000  0.000000  1
  Ir  Ir38  1  0.666667  0.333333  0.500000  1
