# generated using pymatgen
data_Cu(IBr4)3
_symmetry_space_group_name_H-M   'P 1'
_cell_length_a   21.92750900
_cell_length_b   7.31623520
_cell_length_c   9.54710325
_cell_angle_alpha   62.83230550
_cell_angle_beta   90.00000000
_cell_angle_gamma   90.00000000
_symmetry_Int_Tables_number   1
_chemical_formula_structural   Cu(IBr4)3
_chemical_formula_sum   'Cu2 I6 Br24'
_cell_volume   1362.63473519
_cell_formula_units_Z   2
loop_
 _symmetry_equiv_pos_site_id
 _symmetry_equiv_pos_as_xyz
  1  'x, y, z'
loop_
 _atom_site_type_symbol
 _atom_site_label
 _atom_site_symmetry_multiplicity
 _atom_site_fract_x
 _atom_site_fract_y
 _atom_site_fract_z
 _atom_site_occupancy
  Cu  Cu0  1  0.460207  0.263177  0.760680  1
  Cu  Cu1  1  0.960207  0.736823  0.739320  1
  I  I2  1  0.717065  0.624212  0.213207  1
  I  I3  1  0.217065  0.375788  0.286793  1
  I  I4  1  0.285136  0.372639  0.786136  1
  I  I5  1  0.785136  0.627361  0.713864  1
  I  I6  1  0.530781  0.741067  0.241608  1
  I  I7  1  0.030781  0.258933  0.258392  1
  Br  Br8  1  0.771885  0.307893  0.216317  1
  Br  Br9  1  0.271885  0.692107  0.283683  1
  Br  Br10  1  0.233403  0.693518  0.783958  1
  Br  Br11  1  0.733403  0.306482  0.716042  1
  Br  Br12  1  0.817230  0.827527  0.203479  1
  Br  Br13  1  0.317230  0.172473  0.296521  1
  Br  Br14  1  0.185660  0.167026  0.796339  1
  Br  Br15  1  0.685660  0.832974  0.703661  1
  Br  Br16  1  0.905209  0.463486  0.731783  1
  Br  Br17  1  0.405209  0.536514  0.768217  1
  Br  Br18  1  0.104156  0.575116  0.270826  1
  Br  Br19  1  0.604156  0.424884  0.229174  1
  Br  Br20  1  0.049343  0.558575  0.762422  1
  Br  Br21  1  0.549343  0.441425  0.737578  1
  Br  Br22  1  0.934593  0.481237  0.226161  1
  Br  Br23  1  0.434593  0.518763  0.273839  1
  Br  Br24  1  0.016646  0.996117  0.749840  1
  Br  Br25  1  0.516646  0.003883  0.750160  1
  Br  Br26  1  0.973198  0.950570  0.255142  1
  Br  Br27  1  0.473198  0.049430  0.244858  1
  Br  Br28  1  0.870369  0.928872  0.713823  1
  Br  Br29  1  0.370369  0.071128  0.786177  1
  Br  Br30  1  0.145117  0.048014  0.291971  1
  Br  Br31  1  0.645117  0.951986  0.208029  1
