# generated using pymatgen
data_Sm8Sc12Si15Sb
_symmetry_space_group_name_H-M   'P 1'
_cell_length_a   7.22534281
_cell_length_b   7.47844241
_cell_length_c   14.17823600
_cell_angle_alpha   90.13168659
_cell_angle_beta   89.07990675
_cell_angle_gamma   90.20061287
_symmetry_Int_Tables_number   1
_chemical_formula_structural   Sm8Sc12Si15Sb
_chemical_formula_sum   'Sm8 Sc12 Si15 Sb1'
_cell_volume   766.00579873
_cell_formula_units_Z   1
loop_
 _symmetry_equiv_pos_site_id
 _symmetry_equiv_pos_as_xyz
  1  'x, y, z'
loop_
 _atom_site_type_symbol
 _atom_site_label
 _atom_site_symmetry_multiplicity
 _atom_site_fract_x
 _atom_site_fract_y
 _atom_site_fract_z
 _atom_site_occupancy
  Sm  Sm0  1  0.013000  0.174634  0.097482  1
  Sm  Sm1  1  0.987424  0.826438  0.903062  1
  Sm  Sm2  1  0.487760  0.674137  0.902946  1
  Sm  Sm3  1  0.989944  0.830224  0.598282  1
  Sm  Sm4  1  0.512897  0.325845  0.097837  1
  Sm  Sm5  1  0.005295  0.170249  0.399712  1
  Sm  Sm6  1  0.510488  0.323241  0.399349  1
  Sm  Sm7  1  0.504385  0.680449  0.600535  1
  Sc  Sc8  1  0.161812  0.500345  0.754218  1
  Sc  Sc9  1  0.838202  0.500091  0.251278  1
  Sc  Sc10  1  0.338679  0.999694  0.249852  1
  Sc  Sc11  1  0.662829  0.000497  0.751450  1
  Sc  Sc12  1  0.342435  0.161800  0.630688  1
  Sc  Sc13  1  0.663826  0.826061  0.372567  1
  Sc  Sc14  1  0.161276  0.680896  0.370907  1
  Sc  Sc15  1  0.669243  0.823990  0.124554  1
  Sc  Sc16  1  0.824974  0.325616  0.625312  1
  Sc  Sc17  1  0.329520  0.175093  0.874968  1
  Sc  Sc18  1  0.830519  0.323927  0.875515  1
  Sc  Sc19  1  0.169906  0.675953  0.125004  1
  Si  Si20  1  0.034122  0.123117  0.750116  1
  Si  Si21  1  0.964183  0.879579  0.247716  1
  Si  Si22  1  0.463317  0.621630  0.248041  1
  Si  Si23  1  0.535452  0.379358  0.752419  1
  Si  Si24  1  0.287008  0.873569  0.751752  1
  Si  Si25  1  0.711627  0.121760  0.247954  1
  Si  Si26  1  0.210955  0.378958  0.249408  1
  Si  Si27  1  0.791472  0.621703  0.751050  1
  Si  Si28  1  0.823011  0.541298  0.455614  1
  Si  Si29  1  0.341006  0.963208  0.460222  1
  Si  Si30  1  0.846957  0.535637  0.039951  1
  Si  Si31  1  0.659749  0.038361  0.538371  1
  Si  Si32  1  0.152538  0.464541  0.960888  1
  Si  Si33  1  0.652585  0.035557  0.960529  1
  Si  Si34  1  0.346520  0.964818  0.040123  1
  Sb  Sb35  1  0.175082  0.457728  0.540328  1
