# generated using pymatgen
data_YAl10TcIr
_symmetry_space_group_name_H-M   'P 1'
_cell_length_a   6.86574210
_cell_length_b   6.86574109
_cell_length_c   9.18068700
_cell_angle_alpha   90.40332542
_cell_angle_beta   90.40331701
_cell_angle_gamma   96.63527151
_symmetry_Int_Tables_number   1
_chemical_formula_structural   YAl10TcIr
_chemical_formula_sum   'Y2 Al20 Tc2 Ir2'
_cell_volume   429.84015898
_cell_formula_units_Z   2
loop_
 _symmetry_equiv_pos_site_id
 _symmetry_equiv_pos_as_xyz
  1  'x, y, z'
loop_
 _atom_site_type_symbol
 _atom_site_label
 _atom_site_symmetry_multiplicity
 _atom_site_fract_x
 _atom_site_fract_y
 _atom_site_fract_z
 _atom_site_occupancy
  Y  Y0  1  0.871516  0.128484  0.750000  1
  Y  Y1  1  0.128484  0.871516  0.250000  1
  Al  Al2  1  0.620901  0.375408  0.549579  1
  Al  Al3  1  0.379099  0.624592  0.450421  1
  Al  Al4  1  0.375408  0.620901  0.049579  1
  Al  Al5  1  0.624592  0.379099  0.950421  1
  Al  Al6  1  0.225981  0.223887  0.497462  1
  Al  Al7  1  0.774019  0.776113  0.502538  1
  Al  Al8  1  0.776113  0.774019  0.002538  1
  Al  Al9  1  0.223887  0.225981  0.997462  1
  Al  Al10  1  0.845758  0.159332  0.100818  1
  Al  Al11  1  0.154242  0.840668  0.899182  1
  Al  Al12  1  0.159332  0.845758  0.600818  1
  Al  Al13  1  0.840668  0.154242  0.399182  1
  Al  Al14  1  0.857788  0.587293  0.751394  1
  Al  Al15  1  0.142212  0.412707  0.248606  1
  Al  Al16  1  0.412707  0.142212  0.748606  1
  Al  Al17  1  0.587293  0.857788  0.251394  1
  Al  Al18  1  0.220877  0.480861  0.753918  1
  Al  Al19  1  0.779123  0.519139  0.246082  1
  Al  Al20  1  0.519139  0.779123  0.746082  1
  Al  Al21  1  0.480861  0.220877  0.253918  1
  Tc  Tc22  1  0.000000  0.500000  0.000000  1
  Tc  Tc23  1  0.500000  0.000000  0.500000  1
  Ir  Ir24  1  0.000000  0.500000  0.500000  1
  Ir  Ir25  1  0.500000  0.000000  0.000000  1
