# generated using pymatgen
data_Y4Ho3TmPt4
_symmetry_space_group_name_H-M   'P 1'
_cell_length_a   4.76529800
_cell_length_b   7.16487094
_cell_length_c   8.78922511
_cell_angle_alpha   89.96143776
_cell_angle_beta   90.00000000
_cell_angle_gamma   90.00000000
_symmetry_Int_Tables_number   1
_chemical_formula_structural   Y4Ho3TmPt4
_chemical_formula_sum   'Y4 Ho3 Tm1 Pt4'
_cell_volume   300.08820527
_cell_formula_units_Z   1
loop_
 _symmetry_equiv_pos_site_id
 _symmetry_equiv_pos_as_xyz
  1  'x, y, z'
loop_
 _atom_site_type_symbol
 _atom_site_label
 _atom_site_symmetry_multiplicity
 _atom_site_fract_x
 _atom_site_fract_y
 _atom_site_fract_z
 _atom_site_occupancy
  Y  Y0  1  0.250000  0.989332  0.331069  1
  Y  Y1  1  0.250000  0.490044  0.169422  1
  Y  Y2  1  0.750000  0.009778  0.669132  1
  Y  Y3  1  0.750000  0.510533  0.830600  1
  Ho  Ho4  1  0.250000  0.855679  0.920359  1
  Ho  Ho5  1  0.250000  0.356070  0.579240  1
  Ho  Ho6  1  0.750000  0.144362  0.079743  1
  Tm  Tm7  1  0.750000  0.644197  0.420530  1
  Pt  Pt8  1  0.250000  0.256110  0.906320  1
  Pt  Pt9  1  0.250000  0.755342  0.592856  1
  Pt  Pt10  1  0.750000  0.743699  0.094551  1
  Pt  Pt11  1  0.750000  0.244857  0.406178  1
