# generated using pymatgen
data_La10Si4GePb
_symmetry_space_group_name_H-M   'P 1'
_cell_length_a   7.93491183
_cell_length_b   7.93491137
_cell_length_c   9.29506700
_cell_angle_alpha   115.26685319
_cell_angle_beta   115.26685163
_cell_angle_gamma   89.99999514
_symmetry_Int_Tables_number   1
_chemical_formula_structural   La10Si4GePb
_chemical_formula_sum   'La10 Si4 Ge1 Pb1'
_cell_volume   466.59161558
_cell_formula_units_Z   1
loop_
 _symmetry_equiv_pos_site_id
 _symmetry_equiv_pos_as_xyz
  1  'x, y, z'
loop_
 _atom_site_type_symbol
 _atom_site_label
 _atom_site_symmetry_multiplicity
 _atom_site_fract_x
 _atom_site_fract_y
 _atom_site_fract_z
 _atom_site_occupancy
  La  La0  1  0.520319  0.520319  0.040638  1
  La  La1  1  0.979681  0.979681  0.959362  1
  La  La2  1  0.972300  0.825616  0.279617  1
  La  La3  1  0.307316  0.454000  0.279617  1
  La  La4  1  0.825616  0.307316  0.279617  1
  La  La5  1  0.454000  0.972300  0.279617  1
  La  La6  1  0.046000  0.192684  0.720383  1
  La  La7  1  0.674384  0.527700  0.720383  1
  La  La8  1  0.192684  0.674384  0.720383  1
  La  La9  1  0.527700  0.046000  0.720383  1
  Si  Si10  1  0.614215  0.885785  0.000000  1
  Si  Si11  1  0.385785  0.114215  0.000000  1
  Si  Si12  1  0.885785  0.385785  0.000000  1
  Si  Si13  1  0.114215  0.614215  0.000000  1
  Ge  Ge14  1  0.250000  0.250000  0.500000  1
  Pb  Pb15  1  0.750000  0.750000  0.500000  1
