# generated using pymatgen
data_Zr10GaGe(Bi2Pb)2
_symmetry_space_group_name_H-M   'P 1'
_cell_length_a   8.86932393
_cell_length_b   8.86932417
_cell_length_c   5.96999403
_cell_angle_alpha   89.97806849
_cell_angle_beta   89.97806642
_cell_angle_gamma   119.96512465
_symmetry_Int_Tables_number   1
_chemical_formula_structural   Zr10GaGe(Bi2Pb)2
_chemical_formula_sum   'Zr10 Ga1 Ge1 Bi4 Pb2'
_cell_volume   406.85341173
_cell_formula_units_Z   1
loop_
 _symmetry_equiv_pos_site_id
 _symmetry_equiv_pos_as_xyz
  1  'x, y, z'
loop_
 _atom_site_type_symbol
 _atom_site_label
 _atom_site_symmetry_multiplicity
 _atom_site_fract_x
 _atom_site_fract_y
 _atom_site_fract_z
 _atom_site_occupancy
  Zr  Zr0  1  0.667156  0.332788  0.003263  1
  Zr  Zr1  1  0.332788  0.667156  0.003263  1
  Zr  Zr2  1  0.333532  0.666942  0.496915  1
  Zr  Zr3  1  0.666942  0.333532  0.496915  1
  Zr  Zr4  1  0.740272  0.740272  0.753668  1
  Zr  Zr5  1  0.259798  0.000542  0.754558  1
  Zr  Zr6  1  0.000542  0.259798  0.754558  1
  Zr  Zr7  1  0.265515  0.265515  0.245531  1
  Zr  Zr8  1  0.735100  0.999858  0.245701  1
  Zr  Zr9  1  0.999858  0.735100  0.245701  1
  Ga  Ga10  1  0.000424  0.000424  0.497819  1
  Ge  Ge11  1  0.000105  0.000105  0.002588  1
  Bi  Bi12  1  0.392507  0.392507  0.748155  1
  Bi  Bi13  1  0.606288  0.000619  0.747638  1
  Bi  Bi14  1  0.000619  0.606288  0.747638  1
  Bi  Bi15  1  0.611344  0.611344  0.251442  1
  Pb  Pb16  1  0.386997  0.000210  0.252323  1
  Pb  Pb17  1  0.000210  0.386997  0.252323  1
