# generated using pymatgen
data_ErPu3(AlB4)4
_symmetry_space_group_name_H-M   'P 1'
_cell_length_a   3.57108600
_cell_length_b   5.93003407
_cell_length_c   11.50079814
_cell_angle_alpha   89.98224292
_cell_angle_beta   90.00000000
_cell_angle_gamma   90.00000000
_symmetry_Int_Tables_number   1
_chemical_formula_structural   ErPu3(AlB4)4
_chemical_formula_sum   'Er1 Pu3 Al4 B16'
_cell_volume   243.54849919
_cell_formula_units_Z   1
loop_
 _symmetry_equiv_pos_site_id
 _symmetry_equiv_pos_as_xyz
  1  'x, y, z'
loop_
 _atom_site_type_symbol
 _atom_site_label
 _atom_site_symmetry_multiplicity
 _atom_site_fract_x
 _atom_site_fract_y
 _atom_site_fract_z
 _atom_site_occupancy
  Er  Er0  1  0.500000  0.872150  0.349754  1
  Pu  Pu1  1  0.500000  0.369782  0.150103  1
  Pu  Pu2  1  0.500000  0.629754  0.849998  1
  Pu  Pu3  1  0.500000  0.129751  0.649359  1
  Al  Al4  1  0.500000  0.362273  0.409760  1
  Al  Al5  1  0.500000  0.637787  0.591514  1
  Al  Al6  1  0.500000  0.138491  0.909228  1
  Al  Al7  1  0.500000  0.860866  0.089851  1
  B  B8  1  0.000000  0.113323  0.047097  1
  B  B9  1  0.000000  0.885722  0.953016  1
  B  B10  1  0.000000  0.386530  0.546192  1
  B  B11  1  0.000000  0.615413  0.452938  1
  B  B12  1  0.000000  0.132852  0.468756  1
  B  B13  1  0.000000  0.866915  0.531101  1
  B  B14  1  0.000000  0.366768  0.969047  1
  B  B15  1  0.000000  0.632792  0.032098  1
  B  B16  1  0.000000  0.027153  0.193097  1
  B  B17  1  0.000000  0.972719  0.807098  1
  B  B18  1  0.000000  0.471818  0.693056  1
  B  B19  1  0.000000  0.526347  0.307319  1
  B  B20  1  0.000000  0.211180  0.312024  1
  B  B21  1  0.000000  0.790097  0.687666  1
  B  B22  1  0.000000  0.289528  0.812098  1
  B  B23  1  0.000000  0.709988  0.187832  1
