# generated using pymatgen
data_Na8SrCa3(SiAs4)2
_symmetry_space_group_name_H-M   'P 1'
_cell_length_a   9.51508098
_cell_length_b   9.48914700
_cell_length_c   7.24208163
_cell_angle_alpha   89.08430836
_cell_angle_beta   89.42541011
_cell_angle_gamma   119.53114672
_symmetry_Int_Tables_number   1
_chemical_formula_structural   Na8SrCa3(SiAs4)2
_chemical_formula_sum   'Na8 Sr1 Ca3 Si2 As8'
_cell_volume   568.74649034
_cell_formula_units_Z   1
loop_
 _symmetry_equiv_pos_site_id
 _symmetry_equiv_pos_as_xyz
  1  'x, y, z'
loop_
 _atom_site_type_symbol
 _atom_site_label
 _atom_site_symmetry_multiplicity
 _atom_site_fract_x
 _atom_site_fract_y
 _atom_site_fract_z
 _atom_site_occupancy
  Na  Na0  1  0.475837  0.946678  0.385492  1
  Na  Na1  1  0.945269  0.474608  0.885358  1
  Na  Na2  1  0.859075  0.714611  0.179625  1
  Na  Na3  1  0.293403  0.139464  0.212386  1
  Na  Na4  1  0.847582  0.140770  0.197359  1
  Na  Na5  1  0.139424  0.291715  0.713475  1
  Na  Na6  1  0.712613  0.859299  0.681502  1
  Na  Na7  1  0.142827  0.849815  0.699053  1
  Sr  Sr8  1  0.048030  0.526009  0.384001  1
  Ca  Ca9  1  0.481782  0.527994  0.382021  1
  Ca  Ca10  1  0.525694  0.049005  0.884456  1
  Ca  Ca11  1  0.527135  0.480244  0.881978  1
  Si  Si12  1  0.660934  0.328861  0.499808  1
  Si  Si13  1  0.331471  0.663598  0.999325  1
  As  As14  1  0.204840  0.387146  0.114531  1
  As  As15  1  0.610360  0.802533  0.092326  1
  As  As16  1  0.203364  0.813650  0.095396  1
  As  As17  1  0.797961  0.610576  0.593328  1
  As  As18  1  0.389295  0.200499  0.620717  1
  As  As19  1  0.802915  0.194607  0.606644  1
  As  As20  1  0.661327  0.335836  0.164368  1
  As  As21  1  0.338712  0.662328  0.666807  1
