# generated using pymatgen
data_Er6Sc4AlSb5
_symmetry_space_group_name_H-M   'P 1'
_cell_length_a   8.69376100
_cell_length_b   8.69852579
_cell_length_c   6.11000200
_cell_angle_alpha   90.00000000
_cell_angle_beta   90.00000000
_cell_angle_gamma   119.98188536
_symmetry_Int_Tables_number   1
_chemical_formula_structural   Er6Sc4AlSb5
_chemical_formula_sum   'Er6 Sc4 Al1 Sb5'
_cell_volume   400.22533944
_cell_formula_units_Z   1
loop_
 _symmetry_equiv_pos_site_id
 _symmetry_equiv_pos_as_xyz
  1  'x, y, z'
loop_
 _atom_site_type_symbol
 _atom_site_label
 _atom_site_symmetry_multiplicity
 _atom_site_fract_x
 _atom_site_fract_y
 _atom_site_fract_z
 _atom_site_occupancy
  Er  Er0  1  0.008874  0.762968  0.750000  1
  Er  Er1  1  0.998511  0.242903  0.250000  1
  Er  Er2  1  0.755608  0.757097  0.250000  1
  Er  Er3  1  0.752752  0.000000  0.750000  1
  Er  Er4  1  0.245907  0.237032  0.750000  1
  Er  Er5  1  0.241681  0.000000  0.250000  1
  Sc  Sc6  1  0.334331  0.670785  0.502156  1
  Sc  Sc7  1  0.663547  0.329215  0.997844  1
  Sc  Sc8  1  0.663547  0.329215  0.502156  1
  Sc  Sc9  1  0.334331  0.670785  0.997844  1
  Al  Al10  1  0.400588  0.000000  0.750000  1
  Sb  Sb11  1  0.394979  0.396818  0.250000  1
  Sb  Sb12  1  0.998161  0.603182  0.250000  1
  Sb  Sb13  1  0.001349  0.395207  0.750000  1
  Sb  Sb14  1  0.606142  0.604793  0.750000  1
  Sb  Sb15  1  0.599693  0.000000  0.250000  1
