# generated using pymatgen
data_Tm4ThCoSb2
_symmetry_space_group_name_H-M   'P 1'
_cell_length_a   7.93646400
_cell_length_b   8.63423000
_cell_length_c   12.13452500
_cell_angle_alpha   90.00000000
_cell_angle_beta   90.00000000
_cell_angle_gamma   90.00000000
_symmetry_Int_Tables_number   1
_chemical_formula_structural   Tm4ThCoSb2
_chemical_formula_sum   'Tm16 Th4 Co4 Sb8'
_cell_volume   831.52142676
_cell_formula_units_Z   4
loop_
 _symmetry_equiv_pos_site_id
 _symmetry_equiv_pos_as_xyz
  1  'x, y, z'
loop_
 _atom_site_type_symbol
 _atom_site_label
 _atom_site_symmetry_multiplicity
 _atom_site_fract_x
 _atom_site_fract_y
 _atom_site_fract_z
 _atom_site_occupancy
  Tm  Tm0  1  0.157193  0.748859  0.204014  1
  Tm  Tm1  1  0.657193  0.251141  0.295986  1
  Tm  Tm2  1  0.842807  0.248859  0.795986  1
  Tm  Tm3  1  0.342807  0.751141  0.704014  1
  Tm  Tm4  1  0.454125  0.751849  0.999466  1
  Tm  Tm5  1  0.954125  0.248151  0.500534  1
  Tm  Tm6  1  0.545875  0.251849  0.000534  1
  Tm  Tm7  1  0.045875  0.748151  0.499466  1
  Tm  Tm8  1  0.622835  0.752842  0.303533  1
  Tm  Tm9  1  0.122835  0.247158  0.196467  1
  Tm  Tm10  1  0.377165  0.252842  0.696467  1
  Tm  Tm11  1  0.877165  0.747158  0.803533  1
  Tm  Tm12  1  0.182848  0.043913  0.932025  1
  Tm  Tm13  1  0.682848  0.956087  0.567975  1
  Tm  Tm14  1  0.817152  0.543913  0.067975  1
  Tm  Tm15  1  0.317152  0.456087  0.432025  1
  Th  Th16  1  0.825711  0.963352  0.061851  1
  Th  Th17  1  0.325711  0.036648  0.438149  1
  Th  Th18  1  0.174289  0.463352  0.938149  1
  Th  Th19  1  0.674289  0.536648  0.561851  1
  Co  Co20  1  0.432224  0.756609  0.489378  1
  Co  Co21  1  0.932224  0.243391  0.010622  1
  Co  Co22  1  0.567776  0.256609  0.510622  1
  Co  Co23  1  0.067776  0.743391  0.989378  1
  Sb  Sb24  1  0.927121  0.989512  0.327970  1
  Sb  Sb25  1  0.427121  0.010488  0.172030  1
  Sb  Sb26  1  0.072879  0.489512  0.672030  1
  Sb  Sb27  1  0.572879  0.510488  0.827970  1
  Sb  Sb28  1  0.071258  0.008987  0.674135  1
  Sb  Sb29  1  0.571258  0.991013  0.825865  1
  Sb  Sb30  1  0.928742  0.508987  0.325865  1
  Sb  Sb31  1  0.428742  0.491013  0.174135  1
