# generated using pymatgen
data_TbPr3ScPt3O14
_symmetry_space_group_name_H-M   'P 1'
_cell_length_a   7.42501596
_cell_length_b   7.42501551
_cell_length_c   7.48870986
_cell_angle_alpha   60.28095535
_cell_angle_beta   60.28096385
_cell_angle_gamma   60.00000326
_symmetry_Int_Tables_number   1
_chemical_formula_structural   TbPr3ScPt3O14
_chemical_formula_sum   'Tb1 Pr3 Sc1 Pt3 O14'
_cell_volume   293.16903638
_cell_formula_units_Z   1
loop_
 _symmetry_equiv_pos_site_id
 _symmetry_equiv_pos_as_xyz
  1  'x, y, z'
loop_
 _atom_site_type_symbol
 _atom_site_label
 _atom_site_symmetry_multiplicity
 _atom_site_fract_x
 _atom_site_fract_y
 _atom_site_fract_z
 _atom_site_occupancy
  Tb  Tb0  1  0.625000  0.625000  0.125000  1
  Pr  Pr1  1  0.625000  0.625000  0.625000  1
  Pr  Pr2  1  0.625000  0.125000  0.625000  1
  Pr  Pr3  1  0.125000  0.625000  0.625000  1
  Sc  Sc4  1  0.125000  0.125000  0.625000  1
  Pt  Pt5  1  0.125000  0.125000  0.125000  1
  Pt  Pt6  1  0.625000  0.125000  0.125000  1
  Pt  Pt7  1  0.125000  0.625000  0.125000  1
  O  O8  1  0.037760  0.470581  0.453900  1
  O  O9  1  0.793000  0.793000  0.194728  1
  O  O10  1  0.793000  0.219272  0.194728  1
  O  O11  1  0.470581  0.037760  0.453900  1
  O  O12  1  0.030728  0.457000  0.055272  1
  O  O13  1  0.744013  0.744013  0.767960  1
  O  O14  1  0.037760  0.037760  0.453900  1
  O  O15  1  0.219272  0.793000  0.194728  1
  O  O16  1  0.212240  0.212240  0.796100  1
  O  O17  1  0.505987  0.505987  0.482040  1
  O  O18  1  0.779419  0.212240  0.796100  1
  O  O19  1  0.457000  0.030728  0.055272  1
  O  O20  1  0.457000  0.457000  0.055272  1
  O  O21  1  0.212240  0.779419  0.796100  1
