# generated using pymatgen
data_TmSiTe3
_symmetry_space_group_name_H-M   'P 1'
_cell_length_a   7.25771400
_cell_length_b   7.25771426
_cell_length_c   7.93021800
_cell_angle_alpha   90.00000000
_cell_angle_beta   90.00000000
_cell_angle_gamma   119.99999881
_symmetry_Int_Tables_number   1
_chemical_formula_structural   TmSiTe3
_chemical_formula_sum   'Tm2 Si2 Te6'
_cell_volume   361.75578033
_cell_formula_units_Z   2
loop_
 _symmetry_equiv_pos_site_id
 _symmetry_equiv_pos_as_xyz
  1  'x, y, z'
loop_
 _atom_site_type_symbol
 _atom_site_label
 _atom_site_symmetry_multiplicity
 _atom_site_fract_x
 _atom_site_fract_y
 _atom_site_fract_z
 _atom_site_occupancy
  Tm  Tm0  1  0.666667  0.333333  0.500000  1
  Tm  Tm1  1  0.333333  0.666667  0.500000  1
  Si  Si2  1  0.000000  0.000000  0.354452  1
  Si  Si3  1  0.000000  0.000000  0.645548  1
  Te  Te4  1  0.000000  0.665951  0.257996  1
  Te  Te5  1  0.334049  0.334049  0.257996  1
  Te  Te6  1  0.000000  0.334049  0.742004  1
  Te  Te7  1  0.334049  0.000000  0.742004  1
  Te  Te8  1  0.665951  0.000000  0.257996  1
  Te  Te9  1  0.665951  0.665951  0.742004  1
