# generated using pymatgen
data_Y7ErTi8Nb3Si16Pt
_symmetry_space_group_name_H-M   'P 1'
_cell_length_a   7.05517515
_cell_length_b   7.05809665
_cell_length_c   12.88024900
_cell_angle_alpha   90.24660952
_cell_angle_beta   89.80430548
_cell_angle_gamma   89.69695513
_symmetry_Int_Tables_number   1
_chemical_formula_structural   Y7ErTi8Nb3Si16Pt
_chemical_formula_sum   'Y7 Er1 Ti8 Nb3 Si16 Pt1'
_cell_volume   641.36756844
_cell_formula_units_Z   1
loop_
 _symmetry_equiv_pos_site_id
 _symmetry_equiv_pos_as_xyz
  1  'x, y, z'
loop_
 _atom_site_type_symbol
 _atom_site_label
 _atom_site_symmetry_multiplicity
 _atom_site_fract_x
 _atom_site_fract_y
 _atom_site_fract_z
 _atom_site_occupancy
  Y  Y0  1  0.340758  0.001757  0.467316  1
  Y  Y1  1  0.497073  0.842338  0.718512  1
  Y  Y2  1  0.501922  0.156949  0.214351  1
  Y  Y3  1  0.842346  0.496974  0.281648  1
  Y  Y4  1  0.156712  0.502353  0.784881  1
  Y  Y5  1  0.656716  0.999223  0.968922  1
  Y  Y6  1  0.001849  0.340761  0.532614  1
  Er  Er7  1  0.999214  0.656751  0.031294  1
  Ti  Ti8  1  0.147792  0.005506  0.877382  1
  Ti  Ti9  1  0.493963  0.654806  0.124623  1
  Ti  Ti10  1  0.508040  0.349968  0.627572  1
  Ti  Ti11  1  0.656309  0.493820  0.875794  1
  Ti  Ti12  1  0.350059  0.508147  0.372213  1
  Ti  Ti13  1  0.849283  0.990329  0.374337  1
  Ti  Ti14  1  0.006178  0.146750  0.123021  1
  Ti  Ti15  1  0.990309  0.849132  0.625629  1
  Nb  Nb16  1  0.175326  0.824243  0.248256  1
  Nb  Nb17  1  0.824834  0.175759  0.751933  1
  Nb  Nb18  1  0.673172  0.673260  0.500061  1
  Si  Si19  1  0.201588  0.132014  0.685550  1
  Si  Si20  1  0.372211  0.706870  0.932818  1
  Si  Si21  1  0.629856  0.295586  0.433968  1
  Si  Si22  1  0.710443  0.373787  0.067957  1
  Si  Si23  1  0.295838  0.629963  0.565823  1
  Si  Si24  1  0.798608  0.866788  0.182806  1
  Si  Si25  1  0.132171  0.201794  0.314383  1
  Si  Si26  1  0.867876  0.797954  0.817250  1
  Si  Si27  1  0.286711  0.943213  0.062538  1
  Si  Si28  1  0.548717  0.791994  0.313792  1
  Si  Si29  1  0.447795  0.210859  0.816363  1
  Si  Si30  1  0.791792  0.548577  0.686127  1
  Si  Si31  1  0.209832  0.448314  0.183221  1
  Si  Si32  1  0.707895  0.048427  0.564022  1
  Si  Si33  1  0.946996  0.288458  0.938045  1
  Si  Si34  1  0.048344  0.707922  0.436064  1
  Pt  Pt35  1  0.331473  0.338657  0.998915  1
