# generated using pymatgen
data_YCo2(PRu)3
_symmetry_space_group_name_H-M   'P 1'
_cell_length_a   3.77847800
_cell_length_b   10.60376000
_cell_length_c   12.09958700
_cell_angle_alpha   90.00000000
_cell_angle_beta   90.00000000
_cell_angle_gamma   90.00000000
_symmetry_Int_Tables_number   1
_chemical_formula_structural   YCo2(PRu)3
_chemical_formula_sum   'Y4 Co8 P12 Ru12'
_cell_volume   484.78294663
_cell_formula_units_Z   4
loop_
 _symmetry_equiv_pos_site_id
 _symmetry_equiv_pos_as_xyz
  1  'x, y, z'
loop_
 _atom_site_type_symbol
 _atom_site_label
 _atom_site_symmetry_multiplicity
 _atom_site_fract_x
 _atom_site_fract_y
 _atom_site_fract_z
 _atom_site_occupancy
  Y  Y0  1  0.250000  0.915717  0.206719  1
  Y  Y1  1  0.750000  0.084283  0.793281  1
  Y  Y2  1  0.750000  0.415717  0.293281  1
  Y  Y3  1  0.250000  0.584283  0.706719  1
  Co  Co4  1  0.250000  0.612508  0.195661  1
  Co  Co5  1  0.750000  0.387492  0.804339  1
  Co  Co6  1  0.750000  0.112508  0.304339  1
  Co  Co7  1  0.250000  0.887492  0.695661  1
  Co  Co8  1  0.250000  0.037025  0.435080  1
  Co  Co9  1  0.750000  0.962975  0.564920  1
  Co  Co10  1  0.750000  0.537025  0.064920  1
  Co  Co11  1  0.250000  0.462975  0.935080  1
  P  P12  1  0.250000  0.074219  0.612510  1
  P  P13  1  0.750000  0.925781  0.387490  1
  P  P14  1  0.750000  0.574219  0.887490  1
  P  P15  1  0.250000  0.425781  0.112510  1
  P  P16  1  0.250000  0.228181  0.371315  1
  P  P17  1  0.750000  0.771819  0.628685  1
  P  P18  1  0.750000  0.728181  0.128685  1
  P  P19  1  0.250000  0.271819  0.871315  1
  P  P20  1  0.250000  0.898563  0.887068  1
  P  P21  1  0.750000  0.101437  0.112932  1
  P  P22  1  0.750000  0.398563  0.612932  1
  P  P23  1  0.250000  0.601437  0.387068  1
  Ru  Ru24  1  0.250000  0.793947  0.486327  1
  Ru  Ru25  1  0.750000  0.206053  0.513673  1
  Ru  Ru26  1  0.750000  0.293947  0.013673  1
  Ru  Ru27  1  0.250000  0.706053  0.986327  1
  Ru  Ru28  1  0.250000  0.094701  0.985872  1
  Ru  Ru29  1  0.750000  0.905299  0.014128  1
  Ru  Ru30  1  0.750000  0.594701  0.514128  1
  Ru  Ru31  1  0.250000  0.405299  0.485872  1
  Ru  Ru32  1  0.250000  0.276254  0.680329  1
  Ru  Ru33  1  0.750000  0.723746  0.319671  1
  Ru  Ru34  1  0.750000  0.776254  0.819671  1
  Ru  Ru35  1  0.250000  0.223746  0.180329  1
