# generated using pymatgen
data_TmGaSiRh4
_symmetry_space_group_name_H-M   'P 1'
_cell_length_a   4.17615000
_cell_length_b   9.15991000
_cell_length_c   11.28051400
_cell_angle_alpha   90.00000000
_cell_angle_beta   90.00000000
_cell_angle_gamma   90.00000000
_symmetry_Int_Tables_number   1
_chemical_formula_structural   TmGaSiRh4
_chemical_formula_sum   'Tm4 Ga4 Si4 Rh16'
_cell_volume   431.51528602
_cell_formula_units_Z   4
loop_
 _symmetry_equiv_pos_site_id
 _symmetry_equiv_pos_as_xyz
  1  'x, y, z'
loop_
 _atom_site_type_symbol
 _atom_site_label
 _atom_site_symmetry_multiplicity
 _atom_site_fract_x
 _atom_site_fract_y
 _atom_site_fract_z
 _atom_site_occupancy
  Tm  Tm0  1  0.250000  0.145534  0.825949  1
  Tm  Tm1  1  0.250000  0.354466  0.325949  1
  Tm  Tm2  1  0.750000  0.854466  0.174051  1
  Tm  Tm3  1  0.750000  0.645534  0.674051  1
  Ga  Ga4  1  0.250000  0.613281  0.059693  1
  Ga  Ga5  1  0.250000  0.886719  0.559693  1
  Ga  Ga6  1  0.750000  0.386719  0.940307  1
  Ga  Ga7  1  0.750000  0.113281  0.440307  1
  Si  Si8  1  0.250000  0.410642  0.635349  1
  Si  Si9  1  0.250000  0.089358  0.135349  1
  Si  Si10  1  0.750000  0.589358  0.364651  1
  Si  Si11  1  0.750000  0.910642  0.864651  1
  Rh  Rh12  1  0.250000  0.611565  0.502227  1
  Rh  Rh13  1  0.250000  0.888435  0.002227  1
  Rh  Rh14  1  0.750000  0.388435  0.497773  1
  Rh  Rh15  1  0.750000  0.111565  0.997773  1
  Rh  Rh16  1  0.250000  0.694842  0.276071  1
  Rh  Rh17  1  0.250000  0.805158  0.776071  1
  Rh  Rh18  1  0.750000  0.305158  0.723929  1
  Rh  Rh19  1  0.750000  0.194842  0.223929  1
  Rh  Rh20  1  0.250000  0.175083  0.564988  1
  Rh  Rh21  1  0.250000  0.324917  0.064988  1
  Rh  Rh22  1  0.750000  0.824917  0.435012  1
  Rh  Rh23  1  0.750000  0.675083  0.935012  1
  Rh  Rh24  1  0.250000  0.003667  0.333712  1
  Rh  Rh25  1  0.250000  0.496333  0.833712  1
  Rh  Rh26  1  0.750000  0.996333  0.666288  1
  Rh  Rh27  1  0.750000  0.503667  0.166288  1
