# generated using pymatgen
data_Tb9HoSn8
_symmetry_space_group_name_H-M   'P 1'
_cell_length_a   8.06405700
_cell_length_b   8.21786500
_cell_length_c   15.53124100
_cell_angle_alpha   90.00000000
_cell_angle_beta   90.00000000
_cell_angle_gamma   90.00000000
_symmetry_Int_Tables_number   1
_chemical_formula_structural   Tb9HoSn8
_chemical_formula_sum   'Tb18 Ho2 Sn16'
_cell_volume   1029.24496276
_cell_formula_units_Z   2
loop_
 _symmetry_equiv_pos_site_id
 _symmetry_equiv_pos_as_xyz
  1  'x, y, z'
loop_
 _atom_site_type_symbol
 _atom_site_label
 _atom_site_symmetry_multiplicity
 _atom_site_fract_x
 _atom_site_fract_y
 _atom_site_fract_z
 _atom_site_occupancy
  Tb  Tb0  1  0.367999  0.836272  0.878589  1
  Tb  Tb1  1  0.867999  0.663728  0.621411  1
  Tb  Tb2  1  0.631926  0.163690  0.378448  1
  Tb  Tb3  1  0.131926  0.336310  0.121552  1
  Tb  Tb4  1  0.631926  0.163690  0.121552  1
  Tb  Tb5  1  0.131926  0.336310  0.378448  1
  Tb  Tb6  1  0.367999  0.836272  0.621411  1
  Tb  Tb7  1  0.867999  0.663728  0.878589  1
  Tb  Tb8  1  0.519826  0.319416  0.901784  1
  Tb  Tb9  1  0.019826  0.180584  0.598216  1
  Tb  Tb10  1  0.480174  0.680587  0.401700  1
  Tb  Tb11  1  0.980174  0.819413  0.098300  1
  Tb  Tb12  1  0.480174  0.680587  0.098300  1
  Tb  Tb13  1  0.980174  0.819413  0.401700  1
  Tb  Tb14  1  0.519826  0.319416  0.598216  1
  Tb  Tb15  1  0.019826  0.180584  0.901784  1
  Tb  Tb16  1  0.198515  0.502606  0.750000  1
  Tb  Tb17  1  0.698515  0.997394  0.750000  1
  Ho  Ho18  1  0.801347  0.497465  0.250000  1
  Ho  Ho19  1  0.301347  0.002535  0.250000  1
  Sn  Sn20  1  0.291519  0.035156  0.042232  1
  Sn  Sn21  1  0.791519  0.464844  0.457768  1
  Sn  Sn22  1  0.708442  0.964692  0.541821  1
  Sn  Sn23  1  0.208442  0.535308  0.958179  1
  Sn  Sn24  1  0.708442  0.964692  0.958179  1
  Sn  Sn25  1  0.208442  0.535308  0.541821  1
  Sn  Sn26  1  0.291519  0.035156  0.457768  1
  Sn  Sn27  1  0.791519  0.464844  0.042232  1
  Sn  Sn28  1  0.565776  0.619040  0.750000  1
  Sn  Sn29  1  0.065776  0.880960  0.750000  1
  Sn  Sn30  1  0.434838  0.380829  0.250000  1
  Sn  Sn31  1  0.934838  0.119171  0.250000  1
  Sn  Sn32  1  0.327202  0.145996  0.750000  1
  Sn  Sn33  1  0.827202  0.354004  0.750000  1
  Sn  Sn34  1  0.672551  0.853488  0.250000  1
  Sn  Sn35  1  0.172551  0.646512  0.250000  1
