# generated using pymatgen
data_Dy9Ho3(ThSn2)8
_symmetry_space_group_name_H-M   'P 1'
_cell_length_a   8.13183800
_cell_length_b   8.23206900
_cell_length_c   15.55489100
_cell_angle_alpha   90.00000000
_cell_angle_beta   90.00000000
_cell_angle_gamma   89.99750703
_symmetry_Int_Tables_number   1
_chemical_formula_structural   Dy9Ho3(ThSn2)8
_chemical_formula_sum   'Dy9 Ho3 Th8 Sn16'
_cell_volume   1041.27320313
_cell_formula_units_Z   1
loop_
 _symmetry_equiv_pos_site_id
 _symmetry_equiv_pos_as_xyz
  1  'x, y, z'
loop_
 _atom_site_type_symbol
 _atom_site_label
 _atom_site_symmetry_multiplicity
 _atom_site_fract_x
 _atom_site_fract_y
 _atom_site_fract_z
 _atom_site_occupancy
  Dy  Dy0  1  0.363957  0.836413  0.876469  1
  Dy  Dy1  1  0.863896  0.663627  0.623529  1
  Dy  Dy2  1  0.636075  0.163606  0.376455  1
  Dy  Dy3  1  0.136079  0.336390  0.123553  1
  Dy  Dy4  1  0.636075  0.163606  0.123545  1
  Dy  Dy5  1  0.136079  0.336390  0.376447  1
  Dy  Dy6  1  0.363957  0.836413  0.623531  1
  Dy  Dy7  1  0.863896  0.663627  0.876471  1
  Dy  Dy8  1  0.192172  0.497821  0.750000  1
  Ho  Ho9  1  0.692225  0.002180  0.750000  1
  Ho  Ho10  1  0.807761  0.502153  0.250000  1
  Ho  Ho11  1  0.307754  0.997835  0.250000  1
  Th  Th12  1  0.519480  0.320332  0.903366  1
  Th  Th13  1  0.019478  0.179653  0.596639  1
  Th  Th14  1  0.480507  0.679648  0.403335  1
  Th  Th15  1  0.980517  0.820368  0.096671  1
  Th  Th16  1  0.480507  0.679648  0.096665  1
  Th  Th17  1  0.980517  0.820368  0.403329  1
  Th  Th18  1  0.519480  0.320332  0.596634  1
  Th  Th19  1  0.019478  0.179653  0.903361  1
  Sn  Sn20  1  0.296680  0.038511  0.042434  1
  Sn  Sn21  1  0.796685  0.461489  0.457570  1
  Sn  Sn22  1  0.703331  0.961462  0.542403  1
  Sn  Sn23  1  0.203335  0.538528  0.957663  1
  Sn  Sn24  1  0.703331  0.961462  0.957597  1
  Sn  Sn25  1  0.203335  0.538528  0.542337  1
  Sn  Sn26  1  0.296680  0.038511  0.457566  1
  Sn  Sn27  1  0.796685  0.461489  0.042430  1
  Sn  Sn28  1  0.559646  0.621680  0.750000  1
  Sn  Sn29  1  0.059436  0.878477  0.750000  1
  Sn  Sn30  1  0.440540  0.378353  0.250000  1
  Sn  Sn31  1  0.940535  0.121644  0.250000  1
  Sn  Sn32  1  0.325647  0.142046  0.750000  1
  Sn  Sn33  1  0.825471  0.357750  0.750000  1
  Sn  Sn34  1  0.674392  0.857776  0.250000  1
  Sn  Sn35  1  0.174386  0.642228  0.250000  1
