# generated using pymatgen
data_Y3HoAlRh
_symmetry_space_group_name_H-M   'P 1'
_cell_length_a   9.54918542
_cell_length_b   9.54917369
_cell_length_c   9.54924901
_cell_angle_alpha   60.06910958
_cell_angle_beta   60.06902133
_cell_angle_gamma   60.06873159
_symmetry_Int_Tables_number   1
_chemical_formula_structural   Y3HoAlRh
_chemical_formula_sum   'Y12 Ho4 Al4 Rh4'
_cell_volume   616.68654666
_cell_formula_units_Z   4
loop_
 _symmetry_equiv_pos_site_id
 _symmetry_equiv_pos_as_xyz
  1  'x, y, z'
loop_
 _atom_site_type_symbol
 _atom_site_label
 _atom_site_symmetry_multiplicity
 _atom_site_fract_x
 _atom_site_fract_y
 _atom_site_fract_z
 _atom_site_occupancy
  Y  Y0  1  0.056311  0.442830  0.442819  1
  Y  Y1  1  0.442261  0.058006  0.057990  1
  Y  Y2  1  0.442818  0.056304  0.442817  1
  Y  Y3  1  0.058007  0.442263  0.057985  1
  Y  Y4  1  0.442819  0.442818  0.056307  1
  Y  Y5  1  0.058006  0.057987  0.442262  1
  Y  Y6  1  0.187844  0.813004  0.813005  1
  Y  Y7  1  0.812889  0.188558  0.188573  1
  Y  Y8  1  0.813002  0.187829  0.813013  1
  Y  Y9  1  0.188565  0.812904  0.188564  1
  Y  Y10  1  0.813003  0.812996  0.187843  1
  Y  Y11  1  0.188555  0.188564  0.812898  1
  Ho  Ho12  1  0.600300  0.600313  0.600305  1
  Ho  Ho13  1  0.605087  0.605074  0.189589  1
  Ho  Ho14  1  0.605079  0.189593  0.605079  1
  Ho  Ho15  1  0.189588  0.605081  0.605078  1
  Al  Al16  1  0.828154  0.828155  0.828154  1
  Al  Al17  1  0.826540  0.826543  0.517126  1
  Al  Al18  1  0.826542  0.517121  0.826542  1
  Al  Al19  1  0.517125  0.826541  0.826539  1
  Rh  Rh20  1  0.394815  0.394812  0.394802  1
  Rh  Rh21  1  0.392368  0.392387  0.817942  1
  Rh  Rh22  1  0.392378  0.817933  0.392382  1
  Rh  Rh23  1  0.817945  0.392387  0.392385  1
