# generated using pymatgen
data_DyLu5CuRh17
_symmetry_space_group_name_H-M   'P 1'
_cell_length_a   5.23294200
_cell_length_b   5.23314086
_cell_length_c   17.34043400
_cell_angle_alpha   90.00000000
_cell_angle_beta   90.00000000
_cell_angle_gamma   120.00067724
_symmetry_Int_Tables_number   1
_chemical_formula_structural   DyLu5CuRh17
_chemical_formula_sum   'Dy1 Lu5 Cu1 Rh17'
_cell_volume   411.24059321
_cell_formula_units_Z   1
loop_
 _symmetry_equiv_pos_site_id
 _symmetry_equiv_pos_as_xyz
  1  'x, y, z'
loop_
 _atom_site_type_symbol
 _atom_site_label
 _atom_site_symmetry_multiplicity
 _atom_site_fract_x
 _atom_site_fract_y
 _atom_site_fract_z
 _atom_site_occupancy
  Dy  Dy0  1  0.666652  0.333343  0.250000  1
  Lu  Lu1  1  0.333340  0.666666  0.957760  1
  Lu  Lu2  1  0.666658  0.333345  0.040956  1
  Lu  Lu3  1  0.666658  0.333345  0.459044  1
  Lu  Lu4  1  0.333340  0.666666  0.542240  1
  Lu  Lu5  1  0.333386  0.666607  0.750000  1
  Cu  Cu6  1  0.333381  0.666561  0.250000  1
  Rh  Rh7  1  0.169187  0.830799  0.374271  1
  Rh  Rh8  1  0.169143  0.338355  0.374267  1
  Rh  Rh9  1  0.661608  0.830815  0.374273  1
  Rh  Rh10  1  0.832590  0.167430  0.623810  1
  Rh  Rh11  1  0.832606  0.665175  0.623812  1
  Rh  Rh12  1  0.334860  0.167439  0.623807  1
  Rh  Rh13  1  0.832590  0.167430  0.876190  1
  Rh  Rh14  1  0.832606  0.665175  0.876188  1
  Rh  Rh15  1  0.334860  0.167439  0.876193  1
  Rh  Rh16  1  0.169187  0.830799  0.125729  1
  Rh  Rh17  1  0.169143  0.338355  0.125733  1
  Rh  Rh18  1  0.661608  0.830815  0.125727  1
  Rh  Rh19  1  0.666649  0.333373  0.750000  1
  Rh  Rh20  1  0.999974  0.999977  0.250000  1
  Rh  Rh21  1  0.000006  0.000062  0.750000  1
  Rh  Rh22  1  0.999984  0.000014  0.497307  1
  Rh  Rh23  1  0.999984  0.000014  0.002693  1
