# generated using pymatgen
data_ErSc19Bi12
_symmetry_space_group_name_H-M   'P 1'
_cell_length_a   7.80410417
_cell_length_b   9.01608900
_cell_length_c   11.41171524
_cell_angle_alpha   90.00000000
_cell_angle_beta   89.97616959
_cell_angle_gamma   90.00000000
_symmetry_Int_Tables_number   1
_chemical_formula_structural   ErSc19Bi12
_chemical_formula_sum   'Er1 Sc19 Bi12'
_cell_volume   802.95671893
_cell_formula_units_Z   1
loop_
 _symmetry_equiv_pos_site_id
 _symmetry_equiv_pos_as_xyz
  1  'x, y, z'
loop_
 _atom_site_type_symbol
 _atom_site_label
 _atom_site_symmetry_multiplicity
 _atom_site_fract_x
 _atom_site_fract_y
 _atom_site_fract_z
 _atom_site_occupancy
  Er  Er0  1  0.185861  0.750000  0.718782  1
  Sc  Sc1  1  0.351531  0.750000  0.218552  1
  Sc  Sc2  1  0.851366  0.750000  0.280830  1
  Sc  Sc3  1  0.649236  0.250000  0.782377  1
  Sc  Sc4  1  0.148394  0.250000  0.718017  1
  Sc  Sc5  1  0.694083  0.567386  0.059737  1
  Sc  Sc6  1  0.193549  0.932336  0.439766  1
  Sc  Sc7  1  0.306172  0.068020  0.941032  1
  Sc  Sc8  1  0.807007  0.432023  0.559324  1
  Sc  Sc9  1  0.306172  0.431980  0.941032  1
  Sc  Sc10  1  0.807007  0.067977  0.559324  1
  Sc  Sc11  1  0.694083  0.932614  0.059737  1
  Sc  Sc12  1  0.193549  0.567664  0.439766  1
  Sc  Sc13  1  0.479810  0.250000  0.488069  1
  Sc  Sc14  1  0.979153  0.250000  0.011676  1
  Sc  Sc15  1  0.520063  0.750000  0.510554  1
  Sc  Sc16  1  0.019788  0.750000  0.989935  1
  Sc  Sc17  1  0.313213  0.250000  0.217742  1
  Sc  Sc18  1  0.813352  0.250000  0.282314  1
  Sc  Sc19  1  0.686690  0.750000  0.782485  1
  Bi  Bi20  1  0.406891  0.750000  0.961345  1
  Bi  Bi21  1  0.900191  0.750000  0.537141  1
  Bi  Bi22  1  0.594633  0.250000  0.040939  1
  Bi  Bi23  1  0.094795  0.250000  0.459194  1
  Bi  Bi24  1  0.565208  0.995893  0.325279  1
  Bi  Bi25  1  0.065511  0.504274  0.174440  1
  Bi  Bi26  1  0.438937  0.491958  0.673693  1
  Bi  Bi27  1  0.932051  0.006426  0.826754  1
  Bi  Bi28  1  0.438937  0.008042  0.673693  1
  Bi  Bi29  1  0.932051  0.493574  0.826754  1
  Bi  Bi30  1  0.565208  0.504107  0.325279  1
  Bi  Bi31  1  0.065511  0.995726  0.174440  1
