# generated using pymatgen
data_NdYSi6AsRh12
_symmetry_space_group_name_H-M   'P 1'
_cell_length_a   9.77970731
_cell_length_b   9.82471311
_cell_length_c   3.88604342
_cell_angle_alpha   90.02153029
_cell_angle_beta   89.99826593
_cell_angle_gamma   120.13172920
_symmetry_Int_Tables_number   1
_chemical_formula_structural   NdYSi6AsRh12
_chemical_formula_sum   'Nd1 Y1 Si6 As1 Rh12'
_cell_volume   322.92819625
_cell_formula_units_Z   1
loop_
 _symmetry_equiv_pos_site_id
 _symmetry_equiv_pos_as_xyz
  1  'x, y, z'
loop_
 _atom_site_type_symbol
 _atom_site_label
 _atom_site_symmetry_multiplicity
 _atom_site_fract_x
 _atom_site_fract_y
 _atom_site_fract_z
 _atom_site_occupancy
  Nd  Nd0  1  0.337486  0.666965  0.749813  1
  Y  Y1  1  0.998114  0.000909  0.252656  1
  Si  Si2  1  0.665497  0.333048  0.571749  1
  Si  Si3  1  0.955212  0.220756  0.751694  1
  Si  Si4  1  0.774945  0.733613  0.752885  1
  Si  Si5  1  0.267753  0.046028  0.751667  1
  Si  Si6  1  0.376439  0.438962  0.250270  1
  Si  Si7  1  0.559573  0.936326  0.250362  1
  As  As8  1  0.069330  0.623170  0.249943  1
  Rh  Rh9  1  0.731839  0.954764  0.753012  1
  Rh  Rh10  1  0.043522  0.783311  0.752434  1
  Rh  Rh11  1  0.222033  0.265823  0.752844  1
  Rh  Rh12  1  0.606814  0.715683  0.250007  1
  Rh  Rh13  1  0.285547  0.896218  0.249215  1
  Rh  Rh14  1  0.107947  0.387158  0.249481  1
  Rh  Rh15  1  0.931240  0.450107  0.748809  1
  Rh  Rh16  1  0.544618  0.478476  0.747790  1
  Rh  Rh17  1  0.521411  0.066940  0.747273  1
  Rh  Rh18  1  0.412140  0.216572  0.256675  1
  Rh  Rh19  1  0.783442  0.194792  0.256323  1
  Rh  Rh20  1  0.805098  0.590378  0.259279  1
