# generated using pymatgen
data_Ba4GaGe7Ir8
_symmetry_space_group_name_H-M   'P 1'
_cell_length_a   6.74095004
_cell_length_b   8.07838732
_cell_length_c   8.33922038
_cell_angle_alpha   86.00949474
_cell_angle_beta   90.06690021
_cell_angle_gamma   90.01137723
_symmetry_Int_Tables_number   1
_chemical_formula_structural   Ba4GaGe7Ir8
_chemical_formula_sum   'Ba4 Ga1 Ge7 Ir8'
_cell_volume   453.01934585
_cell_formula_units_Z   1
loop_
 _symmetry_equiv_pos_site_id
 _symmetry_equiv_pos_as_xyz
  1  'x, y, z'
loop_
 _atom_site_type_symbol
 _atom_site_label
 _atom_site_symmetry_multiplicity
 _atom_site_fract_x
 _atom_site_fract_y
 _atom_site_fract_z
 _atom_site_occupancy
  Ba  Ba0  1  0.381952  0.000507  0.233477  1
  Ba  Ba1  1  0.881857  0.499642  0.766111  1
  Ba  Ba2  1  0.120125  0.501359  0.232730  1
  Ba  Ba3  1  0.616154  0.998393  0.766801  1
  Ga  Ga4  1  0.350928  0.691022  0.557751  1
  Ge  Ge5  1  0.416902  0.364759  0.926654  1
  Ge  Ge6  1  0.148887  0.190798  0.558898  1
  Ge  Ge7  1  0.648370  0.309836  0.440280  1
  Ge  Ge8  1  0.851565  0.809115  0.441669  1
  Ge  Ge9  1  0.916222  0.135786  0.072696  1
  Ge  Ge10  1  0.584052  0.635698  0.072519  1
  Ge  Ge11  1  0.083412  0.864876  0.927335  1
  Ir  Ir12  1  0.399371  0.386868  0.626978  1
  Ir  Ir13  1  0.608276  0.608043  0.371560  1
  Ir  Ir14  1  0.099117  0.893479  0.627702  1
  Ir  Ir15  1  0.162532  0.167269  0.855761  1
  Ir  Ir16  1  0.663163  0.332872  0.143903  1
  Ir  Ir17  1  0.837078  0.833673  0.144536  1
  Ir  Ir18  1  0.334251  0.666217  0.858646  1
  Ir  Ir19  1  0.895787  0.109791  0.373996  1
