# generated using pymatgen
data_Sm6CrAs12Rh17
_symmetry_space_group_name_H-M   'P 1'
_cell_length_a   4.02299000
_cell_length_b   11.64151400
_cell_length_c   13.26990600
_cell_angle_alpha   90.00000000
_cell_angle_beta   90.00000000
_cell_angle_gamma   90.00000000
_symmetry_Int_Tables_number   1
_chemical_formula_structural   Sm6CrAs12Rh17
_chemical_formula_sum   'Sm6 Cr1 As12 Rh17'
_cell_volume   621.47872241
_cell_formula_units_Z   1
loop_
 _symmetry_equiv_pos_site_id
 _symmetry_equiv_pos_as_xyz
  1  'x, y, z'
loop_
 _atom_site_type_symbol
 _atom_site_label
 _atom_site_symmetry_multiplicity
 _atom_site_fract_x
 _atom_site_fract_y
 _atom_site_fract_z
 _atom_site_occupancy
  Sm  Sm0  1  0.000000  0.500000  0.521141  1
  Sm  Sm1  1  0.500000  0.000000  0.479354  1
  Sm  Sm2  1  0.500000  0.818607  0.202941  1
  Sm  Sm3  1  0.500000  0.181393  0.202941  1
  Sm  Sm4  1  0.000000  0.686873  0.796737  1
  Sm  Sm5  1  0.000000  0.313127  0.796737  1
  Cr  Cr6  1  0.500000  0.000000  0.010903  1
  As  As7  1  0.500000  0.500000  0.878983  1
  As  As8  1  0.000000  0.000000  0.120711  1
  As  As9  1  0.500000  0.500000  0.349139  1
  As  As10  1  0.000000  0.000000  0.651216  1
  As  As11  1  0.500000  0.314532  0.618439  1
  As  As12  1  0.500000  0.685468  0.618439  1
  As  As13  1  0.000000  0.186389  0.381073  1
  As  As14  1  0.000000  0.813611  0.381073  1
  As  As15  1  0.500000  0.849023  0.892486  1
  As  As16  1  0.500000  0.150977  0.892486  1
  As  As17  1  0.000000  0.652794  0.108516  1
  As  As18  1  0.000000  0.347206  0.108516  1
  Rh  Rh19  1  0.500000  0.500000  0.164590  1
  Rh  Rh20  1  0.000000  0.000000  0.839043  1
  Rh  Rh21  1  0.500000  0.500000  0.699989  1
  Rh  Rh22  1  0.000000  0.000000  0.302730  1
  Rh  Rh23  1  0.000000  0.500000  0.980918  1
  Rh  Rh24  1  0.500000  0.333975  0.994577  1
  Rh  Rh25  1  0.500000  0.666025  0.994577  1
  Rh  Rh26  1  0.000000  0.165531  0.007412  1
  Rh  Rh27  1  0.000000  0.834469  0.007412  1
  Rh  Rh28  1  0.500000  0.295095  0.430961  1
  Rh  Rh29  1  0.500000  0.704905  0.430961  1
  Rh  Rh30  1  0.000000  0.204250  0.568740  1
  Rh  Rh31  1  0.000000  0.795750  0.568740  1
  Rh  Rh32  1  0.500000  0.875255  0.707734  1
  Rh  Rh33  1  0.500000  0.124745  0.707734  1
  Rh  Rh34  1  0.000000  0.625195  0.291026  1
  Rh  Rh35  1  0.000000  0.374805  0.291026  1
