# generated using pymatgen
data_SrY(Si7Ir3)2
_symmetry_space_group_name_H-M   'P 1'
_cell_length_a   8.07562041
_cell_length_b   8.07562169
_cell_length_c   8.07562182
_cell_angle_alpha   56.71645652
_cell_angle_beta   56.71645352
_cell_angle_gamma   56.71645199
_symmetry_Int_Tables_number   1
_chemical_formula_structural   SrY(Si7Ir3)2
_chemical_formula_sum   'Sr1 Y1 Si14 Ir6'
_cell_volume   344.16862716
_cell_formula_units_Z   1
loop_
 _symmetry_equiv_pos_site_id
 _symmetry_equiv_pos_as_xyz
  1  'x, y, z'
loop_
 _atom_site_type_symbol
 _atom_site_label
 _atom_site_symmetry_multiplicity
 _atom_site_fract_x
 _atom_site_fract_y
 _atom_site_fract_z
 _atom_site_occupancy
  Sr  Sr0  1  0.500000  0.500000  0.500000  1
  Y  Y1  1  0.000000  0.000000  0.000000  1
  Si  Si2  1  0.064082  0.850480  0.673206  1
  Si  Si3  1  0.673206  0.064082  0.850480  1
  Si  Si4  1  0.850480  0.673206  0.064082  1
  Si  Si5  1  0.172594  0.350636  0.565134  1
  Si  Si6  1  0.565134  0.172594  0.350636  1
  Si  Si7  1  0.350636  0.565134  0.172594  1
  Si  Si8  1  0.935918  0.149520  0.326794  1
  Si  Si9  1  0.326794  0.935918  0.149520  1
  Si  Si10  1  0.149520  0.326794  0.935918  1
  Si  Si11  1  0.827406  0.649364  0.434866  1
  Si  Si12  1  0.434866  0.827406  0.649364  1
  Si  Si13  1  0.649364  0.434866  0.827406  1
  Si  Si14  1  0.750059  0.750059  0.750059  1
  Si  Si15  1  0.249941  0.249941  0.249941  1
  Ir  Ir16  1  0.066345  0.753478  0.427446  1
  Ir  Ir17  1  0.427446  0.066345  0.753478  1
  Ir  Ir18  1  0.753478  0.427446  0.066345  1
  Ir  Ir19  1  0.933655  0.246522  0.572554  1
  Ir  Ir20  1  0.572554  0.933655  0.246522  1
  Ir  Ir21  1  0.246522  0.572554  0.933655  1
