# generated using pymatgen
data_Ti3AlGaPtC
_symmetry_space_group_name_H-M   'P 1'
_cell_length_a   8.23836219
_cell_length_b   8.23598033
_cell_length_c   8.23836200
_cell_angle_alpha   59.99043360
_cell_angle_beta   60.00000077
_cell_angle_gamma   59.99042871
_symmetry_Int_Tables_number   1
_chemical_formula_structural   Ti3AlGaPtC
_chemical_formula_sum   'Ti12 Al4 Ga4 Pt4 C4'
_cell_volume   395.20208749
_cell_formula_units_Z   4
loop_
 _symmetry_equiv_pos_site_id
 _symmetry_equiv_pos_as_xyz
  1  'x, y, z'
loop_
 _atom_site_type_symbol
 _atom_site_label
 _atom_site_symmetry_multiplicity
 _atom_site_fract_x
 _atom_site_fract_y
 _atom_site_fract_z
 _atom_site_occupancy
  Ti  Ti0  1  0.934873  0.934505  0.565311  1
  Ti  Ti1  1  0.686097  0.313654  0.314152  1
  Ti  Ti2  1  0.315370  0.684786  0.684474  1
  Ti  Ti3  1  0.684474  0.684786  0.315370  1
  Ti  Ti4  1  0.686097  0.313654  0.686097  1
  Ti  Ti5  1  0.315370  0.684786  0.315370  1
  Ti  Ti6  1  0.565311  0.934505  0.565311  1
  Ti  Ti7  1  0.565311  0.934505  0.934873  1
  Ti  Ti8  1  0.936193  0.563651  0.563963  1
  Ti  Ti9  1  0.936193  0.563651  0.936193  1
  Ti  Ti10  1  0.314152  0.313654  0.686097  1
  Ti  Ti11  1  0.563963  0.563651  0.936193  1
  Al  Al12  1  0.256733  0.914680  0.914294  1
  Al  Al13  1  0.914294  0.914680  0.914294  1
  Al  Al14  1  0.914294  0.914680  0.256733  1
  Al  Al15  1  0.335085  0.994744  0.335085  1
  Ga  Ga16  1  0.911246  0.266264  0.911246  1
  Ga  Ga17  1  0.338900  0.338876  0.983322  1
  Ga  Ga18  1  0.983322  0.338876  0.338900  1
  Ga  Ga19  1  0.338900  0.338876  0.338900  1
  Pt  Pt20  1  0.123738  0.628786  0.123738  1
  Pt  Pt21  1  0.127188  0.119993  0.625632  1
  Pt  Pt22  1  0.625632  0.119993  0.127188  1
  Pt  Pt23  1  0.127188  0.119993  0.127188  1
  C  C24  1  0.624898  0.125306  0.624898  1
  C  C25  1  0.625260  0.624822  0.124659  1
  C  C26  1  0.124659  0.624822  0.625260  1
  C  C27  1  0.625260  0.624822  0.625260  1
