# generated using pymatgen
data_MnCu3(SeS)2
_symmetry_space_group_name_H-M   'P 1'
_cell_length_a   5.52367772
_cell_length_b   5.52367806
_cell_length_c   5.52573700
_cell_angle_alpha   90.00000000
_cell_angle_beta   90.00000000
_cell_angle_gamma   91.89501462
_symmetry_Int_Tables_number   1
_chemical_formula_structural   MnCu3(SeS)2
_chemical_formula_sum   'Mn1 Cu3 Se2 S2'
_cell_volume   168.50365246
_cell_formula_units_Z   1
loop_
 _symmetry_equiv_pos_site_id
 _symmetry_equiv_pos_as_xyz
  1  'x, y, z'
loop_
 _atom_site_type_symbol
 _atom_site_label
 _atom_site_symmetry_multiplicity
 _atom_site_fract_x
 _atom_site_fract_y
 _atom_site_fract_z
 _atom_site_occupancy
  Mn  Mn0  1  0.000000  0.000000  0.000332  1
  Cu  Cu1  1  0.500000  0.000000  0.013886  1
  Cu  Cu2  1  0.000000  0.500000  0.013886  1
  Cu  Cu3  1  0.000000  0.000000  0.491688  1
  Se  Se4  1  0.751467  0.751467  0.759214  1
  Se  Se5  1  0.248533  0.248533  0.759214  1
  S  S6  1  0.224366  0.775634  0.230890  1
  S  S7  1  0.775634  0.224366  0.230890  1
