# generated using pymatgen
data_Pr5Ho3Si12Ir3Rh
_symmetry_space_group_name_H-M   'P 1'
_cell_length_a   8.25259300
_cell_length_b   8.25259309
_cell_length_c   8.25284300
_cell_angle_alpha   90.00000000
_cell_angle_beta   90.00000000
_cell_angle_gamma   120.00000365
_symmetry_Int_Tables_number   1
_chemical_formula_structural   Pr5Ho3Si12Ir3Rh
_chemical_formula_sum   'Pr5 Ho3 Si12 Ir3 Rh1'
_cell_volume   486.76019687
_cell_formula_units_Z   1
loop_
 _symmetry_equiv_pos_site_id
 _symmetry_equiv_pos_as_xyz
  1  'x, y, z'
loop_
 _atom_site_type_symbol
 _atom_site_label
 _atom_site_symmetry_multiplicity
 _atom_site_fract_x
 _atom_site_fract_y
 _atom_site_fract_z
 _atom_site_occupancy
  Pr  Pr0  1  0.000000  0.000000  0.249260  1
  Pr  Pr1  1  0.000000  0.000000  0.750297  1
  Pr  Pr2  1  0.505492  0.494508  0.250109  1
  Pr  Pr3  1  0.505492  0.010986  0.250109  1
  Pr  Pr4  1  0.989014  0.494508  0.250109  1
  Ho  Ho5  1  0.492137  0.507863  0.749968  1
  Ho  Ho6  1  0.492137  0.984275  0.749968  1
  Ho  Ho7  1  0.015725  0.507863  0.749968  1
  Si  Si8  1  0.167144  0.832856  0.507695  1
  Si  Si9  1  0.167144  0.334288  0.507695  1
  Si  Si10  1  0.665712  0.832856  0.507695  1
  Si  Si11  1  0.831368  0.168632  0.505631  1
  Si  Si12  1  0.831368  0.662738  0.505631  1
  Si  Si13  1  0.337262  0.168632  0.505631  1
  Si  Si14  1  0.831541  0.168459  0.994500  1
  Si  Si15  1  0.831541  0.663084  0.994500  1
  Si  Si16  1  0.336916  0.168459  0.994500  1
  Si  Si17  1  0.167203  0.832797  0.991815  1
  Si  Si18  1  0.167203  0.334407  0.991815  1
  Si  Si19  1  0.665593  0.832797  0.991815  1
  Ir  Ir20  1  0.333333  0.666667  0.492546  1
  Ir  Ir21  1  0.666667  0.333333  0.546559  1
  Ir  Ir22  1  0.666667  0.333333  0.952874  1
  Rh  Rh23  1  0.333333  0.666667  0.009308  1
