# generated using pymatgen
data_Dy6Y4Hg3Ir
_symmetry_space_group_name_H-M   'P 1'
_cell_length_a   9.63988800
_cell_length_b   9.63987499
_cell_length_c   9.66732800
_cell_angle_alpha   90.00000000
_cell_angle_beta   90.00000000
_cell_angle_gamma   119.99990052
_symmetry_Int_Tables_number   1
_chemical_formula_structural   Dy6Y4Hg3Ir
_chemical_formula_sum   'Dy12 Y8 Hg6 Ir2'
_cell_volume   778.00235413
_cell_formula_units_Z   2
loop_
 _symmetry_equiv_pos_site_id
 _symmetry_equiv_pos_as_xyz
  1  'x, y, z'
loop_
 _atom_site_type_symbol
 _atom_site_label
 _atom_site_symmetry_multiplicity
 _atom_site_fract_x
 _atom_site_fract_y
 _atom_site_fract_z
 _atom_site_occupancy
  Dy  Dy0  1  0.208859  0.791141  0.440510  1
  Dy  Dy1  1  0.208857  0.417714  0.440510  1
  Dy  Dy2  1  0.582285  0.791142  0.440510  1
  Dy  Dy3  1  0.791141  0.208859  0.559490  1
  Dy  Dy4  1  0.791143  0.582286  0.559490  1
  Dy  Dy5  1  0.417715  0.208858  0.559490  1
  Dy  Dy6  1  0.791141  0.208859  0.940510  1
  Dy  Dy7  1  0.791143  0.582286  0.940510  1
  Dy  Dy8  1  0.417715  0.208858  0.940510  1
  Dy  Dy9  1  0.208859  0.791141  0.059490  1
  Dy  Dy10  1  0.208857  0.417714  0.059490  1
  Dy  Dy11  1  0.582285  0.791142  0.059490  1
  Y  Y12  1  0.000000  0.000000  0.500000  1
  Y  Y13  1  0.000000  0.000000  0.000000  1
  Y  Y14  1  0.541208  0.458792  0.250000  1
  Y  Y15  1  0.541208  0.082419  0.250000  1
  Y  Y16  1  0.917581  0.458792  0.250000  1
  Y  Y17  1  0.458792  0.541208  0.750000  1
  Y  Y18  1  0.458792  0.917581  0.750000  1
  Y  Y19  1  0.082419  0.541208  0.750000  1
  Hg  Hg20  1  0.881319  0.118682  0.250000  1
  Hg  Hg21  1  0.881315  0.762636  0.250000  1
  Hg  Hg22  1  0.237364  0.118684  0.250000  1
  Hg  Hg23  1  0.118681  0.881318  0.750000  1
  Hg  Hg24  1  0.118685  0.237364  0.750000  1
  Hg  Hg25  1  0.762636  0.881316  0.750000  1
  Ir  Ir26  1  0.333333  0.666665  0.250000  1
  Ir  Ir27  1  0.666667  0.333335  0.750000  1
