# generated using pymatgen
data_Tl2Ir3Pd(PbO7)2
_symmetry_space_group_name_H-M   'P 1'
_cell_length_a   7.33150967
_cell_length_b   7.39779441
_cell_length_c   7.33150845
_cell_angle_alpha   59.92734502
_cell_angle_beta   59.58944854
_cell_angle_gamma   59.92734234
_symmetry_Int_Tables_number   1
_chemical_formula_structural   Tl2Ir3Pd(PbO7)2
_chemical_formula_sum   'Tl2 Ir3 Pd1 Pb2 O14'
_cell_volume   279.98418112
_cell_formula_units_Z   1
loop_
 _symmetry_equiv_pos_site_id
 _symmetry_equiv_pos_as_xyz
  1  'x, y, z'
loop_
 _atom_site_type_symbol
 _atom_site_label
 _atom_site_symmetry_multiplicity
 _atom_site_fract_x
 _atom_site_fract_y
 _atom_site_fract_z
 _atom_site_occupancy
  Tl  Tl0  1  0.625000  0.125000  0.125000  1
  Tl  Tl1  1  0.125000  0.125000  0.625000  1
  Ir  Ir2  1  0.125000  0.625000  0.625000  1
  Ir  Ir3  1  0.625000  0.125000  0.625000  1
  Ir  Ir4  1  0.625000  0.625000  0.125000  1
  Pd  Pd5  1  0.625000  0.625000  0.625000  1
  Pb  Pb6  1  0.125000  0.625000  0.125000  1
  Pb  Pb7  1  0.125000  0.125000  0.125000  1
  O  O8  1  0.705780  0.708353  0.286436  1
  O  O9  1  0.297797  0.298756  0.707546  1
  O  O10  1  0.704960  0.288677  0.704960  1
  O  O11  1  0.296115  0.707528  0.296115  1
  O  O12  1  0.286436  0.708353  0.705780  1
  O  O13  1  0.707546  0.298756  0.297797  1
  O  O14  1  0.544220  0.541647  0.963564  1
  O  O15  1  0.952203  0.951244  0.542454  1
  O  O16  1  0.545040  0.961323  0.545040  1
  O  O17  1  0.953885  0.542472  0.953885  1
  O  O18  1  0.963564  0.541647  0.544220  1
  O  O19  1  0.542454  0.951244  0.952203  1
  O  O20  1  0.255660  0.244891  0.255660  1
  O  O21  1  0.994340  0.005109  0.994340  1
