# generated using pymatgen
data_Ho16Cd3NiHgRu3
_symmetry_space_group_name_H-M   'P 1'
_cell_length_a   9.54488985
_cell_length_b   9.60973259
_cell_length_c   9.60973280
_cell_angle_alpha   59.67267942
_cell_angle_beta   59.48996156
_cell_angle_gamma   59.48996281
_symmetry_Int_Tables_number   1
_chemical_formula_structural   Ho16Cd3NiHgRu3
_chemical_formula_sum   'Ho16 Cd3 Ni1 Hg1 Ru3'
_cell_volume   616.90463917
_cell_formula_units_Z   1
loop_
 _symmetry_equiv_pos_site_id
 _symmetry_equiv_pos_as_xyz
  1  'x, y, z'
loop_
 _atom_site_type_symbol
 _atom_site_label
 _atom_site_symmetry_multiplicity
 _atom_site_fract_x
 _atom_site_fract_y
 _atom_site_fract_z
 _atom_site_occupancy
  Ho  Ho0  1  0.350407  0.345872  0.345872  1
  Ho  Ho1  1  0.351516  0.346589  0.958256  1
  Ho  Ho2  1  0.351516  0.958256  0.346589  1
  Ho  Ho3  1  0.957805  0.347500  0.347500  1
  Ho  Ho4  1  0.810335  0.188013  0.188013  1
  Ho  Ho5  1  0.185925  0.810632  0.810632  1
  Ho  Ho6  1  0.187904  0.810744  0.188677  1
  Ho  Ho7  1  0.809326  0.189166  0.810391  1
  Ho  Ho8  1  0.187904  0.188677  0.810744  1
  Ho  Ho9  1  0.809326  0.810391  0.189166  1
  Ho  Ho10  1  0.937975  0.560661  0.560661  1
  Ho  Ho11  1  0.559091  0.936907  0.936907  1
  Ho  Ho12  1  0.558571  0.936399  0.567021  1
  Ho  Ho13  1  0.939728  0.560008  0.939852  1
  Ho  Ho14  1  0.558571  0.567021  0.936399  1
  Ho  Ho15  1  0.939728  0.939852  0.560008  1
  Cd  Cd16  1  0.579378  0.580436  0.257868  1
  Cd  Cd17  1  0.579378  0.257868  0.580436  1
  Cd  Cd18  1  0.257187  0.580395  0.580395  1
  Ni  Ni19  1  0.577684  0.141893  0.141893  1
  Hg  Hg20  1  0.582485  0.584298  0.584298  1
  Ru  Ru21  1  0.142158  0.139354  0.139354  1
  Ru  Ru22  1  0.143051  0.140792  0.578279  1
  Ru  Ru23  1  0.143051  0.578279  0.140792  1
