# generated using pymatgen
data_Nd2Sm3Tl3Cl
_symmetry_space_group_name_H-M   'P 1'
_cell_length_a   9.46581300
_cell_length_b   9.46581229
_cell_length_c   6.78045100
_cell_angle_alpha   90.00000000
_cell_angle_beta   90.00000000
_cell_angle_gamma   119.97405806
_symmetry_Int_Tables_number   1
_chemical_formula_structural   Nd2Sm3Tl3Cl
_chemical_formula_sum   'Nd4 Sm6 Tl6 Cl2'
_cell_volume   526.28196914
_cell_formula_units_Z   2
loop_
 _symmetry_equiv_pos_site_id
 _symmetry_equiv_pos_as_xyz
  1  'x, y, z'
loop_
 _atom_site_type_symbol
 _atom_site_label
 _atom_site_symmetry_multiplicity
 _atom_site_fract_x
 _atom_site_fract_y
 _atom_site_fract_z
 _atom_site_occupancy
  Nd  Nd0  1  0.258865  0.000227  0.250000  1
  Nd  Nd1  1  0.741135  0.999773  0.750000  1
  Nd  Nd2  1  0.000227  0.258865  0.250000  1
  Nd  Nd3  1  0.999773  0.741135  0.750000  1
  Sm  Sm4  1  0.333847  0.666153  0.000000  1
  Sm  Sm5  1  0.666153  0.333847  0.000000  1
  Sm  Sm6  1  0.666153  0.333847  0.500000  1
  Sm  Sm7  1  0.333847  0.666153  0.500000  1
  Sm  Sm8  1  0.742006  0.742006  0.250000  1
  Sm  Sm9  1  0.257994  0.257994  0.750000  1
  Tl  Tl10  1  0.607329  0.998783  0.250000  1
  Tl  Tl11  1  0.392671  0.001217  0.750000  1
  Tl  Tl12  1  0.998783  0.607329  0.250000  1
  Tl  Tl13  1  0.001217  0.392671  0.750000  1
  Tl  Tl14  1  0.394061  0.394061  0.250000  1
  Tl  Tl15  1  0.605939  0.605939  0.750000  1
  Cl  Cl16  1  0.000000  0.000000  0.000000  1
  Cl  Cl17  1  0.000000  0.000000  0.500000  1
