# generated using pymatgen
data_NdCr3(BO3)4
_symmetry_space_group_name_H-M   'P 1'
_cell_length_a   6.12650702
_cell_length_b   6.12650527
_cell_length_c   6.12650501
_cell_angle_alpha   103.73775886
_cell_angle_beta   103.73777117
_cell_angle_gamma   103.73777428
_symmetry_Int_Tables_number   1
_chemical_formula_structural   NdCr3(BO3)4
_chemical_formula_sum   'Nd1 Cr3 B4 O12'
_cell_volume   206.19286389
_cell_formula_units_Z   1
loop_
 _symmetry_equiv_pos_site_id
 _symmetry_equiv_pos_as_xyz
  1  'x, y, z'
loop_
 _atom_site_type_symbol
 _atom_site_label
 _atom_site_symmetry_multiplicity
 _atom_site_fract_x
 _atom_site_fract_y
 _atom_site_fract_z
 _atom_site_occupancy
  Nd  Nd0  1  0.000000  0.000000  0.000000  1
  Cr  Cr1  1  0.554342  0.445659  0.000001  1
  Cr  Cr2  1  0.000001  0.554342  0.445659  1
  Cr  Cr3  1  0.445659  0.000000  0.554342  1
  B  B4  1  0.499999  0.943716  0.056283  1
  B  B5  1  0.943716  0.056283  0.499999  1
  B  B6  1  0.499999  0.499999  0.499999  1
  B  B7  1  0.056282  0.500000  0.943716  1
  O  O8  1  0.626728  0.787337  0.029440  1
  O  O9  1  0.911250  0.500000  0.088748  1
  O  O10  1  0.373274  0.970559  0.212663  1
  O  O11  1  0.644253  0.499999  0.355746  1
  O  O12  1  0.970560  0.212663  0.373273  1
  O  O13  1  0.088749  0.911251  0.499999  1
  O  O14  1  0.355746  0.644253  0.500000  1
  O  O15  1  0.787337  0.029441  0.626727  1
  O  O16  1  0.499999  0.355745  0.644254  1
  O  O17  1  0.029440  0.626727  0.787337  1
  O  O18  1  0.499999  0.088749  0.911250  1
  O  O19  1  0.212663  0.373273  0.970559  1
