# generated using pymatgen
data_Tb3SmHo2CoBr10
_symmetry_space_group_name_H-M   'P 1'
_cell_length_a   7.40005397
_cell_length_b   9.22893856
_cell_length_c   9.22918617
_cell_angle_alpha   107.23597249
_cell_angle_beta   96.56518605
_cell_angle_gamma   105.34945575
_symmetry_Int_Tables_number   1
_chemical_formula_structural   Tb3SmHo2CoBr10
_chemical_formula_sum   'Tb3 Sm1 Ho2 Co1 Br10'
_cell_volume   567.66745480
_cell_formula_units_Z   1
loop_
 _symmetry_equiv_pos_site_id
 _symmetry_equiv_pos_as_xyz
  1  'x, y, z'
loop_
 _atom_site_type_symbol
 _atom_site_label
 _atom_site_symmetry_multiplicity
 _atom_site_fract_x
 _atom_site_fract_y
 _atom_site_fract_z
 _atom_site_occupancy
  Tb  Tb0  1  0.120227  0.046773  0.266721  1
  Tb  Tb1  1  0.353658  0.131149  0.675687  1
  Tb  Tb2  1  0.646826  0.869294  0.323628  1
  Sm  Sm3  1  0.878074  0.952312  0.736322  1
  Ho  Ho4  1  0.030924  0.707945  0.408466  1
  Ho  Ho5  1  0.969730  0.292102  0.589949  1
  Co  Co6  1  0.999736  0.999694  0.500086  1
  Br  Br7  1  0.451251  0.820831  0.582621  1
  Br  Br8  1  0.544032  0.177333  0.414567  1
  Br  Br9  1  0.916308  0.623760  0.667933  1
  Br  Br10  1  0.084892  0.371458  0.329413  1
  Br  Br11  1  0.251635  0.084430  0.957570  1
  Br  Br12  1  0.753872  0.917852  0.047129  1
  Br  Br13  1  0.343576  0.448551  0.769413  1
  Br  Br14  1  0.656362  0.551646  0.230719  1
  Br  Br15  1  0.782669  0.257222  0.840694  1
  Br  Br16  1  0.216227  0.747647  0.159084  1
