# generated using pymatgen
data_YbInAg5
_symmetry_space_group_name_H-M   'P 1'
_cell_length_a   5.81820794
_cell_length_b   5.81820870
_cell_length_c   5.81820920
_cell_angle_alpha   103.26115291
_cell_angle_beta   103.26114690
_cell_angle_gamma   122.76674680
_symmetry_Int_Tables_number   1
_chemical_formula_structural   YbInAg5
_chemical_formula_sum   'Yb1 In1 Ag5'
_cell_volume   145.38504076
_cell_formula_units_Z   1
loop_
 _symmetry_equiv_pos_site_id
 _symmetry_equiv_pos_as_xyz
  1  'x, y, z'
loop_
 _atom_site_type_symbol
 _atom_site_label
 _atom_site_symmetry_multiplicity
 _atom_site_fract_x
 _atom_site_fract_y
 _atom_site_fract_z
 _atom_site_occupancy
  Yb  Yb0  1  0.000000  0.000000  0.000000  1
  In  In1  1  0.250000  0.750000  0.500000  1
  Ag  Ag2  1  0.694310  0.305690  0.000000  1
  Ag  Ag3  1  0.305690  0.694310  0.000000  1
  Ag  Ag4  1  0.305690  0.305690  0.611381  1
  Ag  Ag5  1  0.694310  0.694310  0.388619  1
  Ag  Ag6  1  0.750000  0.250000  0.500000  1
