# generated using pymatgen
data_NdSeClO4
_symmetry_space_group_name_H-M   'P 1'
_cell_length_a   6.33385430
_cell_length_b   6.33385299
_cell_length_c   6.86572997
_cell_angle_alpha   101.91861473
_cell_angle_beta   101.91861168
_cell_angle_gamma   71.37246104
_symmetry_Int_Tables_number   1
_chemical_formula_structural   NdSeClO4
_chemical_formula_sum   'Nd2 Se2 Cl2 O8'
_cell_volume   252.43020314
_cell_formula_units_Z   2
loop_
 _symmetry_equiv_pos_site_id
 _symmetry_equiv_pos_as_xyz
  1  'x, y, z'
loop_
 _atom_site_type_symbol
 _atom_site_label
 _atom_site_symmetry_multiplicity
 _atom_site_fract_x
 _atom_site_fract_y
 _atom_site_fract_z
 _atom_site_occupancy
  Nd  Nd0  1  0.776802  0.776802  0.370952  1
  Nd  Nd1  1  0.223197  0.223197  0.629048  1
  Se  Se2  1  0.362735  0.362735  0.234032  1
  Se  Se3  1  0.637265  0.637265  0.765968  1
  Cl  Cl4  1  0.018588  0.018588  0.265779  1
  Cl  Cl5  1  0.981412  0.981412  0.734221  1
  O  O6  1  0.716062  0.716062  0.006496  1
  O  O7  1  0.526969  0.526969  0.270952  1
  O  O8  1  0.483772  0.135138  0.355837  1
  O  O9  1  0.135138  0.483772  0.355837  1
  O  O10  1  0.864862  0.516228  0.644163  1
  O  O11  1  0.516228  0.864862  0.644163  1
  O  O12  1  0.473032  0.473032  0.729048  1
  O  O13  1  0.283938  0.283938  0.993505  1
