# generated using pymatgen
data_Ac7Yb13Si15Sn
_symmetry_space_group_name_H-M   'P 1'
_cell_length_a   8.12644799
_cell_length_b   8.11130445
_cell_length_c   15.58608500
_cell_angle_alpha   90.24658022
_cell_angle_beta   89.60410949
_cell_angle_gamma   90.01818296
_symmetry_Int_Tables_number   1
_chemical_formula_structural   Ac7Yb13Si15Sn
_chemical_formula_sum   'Ac7 Yb13 Si15 Sn1'
_cell_volume   1027.33975884
_cell_formula_units_Z   1
loop_
 _symmetry_equiv_pos_site_id
 _symmetry_equiv_pos_as_xyz
  1  'x, y, z'
loop_
 _atom_site_type_symbol
 _atom_site_label
 _atom_site_symmetry_multiplicity
 _atom_site_fract_x
 _atom_site_fract_y
 _atom_site_fract_z
 _atom_site_occupancy
  Ac  Ac0  1  0.372381  0.013258  0.447893  1
  Ac  Ac1  1  0.494753  0.869666  0.698761  1
  Ac  Ac2  1  0.512178  0.123270  0.198182  1
  Ac  Ac3  1  0.874589  0.487478  0.295695  1
  Ac  Ac4  1  0.119637  0.518992  0.807235  1
  Ac  Ac5  1  0.627135  0.986713  0.952233  1
  Ac  Ac6  1  0.005288  0.381156  0.545934  1
  Yb  Yb7  1  0.310900  0.317524  0.001870  1
  Yb  Yb8  1  0.184860  0.809734  0.246495  1
  Yb  Yb9  1  0.805905  0.190554  0.752102  1
  Yb  Yb10  1  0.683241  0.687683  0.496017  1
  Yb  Yb11  1  0.994400  0.616369  0.056559  1
  Yb  Yb12  1  0.129748  0.988177  0.882474  1
  Yb  Yb13  1  0.511631  0.629391  0.125571  1
  Yb  Yb14  1  0.495305  0.374428  0.624461  1
  Yb  Yb15  1  0.633430  0.512227  0.879230  1
  Yb  Yb16  1  0.370297  0.491061  0.372264  1
  Yb  Yb17  1  0.870343  0.009198  0.374716  1
  Yb  Yb18  1  0.991534  0.129834  0.123120  1
  Yb  Yb19  1  0.000349  0.860311  0.619477  1
  Si  Si20  1  0.332598  0.701685  0.952334  1
  Si  Si21  1  0.662294  0.297838  0.447415  1
  Si  Si22  1  0.706375  0.338091  0.053087  1
  Si  Si23  1  0.297909  0.664306  0.548040  1
  Si  Si24  1  0.800862  0.837059  0.197576  1
  Si  Si25  1  0.163157  0.203107  0.301533  1
  Si  Si26  1  0.833681  0.800468  0.800339  1
  Si  Si27  1  0.289254  0.919321  0.060067  1
  Si  Si28  1  0.583857  0.786185  0.306861  1
  Si  Si29  1  0.428868  0.214401  0.813651  1
  Si  Si30  1  0.786902  0.582289  0.692322  1
  Si  Si31  1  0.216729  0.415788  0.192624  1
  Si  Si32  1  0.712150  0.083039  0.556725  1
  Si  Si33  1  0.918696  0.287856  0.942913  1
  Si  Si34  1  0.082353  0.714012  0.439320  1
  Sn  Sn35  1  0.196410  0.157527  0.694905  1
