# generated using pymatgen
data_Er3Tm5(CdCo)2
_symmetry_space_group_name_H-M   'P 1'
_cell_length_a   9.35262042
_cell_length_b   9.35262095
_cell_length_c   9.35262000
_cell_angle_alpha   60.00000335
_cell_angle_beta   60.00000149
_cell_angle_gamma   59.99999672
_symmetry_Int_Tables_number   1
_chemical_formula_structural   Er3Tm5(CdCo)2
_chemical_formula_sum   'Er6 Tm10 Cd4 Co4'
_cell_volume   578.47545769
_cell_formula_units_Z   2
loop_
 _symmetry_equiv_pos_site_id
 _symmetry_equiv_pos_as_xyz
  1  'x, y, z'
loop_
 _atom_site_type_symbol
 _atom_site_label
 _atom_site_symmetry_multiplicity
 _atom_site_fract_x
 _atom_site_fract_y
 _atom_site_fract_z
 _atom_site_occupancy
  Er  Er0  1  0.188610  0.811390  0.811390  1
  Er  Er1  1  0.811390  0.188610  0.188610  1
  Er  Er2  1  0.811390  0.188610  0.811390  1
  Er  Er3  1  0.188610  0.811390  0.188610  1
  Er  Er4  1  0.811390  0.811390  0.188610  1
  Er  Er5  1  0.188610  0.188610  0.811390  1
  Tm  Tm6  1  0.596810  0.596810  0.596810  1
  Tm  Tm7  1  0.596810  0.596810  0.209568  1
  Tm  Tm8  1  0.596810  0.209568  0.596810  1
  Tm  Tm9  1  0.209568  0.596810  0.596810  1
  Tm  Tm10  1  0.062788  0.437212  0.437212  1
  Tm  Tm11  1  0.437212  0.062788  0.062788  1
  Tm  Tm12  1  0.437212  0.062788  0.437212  1
  Tm  Tm13  1  0.062788  0.437212  0.062788  1
  Tm  Tm14  1  0.437212  0.437212  0.062788  1
  Tm  Tm15  1  0.062788  0.062788  0.437212  1
  Cd  Cd16  1  0.830697  0.830697  0.830697  1
  Cd  Cd17  1  0.830697  0.830697  0.507907  1
  Cd  Cd18  1  0.830697  0.507907  0.830697  1
  Cd  Cd19  1  0.507907  0.830697  0.830697  1
  Co  Co20  1  0.391660  0.391660  0.391660  1
  Co  Co21  1  0.391660  0.391660  0.825021  1
  Co  Co22  1  0.391660  0.825021  0.391660  1
  Co  Co23  1  0.825021  0.391660  0.391660  1
