# generated using pymatgen
data_Tb17Dy3CoBi8Ru3
_symmetry_space_group_name_H-M   'P 1'
_cell_length_a   8.04606627
_cell_length_b   9.02457511
_cell_length_c   12.50720725
_cell_angle_alpha   89.98189672
_cell_angle_beta   90.31635834
_cell_angle_gamma   89.99825461
_symmetry_Int_Tables_number   1
_chemical_formula_structural   Tb17Dy3CoBi8Ru3
_chemical_formula_sum   'Tb17 Dy3 Co1 Bi8 Ru3'
_cell_volume   908.16356367
_cell_formula_units_Z   1
loop_
 _symmetry_equiv_pos_site_id
 _symmetry_equiv_pos_as_xyz
  1  'x, y, z'
loop_
 _atom_site_type_symbol
 _atom_site_label
 _atom_site_symmetry_multiplicity
 _atom_site_fract_x
 _atom_site_fract_y
 _atom_site_fract_z
 _atom_site_occupancy
  Tb  Tb0  1  0.845955  0.750230  0.800229  1
  Tb  Tb1  1  0.155548  0.249883  0.204764  1
  Tb  Tb2  1  0.344689  0.249816  0.706193  1
  Tb  Tb3  1  0.654455  0.750180  0.295087  1
  Tb  Tb4  1  0.377446  0.750306  0.694170  1
  Tb  Tb5  1  0.621130  0.249685  0.306831  1
  Tb  Tb6  1  0.877995  0.249805  0.807680  1
  Tb  Tb7  1  0.119454  0.750254  0.188756  1
  Tb  Tb8  1  0.945836  0.750219  0.504517  1
  Tb  Tb9  1  0.054041  0.249783  0.496188  1
  Tb  Tb10  1  0.449401  0.249856  0.996509  1
  Tb  Tb11  1  0.550118  0.750095  0.003433  1
  Tb  Tb12  1  0.323077  0.541796  0.435546  1
  Tb  Tb13  1  0.824351  0.035836  0.062924  1
  Tb  Tb14  1  0.676160  0.459126  0.564449  1
  Tb  Tb15  1  0.824158  0.464366  0.062999  1
  Tb  Tb16  1  0.176883  0.542172  0.935622  1
  Dy  Dy17  1  0.675304  0.040928  0.564359  1
  Dy  Dy18  1  0.323929  0.958137  0.435657  1
  Dy  Dy19  1  0.176229  0.957629  0.935648  1
  Co  Co20  1  0.933336  0.750139  0.009294  1
  Bi  Bi21  1  0.572420  0.492557  0.827494  1
  Bi  Bi22  1  0.428577  0.507639  0.172322  1
  Bi  Bi23  1  0.070507  0.507580  0.673229  1
  Bi  Bi24  1  0.428576  0.992305  0.172405  1
  Bi  Bi25  1  0.928760  0.492897  0.326614  1
  Bi  Bi26  1  0.572171  0.007444  0.827456  1
  Bi  Bi27  1  0.929092  0.007057  0.326701  1
  Bi  Bi28  1  0.070244  0.992462  0.673227  1
  Ru  Ru29  1  0.573059  0.750446  0.511504  1
  Ru  Ru30  1  0.425639  0.249574  0.488630  1
  Ru  Ru31  1  0.071462  0.249800  0.989559  1
