# generated using pymatgen
data_Sr20Cd3(IrAu2)3
_symmetry_space_group_name_H-M   'P 1'
_cell_length_a   8.37800215
_cell_length_b   8.37953781
_cell_length_c   15.73133375
_cell_angle_alpha   89.81278152
_cell_angle_beta   89.89770607
_cell_angle_gamma   91.28358339
_symmetry_Int_Tables_number   1
_chemical_formula_structural   Sr20Cd3(IrAu2)3
_chemical_formula_sum   'Sr20 Cd3 Ir3 Au6'
_cell_volume   1104.11425471
_cell_formula_units_Z   1
loop_
 _symmetry_equiv_pos_site_id
 _symmetry_equiv_pos_as_xyz
  1  'x, y, z'
loop_
 _atom_site_type_symbol
 _atom_site_label
 _atom_site_symmetry_multiplicity
 _atom_site_fract_x
 _atom_site_fract_y
 _atom_site_fract_z
 _atom_site_occupancy
  Sr  Sr0  1  0.000501  0.999183  0.756290  1
  Sr  Sr1  1  0.503501  0.493950  0.251316  1
  Sr  Sr2  1  0.993419  0.003683  0.243155  1
  Sr  Sr3  1  0.499183  0.500195  0.748760  1
  Sr  Sr4  1  0.175966  0.662148  0.110726  1
  Sr  Sr5  1  0.681927  0.179706  0.619710  1
  Sr  Sr6  1  0.814045  0.326658  0.114528  1
  Sr  Sr7  1  0.319099  0.821120  0.619257  1
  Sr  Sr8  1  0.346688  0.176150  0.109302  1
  Sr  Sr9  1  0.841468  0.661029  0.619692  1
  Sr  Sr10  1  0.662851  0.833799  0.108962  1
  Sr  Sr11  1  0.158427  0.338692  0.619662  1
  Sr  Sr12  1  0.326934  0.813650  0.885147  1
  Sr  Sr13  1  0.821353  0.318892  0.381185  1
  Sr  Sr14  1  0.674335  0.186530  0.884539  1
  Sr  Sr15  1  0.167176  0.668960  0.385199  1
  Sr  Sr16  1  0.165508  0.344492  0.885200  1
  Sr  Sr17  1  0.669474  0.842893  0.384821  1
  Sr  Sr18  1  0.834143  0.654500  0.885130  1
  Sr  Sr19  1  0.340062  0.166882  0.385333  1
  Cd  Cd20  1  0.003288  0.999970  0.499965  1
  Cd  Cd21  1  0.002923  0.999830  0.000266  1
  Cd  Cd22  1  0.500259  0.503269  0.499411  1
  Ir  Ir23  1  0.622491  0.123811  0.247439  1
  Ir  Ir24  1  0.116443  0.615143  0.752691  1
  Ir  Ir25  1  0.883529  0.384396  0.752706  1
  Au  Au26  1  0.377015  0.877678  0.247547  1
  Au  Au27  1  0.375566  0.123355  0.751876  1
  Au  Au28  1  0.873621  0.628006  0.247647  1
  Au  Au29  1  0.126974  0.372613  0.248111  1
  Au  Au30  1  0.624489  0.876149  0.751828  1
  Au  Au31  1  0.497344  0.502667  0.002599  1
