# generated using pymatgen
data_Tb4OsRuC4
_symmetry_space_group_name_H-M   'P 1'
_cell_length_a   5.16655800
_cell_length_b   6.46288500
_cell_length_c   9.82345700
_cell_angle_alpha   90.00000000
_cell_angle_beta   90.00000000
_cell_angle_gamma   90.00000000
_symmetry_Int_Tables_number   1
_chemical_formula_structural   Tb4OsRuC4
_chemical_formula_sum   'Tb8 Os2 Ru2 C8'
_cell_volume   328.01377760
_cell_formula_units_Z   2
loop_
 _symmetry_equiv_pos_site_id
 _symmetry_equiv_pos_as_xyz
  1  'x, y, z'
loop_
 _atom_site_type_symbol
 _atom_site_label
 _atom_site_symmetry_multiplicity
 _atom_site_fract_x
 _atom_site_fract_y
 _atom_site_fract_z
 _atom_site_occupancy
  Tb  Tb0  1  0.750000  0.816429  0.052994  1
  Tb  Tb1  1  0.250000  0.683571  0.552994  1
  Tb  Tb2  1  0.750000  0.318458  0.448151  1
  Tb  Tb3  1  0.250000  0.181542  0.948151  1
  Tb  Tb4  1  0.750000  0.474903  0.782114  1
  Tb  Tb5  1  0.250000  0.025097  0.282114  1
  Tb  Tb6  1  0.750000  0.974772  0.717176  1
  Tb  Tb7  1  0.250000  0.525228  0.217176  1
  Os  Os8  1  0.750000  0.276782  0.135710  1
  Os  Os9  1  0.250000  0.223218  0.635710  1
  Ru  Ru10  1  0.750000  0.776393  0.365112  1
  Ru  Ru11  1  0.250000  0.723607  0.865112  1
  C  C12  1  0.750000  0.176532  0.948444  1
  C  C13  1  0.250000  0.824984  0.052056  1
  C  C14  1  0.750000  0.675016  0.552056  1
  C  C15  1  0.250000  0.323468  0.448444  1
  C  C16  1  0.750000  0.041481  0.256410  1
  C  C17  1  0.250000  0.458519  0.756410  1
  C  C18  1  0.750000  0.539444  0.241831  1
  C  C19  1  0.250000  0.960556  0.741831  1
