# generated using pymatgen
data_NdY2(GaRu)2
_symmetry_space_group_name_H-M   'P 1'
_cell_length_a   5.65099500
_cell_length_b   7.81942100
_cell_length_c   13.83874700
_cell_angle_alpha   90.00000000
_cell_angle_beta   90.00000000
_cell_angle_gamma   90.00000000
_symmetry_Int_Tables_number   1
_chemical_formula_structural   NdY2(GaRu)2
_chemical_formula_sum   'Nd4 Y8 Ga8 Ru8'
_cell_volume   611.49975725
_cell_formula_units_Z   4
loop_
 _symmetry_equiv_pos_site_id
 _symmetry_equiv_pos_as_xyz
  1  'x, y, z'
loop_
 _atom_site_type_symbol
 _atom_site_label
 _atom_site_symmetry_multiplicity
 _atom_site_fract_x
 _atom_site_fract_y
 _atom_site_fract_z
 _atom_site_occupancy
  Nd  Nd0  1  0.622022  0.260756  0.750000  1
  Nd  Nd1  1  0.622022  0.239244  0.250000  1
  Nd  Nd2  1  0.377978  0.739244  0.250000  1
  Nd  Nd3  1  0.377978  0.760756  0.750000  1
  Y  Y4  1  0.848429  0.900309  0.594543  1
  Y  Y5  1  0.151571  0.400309  0.905457  1
  Y  Y6  1  0.848429  0.599691  0.094543  1
  Y  Y7  1  0.848429  0.599691  0.405457  1
  Y  Y8  1  0.151571  0.099691  0.094543  1
  Y  Y9  1  0.151571  0.099691  0.405457  1
  Y  Y10  1  0.151571  0.400309  0.594543  1
  Y  Y11  1  0.848429  0.900309  0.905457  1
  Ga  Ga12  1  0.369571  0.750000  0.500000  1
  Ga  Ga13  1  0.369571  0.750000  0.000000  1
  Ga  Ga14  1  0.125392  0.107344  0.750000  1
  Ga  Ga15  1  0.630429  0.250000  0.500000  1
  Ga  Ga16  1  0.125392  0.392656  0.250000  1
  Ga  Ga17  1  0.874608  0.892656  0.250000  1
  Ga  Ga18  1  0.874608  0.607344  0.750000  1
  Ga  Ga19  1  0.630429  0.250000  0.000000  1
  Ru  Ru20  1  0.349276  0.037359  0.907936  1
  Ru  Ru21  1  0.349276  0.462641  0.092064  1
  Ru  Ru22  1  0.650724  0.962641  0.092064  1
  Ru  Ru23  1  0.650724  0.537359  0.907936  1
  Ru  Ru24  1  0.650724  0.962641  0.407936  1
  Ru  Ru25  1  0.650724  0.537359  0.592064  1
  Ru  Ru26  1  0.349276  0.462641  0.407936  1
  Ru  Ru27  1  0.349276  0.037359  0.592064  1
