# generated using pymatgen
data_Y12Co4SnRh
_symmetry_space_group_name_H-M   'P 1'
_cell_length_a   8.37612192
_cell_length_b   8.37612193
_cell_length_c   8.37612192
_cell_angle_alpha   110.86693000
_cell_angle_beta   110.56233957
_cell_angle_gamma   107.01218380
_symmetry_Int_Tables_number   1
_chemical_formula_structural   Y12Co4SnRh
_chemical_formula_sum   'Y12 Co4 Sn1 Rh1'
_cell_volume   451.75886567
_cell_formula_units_Z   1
loop_
 _symmetry_equiv_pos_site_id
 _symmetry_equiv_pos_as_xyz
  1  'x, y, z'
loop_
 _atom_site_type_symbol
 _atom_site_label
 _atom_site_symmetry_multiplicity
 _atom_site_fract_x
 _atom_site_fract_y
 _atom_site_fract_z
 _atom_site_occupancy
  Y  Y0  1  0.407387  0.212076  0.195311  1
  Y  Y1  1  0.592613  0.787924  0.804689  1
  Y  Y2  1  0.016766  0.212076  0.804689  1
  Y  Y3  1  0.983234  0.787924  0.195311  1
  Y  Y4  1  0.185696  0.290957  0.476653  1
  Y  Y5  1  0.814304  0.709043  0.523347  1
  Y  Y6  1  0.185696  0.709043  0.894739  1
  Y  Y7  1  0.814304  0.290957  0.105261  1
  Y  Y8  1  0.313765  0.619988  0.306223  1
  Y  Y9  1  0.686235  0.380012  0.693777  1
  Y  Y10  1  0.313765  0.007542  0.693777  1
  Y  Y11  1  0.686235  0.992458  0.306223  1
  Co  Co12  1  0.380067  0.000000  0.380067  1
  Co  Co13  1  0.619933  0.000000  0.619933  1
  Co  Co14  1  0.110359  0.610359  0.500000  1
  Co  Co15  1  0.889641  0.389641  0.500000  1
  Sn  Sn16  1  0.500000  0.500000  0.000000  1
  Rh  Rh17  1  0.000000  0.000000  0.000000  1
