# generated using pymatgen
data_Hf3Zr7In2(SiSb2)2
_symmetry_space_group_name_H-M   'P 1'
_cell_length_a   8.67319909
_cell_length_b   8.67767054
_cell_length_c   5.85429603
_cell_angle_alpha   90.01108609
_cell_angle_beta   89.99445641
_cell_angle_gamma   120.01705574
_symmetry_Int_Tables_number   1
_chemical_formula_structural   Hf3Zr7In2(SiSb2)2
_chemical_formula_sum   'Hf3 Zr7 In2 Si2 Sb4'
_cell_volume   381.51631112
_cell_formula_units_Z   1
loop_
 _symmetry_equiv_pos_site_id
 _symmetry_equiv_pos_as_xyz
  1  'x, y, z'
loop_
 _atom_site_type_symbol
 _atom_site_label
 _atom_site_symmetry_multiplicity
 _atom_site_fract_x
 _atom_site_fract_y
 _atom_site_fract_z
 _atom_site_occupancy
  Hf  Hf0  1  0.330361  0.665182  0.000000  1
  Hf  Hf1  1  0.667780  0.333890  0.500000  1
  Hf  Hf2  1  0.667793  0.333896  0.000000  1
  Zr  Zr3  1  0.258297  0.000621  0.249761  1
  Zr  Zr4  1  0.258297  0.257676  0.750239  1
  Zr  Zr5  1  0.000938  0.739954  0.750121  1
  Zr  Zr6  1  0.000938  0.260984  0.249879  1
  Zr  Zr7  1  0.741447  0.740084  0.249851  1
  Zr  Zr8  1  0.741447  0.001363  0.750149  1
  Zr  Zr9  1  0.329946  0.664974  0.500000  1
  In  In10  1  0.607992  0.999478  0.249726  1
  In  In11  1  0.607992  0.608514  0.750274  1
  Si  Si12  1  0.997239  0.998619  0.000000  1
  Si  Si13  1  0.997148  0.998573  0.500000  1
  Sb  Sb14  1  0.998344  0.393260  0.750338  1
  Sb  Sb15  1  0.998344  0.605083  0.249662  1
  Sb  Sb16  1  0.397847  0.397854  0.249682  1
  Sb  Sb17  1  0.397847  0.999994  0.750318  1
