# generated using pymatgen
data_ZrAl2(VGa)2
_symmetry_space_group_name_H-M   'P 1'
_cell_length_a   5.31405414
_cell_length_b   5.31405354
_cell_length_c   5.26848496
_cell_angle_alpha   103.75741146
_cell_angle_beta   103.75740190
_cell_angle_gamma   121.90117651
_symmetry_Int_Tables_number   1
_chemical_formula_structural   ZrAl2(VGa)2
_chemical_formula_sum   'Zr1 Al2 V2 Ga2'
_cell_volume   110.12088271
_cell_formula_units_Z   1
loop_
 _symmetry_equiv_pos_site_id
 _symmetry_equiv_pos_as_xyz
  1  'x, y, z'
loop_
 _atom_site_type_symbol
 _atom_site_label
 _atom_site_symmetry_multiplicity
 _atom_site_fract_x
 _atom_site_fract_y
 _atom_site_fract_z
 _atom_site_occupancy
  Zr  Zr0  1  0.000000  0.000000  0.000000  1
  Al  Al1  1  0.304848  0.304848  0.609696  1
  Al  Al2  1  0.695152  0.695152  0.390304  1
  V  V3  1  0.250000  0.750000  0.500000  1
  V  V4  1  0.750000  0.250000  0.500000  1
  Ga  Ga5  1  0.698275  0.301725  0.000000  1
  Ga  Ga6  1  0.301725  0.698275  0.000000  1
