# generated using pymatgen
data_Hf3Re2Si3Rh
_symmetry_space_group_name_H-M   'P 1'
_cell_length_a   6.87567778
_cell_length_b   6.87567840
_cell_length_c   3.53471000
_cell_angle_alpha   90.00000000
_cell_angle_beta   90.00000000
_cell_angle_gamma   120.62044276
_symmetry_Int_Tables_number   1
_chemical_formula_structural   Hf3Re2Si3Rh
_chemical_formula_sum   'Hf3 Re2 Si3 Rh1'
_cell_volume   143.80241895
_cell_formula_units_Z   1
loop_
 _symmetry_equiv_pos_site_id
 _symmetry_equiv_pos_as_xyz
  1  'x, y, z'
loop_
 _atom_site_type_symbol
 _atom_site_label
 _atom_site_symmetry_multiplicity
 _atom_site_fract_x
 _atom_site_fract_y
 _atom_site_fract_z
 _atom_site_occupancy
  Hf  Hf0  1  0.401729  0.401729  0.500000  1
  Hf  Hf1  1  0.593149  0.008351  0.500000  1
  Hf  Hf2  1  0.008351  0.593149  0.500000  1
  Re  Re3  1  0.250977  0.000503  0.000000  1
  Re  Re4  1  0.000503  0.250977  0.000000  1
  Si  Si5  1  0.668841  0.338630  0.000000  1
  Si  Si6  1  0.338630  0.668841  0.000000  1
  Si  Si7  1  0.987940  0.987940  0.500000  1
  Rh  Rh8  1  0.749880  0.749880  0.000000  1
