# generated using pymatgen
data_LiTb2(NdSi2)2
_symmetry_space_group_name_H-M   'P 1'
_cell_length_a   7.79316900
_cell_length_b   7.79316900
_cell_length_c   13.88881500
_cell_angle_alpha   90.00000000
_cell_angle_beta   90.00000000
_cell_angle_gamma   90.00000000
_symmetry_Int_Tables_number   1
_chemical_formula_structural   LiTb2(NdSi2)2
_chemical_formula_sum   'Li4 Tb8 Nd8 Si16'
_cell_volume   843.51611056
_cell_formula_units_Z   4
loop_
 _symmetry_equiv_pos_site_id
 _symmetry_equiv_pos_as_xyz
  1  'x, y, z'
loop_
 _atom_site_type_symbol
 _atom_site_label
 _atom_site_symmetry_multiplicity
 _atom_site_fract_x
 _atom_site_fract_y
 _atom_site_fract_z
 _atom_site_occupancy
  Li  Li0  1  0.311094  0.311094  0.500000  1
  Li  Li1  1  0.188906  0.811094  0.750000  1
  Li  Li2  1  0.811094  0.188906  0.250000  1
  Li  Li3  1  0.688906  0.688906  0.000000  1
  Tb  Tb4  1  0.504595  0.370760  0.123473  1
  Tb  Tb5  1  0.004595  0.129240  0.626527  1
  Tb  Tb6  1  0.870760  0.995405  0.873473  1
  Tb  Tb7  1  0.129240  0.004595  0.373473  1
  Tb  Tb8  1  0.495405  0.629240  0.623473  1
  Tb  Tb9  1  0.370760  0.504595  0.876527  1
  Tb  Tb10  1  0.629240  0.495405  0.376527  1
  Tb  Tb11  1  0.995405  0.870760  0.126527  1
  Nd  Nd12  1  0.633308  0.998863  0.458621  1
  Nd  Nd13  1  0.366692  0.001137  0.958621  1
  Nd  Nd14  1  0.998863  0.633308  0.541379  1
  Nd  Nd15  1  0.498863  0.866692  0.208621  1
  Nd  Nd16  1  0.501137  0.133308  0.708621  1
  Nd  Nd17  1  0.866692  0.498863  0.791379  1
  Nd  Nd18  1  0.133308  0.501137  0.291379  1
  Nd  Nd19  1  0.001137  0.366692  0.041379  1
  Si  Si20  1  0.287373  0.919926  0.558914  1
  Si  Si21  1  0.712627  0.080074  0.058914  1
  Si  Si22  1  0.919926  0.287373  0.441086  1
  Si  Si23  1  0.419926  0.212627  0.308914  1
  Si  Si24  1  0.580074  0.787373  0.808914  1
  Si  Si25  1  0.212627  0.419926  0.691086  1
  Si  Si26  1  0.787373  0.580074  0.191086  1
  Si  Si27  1  0.080074  0.712627  0.941086  1
  Si  Si28  1  0.784147  0.847559  0.681438  1
  Si  Si29  1  0.215853  0.152441  0.181438  1
  Si  Si30  1  0.847559  0.784147  0.318562  1
  Si  Si31  1  0.347559  0.715853  0.431438  1
  Si  Si32  1  0.652441  0.284147  0.931438  1
  Si  Si33  1  0.715853  0.347559  0.568562  1
  Si  Si34  1  0.284147  0.652441  0.068562  1
  Si  Si35  1  0.152441  0.215853  0.818562  1
