# generated using pymatgen
data_Dy5Ti3P12Ir15Rh
_symmetry_space_group_name_H-M   'P 1'
_cell_length_a   12.76105371
_cell_length_b   12.75799409
_cell_length_c   3.95134800
_cell_angle_alpha   90.00000000
_cell_angle_beta   90.00000000
_cell_angle_gamma   119.96957622
_symmetry_Int_Tables_number   1
_chemical_formula_structural   Dy5Ti3P12Ir15Rh
_chemical_formula_sum   'Dy5 Ti3 P12 Ir15 Rh1'
_cell_volume   557.28570805
_cell_formula_units_Z   1
loop_
 _symmetry_equiv_pos_site_id
 _symmetry_equiv_pos_as_xyz
  1  'x, y, z'
loop_
 _atom_site_type_symbol
 _atom_site_label
 _atom_site_symmetry_multiplicity
 _atom_site_fract_x
 _atom_site_fract_y
 _atom_site_fract_z
 _atom_site_occupancy
  Dy  Dy0  1  0.333216  0.666504  0.500000  1
  Dy  Dy1  1  0.666578  0.333239  0.500000  1
  Dy  Dy2  1  0.000226  0.812311  0.000000  1
  Dy  Dy3  1  0.188034  0.187873  0.000000  1
  Dy  Dy4  1  0.812154  0.000015  0.000000  1
  Ti  Ti5  1  0.999920  0.447812  0.500000  1
  Ti  Ti6  1  0.551822  0.552157  0.500000  1
  Ti  Ti7  1  0.446951  0.000147  0.500000  1
  P  P8  1  0.999885  0.640024  0.500000  1
  P  P9  1  0.359857  0.359977  0.500000  1
  P  P10  1  0.640685  0.000127  0.500000  1
  P  P11  1  0.517438  0.684854  0.000000  1
  P  P12  1  0.315788  0.832246  0.000000  1
  P  P13  1  0.167470  0.483005  0.000000  1
  P  P14  1  0.483108  0.167141  0.000000  1
  P  P15  1  0.684416  0.517103  0.000000  1
  P  P16  1  0.832634  0.315507  0.000000  1
  P  P17  1  0.999784  0.176583  0.500000  1
  P  P18  1  0.822990  0.823377  0.500000  1
  P  P19  1  0.176504  0.000009  0.500000  1
  Ir  Ir20  1  0.133055  0.642294  0.000000  1
  Ir  Ir21  1  0.357653  0.491035  0.000000  1
  Ir  Ir22  1  0.491257  0.357406  0.000000  1
  Ir  Ir23  1  0.866470  0.508885  0.000000  1
  Ir  Ir24  1  0.642588  0.133174  0.000000  1
  Ir  Ir25  1  0.000181  0.282929  0.000000  1
  Ir  Ir26  1  0.717458  0.717373  0.000000  1
  Ir  Ir27  1  0.282852  0.999982  0.000000  1
  Ir  Ir28  1  0.625472  0.804265  0.500000  1
  Ir  Ir29  1  0.194931  0.821495  0.500000  1
  Ir  Ir30  1  0.178359  0.373277  0.500000  1
  Ir  Ir31  1  0.373290  0.178496  0.500000  1
  Ir  Ir32  1  0.805314  0.626802  0.500000  1
  Ir  Ir33  1  0.821776  0.195393  0.500000  1
  Ir  Ir34  1  0.999819  0.999920  0.500000  1
  Rh  Rh35  1  0.510065  0.867262  0.000000  1
