# generated using pymatgen
data_Lu8Cd3SnAu8
_symmetry_space_group_name_H-M   'P 1'
_cell_length_a   7.95460100
_cell_length_b   7.95460100
_cell_length_c   7.15172900
_cell_angle_alpha   90.00000000
_cell_angle_beta   90.00000000
_cell_angle_gamma   90.00000000
_symmetry_Int_Tables_number   1
_chemical_formula_structural   Lu8Cd3SnAu8
_chemical_formula_sum   'Lu8 Cd3 Sn1 Au8'
_cell_volume   452.53049469
_cell_formula_units_Z   1
loop_
 _symmetry_equiv_pos_site_id
 _symmetry_equiv_pos_as_xyz
  1  'x, y, z'
loop_
 _atom_site_type_symbol
 _atom_site_label
 _atom_site_symmetry_multiplicity
 _atom_site_fract_x
 _atom_site_fract_y
 _atom_site_fract_z
 _atom_site_occupancy
  Lu  Lu0  1  0.828758  0.149314  0.499861  1
  Lu  Lu1  1  0.171242  0.850686  0.499861  1
  Lu  Lu2  1  0.350686  0.328758  0.000139  1
  Lu  Lu3  1  0.649314  0.671242  0.000139  1
  Lu  Lu4  1  0.662544  0.683211  0.499893  1
  Lu  Lu5  1  0.337456  0.316789  0.499893  1
  Lu  Lu6  1  0.183212  0.837456  0.000107  1
  Lu  Lu7  1  0.816789  0.162545  0.000107  1
  Cd  Cd8  1  0.000000  0.500000  0.750000  1
  Cd  Cd9  1  0.500000  0.000000  0.750000  1
  Cd  Cd10  1  0.000000  0.500000  0.250000  1
  Sn  Sn11  1  0.500000  0.000000  0.250000  1
  Au  Au12  1  0.640602  0.378761  0.262943  1
  Au  Au13  1  0.359398  0.621239  0.262943  1
  Au  Au14  1  0.124470  0.137827  0.762355  1
  Au  Au15  1  0.875530  0.862173  0.762355  1
  Au  Au16  1  0.362173  0.624470  0.737645  1
  Au  Au17  1  0.637827  0.375530  0.737645  1
  Au  Au18  1  0.878761  0.859398  0.237057  1
  Au  Au19  1  0.121239  0.140602  0.237057  1
