# generated using pymatgen
data_Sc12Bi3Pb7
_symmetry_space_group_name_H-M   'P 1'
_cell_length_a   11.22338311
_cell_length_b   11.21228542
_cell_length_c   11.21228495
_cell_angle_alpha   147.78145630
_cell_angle_beta   132.19100136
_cell_angle_gamma   58.81672558
_symmetry_Int_Tables_number   1
_chemical_formula_structural   Sc12Bi3Pb7
_chemical_formula_sum   'Sc12 Bi3 Pb7'
_cell_volume   552.79111711
_cell_formula_units_Z   1
loop_
 _symmetry_equiv_pos_site_id
 _symmetry_equiv_pos_as_xyz
  1  'x, y, z'
loop_
 _atom_site_type_symbol
 _atom_site_label
 _atom_site_symmetry_multiplicity
 _atom_site_fract_x
 _atom_site_fract_y
 _atom_site_fract_z
 _atom_site_occupancy
  Sc  Sc0  1  0.698028  0.948612  0.251588  1
  Sc  Sc1  1  0.240676  0.639825  0.600850  1
  Sc  Sc2  1  0.672545  0.942332  0.730211  1
  Sc  Sc3  1  0.037313  0.142195  0.895117  1
  Sc  Sc4  1  0.972031  0.859152  0.112878  1
  Sc  Sc5  1  0.788606  0.557934  0.230672  1
  Sc  Sc6  1  0.212103  0.441206  0.770897  1
  Sc  Sc7  1  0.300723  0.054527  0.749151  1
  Sc  Sc8  1  0.327052  0.057727  0.269326  1
  Sc  Sc9  1  0.300723  0.551572  0.246196  1
  Sc  Sc10  1  0.749504  0.357916  0.391589  1
  Sc  Sc11  1  0.698028  0.446440  0.749415  1
  Bi  Bi12  1  0.470878  0.577814  0.893066  1
  Bi  Bi13  1  0.601759  0.796378  0.805381  1
  Bi  Bi14  1  0.684141  0.077769  0.606374  1
  Pb  Pb15  1  0.999502  0.749311  0.750158  1
  Pb  Pb16  1  0.991493  0.295652  0.695841  1
  Pb  Pb17  1  0.527478  0.422111  0.105366  1
  Pb  Pb18  1  0.006528  0.705097  0.301430  1
  Pb  Pb19  1  0.401078  0.204542  0.196537  1
  Pb  Pb20  1  0.320310  0.922545  0.397765  1
  Pb  Pb21  1  0.999502  0.249344  0.250191  1
