# generated using pymatgen
data_Cu6RhClO8
_symmetry_space_group_name_H-M   'P 1'
_cell_length_a   6.44738954
_cell_length_b   6.44738922
_cell_length_c   6.44739000
_cell_angle_alpha   59.99999601
_cell_angle_beta   59.99999765
_cell_angle_gamma   59.99999679
_symmetry_Int_Tables_number   1
_chemical_formula_structural   Cu6RhClO8
_chemical_formula_sum   'Cu6 Rh1 Cl1 O8'
_cell_volume   189.51199850
_cell_formula_units_Z   1
loop_
 _symmetry_equiv_pos_site_id
 _symmetry_equiv_pos_as_xyz
  1  'x, y, z'
loop_
 _atom_site_type_symbol
 _atom_site_label
 _atom_site_symmetry_multiplicity
 _atom_site_fract_x
 _atom_site_fract_y
 _atom_site_fract_z
 _atom_site_occupancy
  Cu  Cu0  1  0.000000  0.000000  0.500000  1
  Cu  Cu1  1  0.500000  0.000000  0.000000  1
  Cu  Cu2  1  0.000000  0.500000  0.000000  1
  Cu  Cu3  1  0.500000  0.500000  0.000000  1
  Cu  Cu4  1  0.000000  0.500000  0.500000  1
  Cu  Cu5  1  0.500000  0.000000  0.500000  1
  Rh  Rh6  1  0.000000  0.000000  0.000000  1
  Cl  Cl7  1  0.500000  0.500000  0.500000  1
  O  O8  1  0.137305  0.137305  0.588084  1
  O  O9  1  0.137305  0.588084  0.137305  1
  O  O10  1  0.588084  0.137305  0.137305  1
  O  O11  1  0.862695  0.411916  0.862695  1
  O  O12  1  0.137305  0.137305  0.137305  1
  O  O13  1  0.862695  0.862695  0.862695  1
  O  O14  1  0.862695  0.862695  0.411916  1
  O  O15  1  0.411916  0.862695  0.862695  1
