# generated using pymatgen
data_Nd3AlPt3Pb2
_symmetry_space_group_name_H-M   'P 1'
_cell_length_a   7.73908169
_cell_length_b   7.57453101
_cell_length_c   4.16049100
_cell_angle_alpha   90.00000000
_cell_angle_beta   90.00000000
_cell_angle_gamma   119.29910814
_symmetry_Int_Tables_number   1
_chemical_formula_structural   Nd3AlPt3Pb2
_chemical_formula_sum   'Nd3 Al1 Pt3 Pb2'
_cell_volume   212.68876221
_cell_formula_units_Z   1
loop_
 _symmetry_equiv_pos_site_id
 _symmetry_equiv_pos_as_xyz
  1  'x, y, z'
loop_
 _atom_site_type_symbol
 _atom_site_label
 _atom_site_symmetry_multiplicity
 _atom_site_fract_x
 _atom_site_fract_y
 _atom_site_fract_z
 _atom_site_occupancy
  Nd  Nd0  1  0.000000  0.580141  0.500000  1
  Nd  Nd1  1  0.594382  0.006609  0.500000  1
  Nd  Nd2  1  0.405618  0.412227  0.500000  1
  Al  Al3  1  0.000000  0.249033  0.000000  1
  Pt  Pt4  1  0.000000  0.038954  0.500000  1
  Pt  Pt5  1  0.691567  0.325701  0.000000  1
  Pt  Pt6  1  0.308433  0.634136  0.000000  1
  Pb  Pb7  1  0.252633  0.002916  0.000000  1
  Pb  Pb8  1  0.747367  0.750283  0.000000  1
