# generated using pymatgen
data_TbY3(Tm2Ru)4
_symmetry_space_group_name_H-M   'P 1'
_cell_length_a   6.27531139
_cell_length_b   7.30132181
_cell_length_c   9.02692200
_cell_angle_alpha   90.00000000
_cell_angle_beta   90.00000000
_cell_angle_gamma   89.92113871
_symmetry_Int_Tables_number   1
_chemical_formula_structural   TbY3(Tm2Ru)4
_chemical_formula_sum   'Tb1 Y3 Tm8 Ru4'
_cell_volume   413.59573398
_cell_formula_units_Z   1
loop_
 _symmetry_equiv_pos_site_id
 _symmetry_equiv_pos_as_xyz
  1  'x, y, z'
loop_
 _atom_site_type_symbol
 _atom_site_label
 _atom_site_symmetry_multiplicity
 _atom_site_fract_x
 _atom_site_fract_y
 _atom_site_fract_z
 _atom_site_occupancy
  Tb  Tb0  1  0.367767  0.957898  0.750000  1
  Y  Y1  1  0.868743  0.540806  0.250000  1
  Y  Y2  1  0.631601  0.041048  0.250000  1
  Y  Y3  1  0.130889  0.459442  0.750000  1
  Tm  Tm4  1  0.331409  0.675683  0.064608  1
  Tm  Tm5  1  0.168743  0.175767  0.435471  1
  Tm  Tm6  1  0.668477  0.324065  0.564791  1
  Tm  Tm7  1  0.831428  0.824442  0.935621  1
  Tm  Tm8  1  0.668477  0.324065  0.935209  1
  Tm  Tm9  1  0.831428  0.824442  0.564379  1
  Tm  Tm10  1  0.331409  0.675683  0.435392  1
  Tm  Tm11  1  0.168743  0.175767  0.064529  1
  Ru  Ru12  1  0.044300  0.886336  0.250000  1
  Ru  Ru13  1  0.455836  0.386372  0.250000  1
  Ru  Ru14  1  0.957833  0.113537  0.750000  1
  Ru  Ru15  1  0.542917  0.614648  0.750000  1
