# generated using pymatgen
data_Nd3Lu(Si5Pt3)2
_symmetry_space_group_name_H-M   'P 1'
_cell_length_a   8.23331280
_cell_length_b   8.22613846
_cell_length_c   8.22613800
_cell_angle_alpha   136.39633382
_cell_angle_beta   105.26446066
_cell_angle_gamma   90.70802737
_symmetry_Int_Tables_number   1
_chemical_formula_structural   Nd3Lu(Si5Pt3)2
_chemical_formula_sum   'Nd3 Lu1 Si10 Pt6'
_cell_volume   353.01111099
_cell_formula_units_Z   1
loop_
 _symmetry_equiv_pos_site_id
 _symmetry_equiv_pos_as_xyz
  1  'x, y, z'
loop_
 _atom_site_type_symbol
 _atom_site_label
 _atom_site_symmetry_multiplicity
 _atom_site_fract_x
 _atom_site_fract_y
 _atom_site_fract_z
 _atom_site_occupancy
  Nd  Nd0  1  0.638789  0.370656  0.268132  1
  Nd  Nd1  1  0.360446  0.628978  0.731468  1
  Nd  Nd2  1  0.102092  0.870957  0.231136  1
  Lu  Lu3  1  0.900920  0.129691  0.771227  1
  Si  Si4  1  0.269739  0.520768  0.248589  1
  Si  Si5  1  0.728261  0.478427  0.750512  1
  Si  Si6  1  0.728261  0.977750  0.249835  1
  Si  Si7  1  0.269739  0.021150  0.748971  1
  Si  Si8  1  0.461881  0.112919  0.348962  1
  Si  Si9  1  0.541899  0.890540  0.651361  1
  Si  Si10  1  0.762604  0.612790  0.149815  1
  Si  Si11  1  0.235850  0.385322  0.850528  1
  Si  Si12  1  0.999695  0.251756  0.250896  1
  Si  Si13  1  0.999695  0.748799  0.747939  1
  Pt  Pt14  1  0.245123  0.136382  0.108741  1
  Pt  Pt15  1  0.755183  0.865597  0.889586  1
  Pt  Pt16  1  0.024465  0.636658  0.387807  1
  Pt  Pt17  1  0.971560  0.359527  0.612032  1
  Pt  Pt18  1  0.501899  0.249461  0.750023  1
  Pt  Pt19  1  0.501899  0.751876  0.252439  1
