# generated using pymatgen
data_La2Dy2Te7Pd
_symmetry_space_group_name_H-M   'P 1'
_cell_length_a   4.24112050
_cell_length_b   8.67841955
_cell_length_c   9.22523500
_cell_angle_alpha   89.94851023
_cell_angle_beta   90.02787028
_cell_angle_gamma   90.00607257
_symmetry_Int_Tables_number   1
_chemical_formula_structural   La2Dy2Te7Pd
_chemical_formula_sum   'La2 Dy2 Te7 Pd1'
_cell_volume   339.54587828
_cell_formula_units_Z   1
loop_
 _symmetry_equiv_pos_site_id
 _symmetry_equiv_pos_as_xyz
  1  'x, y, z'
loop_
 _atom_site_type_symbol
 _atom_site_label
 _atom_site_symmetry_multiplicity
 _atom_site_fract_x
 _atom_site_fract_y
 _atom_site_fract_z
 _atom_site_occupancy
  La  La0  1  0.002445  0.249334  0.741375  1
  La  La1  1  0.499363  0.498361  0.269875  1
  Dy  Dy2  1  0.001004  0.750732  0.711399  1
  Dy  Dy3  1  0.499482  0.002185  0.268800  1
  Te  Te4  1  0.997849  0.946179  0.001903  1
  Te  Te5  1  0.998038  0.556083  0.995333  1
  Te  Te6  1  0.502005  0.246273  0.006253  1
  Te  Te7  1  0.999873  0.759595  0.370942  1
  Te  Te8  1  0.999972  0.239704  0.373088  1
  Te  Te9  1  0.501382  0.993306  0.626189  1
  Te  Te10  1  0.501406  0.506719  0.630588  1
  Pd  Pd11  1  0.497180  0.751528  0.005180  1
