# generated using pymatgen
data_YTm9(Ga2Sb)2
_symmetry_space_group_name_H-M   'P 1'
_cell_length_a   8.58771723
_cell_length_b   8.61080480
_cell_length_c   6.45172400
_cell_angle_alpha   90.00000000
_cell_angle_beta   90.00000000
_cell_angle_gamma   120.12170463
_symmetry_Int_Tables_number   1
_chemical_formula_structural   YTm9(Ga2Sb)2
_chemical_formula_sum   'Y1 Tm9 Ga4 Sb2'
_cell_volume   412.66152274
_cell_formula_units_Z   1
loop_
 _symmetry_equiv_pos_site_id
 _symmetry_equiv_pos_as_xyz
  1  'x, y, z'
loop_
 _atom_site_type_symbol
 _atom_site_label
 _atom_site_symmetry_multiplicity
 _atom_site_fract_x
 _atom_site_fract_y
 _atom_site_fract_z
 _atom_site_occupancy
  Y  Y0  1  0.763322  0.750890  0.250000  1
  Tm  Tm1  1  0.313857  0.657048  0.999954  1
  Tm  Tm2  1  0.668339  0.333789  0.500267  1
  Tm  Tm3  1  0.668339  0.333789  0.999733  1
  Tm  Tm4  1  0.313857  0.657048  0.500046  1
  Tm  Tm5  1  0.235234  0.000545  0.250000  1
  Tm  Tm6  1  0.234213  0.234067  0.750000  1
  Tm  Tm7  1  0.014007  0.764816  0.750000  1
  Tm  Tm8  1  0.013788  0.249079  0.250000  1
  Tm  Tm9  1  0.763203  0.013376  0.750000  1
  Ga  Ga10  1  0.998286  0.398384  0.750000  1
  Ga  Ga11  1  0.999066  0.599453  0.250000  1
  Ga  Ga12  1  0.401961  0.397451  0.250000  1
  Ga  Ga13  1  0.402764  0.004467  0.750000  1
  Sb  Sb14  1  0.604622  0.995979  0.250000  1
  Sb  Sb15  1  0.605143  0.609817  0.750000  1
