# generated using pymatgen
data_YbLu7Re(B8Ru)3
_symmetry_space_group_name_H-M   'P 1'
_cell_length_a   3.60208600
_cell_length_b   9.04838067
_cell_length_c   11.41609692
_cell_angle_alpha   90.03365556
_cell_angle_beta   90.00000000
_cell_angle_gamma   90.00000000
_symmetry_Int_Tables_number   1
_chemical_formula_structural   YbLu7Re(B8Ru)3
_chemical_formula_sum   'Yb1 Lu7 Re1 B24 Ru3'
_cell_volume   372.08530040
_cell_formula_units_Z   1
loop_
 _symmetry_equiv_pos_site_id
 _symmetry_equiv_pos_as_xyz
  1  'x, y, z'
loop_
 _atom_site_type_symbol
 _atom_site_label
 _atom_site_symmetry_multiplicity
 _atom_site_fract_x
 _atom_site_fract_y
 _atom_site_fract_z
 _atom_site_occupancy
  Yb  Yb0  1  0.000000  0.323297  0.414340  1
  Lu  Lu1  1  0.000000  0.678558  0.587468  1
  Lu  Lu2  1  0.000000  0.822688  0.084013  1
  Lu  Lu3  1  0.000000  0.177074  0.913565  1
  Lu  Lu4  1  0.000000  0.942944  0.369561  1
  Lu  Lu5  1  0.000000  0.057767  0.628589  1
  Lu  Lu6  1  0.000000  0.441825  0.130505  1
  Lu  Lu7  1  0.000000  0.556002  0.871729  1
  Re  Re8  1  0.000000  0.862370  0.821075  1
  B  B9  1  0.500000  0.554589  0.433644  1
  B  B10  1  0.500000  0.446618  0.567286  1
  B  B11  1  0.500000  0.053169  0.066147  1
  B  B12  1  0.500000  0.947052  0.934018  1
  B  B13  1  0.500000  0.749871  0.419276  1
  B  B14  1  0.500000  0.250904  0.581563  1
  B  B15  1  0.500000  0.248614  0.080348  1
  B  B16  1  0.500000  0.749591  0.920023  1
  B  B17  1  0.500000  0.792345  0.264227  1
  B  B18  1  0.500000  0.208547  0.735293  1
  B  B19  1  0.500000  0.290913  0.234585  1
  B  B20  1  0.500000  0.707104  0.764887  1
  B  B21  1  0.500000  0.630902  0.184853  1
  B  B22  1  0.500000  0.369159  0.815909  1
  B  B23  1  0.500000  0.130276  0.314530  1
  B  B24  1  0.500000  0.869421  0.683906  1
  B  B25  1  0.500000  0.981808  0.211530  1
  B  B26  1  0.500000  0.019604  0.787406  1
  B  B27  1  0.500000  0.482822  0.287977  1
  B  B28  1  0.500000  0.517911  0.712790  1
  B  B29  1  0.500000  0.601737  0.029029  1
  B  B30  1  0.500000  0.396501  0.972113  1
  B  B31  1  0.500000  0.099592  0.471950  1
  B  B32  1  0.500000  0.899116  0.527185  1
  Ru  Ru33  1  0.000000  0.639985  0.319887  1
  Ru  Ru34  1  0.000000  0.361911  0.680297  1
  Ru  Ru35  1  0.000000  0.137413  0.178498  1
