# generated using pymatgen
data_Dy19Y(IrPt5)2
_symmetry_space_group_name_H-M   'P 1'
_cell_length_a   11.05352128
_cell_length_b   11.05207701
_cell_length_c   6.42160916
_cell_angle_alpha   90.00305456
_cell_angle_beta   90.02558224
_cell_angle_gamma   90.00441628
_symmetry_Int_Tables_number   1
_chemical_formula_structural   Dy19Y(IrPt5)2
_chemical_formula_sum   'Dy19 Y1 Ir2 Pt10'
_cell_volume   784.49174631
_cell_formula_units_Z   1
loop_
 _symmetry_equiv_pos_site_id
 _symmetry_equiv_pos_as_xyz
  1  'x, y, z'
loop_
 _atom_site_type_symbol
 _atom_site_label
 _atom_site_symmetry_multiplicity
 _atom_site_fract_x
 _atom_site_fract_y
 _atom_site_fract_z
 _atom_site_occupancy
  Dy  Dy0  1  0.292618  0.911406  0.877294  1
  Dy  Dy1  1  0.707432  0.088587  0.877177  1
  Dy  Dy2  1  0.707323  0.911404  0.377163  1
  Dy  Dy3  1  0.588645  0.792617  0.877229  1
  Dy  Dy4  1  0.588596  0.207351  0.377192  1
  Dy  Dy5  1  0.411415  0.792654  0.377194  1
  Dy  Dy6  1  0.411366  0.207356  0.877279  1
  Dy  Dy7  1  0.204988  0.412100  0.623398  1
  Dy  Dy8  1  0.204959  0.587960  0.123364  1
  Dy  Dy9  1  0.795017  0.412035  0.123388  1
  Dy  Dy10  1  0.795036  0.587905  0.623384  1
  Dy  Dy11  1  0.912077  0.704960  0.123362  1
  Dy  Dy12  1  0.912110  0.294976  0.623378  1
  Dy  Dy13  1  0.087959  0.705032  0.623390  1
  Dy  Dy14  1  0.087928  0.295120  0.123393  1
  Dy  Dy15  1  0.999933  0.999981  0.500528  1
  Dy  Dy16  1  0.000044  0.999989  0.000615  1
  Dy  Dy17  1  0.500005  0.500023  0.000496  1
  Dy  Dy18  1  0.499966  0.499980  0.500502  1
  Y  Y19  1  0.292279  0.088643  0.376868  1
  Ir  Ir20  1  0.000001  0.499977  0.877924  1
  Ir  Ir21  1  0.000006  0.499991  0.378000  1
  Pt  Pt22  1  0.845868  0.152969  0.249875  1
  Pt  Pt23  1  0.845863  0.847024  0.749832  1
  Pt  Pt24  1  0.153883  0.153061  0.750435  1
  Pt  Pt25  1  0.154009  0.846899  0.249822  1
  Pt  Pt26  1  0.652970  0.345857  0.749865  1
  Pt  Pt27  1  0.652988  0.654117  0.249888  1
  Pt  Pt28  1  0.347047  0.346199  0.249728  1
  Pt  Pt29  1  0.347047  0.654103  0.749847  1
  Pt  Pt30  1  0.500255  0.999870  0.118745  1
  Pt  Pt31  1  0.500366  0.999851  0.619446  1
