# generated using pymatgen
data_ScCdNi20SnP6
_symmetry_space_group_name_H-M   'P 1'
_cell_length_a   7.89615404
_cell_length_b   7.89615412
_cell_length_c   7.89615400
_cell_angle_alpha   60.00000049
_cell_angle_beta   60.00000016
_cell_angle_gamma   60.00000286
_symmetry_Int_Tables_number   1
_chemical_formula_structural   ScCdNi20SnP6
_chemical_formula_sum   'Sc1 Cd1 Ni20 Sn1 P6'
_cell_volume   348.12230611
_cell_formula_units_Z   1
loop_
 _symmetry_equiv_pos_site_id
 _symmetry_equiv_pos_as_xyz
  1  'x, y, z'
loop_
 _atom_site_type_symbol
 _atom_site_label
 _atom_site_symmetry_multiplicity
 _atom_site_fract_x
 _atom_site_fract_y
 _atom_site_fract_z
 _atom_site_occupancy
  Sc  Sc0  1  0.000000  0.000000  0.000000  1
  Cd  Cd1  1  0.750000  0.750000  0.750000  1
  Ni  Ni2  1  0.000463  0.650611  0.000463  1
  Ni  Ni3  1  0.157519  0.614160  0.614160  1
  Ni  Ni4  1  0.000463  0.000463  0.650611  1
  Ni  Ni5  1  0.000463  0.000463  0.348463  1
  Ni  Ni6  1  0.650611  0.000463  0.348463  1
  Ni  Ni7  1  0.348463  0.000463  0.000463  1
  Ni  Ni8  1  0.850576  0.383142  0.383142  1
  Ni  Ni9  1  0.000463  0.650611  0.348463  1
  Ni  Ni10  1  0.614160  0.614160  0.614160  1
  Ni  Ni11  1  0.383142  0.850576  0.383142  1
  Ni  Ni12  1  0.650611  0.348463  0.000463  1
  Ni  Ni13  1  0.000463  0.348463  0.650611  1
  Ni  Ni14  1  0.348463  0.650611  0.000463  1
  Ni  Ni15  1  0.348463  0.000463  0.650611  1
  Ni  Ni16  1  0.383142  0.383142  0.383142  1
  Ni  Ni17  1  0.650611  0.000463  0.000463  1
  Ni  Ni18  1  0.000463  0.348463  0.000463  1
  Ni  Ni19  1  0.614160  0.614160  0.157519  1
  Ni  Ni20  1  0.383142  0.383142  0.850576  1
  Ni  Ni21  1  0.614160  0.157519  0.614160  1
  Sn  Sn22  1  0.250000  0.250000  0.250000  1
  P  P23  1  0.263655  0.736345  0.263655  1
  P  P24  1  0.736345  0.736345  0.263655  1
  P  P25  1  0.736345  0.263655  0.263655  1
  P  P26  1  0.263655  0.736345  0.736345  1
  P  P27  1  0.263655  0.263655  0.736345  1
  P  P28  1  0.736345  0.263655  0.736345  1
