# generated using pymatgen
data_Dy6Zn21Ag2Ge
_symmetry_space_group_name_H-M   'P 1'
_cell_length_a   9.08345494
_cell_length_b   9.07459276
_cell_length_c   9.07459300
_cell_angle_alpha   59.99999546
_cell_angle_beta   60.03226414
_cell_angle_gamma   60.03226627
_symmetry_Int_Tables_number   1
_chemical_formula_structural   Dy6Zn21Ag2Ge
_chemical_formula_sum   'Dy6 Zn21 Ag2 Ge1'
_cell_volume   529.17824490
_cell_formula_units_Z   1
loop_
 _symmetry_equiv_pos_site_id
 _symmetry_equiv_pos_as_xyz
  1  'x, y, z'
loop_
 _atom_site_type_symbol
 _atom_site_label
 _atom_site_symmetry_multiplicity
 _atom_site_fract_x
 _atom_site_fract_y
 _atom_site_fract_z
 _atom_site_occupancy
  Dy  Dy0  1  0.717338  0.283557  0.283557  1
  Dy  Dy1  1  0.717338  0.283557  0.715547  1
  Dy  Dy2  1  0.717338  0.715547  0.283557  1
  Dy  Dy3  1  0.280693  0.718736  0.718736  1
  Dy  Dy4  1  0.280693  0.718736  0.281836  1
  Dy  Dy5  1  0.280693  0.281836  0.718736  1
  Zn  Zn6  1  0.125616  0.619381  0.127501  1
  Zn  Zn7  1  0.125616  0.127501  0.619381  1
  Zn  Zn8  1  0.125616  0.127501  0.127501  1
  Zn  Zn9  1  0.383090  0.872303  0.872303  1
  Zn  Zn10  1  0.871667  0.376637  0.875848  1
  Zn  Zn11  1  0.871667  0.875848  0.376637  1
  Zn  Zn12  1  0.871667  0.875848  0.875848  1
  Zn  Zn13  1  0.496631  0.999376  0.999376  1
  Zn  Zn14  1  0.496631  0.999376  0.504616  1
  Zn  Zn15  1  0.496631  0.504616  0.999376  1
  Zn  Zn16  1  0.999205  0.500511  0.500511  1
  Zn  Zn17  1  0.999205  0.500511  0.999774  1
  Zn  Zn18  1  0.999205  0.999774  0.500511  1
  Zn  Zn19  1  0.000391  0.333203  0.333203  1
  Zn  Zn20  1  0.333235  0.999232  0.333765  1
  Zn  Zn21  1  0.333235  0.333765  0.999232  1
  Zn  Zn22  1  0.333235  0.333765  0.333765  1
  Zn  Zn23  1  0.000450  0.666517  0.666517  1
  Zn  Zn24  1  0.666939  0.999566  0.666748  1
  Zn  Zn25  1  0.666939  0.666748  0.999566  1
  Zn  Zn26  1  0.666939  0.666748  0.666748  1
  Ag  Ag27  1  0.629158  0.123614  0.123614  1
  Ag  Ag28  1  0.014676  0.995108  0.995108  1
  Ge  Ge29  1  0.498260  0.500580  0.500580  1
