# generated using pymatgen
data_Ba4Sb3As(PtRh)2
_symmetry_space_group_name_H-M   'P 1'
_cell_length_a   7.02688511
_cell_length_b   7.07179734
_cell_length_c   7.04818366
_cell_angle_alpha   90.17093723
_cell_angle_beta   90.50246937
_cell_angle_gamma   90.52468481
_symmetry_Int_Tables_number   1
_chemical_formula_structural   Ba4Sb3As(PtRh)2
_chemical_formula_sum   'Ba4 Sb3 As1 Pt2 Rh2'
_cell_volume   350.21353128
_cell_formula_units_Z   1
loop_
 _symmetry_equiv_pos_site_id
 _symmetry_equiv_pos_as_xyz
  1  'x, y, z'
loop_
 _atom_site_type_symbol
 _atom_site_label
 _atom_site_symmetry_multiplicity
 _atom_site_fract_x
 _atom_site_fract_y
 _atom_site_fract_z
 _atom_site_occupancy
  Ba  Ba0  1  0.635929  0.375426  0.868970  1
  Ba  Ba1  1  0.374047  0.871074  0.638319  1
  Ba  Ba2  1  0.128184  0.128636  0.127352  1
  Ba  Ba3  1  0.866647  0.636997  0.372195  1
  Sb  Sb4  1  0.159094  0.339225  0.669983  1
  Sb  Sb5  1  0.667620  0.157475  0.329176  1
  Sb  Sb6  1  0.336206  0.670384  0.156854  1
  As  As7  1  0.838247  0.831580  0.843120  1
  Pt  Pt8  1  0.412588  0.412082  0.410951  1
  Pt  Pt9  1  0.905356  0.070474  0.603949  1
  Rh  Rh10  1  0.601821  0.906291  0.071500  1
  Rh  Rh11  1  0.074263  0.600355  0.907631  1
