# generated using pymatgen
data_Er5Ge2P10Ir17Ru2
_symmetry_space_group_name_H-M   'P 1'
_cell_length_a   12.72009788
_cell_length_b   12.77968086
_cell_length_c   3.98155100
_cell_angle_alpha   90.00000000
_cell_angle_beta   90.00000000
_cell_angle_gamma   120.15507517
_symmetry_Int_Tables_number   1
_chemical_formula_structural   Er5Ge2P10Ir17Ru2
_chemical_formula_sum   'Er5 Ge2 P10 Ir17 Ru2'
_cell_volume   559.64497334
_cell_formula_units_Z   1
loop_
 _symmetry_equiv_pos_site_id
 _symmetry_equiv_pos_as_xyz
  1  'x, y, z'
loop_
 _atom_site_type_symbol
 _atom_site_label
 _atom_site_symmetry_multiplicity
 _atom_site_fract_x
 _atom_site_fract_y
 _atom_site_fract_z
 _atom_site_occupancy
  Er  Er0  1  0.665332  0.331112  0.000000  1
  Er  Er1  1  0.334668  0.665781  0.000000  1
  Er  Er2  1  0.820960  0.821652  0.500000  1
  Er  Er3  1  0.179040  0.000692  0.500000  1
  Er  Er4  1  0.000000  0.181696  0.500000  1
  Ge  Ge5  1  0.642386  0.641975  0.000000  1
  Ge  Ge6  1  0.357614  0.999589  0.000000  1
  P  P7  1  0.687296  0.169118  0.500000  1
  P  P8  1  0.825493  0.514467  0.500000  1
  P  P9  1  0.478571  0.309970  0.500000  1
  P  P10  1  0.174507  0.688974  0.500000  1
  P  P11  1  0.521429  0.831399  0.500000  1
  P  P12  1  0.312704  0.481822  0.500000  1
  P  P13  1  0.000000  0.356070  0.000000  1
  P  P14  1  0.177739  0.179984  0.000000  1
  P  P15  1  0.822261  0.002245  0.000000  1
  P  P16  1  0.000000  0.819013  0.000000  1
  Ir  Ir17  1  0.809978  0.182611  0.000000  1
  Ir  Ir18  1  0.825032  0.617818  0.000000  1
  Ir  Ir19  1  0.374767  0.202811  0.000000  1
  Ir  Ir20  1  0.174968  0.792787  0.000000  1
  Ir  Ir21  1  0.625233  0.828043  0.000000  1
  Ir  Ir22  1  0.190022  0.372634  0.000000  1
  Ir  Ir23  1  0.444480  0.453430  0.000000  1
  Ir  Ir24  1  0.555520  0.008950  0.000000  1
  Ir  Ir25  1  0.000000  0.534038  0.000000  1
  Ir  Ir26  1  0.000000  0.718740  0.500000  1
  Ir  Ir27  1  0.866506  0.360110  0.500000  1
  Ir  Ir28  1  0.635567  0.502669  0.500000  1
  Ir  Ir29  1  0.493638  0.135811  0.500000  1
  Ir  Ir30  1  0.364433  0.867101  0.500000  1
  Ir  Ir31  1  0.506362  0.642172  0.500000  1
  Ir  Ir32  1  0.133494  0.493604  0.500000  1
  Ir  Ir33  1  0.000000  0.997099  0.000000  1
  Ru  Ru34  1  0.285084  0.289550  0.500000  1
  Ru  Ru35  1  0.714916  0.004466  0.500000  1
