# generated using pymatgen
data_Nd2Y4Si5GeRh12
_symmetry_space_group_name_H-M   'P 1'
_cell_length_a   5.62531000
_cell_length_b   5.62530782
_cell_length_c   15.12388800
_cell_angle_alpha   90.00000000
_cell_angle_beta   90.00000000
_cell_angle_gamma   119.99998931
_symmetry_Int_Tables_number   1
_chemical_formula_structural   Nd2Y4Si5GeRh12
_chemical_formula_sum   'Nd2 Y4 Si5 Ge1 Rh12'
_cell_volume   414.46406652
_cell_formula_units_Z   1
loop_
 _symmetry_equiv_pos_site_id
 _symmetry_equiv_pos_as_xyz
  1  'x, y, z'
loop_
 _atom_site_type_symbol
 _atom_site_label
 _atom_site_symmetry_multiplicity
 _atom_site_fract_x
 _atom_site_fract_y
 _atom_site_fract_z
 _atom_site_occupancy
  Nd  Nd0  1  0.666667  0.333333  0.750554  1
  Nd  Nd1  1  0.333333  0.666667  0.249446  1
  Y  Y2  1  0.666667  0.333333  0.963773  1
  Y  Y3  1  0.666667  0.333333  0.536296  1
  Y  Y4  1  0.333333  0.666667  0.036227  1
  Y  Y5  1  0.333333  0.666667  0.463704  1
  Si  Si6  1  0.666667  0.333333  0.248452  1
  Si  Si7  1  0.000000  0.000000  0.248740  1
  Si  Si8  1  0.000000  0.000000  0.751260  1
  Si  Si9  1  0.333333  0.666667  0.751548  1
  Si  Si10  1  0.000000  0.000000  0.000000  1
  Ge  Ge11  1  0.000000  0.000000  0.500000  1
  Rh  Rh12  1  0.166276  0.332553  0.869982  1
  Rh  Rh13  1  0.167253  0.334506  0.633470  1
  Rh  Rh14  1  0.667447  0.833724  0.869982  1
  Rh  Rh15  1  0.334506  0.167253  0.366530  1
  Rh  Rh16  1  0.832747  0.665494  0.366530  1
  Rh  Rh17  1  0.832747  0.167253  0.366530  1
  Rh  Rh18  1  0.833724  0.166276  0.130018  1
  Rh  Rh19  1  0.332553  0.166276  0.130018  1
  Rh  Rh20  1  0.665494  0.832747  0.633470  1
  Rh  Rh21  1  0.167253  0.832747  0.633470  1
  Rh  Rh22  1  0.833724  0.667447  0.130018  1
  Rh  Rh23  1  0.166276  0.833724  0.869982  1
