# generated using pymatgen
data_NiH4
_symmetry_space_group_name_H-M   'P 1'
_cell_length_a   2.53608908
_cell_length_b   2.54060249
_cell_length_c   7.24274079
_cell_angle_alpha   95.67392053
_cell_angle_beta   90.63100580
_cell_angle_gamma   119.75370119
_symmetry_Int_Tables_number   1
_chemical_formula_structural   NiH4
_chemical_formula_sum   'Ni1 H4'
_cell_volume   40.21811063
_cell_formula_units_Z   1
loop_
 _symmetry_equiv_pos_site_id
 _symmetry_equiv_pos_as_xyz
  1  'x, y, z'
loop_
 _atom_site_type_symbol
 _atom_site_label
 _atom_site_symmetry_multiplicity
 _atom_site_fract_x
 _atom_site_fract_y
 _atom_site_fract_z
 _atom_site_occupancy
  Ni  Ni0  1  0.125049  0.678380  0.327358  1
  H  H1  1  0.815925  0.056286  0.442632  1
  H  H2  1  0.823127  0.439531  0.870503  1
  H  H3  1  0.782823  0.610744  0.798647  1
  H  H4  1  0.432084  0.298632  0.210399  1
