# generated using pymatgen
data_TbHo3Lu2(Si3Ru)8
_symmetry_space_group_name_H-M   'P 1'
_cell_length_a   10.09934658
_cell_length_b   10.09955118
_cell_length_c   8.12284510
_cell_angle_alpha   90.09323309
_cell_angle_beta   89.90538571
_cell_angle_gamma   132.58560602
_symmetry_Int_Tables_number   1
_chemical_formula_structural   TbHo3Lu2(Si3Ru)8
_chemical_formula_sum   'Tb1 Ho3 Lu2 Si24 Ru8'
_cell_volume   610.01178593
_cell_formula_units_Z   1
loop_
 _symmetry_equiv_pos_site_id
 _symmetry_equiv_pos_as_xyz
  1  'x, y, z'
loop_
 _atom_site_type_symbol
 _atom_site_label
 _atom_site_symmetry_multiplicity
 _atom_site_fract_x
 _atom_site_fract_y
 _atom_site_fract_z
 _atom_site_occupancy
  Tb  Tb0  1  0.502396  0.002411  0.750021  1
  Ho  Ho1  1  0.997930  0.497938  0.249982  1
  Ho  Ho2  1  0.497497  0.997499  0.249979  1
  Ho  Ho3  1  0.002547  0.502539  0.750009  1
  Lu  Lu4  1  0.500016  0.500060  0.499958  1
  Lu  Lu5  1  0.000038  0.999992  0.000032  1
  Si  Si6  1  0.794122  0.204915  0.499704  1
  Si  Si7  1  0.295140  0.705897  0.000563  1
  Si  Si8  1  0.205892  0.795164  0.499441  1
  Si  Si9  1  0.704945  0.294112  0.000297  1
  Si  Si10  1  0.332306  0.331950  0.832956  1
  Si  Si11  1  0.667761  0.668021  0.166924  1
  Si  Si12  1  0.168043  0.167786  0.333074  1
  Si  Si13  1  0.831921  0.832280  0.667046  1
  Si  Si14  1  0.122361  0.887838  0.728382  1
  Si  Si15  1  0.113786  0.879705  0.271484  1
  Si  Si16  1  0.611124  0.376888  0.228127  1
  Si  Si17  1  0.621381  0.387049  0.770991  1
  Si  Si18  1  0.876829  0.111050  0.271849  1
  Si  Si19  1  0.887119  0.121433  0.729030  1
  Si  Si20  1  0.387756  0.622294  0.771630  1
  Si  Si21  1  0.379771  0.613867  0.228489  1
  Si  Si22  1  0.346685  0.112712  0.504065  1
  Si  Si23  1  0.888737  0.656197  0.496156  1
  Si  Si24  1  0.387289  0.153017  0.005431  1
  Si  Si25  1  0.843863  0.611267  0.995450  1
  Si  Si26  1  0.652998  0.887251  0.494529  1
  Si  Si27  1  0.111302  0.343885  0.504596  1
  Si  Si28  1  0.612676  0.846665  0.995976  1
  Si  Si29  1  0.156218  0.388774  0.003793  1
  Ru  Ru30  1  0.671439  0.334132  0.498937  1
  Ru  Ru31  1  0.165743  0.828500  0.000085  1
  Ru  Ru32  1  0.328478  0.665761  0.499923  1
  Ru  Ru33  1  0.834134  0.171397  0.001077  1
  Ru  Ru34  1  0.126510  0.126051  0.627698  1
  Ru  Ru35  1  0.873581  0.873612  0.372497  1
  Ru  Ru36  1  0.373629  0.373597  0.127462  1
  Ru  Ru37  1  0.626036  0.626492  0.872359  1
