# generated using pymatgen
data_Tb17Y3FeCo3Bi8
_symmetry_space_group_name_H-M   'P 1'
_cell_length_a   8.06664804
_cell_length_b   8.89302000
_cell_length_c   12.48896410
_cell_angle_alpha   90.00000000
_cell_angle_beta   89.99838675
_cell_angle_gamma   90.00000000
_symmetry_Int_Tables_number   1
_chemical_formula_structural   Tb17Y3FeCo3Bi8
_chemical_formula_sum   'Tb17 Y3 Fe1 Co3 Bi8'
_cell_volume   895.91909789
_cell_formula_units_Z   1
loop_
 _symmetry_equiv_pos_site_id
 _symmetry_equiv_pos_as_xyz
  1  'x, y, z'
loop_
 _atom_site_type_symbol
 _atom_site_label
 _atom_site_symmetry_multiplicity
 _atom_site_fract_x
 _atom_site_fract_y
 _atom_site_fract_z
 _atom_site_occupancy
  Tb  Tb0  1  0.650015  0.750000  0.302865  1
  Tb  Tb1  1  0.381993  0.750000  0.689285  1
  Tb  Tb2  1  0.619952  0.250000  0.309674  1
  Tb  Tb3  1  0.880414  0.250000  0.809964  1
  Tb  Tb4  1  0.119042  0.750000  0.188999  1
  Tb  Tb5  1  0.951843  0.750000  0.503228  1
  Tb  Tb6  1  0.046986  0.250000  0.497142  1
  Tb  Tb7  1  0.454493  0.250000  0.997441  1
  Tb  Tb8  1  0.545831  0.750000  0.003205  1
  Tb  Tb9  1  0.675347  0.032523  0.562222  1
  Tb  Tb10  1  0.322625  0.965329  0.437513  1
  Tb  Tb11  1  0.177068  0.966726  0.936874  1
  Tb  Tb12  1  0.322625  0.534671  0.437513  1
  Tb  Tb13  1  0.823341  0.034529  0.062981  1
  Tb  Tb14  1  0.675347  0.467477  0.562222  1
  Tb  Tb15  1  0.823341  0.465471  0.062981  1
  Tb  Tb16  1  0.177068  0.533274  0.936874  1
  Y  Y17  1  0.847601  0.750000  0.800242  1
  Y  Y18  1  0.151525  0.250000  0.198902  1
  Y  Y19  1  0.348451  0.250000  0.698999  1
  Fe  Fe20  1  0.565433  0.750000  0.509812  1
  Co  Co21  1  0.438661  0.250000  0.490698  1
  Co  Co22  1  0.059171  0.250000  0.990967  1
  Co  Co23  1  0.940522  0.750000  0.008165  1
  Bi  Bi24  1  0.571562  0.492440  0.825913  1
  Bi  Bi25  1  0.427812  0.507380  0.174469  1
  Bi  Bi26  1  0.071972  0.507755  0.674550  1
  Bi  Bi27  1  0.427812  0.992620  0.174469  1
  Bi  Bi28  1  0.929305  0.492314  0.325685  1
  Bi  Bi29  1  0.571562  0.007560  0.825913  1
  Bi  Bi30  1  0.929305  0.007686  0.325685  1
  Bi  Bi31  1  0.071972  0.992245  0.674550  1
