# generated using pymatgen
data_Er8Re3OsC8
_symmetry_space_group_name_H-M   'P 1'
_cell_length_a   5.06097000
_cell_length_b   6.51638437
_cell_length_c   9.76673211
_cell_angle_alpha   89.82742032
_cell_angle_beta   90.00000000
_cell_angle_gamma   90.00000000
_symmetry_Int_Tables_number   1
_chemical_formula_structural   Er8Re3OsC8
_chemical_formula_sum   'Er8 Re3 Os1 C8'
_cell_volume   322.09780237
_cell_formula_units_Z   1
loop_
 _symmetry_equiv_pos_site_id
 _symmetry_equiv_pos_as_xyz
  1  'x, y, z'
loop_
 _atom_site_type_symbol
 _atom_site_label
 _atom_site_symmetry_multiplicity
 _atom_site_fract_x
 _atom_site_fract_y
 _atom_site_fract_z
 _atom_site_occupancy
  Er  Er0  1  0.750000  0.532443  0.785497  1
  Er  Er1  1  0.250000  0.966956  0.283004  1
  Er  Er2  1  0.750000  0.677980  0.443214  1
  Er  Er3  1  0.250000  0.823883  0.944085  1
  Er  Er4  1  0.750000  0.178831  0.056888  1
  Er  Er5  1  0.250000  0.321884  0.556845  1
  Er  Er6  1  0.250000  0.467041  0.216780  1
  Er  Er7  1  0.750000  0.034681  0.716421  1
  Re  Re8  1  0.250000  0.781736  0.632752  1
  Re  Re9  1  0.750000  0.218305  0.368507  1
  Re  Re10  1  0.750000  0.719240  0.131821  1
  Os  Os11  1  0.250000  0.281018  0.867040  1
  C  C12  1  0.250000  0.674633  0.447484  1
  C  C13  1  0.250000  0.547831  0.757880  1
  C  C14  1  0.750000  0.451604  0.240689  1
  C  C15  1  0.750000  0.824531  0.945873  1
  C  C16  1  0.250000  0.047643  0.741012  1
  C  C17  1  0.250000  0.173721  0.051473  1
  C  C18  1  0.750000  0.324644  0.553603  1
  C  C19  1  0.750000  0.951395  0.259132  1
