# generated using pymatgen
data_HoPa2Zn3PdPt2
_symmetry_space_group_name_H-M   'P 1'
_cell_length_a   7.36418411
_cell_length_b   7.42854431
_cell_length_c   3.77860000
_cell_angle_alpha   90.00000000
_cell_angle_beta   90.00000000
_cell_angle_gamma   120.28952047
_symmetry_Int_Tables_number   1
_chemical_formula_structural   HoPa2Zn3PdPt2
_chemical_formula_sum   'Ho1 Pa2 Zn3 Pd1 Pt2'
_cell_volume   178.49065760
_cell_formula_units_Z   1
loop_
 _symmetry_equiv_pos_site_id
 _symmetry_equiv_pos_as_xyz
  1  'x, y, z'
loop_
 _atom_site_type_symbol
 _atom_site_label
 _atom_site_symmetry_multiplicity
 _atom_site_fract_x
 _atom_site_fract_y
 _atom_site_fract_z
 _atom_site_occupancy
  Ho  Ho0  1  0.000000  0.597274  0.000000  1
  Pa  Pa1  1  0.411220  0.408553  0.000000  1
  Pa  Pa2  1  0.588780  0.997333  0.000000  1
  Zn  Zn3  1  0.757966  0.746309  0.500000  1
  Zn  Zn4  1  0.242034  0.988343  0.500000  1
  Zn  Zn5  1  0.000000  0.264327  0.500000  1
  Pd  Pd6  1  0.000000  0.011727  0.000000  1
  Pt  Pt7  1  0.650205  0.318169  0.500000  1
  Pt  Pt8  1  0.349795  0.667966  0.500000  1
