# generated using pymatgen
data_Tb2Si7Ir12
_symmetry_space_group_name_H-M   'P 1'
_cell_length_a   3.88909828
_cell_length_b   9.77254123
_cell_length_c   9.77265082
_cell_angle_alpha   120.00723525
_cell_angle_beta   90.00919489
_cell_angle_gamma   89.98959786
_symmetry_Int_Tables_number   1
_chemical_formula_structural   Tb2Si7Ir12
_chemical_formula_sum   'Tb2 Si7 Ir12'
_cell_volume   321.63830626
_cell_formula_units_Z   1
loop_
 _symmetry_equiv_pos_site_id
 _symmetry_equiv_pos_as_xyz
  1  'x, y, z'
loop_
 _atom_site_type_symbol
 _atom_site_label
 _atom_site_symmetry_multiplicity
 _atom_site_fract_x
 _atom_site_fract_y
 _atom_site_fract_z
 _atom_site_occupancy
  Tb  Tb0  1  0.250243  0.666717  0.333362  1
  Tb  Tb1  1  0.749757  0.333283  0.666638  1
  Si  Si2  1  0.500000  0.000000  0.000000  1
  Si  Si3  1  0.751788  0.885597  0.595378  1
  Si  Si4  1  0.751749  0.404680  0.290266  1
  Si  Si5  1  0.751695  0.709760  0.114465  1
  Si  Si6  1  0.248212  0.114403  0.404622  1
  Si  Si7  1  0.248251  0.595320  0.709734  1
  Si  Si8  1  0.248305  0.290240  0.885535  1
  Ir  Ir9  1  0.746204  0.117169  0.855187  1
  Ir  Ir10  1  0.746134  0.144793  0.262006  1
  Ir  Ir11  1  0.746116  0.738013  0.882833  1
  Ir  Ir12  1  0.253796  0.882831  0.144813  1
  Ir  Ir13  1  0.253866  0.855207  0.737994  1
  Ir  Ir14  1  0.253884  0.261987  0.117167  1
  Ir  Ir15  1  0.751082  0.619070  0.556421  1
  Ir  Ir16  1  0.751116  0.443595  0.062673  1
  Ir  Ir17  1  0.751053  0.937279  0.380918  1
  Ir  Ir18  1  0.248918  0.380930  0.443579  1
  Ir  Ir19  1  0.248884  0.556405  0.937327  1
  Ir  Ir20  1  0.248947  0.062721  0.619082  1
