# generated using pymatgen
data_Zr16Co4IrOs3
_symmetry_space_group_name_H-M   'P 1'
_cell_length_a   8.68766606
_cell_length_b   8.68552577
_cell_length_c   8.68761447
_cell_angle_alpha   59.94705308
_cell_angle_beta   59.95506340
_cell_angle_gamma   59.95001736
_symmetry_Int_Tables_number   1
_chemical_formula_structural   Zr16Co4IrOs3
_chemical_formula_sum   'Zr16 Co4 Ir1 Os3'
_cell_volume   463.01922636
_cell_formula_units_Z   1
loop_
 _symmetry_equiv_pos_site_id
 _symmetry_equiv_pos_as_xyz
  1  'x, y, z'
loop_
 _atom_site_type_symbol
 _atom_site_label
 _atom_site_symmetry_multiplicity
 _atom_site_fract_x
 _atom_site_fract_y
 _atom_site_fract_z
 _atom_site_occupancy
  Zr  Zr0  1  0.055164  0.648576  0.648421  1
  Zr  Zr1  1  0.648411  0.055148  0.648521  1
  Zr  Zr2  1  0.648343  0.648603  0.055212  1
  Zr  Zr3  1  0.648694  0.648937  0.648766  1
  Zr  Zr4  1  0.798455  0.798407  0.201792  1
  Zr  Zr5  1  0.201969  0.201708  0.799060  1
  Zr  Zr6  1  0.798450  0.201709  0.798390  1
  Zr  Zr7  1  0.201873  0.799070  0.201787  1
  Zr  Zr8  1  0.201834  0.798435  0.798424  1
  Zr  Zr9  1  0.799070  0.201749  0.201929  1
  Zr  Zr10  1  0.435434  0.435438  0.061430  1
  Zr  Zr11  1  0.064241  0.064214  0.435418  1
  Zr  Zr12  1  0.435439  0.061426  0.435441  1
  Zr  Zr13  1  0.064242  0.435421  0.064221  1
  Zr  Zr14  1  0.061508  0.435403  0.435402  1
  Zr  Zr15  1  0.435442  0.064201  0.064210  1
  Co  Co16  1  0.420805  0.860012  0.860002  1
  Co  Co17  1  0.859963  0.420785  0.860065  1
  Co  Co18  1  0.859949  0.860061  0.420823  1
  Co  Co19  1  0.859622  0.859684  0.859672  1
  Ir  Ir20  1  0.417881  0.417895  0.417898  1
  Os  Os21  1  0.745764  0.418701  0.418698  1
  Os  Os22  1  0.418723  0.745708  0.418708  1
  Os  Os23  1  0.418722  0.418708  0.745711  1
