# generated using pymatgen
data_Tb8NiAg2Rh
_symmetry_space_group_name_H-M   'P 1'
_cell_length_a   9.51889693
_cell_length_b   9.44511406
_cell_length_c   9.51889735
_cell_angle_alpha   60.25607975
_cell_angle_beta   60.59920303
_cell_angle_gamma   60.25608432
_symmetry_Int_Tables_number   1
_chemical_formula_structural   Tb8NiAg2Rh
_chemical_formula_sum   'Tb16 Ni2 Ag4 Rh2'
_cell_volume   610.20970812
_cell_formula_units_Z   2
loop_
 _symmetry_equiv_pos_site_id
 _symmetry_equiv_pos_as_xyz
  1  'x, y, z'
loop_
 _atom_site_type_symbol
 _atom_site_label
 _atom_site_symmetry_multiplicity
 _atom_site_fract_x
 _atom_site_fract_y
 _atom_site_fract_z
 _atom_site_occupancy
  Tb  Tb0  1  0.811621  0.811271  0.185579  1
  Tb  Tb1  1  0.811764  0.188236  0.811764  1
  Tb  Tb2  1  0.185579  0.191529  0.811621  1
  Tb  Tb3  1  0.650015  0.056785  0.650015  1
  Tb  Tb4  1  0.064522  0.064042  0.434352  1
  Tb  Tb5  1  0.434352  0.437084  0.064522  1
  Tb  Tb6  1  0.650015  0.643184  0.650015  1
  Tb  Tb7  1  0.811621  0.191529  0.185579  1
  Tb  Tb8  1  0.185579  0.811271  0.811621  1
  Tb  Tb9  1  0.055718  0.646409  0.651465  1
  Tb  Tb10  1  0.434352  0.064042  0.064522  1
  Tb  Tb11  1  0.436108  0.063892  0.436108  1
  Tb  Tb12  1  0.065065  0.434935  0.065065  1
  Tb  Tb13  1  0.651465  0.646409  0.055718  1
  Tb  Tb14  1  0.188353  0.811647  0.188353  1
  Tb  Tb15  1  0.064522  0.437084  0.434352  1
  Ni  Ni16  1  0.857189  0.429327  0.857189  1
  Ni  Ni17  1  0.857189  0.856295  0.857189  1
  Ag  Ag18  1  0.417406  0.418493  0.417406  1
  Ag  Ag19  1  0.417251  0.418140  0.746470  1
  Ag  Ag20  1  0.417406  0.746695  0.417406  1
  Ag  Ag21  1  0.746470  0.418140  0.417251  1
  Rh  Rh22  1  0.856618  0.856780  0.429823  1
  Rh  Rh23  1  0.429823  0.856780  0.856618  1
