# generated using pymatgen
data_Dy6HoCoI12
_symmetry_space_group_name_H-M   'P 1'
_cell_length_a   9.76212393
_cell_length_b   9.76204469
_cell_length_c   9.76200215
_cell_angle_alpha   106.81769426
_cell_angle_beta   106.78570563
_cell_angle_gamma   106.84396524
_symmetry_Int_Tables_number   1
_chemical_formula_structural   Dy6HoCoI12
_chemical_formula_sum   'Dy6 Ho1 Co1 I12'
_cell_volume   778.62479855
_cell_formula_units_Z   1
loop_
 _symmetry_equiv_pos_site_id
 _symmetry_equiv_pos_as_xyz
  1  'x, y, z'
loop_
 _atom_site_type_symbol
 _atom_site_label
 _atom_site_symmetry_multiplicity
 _atom_site_fract_x
 _atom_site_fract_y
 _atom_site_fract_z
 _atom_site_occupancy
  Dy  Dy0  1  0.499932  0.499986  0.499857  1
  Dy  Dy1  1  0.287090  0.091740  0.020962  1
  Dy  Dy2  1  0.021191  0.287070  0.091255  1
  Dy  Dy3  1  0.091548  0.021273  0.287102  1
  Dy  Dy4  1  0.712779  0.908276  0.978487  1
  Dy  Dy5  1  0.978566  0.712856  0.907905  1
  Ho  Ho6  1  0.909084  0.978803  0.714984  1
  Co  Co7  1  0.000226  0.000019  0.000515  1
  I  I8  1  0.462599  0.160426  0.385785  1
  I  I9  1  0.385802  0.462728  0.160328  1
  I  I10  1  0.160368  0.385724  0.462595  1
  I  I11  1  0.538382  0.839884  0.614036  1
  I  I12  1  0.614150  0.537250  0.839509  1
  I  I13  1  0.839504  0.614967  0.537261  1
  I  I14  1  0.323201  0.775899  0.929512  1
  I  I15  1  0.929337  0.322207  0.775168  1
  I  I16  1  0.776201  0.929735  0.323818  1
  I  I17  1  0.676738  0.224111  0.070428  1
  I  I18  1  0.070452  0.676959  0.224003  1
  I  I19  1  0.222849  0.070089  0.676489  1
