# generated using pymatgen
data_YErSn(PRh2)6
_symmetry_space_group_name_H-M   'P 1'
_cell_length_a   9.76894300
_cell_length_b   9.76894205
_cell_length_c   3.87125100
_cell_angle_alpha   90.00000000
_cell_angle_beta   90.00000000
_cell_angle_gamma   119.99999982
_symmetry_Int_Tables_number   1
_chemical_formula_structural   YErSn(PRh2)6
_chemical_formula_sum   'Y1 Er1 Sn1 P6 Rh12'
_cell_volume   319.94628517
_cell_formula_units_Z   1
loop_
 _symmetry_equiv_pos_site_id
 _symmetry_equiv_pos_as_xyz
  1  'x, y, z'
loop_
 _atom_site_type_symbol
 _atom_site_label
 _atom_site_symmetry_multiplicity
 _atom_site_fract_x
 _atom_site_fract_y
 _atom_site_fract_z
 _atom_site_occupancy
  Y  Y0  1  0.333333  0.666667  0.751601  1
  Er  Er1  1  0.666667  0.333333  0.248373  1
  Sn  Sn2  1  0.000000  0.000000  0.499871  1
  P  P3  1  0.406245  0.287561  0.746665  1
  P  P4  1  0.712439  0.118685  0.746665  1
  P  P5  1  0.881315  0.593755  0.746665  1
  P  P6  1  0.594242  0.712624  0.253260  1
  P  P7  1  0.287376  0.881618  0.253260  1
  P  P8  1  0.118382  0.405758  0.253260  1
  Rh  Rh9  1  0.454543  0.068885  0.747654  1
  Rh  Rh10  1  0.931115  0.385656  0.747654  1
  Rh  Rh11  1  0.614344  0.545457  0.747654  1
  Rh  Rh12  1  0.546566  0.932675  0.252423  1
  Rh  Rh13  1  0.067325  0.613892  0.252423  1
  Rh  Rh14  1  0.386108  0.453434  0.252423  1
  Rh  Rh15  1  0.161828  0.287708  0.758531  1
  Rh  Rh16  1  0.712292  0.874120  0.758531  1
  Rh  Rh17  1  0.125880  0.838172  0.758531  1
  Rh  Rh18  1  0.837989  0.711905  0.241518  1
  Rh  Rh19  1  0.288095  0.126084  0.241518  1
  Rh  Rh20  1  0.873916  0.162011  0.241518  1
