# generated using pymatgen
data_Tb8Lu2Os3Rh
_symmetry_space_group_name_H-M   'P 1'
_cell_length_a   6.35874978
_cell_length_b   7.26493250
_cell_length_c   8.50557300
_cell_angle_alpha   96.70597926
_cell_angle_beta   111.99504775
_cell_angle_gamma   90.09290969
_symmetry_Int_Tables_number   1
_chemical_formula_structural   Tb8Lu2Os3Rh
_chemical_formula_sum   'Tb8 Lu2 Os3 Rh1'
_cell_volume   361.39242106
_cell_formula_units_Z   1
loop_
 _symmetry_equiv_pos_site_id
 _symmetry_equiv_pos_as_xyz
  1  'x, y, z'
loop_
 _atom_site_type_symbol
 _atom_site_label
 _atom_site_symmetry_multiplicity
 _atom_site_fract_x
 _atom_site_fract_y
 _atom_site_fract_z
 _atom_site_occupancy
  Tb  Tb0  1  0.525956  0.082412  0.817190  1
  Tb  Tb1  1  0.474833  0.918976  0.181793  1
  Tb  Tb2  1  0.709601  0.415826  0.181797  1
  Tb  Tb3  1  0.290209  0.582560  0.812613  1
  Tb  Tb4  1  0.294942  0.311475  0.434757  1
  Tb  Tb5  1  0.709543  0.687836  0.570249  1
  Tb  Tb6  1  0.859965  0.186928  0.566870  1
  Tb  Tb7  1  0.137261  0.815415  0.435381  1
  Lu  Lu8  1  0.073019  0.247609  0.998021  1
  Lu  Lu9  1  0.923427  0.751061  0.999148  1
  Os  Os10  1  0.681681  0.426688  0.783864  1
  Os  Os11  1  0.103077  0.925100  0.784904  1
  Os  Os12  1  0.899577  0.074243  0.216442  1
  Rh  Rh13  1  0.316911  0.573871  0.216974  1
