# generated using pymatgen
data_Dy20AgIr7Ru4
_symmetry_space_group_name_H-M   'P 1'
_cell_length_a   10.87378809
_cell_length_b   10.87378809
_cell_length_c   6.46734517
_cell_angle_alpha   90.04860536
_cell_angle_beta   90.04860536
_cell_angle_gamma   89.81530551
_symmetry_Int_Tables_number   1
_chemical_formula_structural   Dy20AgIr7Ru4
_chemical_formula_sum   'Dy20 Ag1 Ir7 Ru4'
_cell_volume   764.68963381
_cell_formula_units_Z   1
loop_
 _symmetry_equiv_pos_site_id
 _symmetry_equiv_pos_as_xyz
  1  'x, y, z'
loop_
 _atom_site_type_symbol
 _atom_site_label
 _atom_site_symmetry_multiplicity
 _atom_site_fract_x
 _atom_site_fract_y
 _atom_site_fract_z
 _atom_site_occupancy
  Dy  Dy0  1  0.291038  0.085099  0.378369  1
  Dy  Dy1  1  0.295166  0.912587  0.878443  1
  Dy  Dy2  1  0.700314  0.082337  0.860060  1
  Dy  Dy3  1  0.702924  0.904246  0.382748  1
  Dy  Dy4  1  0.586629  0.792133  0.880936  1
  Dy  Dy5  1  0.574853  0.207089  0.379563  1
  Dy  Dy6  1  0.411261  0.792549  0.379609  1
  Dy  Dy7  1  0.411527  0.205965  0.880963  1
  Dy  Dy8  1  0.207867  0.413371  0.619064  1
  Dy  Dy9  1  0.207451  0.588739  0.120391  1
  Dy  Dy10  1  0.792911  0.425147  0.120437  1
  Dy  Dy11  1  0.794035  0.588473  0.619037  1
  Dy  Dy12  1  0.914901  0.708962  0.121631  1
  Dy  Dy13  1  0.917663  0.299686  0.639940  1
  Dy  Dy14  1  0.087413  0.704834  0.621557  1
  Dy  Dy15  1  0.095754  0.297076  0.117252  1
  Dy  Dy16  1  0.003706  0.994930  0.503238  1
  Dy  Dy17  1  0.005070  0.996294  0.996762  1
  Dy  Dy18  1  0.498921  0.499671  0.998778  1
  Dy  Dy19  1  0.500329  0.501079  0.501222  1
  Ag  Ag20  1  0.842467  0.157533  0.250000  1
  Ir  Ir21  1  0.849204  0.849252  0.749969  1
  Ir  Ir22  1  0.150748  0.150796  0.750031  1
  Ir  Ir23  1  0.153742  0.846258  0.250000  1
  Ir  Ir24  1  0.653953  0.346047  0.750000  1
  Ir  Ir25  1  0.652052  0.651289  0.249219  1
  Ir  Ir26  1  0.348711  0.347948  0.250781  1
  Ir  Ir27  1  0.347264  0.652736  0.750000  1
  Ru  Ru28  1  0.501170  0.999437  0.125695  1
  Ru  Ru29  1  0.499657  0.999262  0.622449  1
  Ru  Ru30  1  0.000738  0.500343  0.877551  1
  Ru  Ru31  1  0.000563  0.498830  0.374305  1
