# generated using pymatgen
data_Nd2(AlAu3)3
_symmetry_space_group_name_H-M   'P 1'
_cell_length_a   8.01265144
_cell_length_b   8.01265314
_cell_length_c   10.94706356
_cell_angle_alpha   68.52318404
_cell_angle_beta   68.52317825
_cell_angle_gamma   59.72506580
_symmetry_Int_Tables_number   1
_chemical_formula_structural   Nd2(AlAu3)3
_chemical_formula_sum   'Nd4 Al6 Au18'
_cell_volume   550.23014940
_cell_formula_units_Z   2
loop_
 _symmetry_equiv_pos_site_id
 _symmetry_equiv_pos_as_xyz
  1  'x, y, z'
loop_
 _atom_site_type_symbol
 _atom_site_label
 _atom_site_symmetry_multiplicity
 _atom_site_fract_x
 _atom_site_fract_y
 _atom_site_fract_z
 _atom_site_occupancy
  Nd  Nd0  1  0.413263  0.249765  0.748233  1
  Nd  Nd1  1  0.586737  0.750235  0.251767  1
  Nd  Nd2  1  0.750235  0.586737  0.751767  1
  Nd  Nd3  1  0.249765  0.413263  0.248233  1
  Al  Al4  1  0.650008  0.176627  0.998060  1
  Al  Al5  1  0.823373  0.349992  0.501940  1
  Al  Al6  1  0.349992  0.823373  0.001940  1
  Al  Al7  1  0.000000  0.500000  0.000000  1
  Al  Al8  1  0.176627  0.650008  0.498060  1
  Al  Al9  1  0.500000  0.000000  0.500000  1
  Au  Au10  1  0.477135  0.644127  0.570492  1
  Au  Au11  1  0.355873  0.522865  0.929508  1
  Au  Au12  1  0.855599  0.691528  0.434702  1
  Au  Au13  1  0.855331  0.144669  0.750000  1
  Au  Au14  1  0.522865  0.355873  0.429508  1
  Au  Au15  1  0.691528  0.855599  0.934702  1
  Au  Au16  1  0.918417  0.300383  0.255593  1
  Au  Au17  1  0.979833  0.804477  0.070759  1
  Au  Au18  1  0.300383  0.918417  0.755593  1
  Au  Au19  1  0.144401  0.308472  0.565298  1
  Au  Au20  1  0.804477  0.979833  0.570759  1
  Au  Au21  1  0.308472  0.144401  0.065298  1
  Au  Au22  1  0.144669  0.855331  0.250000  1
  Au  Au23  1  0.020167  0.195523  0.929241  1
  Au  Au24  1  0.081583  0.699617  0.744407  1
  Au  Au25  1  0.644127  0.477135  0.070492  1
  Au  Au26  1  0.195523  0.020167  0.429241  1
  Au  Au27  1  0.699617  0.081583  0.244407  1
