# generated using pymatgen
data_Tm3Th2Ru3
_symmetry_space_group_name_H-M   'P 1'
_cell_length_a   8.16729467
_cell_length_b   8.16729446
_cell_length_c   6.36496700
_cell_angle_alpha   90.00000000
_cell_angle_beta   90.00000000
_cell_angle_gamma   119.53008803
_symmetry_Int_Tables_number   1
_chemical_formula_structural   Tm3Th2Ru3
_chemical_formula_sum   'Tm6 Th4 Ru6'
_cell_volume   369.41987758
_cell_formula_units_Z   2
loop_
 _symmetry_equiv_pos_site_id
 _symmetry_equiv_pos_as_xyz
  1  'x, y, z'
loop_
 _atom_site_type_symbol
 _atom_site_label
 _atom_site_symmetry_multiplicity
 _atom_site_fract_x
 _atom_site_fract_y
 _atom_site_fract_z
 _atom_site_occupancy
  Tm  Tm0  1  0.669753  0.334872  0.503400  1
  Tm  Tm1  1  0.334872  0.669753  0.503400  1
  Tm  Tm2  1  0.334872  0.669753  0.996600  1
  Tm  Tm3  1  0.669753  0.334872  0.996600  1
  Tm  Tm4  1  0.745315  0.996840  0.750000  1
  Tm  Tm5  1  0.996840  0.745315  0.750000  1
  Th  Th6  1  0.752123  0.752123  0.250000  1
  Th  Th7  1  0.248989  0.998133  0.250000  1
  Th  Th8  1  0.998133  0.248989  0.250000  1
  Th  Th9  1  0.246162  0.246162  0.750000  1
  Ru  Ru10  1  0.380829  0.380829  0.250000  1
  Ru  Ru11  1  0.618498  0.002637  0.250000  1
  Ru  Ru12  1  0.002637  0.618498  0.250000  1
  Ru  Ru13  1  0.597612  0.597612  0.750000  1
  Ru  Ru14  1  0.395094  0.008517  0.750000  1
  Ru  Ru15  1  0.008517  0.395094  0.750000  1
