# generated using pymatgen
data_Ho2Sc2IrPt
_symmetry_space_group_name_H-M   'P 1'
_cell_length_a   4.42066500
_cell_length_b   7.02560300
_cell_length_c   8.56016500
_cell_angle_alpha   90.00000000
_cell_angle_beta   90.00000000
_cell_angle_gamma   90.00000000
_symmetry_Int_Tables_number   1
_chemical_formula_structural   Ho2Sc2IrPt
_chemical_formula_sum   'Ho4 Sc4 Ir2 Pt2'
_cell_volume   265.86021171
_cell_formula_units_Z   2
loop_
 _symmetry_equiv_pos_site_id
 _symmetry_equiv_pos_as_xyz
  1  'x, y, z'
loop_
 _atom_site_type_symbol
 _atom_site_label
 _atom_site_symmetry_multiplicity
 _atom_site_fract_x
 _atom_site_fract_y
 _atom_site_fract_z
 _atom_site_occupancy
  Ho  Ho0  1  0.250000  0.017342  0.672088  1
  Ho  Ho1  1  0.250000  0.517342  0.827912  1
  Ho  Ho2  1  0.750000  0.985856  0.326678  1
  Ho  Ho3  1  0.750000  0.485856  0.173322  1
  Sc  Sc4  1  0.250000  0.137075  0.075137  1
  Sc  Sc5  1  0.250000  0.637075  0.424863  1
  Sc  Sc6  1  0.750000  0.859990  0.932545  1
  Sc  Sc7  1  0.750000  0.359990  0.567455  1
  Ir  Ir8  1  0.250000  0.253514  0.402266  1
  Ir  Ir9  1  0.250000  0.753514  0.097734  1
  Pt  Pt10  1  0.750000  0.746224  0.601677  1
  Pt  Pt11  1  0.750000  0.246224  0.898323  1
