# generated using pymatgen
data_Ca8Yb7Ho5Pt16
_symmetry_space_group_name_H-M   'P 1'
_cell_length_a   7.50502140
_cell_length_b   7.63686809
_cell_length_c   14.54745000
_cell_angle_alpha   90.03553195
_cell_angle_beta   90.01858958
_cell_angle_gamma   90.04745694
_symmetry_Int_Tables_number   1
_chemical_formula_structural   Ca8Yb7Ho5Pt16
_chemical_formula_sum   'Ca8 Yb7 Ho5 Pt16'
_cell_volume   833.78454650
_cell_formula_units_Z   1
loop_
 _symmetry_equiv_pos_site_id
 _symmetry_equiv_pos_as_xyz
  1  'x, y, z'
loop_
 _atom_site_type_symbol
 _atom_site_label
 _atom_site_symmetry_multiplicity
 _atom_site_fract_x
 _atom_site_fract_y
 _atom_site_fract_z
 _atom_site_occupancy
  Ca  Ca0  1  0.498644  0.325478  0.902641  1
  Ca  Ca1  1  0.999041  0.175526  0.595781  1
  Ca  Ca2  1  0.500102  0.676178  0.405164  1
  Ca  Ca3  1  0.002539  0.822703  0.095872  1
  Ca  Ca4  1  0.501492  0.676780  0.096802  1
  Ca  Ca5  1  0.002040  0.821547  0.404245  1
  Ca  Ca6  1  0.498401  0.322123  0.597003  1
  Ca  Ca7  1  0.998183  0.178213  0.902212  1
  Yb  Yb8  1  0.163366  0.333554  0.378517  1
  Yb  Yb9  1  0.337462  0.832829  0.621832  1
  Yb  Yb10  1  0.838141  0.667033  0.878190  1
  Yb  Yb11  1  0.177932  0.491331  0.749385  1
  Yb  Yb12  1  0.678486  0.009297  0.749647  1
  Yb  Yb13  1  0.823330  0.511572  0.251047  1
  Yb  Yb14  1  0.319481  0.989333  0.251030  1
  Ho  Ho15  1  0.337220  0.835831  0.877167  1
  Ho  Ho16  1  0.836912  0.665277  0.622918  1
  Ho  Ho17  1  0.661940  0.165411  0.376980  1
  Ho  Ho18  1  0.162089  0.334450  0.122685  1
  Ho  Ho19  1  0.663154  0.166897  0.122470  1
  Pt  Pt20  1  0.328619  0.040947  0.042671  1
  Pt  Pt21  1  0.825271  0.460170  0.458634  1
  Pt  Pt22  1  0.674192  0.960041  0.541313  1
  Pt  Pt23  1  0.172308  0.540777  0.958981  1
  Pt  Pt24  1  0.665625  0.966470  0.957901  1
  Pt  Pt25  1  0.161603  0.535093  0.543463  1
  Pt  Pt26  1  0.337861  0.035154  0.456218  1
  Pt  Pt27  1  0.835072  0.458554  0.043268  1
  Pt  Pt28  1  0.542428  0.629845  0.752588  1
  Pt  Pt29  1  0.042579  0.871383  0.748449  1
  Pt  Pt30  1  0.460158  0.369976  0.248395  1
  Pt  Pt31  1  0.956177  0.129628  0.247683  1
  Pt  Pt32  1  0.301580  0.128954  0.752333  1
  Pt  Pt33  1  0.801340  0.371799  0.747315  1
  Pt  Pt34  1  0.695259  0.872680  0.250758  1
  Pt  Pt35  1  0.199971  0.627166  0.248441  1
