# generated using pymatgen
data_CaVCu4P4O17
_symmetry_space_group_name_H-M   'P 1'
_cell_length_a   9.55387300
_cell_length_b   9.55387300
_cell_length_c   7.07493000
_cell_angle_alpha   90.00000000
_cell_angle_beta   90.00000000
_cell_angle_gamma   90.00000000
_symmetry_Int_Tables_number   1
_chemical_formula_structural   CaVCu4P4O17
_chemical_formula_sum   'Ca2 V2 Cu8 P8 O34'
_cell_volume   645.77477244
_cell_formula_units_Z   2
loop_
 _symmetry_equiv_pos_site_id
 _symmetry_equiv_pos_as_xyz
  1  'x, y, z'
loop_
 _atom_site_type_symbol
 _atom_site_label
 _atom_site_symmetry_multiplicity
 _atom_site_fract_x
 _atom_site_fract_y
 _atom_site_fract_z
 _atom_site_occupancy
  Ca  Ca0  1  0.000000  0.000000  0.000000  1
  Ca  Ca1  1  0.500000  0.500000  0.000000  1
  V  V2  1  0.000000  0.500000  0.012631  1
  V  V3  1  0.500000  0.000000  0.987369  1
  Cu  Cu4  1  0.735835  0.025108  0.396715  1
  Cu  Cu5  1  0.474892  0.235835  0.396715  1
  Cu  Cu6  1  0.525109  0.764165  0.396715  1
  Cu  Cu7  1  0.264166  0.974892  0.396715  1
  Cu  Cu8  1  0.974892  0.264166  0.603285  1
  Cu  Cu9  1  0.235835  0.474892  0.603285  1
  Cu  Cu10  1  0.764165  0.525109  0.603285  1
  Cu  Cu11  1  0.025108  0.735835  0.603285  1
  P  P12  1  0.176575  0.268325  0.254053  1
  P  P13  1  0.768324  0.323424  0.254053  1
  P  P14  1  0.231675  0.676575  0.254053  1
  P  P15  1  0.823424  0.731676  0.254053  1
  P  P16  1  0.268325  0.176575  0.745947  1
  P  P17  1  0.676575  0.231675  0.745947  1
  P  P18  1  0.323424  0.768324  0.745947  1
  P  P19  1  0.731676  0.823424  0.745947  1
  O  O20  1  0.083448  0.322146  0.092866  1
  O  O21  1  0.822147  0.416551  0.092866  1
  O  O22  1  0.177853  0.583448  0.092866  1
  O  O23  1  0.916552  0.677853  0.092866  1
  O  O24  1  0.500000  0.000000  0.225137  1
  O  O25  1  0.808875  0.167837  0.227733  1
  O  O26  1  0.332163  0.308876  0.227733  1
  O  O27  1  0.667838  0.691124  0.227733  1
  O  O28  1  0.191124  0.832162  0.227733  1
  O  O29  1  0.146928  0.107688  0.256599  1
  O  O30  1  0.607688  0.353073  0.256599  1
  O  O31  1  0.392313  0.646928  0.256599  1
  O  O32  1  0.853073  0.892313  0.256599  1
  O  O33  1  0.128165  0.335900  0.447717  1
  O  O34  1  0.835900  0.371835  0.447717  1
  O  O35  1  0.164100  0.628165  0.447717  1
  O  O36  1  0.871836  0.664101  0.447717  1
  O  O37  1  0.335900  0.128165  0.552283  1
  O  O38  1  0.628165  0.164100  0.552283  1
  O  O39  1  0.371835  0.835900  0.552283  1
  O  O40  1  0.664101  0.871836  0.552283  1
  O  O41  1  0.107688  0.146928  0.743401  1
  O  O42  1  0.646928  0.392313  0.743401  1
  O  O43  1  0.353073  0.607688  0.743401  1
  O  O44  1  0.892313  0.853073  0.743401  1
  O  O45  1  0.832162  0.191124  0.772267  1
  O  O46  1  0.308876  0.332163  0.772267  1
  O  O47  1  0.691124  0.667838  0.772267  1
  O  O48  1  0.167837  0.808875  0.772267  1
  O  O49  1  0.000000  0.500000  0.774863  1
  O  O50  1  0.322146  0.083448  0.907134  1
  O  O51  1  0.583448  0.177853  0.907134  1
  O  O52  1  0.416551  0.822147  0.907134  1
  O  O53  1  0.677853  0.916552  0.907134  1
