# generated using pymatgen
data_Gd2ReTcH18
_symmetry_space_group_name_H-M   'P 1'
_cell_length_a   4.84560381
_cell_length_b   4.84560314
_cell_length_c   8.73528100
_cell_angle_alpha   90.00000000
_cell_angle_beta   90.00000000
_cell_angle_gamma   120.05457612
_symmetry_Int_Tables_number   1
_chemical_formula_structural   Gd2ReTcH18
_chemical_formula_sum   'Gd2 Re1 Tc1 H18'
_cell_volume   177.52689412
_cell_formula_units_Z   1
loop_
 _symmetry_equiv_pos_site_id
 _symmetry_equiv_pos_as_xyz
  1  'x, y, z'
loop_
 _atom_site_type_symbol
 _atom_site_label
 _atom_site_symmetry_multiplicity
 _atom_site_fract_x
 _atom_site_fract_y
 _atom_site_fract_z
 _atom_site_occupancy
  Gd  Gd0  1  0.003598  0.996402  0.024491  1
  Gd  Gd1  1  0.003598  0.996402  0.475509  1
  Re  Re2  1  0.661489  0.338511  0.750000  1
  Tc  Tc3  1  0.337506  0.662494  0.250000  1
  H  H4  1  0.483444  0.516556  0.111893  1
  H  H5  1  0.517899  0.482101  0.889747  1
  H  H6  1  0.483444  0.516556  0.388107  1
  H  H7  1  0.517899  0.482101  0.610253  1
  H  H8  1  0.483687  0.953291  0.389432  1
  H  H9  1  0.951006  0.483069  0.610669  1
  H  H10  1  0.483687  0.953291  0.110568  1
  H  H11  1  0.951006  0.483069  0.889331  1
  H  H12  1  0.516931  0.048994  0.610669  1
  H  H13  1  0.046709  0.516313  0.389432  1
  H  H14  1  0.516931  0.048994  0.889331  1
  H  H15  1  0.046709  0.516313  0.110568  1
  H  H16  1  0.756096  0.871505  0.250000  1
  H  H17  1  0.858648  0.737664  0.750000  1
  H  H18  1  0.262336  0.141352  0.750000  1
  H  H19  1  0.128495  0.243904  0.250000  1
  H  H20  1  0.128055  0.871945  0.250000  1
  H  H21  1  0.860828  0.139172  0.750000  1
