# generated using pymatgen
data_DyTcH5
_symmetry_space_group_name_H-M   'P 1'
_cell_length_a   4.61277700
_cell_length_b   4.38270200
_cell_length_c   11.62114400
_cell_angle_alpha   90.00000000
_cell_angle_beta   90.00000000
_cell_angle_gamma   90.00000000
_symmetry_Int_Tables_number   1
_chemical_formula_structural   DyTcH5
_chemical_formula_sum   'Dy4 Tc4 H20'
_cell_volume   234.93800914
_cell_formula_units_Z   4
loop_
 _symmetry_equiv_pos_site_id
 _symmetry_equiv_pos_as_xyz
  1  'x, y, z'
loop_
 _atom_site_type_symbol
 _atom_site_label
 _atom_site_symmetry_multiplicity
 _atom_site_fract_x
 _atom_site_fract_y
 _atom_site_fract_z
 _atom_site_occupancy
  Dy  Dy0  1  0.249895  0.248084  0.645904  1
  Dy  Dy1  1  0.749895  0.251916  0.354096  1
  Dy  Dy2  1  0.250105  0.751916  0.145904  1
  Dy  Dy3  1  0.750105  0.748084  0.854096  1
  Tc  Tc4  1  0.249270  0.210791  0.913478  1
  Tc  Tc5  1  0.749270  0.289209  0.086522  1
  Tc  Tc6  1  0.250730  0.789209  0.413478  1
  Tc  Tc7  1  0.750730  0.710791  0.586522  1
  H  H8  1  0.484148  0.509547  0.497842  1
  H  H9  1  0.984148  0.990453  0.502158  1
  H  H10  1  0.015852  0.490453  0.997842  1
  H  H11  1  0.515852  0.009547  0.002158  1
  H  H12  1  0.250204  0.888829  0.833144  1
  H  H13  1  0.750204  0.611171  0.166856  1
  H  H14  1  0.249796  0.111171  0.333144  1
  H  H15  1  0.749796  0.388829  0.666856  1
  H  H16  1  0.982361  0.285408  0.814516  1
  H  H17  1  0.482361  0.214592  0.185484  1
  H  H18  1  0.517639  0.714592  0.314516  1
  H  H19  1  0.017639  0.785408  0.685484  1
  H  H20  1  0.515069  0.288067  0.814366  1
  H  H21  1  0.015069  0.211933  0.185634  1
  H  H22  1  0.984931  0.711933  0.314366  1
  H  H23  1  0.484931  0.788067  0.685634  1
  H  H24  1  0.983105  0.009307  0.002335  1
  H  H25  1  0.483105  0.490693  0.997665  1
  H  H26  1  0.516895  0.990693  0.502335  1
  H  H27  1  0.016895  0.509307  0.497665  1
