# generated using pymatgen
data_DyHo7(OsC2)4
_symmetry_space_group_name_H-M   'P 1'
_cell_length_a   5.11272500
_cell_length_b   6.42737141
_cell_length_c   9.77752963
_cell_angle_alpha   89.95884327
_cell_angle_beta   90.00000000
_cell_angle_gamma   90.00000000
_symmetry_Int_Tables_number   1
_chemical_formula_structural   DyHo7(OsC2)4
_chemical_formula_sum   'Dy1 Ho7 Os4 C8'
_cell_volume   321.30305836
_cell_formula_units_Z   1
loop_
 _symmetry_equiv_pos_site_id
 _symmetry_equiv_pos_as_xyz
  1  'x, y, z'
loop_
 _atom_site_type_symbol
 _atom_site_label
 _atom_site_symmetry_multiplicity
 _atom_site_fract_x
 _atom_site_fract_y
 _atom_site_fract_z
 _atom_site_occupancy
  Dy  Dy0  1  0.250000  0.024866  0.280364  1
  Ho  Ho1  1  0.250000  0.684762  0.552482  1
  Ho  Ho2  1  0.750000  0.315502  0.447733  1
  Ho  Ho3  1  0.750000  0.815202  0.052300  1
  Ho  Ho4  1  0.250000  0.184545  0.947528  1
  Ho  Ho5  1  0.250000  0.524671  0.220139  1
  Ho  Ho6  1  0.750000  0.475191  0.779847  1
  Ho  Ho7  1  0.750000  0.975225  0.720124  1
  Os  Os8  1  0.250000  0.726095  0.865376  1
  Os  Os9  1  0.750000  0.273829  0.134314  1
  Os  Os10  1  0.750000  0.773456  0.365651  1
  Os  Os11  1  0.250000  0.226436  0.634441  1
  C  C12  1  0.250000  0.462169  0.757964  1
  C  C13  1  0.750000  0.537671  0.242069  1
  C  C14  1  0.750000  0.037601  0.257749  1
  C  C15  1  0.250000  0.962278  0.742022  1
  C  C16  1  0.250000  0.824348  0.053583  1
  C  C17  1  0.750000  0.175027  0.946004  1
  C  C18  1  0.750000  0.674912  0.553972  1
  C  C19  1  0.250000  0.326212  0.446337  1
