# generated using pymatgen
data_MgZn4(BRh2)4
_symmetry_space_group_name_H-M   'P 1'
_cell_length_a   9.54595856
_cell_length_b   9.54595849
_cell_length_c   2.88718500
_cell_angle_alpha   90.00000000
_cell_angle_beta   90.00000000
_cell_angle_gamma   126.59314796
_symmetry_Int_Tables_number   1
_chemical_formula_structural   MgZn4(BRh2)4
_chemical_formula_sum   'Mg1 Zn4 B4 Rh8'
_cell_volume   211.23655863
_cell_formula_units_Z   1
loop_
 _symmetry_equiv_pos_site_id
 _symmetry_equiv_pos_as_xyz
  1  'x, y, z'
loop_
 _atom_site_type_symbol
 _atom_site_label
 _atom_site_symmetry_multiplicity
 _atom_site_fract_x
 _atom_site_fract_y
 _atom_site_fract_z
 _atom_site_occupancy
  Mg  Mg0  1  0.205857  0.794143  0.500000  1
  Zn  Zn1  1  0.809001  0.190999  0.500000  1
  Zn  Zn2  1  0.355423  0.356117  0.500000  1
  Zn  Zn3  1  0.000722  0.999278  0.500000  1
  Zn  Zn4  1  0.643883  0.644577  0.500000  1
  B  B5  1  0.463398  0.156197  0.500000  1
  B  B6  1  0.150775  0.465290  0.500000  1
  B  B7  1  0.534710  0.849225  0.500000  1
  B  B8  1  0.843803  0.536602  0.500000  1
  Rh  Rh9  1  0.621995  0.378005  0.000000  1
  Rh  Rh10  1  0.369241  0.630759  0.000000  1
  Rh  Rh11  1  0.916470  0.731792  0.000000  1
  Rh  Rh12  1  0.086785  0.269473  0.000000  1
  Rh  Rh13  1  0.514262  0.015061  0.000000  1
  Rh  Rh14  1  0.268208  0.083530  0.000000  1
  Rh  Rh15  1  0.730527  0.913215  0.000000  1
  Rh  Rh16  1  0.984939  0.485738  0.000000  1
