# generated using pymatgen
data_Tb2Ni9P7Pd3
_symmetry_space_group_name_H-M   'P 1'
_cell_length_a   9.19107300
_cell_length_b   9.19107264
_cell_length_c   3.77432800
_cell_angle_alpha   90.00000000
_cell_angle_beta   90.00000000
_cell_angle_gamma   120.00000490
_symmetry_Int_Tables_number   1
_chemical_formula_structural   Tb2Ni9P7Pd3
_chemical_formula_sum   'Tb2 Ni9 P7 Pd3'
_cell_volume   276.12305077
_cell_formula_units_Z   1
loop_
 _symmetry_equiv_pos_site_id
 _symmetry_equiv_pos_as_xyz
  1  'x, y, z'
loop_
 _atom_site_type_symbol
 _atom_site_label
 _atom_site_symmetry_multiplicity
 _atom_site_fract_x
 _atom_site_fract_y
 _atom_site_fract_z
 _atom_site_occupancy
  Tb  Tb0  1  0.333333  0.666667  0.000000  1
  Tb  Tb1  1  0.666667  0.333333  0.500000  1
  Ni  Ni2  1  0.721603  0.879507  0.000000  1
  Ni  Ni3  1  0.157904  0.278397  0.000000  1
  Ni  Ni4  1  0.120493  0.842096  0.000000  1
  Ni  Ni5  1  0.631998  0.569559  0.000000  1
  Ni  Ni6  1  0.937561  0.368002  0.000000  1
  Ni  Ni7  1  0.430441  0.062439  0.000000  1
  Ni  Ni8  1  0.560254  0.948091  0.500000  1
  Ni  Ni9  1  0.387838  0.439746  0.500000  1
  Ni  Ni10  1  0.051909  0.612162  0.500000  1
  P  P11  1  0.588071  0.709048  0.500000  1
  P  P12  1  0.120978  0.411929  0.500000  1
  P  P13  1  0.290952  0.879022  0.500000  1
  P  P14  1  0.000000  0.000000  0.000000  1
  P  P15  1  0.891413  0.583874  0.000000  1
  P  P16  1  0.692461  0.108587  0.000000  1
  P  P17  1  0.416126  0.307539  0.000000  1
  Pd  Pd18  1  0.875124  0.775557  0.500000  1
  Pd  Pd19  1  0.900433  0.124876  0.500000  1
  Pd  Pd20  1  0.224443  0.099567  0.500000  1
