# generated using pymatgen
data_Tb8Dy2IrRh5
_symmetry_space_group_name_H-M   'P 1'
_cell_length_a   10.93692500
_cell_length_b   10.93719500
_cell_length_c   6.38113000
_cell_angle_alpha   90.00006735
_cell_angle_beta   89.99972583
_cell_angle_gamma   90.00015716
_symmetry_Int_Tables_number   1
_chemical_formula_structural   Tb8Dy2IrRh5
_chemical_formula_sum   'Tb16 Dy4 Ir2 Rh10'
_cell_volume   763.30618578
_cell_formula_units_Z   2
loop_
 _symmetry_equiv_pos_site_id
 _symmetry_equiv_pos_as_xyz
  1  'x, y, z'
loop_
 _atom_site_type_symbol
 _atom_site_label
 _atom_site_symmetry_multiplicity
 _atom_site_fract_x
 _atom_site_fract_y
 _atom_site_fract_z
 _atom_site_occupancy
  Tb  Tb0  1  0.291034  0.090264  0.379124  1
  Tb  Tb1  1  0.291033  0.909735  0.879123  1
  Tb  Tb2  1  0.708952  0.088709  0.878919  1
  Tb  Tb3  1  0.708953  0.911293  0.378918  1
  Tb  Tb4  1  0.587452  0.790310  0.879067  1
  Tb  Tb5  1  0.587453  0.209689  0.379068  1
  Tb  Tb6  1  0.410581  0.790494  0.379903  1
  Tb  Tb7  1  0.410581  0.209505  0.879900  1
  Tb  Tb8  1  0.210292  0.412106  0.620224  1
  Tb  Tb9  1  0.210292  0.587894  0.120226  1
  Tb  Tb10  1  0.791128  0.410993  0.120751  1
  Tb  Tb11  1  0.791127  0.589006  0.620747  1
  Tb  Tb12  1  0.911335  0.709178  0.120913  1
  Tb  Tb13  1  0.911334  0.290822  0.620909  1
  Tb  Tb14  1  0.090398  0.708715  0.621125  1
  Tb  Tb15  1  0.090396  0.291285  0.121128  1
  Dy  Dy16  1  0.999903  0.999738  0.500024  1
  Dy  Dy17  1  0.999903  0.000263  0.000025  1
  Dy  Dy18  1  0.499692  0.499722  0.999943  1
  Dy  Dy19  1  0.499692  0.500278  0.499944  1
  Ir  Ir20  1  0.346341  0.345721  0.249944  1
  Ir  Ir21  1  0.346341  0.654280  0.749943  1
  Rh  Rh22  1  0.846106  0.153536  0.250195  1
  Rh  Rh23  1  0.846106  0.846471  0.750192  1
  Rh  Rh24  1  0.152915  0.153268  0.749753  1
  Rh  Rh25  1  0.152915  0.846733  0.249753  1
  Rh  Rh26  1  0.654462  0.346124  0.750076  1
  Rh  Rh27  1  0.654462  0.653872  0.250078  1
  Rh  Rh28  1  0.500564  0.999755  0.124678  1
  Rh  Rh29  1  0.500562  0.000247  0.624679  1
  Rh  Rh30  1  0.998849  0.499926  0.875367  1
  Rh  Rh31  1  0.998849  0.500070  0.375363  1
