# generated using pymatgen
data_Lu6Al24IrOs7
_symmetry_space_group_name_H-M   'P 1'
_cell_length_a   8.75776950
_cell_length_b   8.78276534
_cell_length_c   9.54368841
_cell_angle_alpha   90.00000035
_cell_angle_beta   89.78715464
_cell_angle_gamma   120.09445028
_symmetry_Int_Tables_number   1
_chemical_formula_structural   Lu6Al24IrOs7
_chemical_formula_sum   'Lu6 Al24 Ir1 Os7'
_cell_volume   635.11672030
_cell_formula_units_Z   1
loop_
 _symmetry_equiv_pos_site_id
 _symmetry_equiv_pos_as_xyz
  1  'x, y, z'
loop_
 _atom_site_type_symbol
 _atom_site_label
 _atom_site_symmetry_multiplicity
 _atom_site_fract_x
 _atom_site_fract_y
 _atom_site_fract_z
 _atom_site_occupancy
  Lu  Lu0  1  0.197190  0.389496  0.251710  1
  Lu  Lu1  1  0.802810  0.610504  0.748290  1
  Lu  Lu2  1  0.609098  0.804550  0.250157  1
  Lu  Lu3  1  0.390902  0.195450  0.749843  1
  Lu  Lu4  1  0.197190  0.807695  0.251710  1
  Lu  Lu5  1  0.802810  0.192305  0.748290  1
  Al  Al6  1  0.334179  0.667090  0.022652  1
  Al  Al7  1  0.665821  0.332910  0.977348  1
  Al  Al8  1  0.666631  0.333315  0.521531  1
  Al  Al9  1  0.333369  0.666685  0.478469  1
  Al  Al10  1  0.162479  0.326485  0.577294  1
  Al  Al11  1  0.837521  0.673515  0.422706  1
  Al  Al12  1  0.672925  0.836462  0.575839  1
  Al  Al13  1  0.836609  0.674172  0.077020  1
  Al  Al14  1  0.327075  0.163538  0.424161  1
  Al  Al15  1  0.163391  0.325828  0.922980  1
  Al  Al16  1  0.162479  0.835995  0.577294  1
  Al  Al17  1  0.326368  0.163185  0.076594  1
  Al  Al18  1  0.837521  0.164005  0.422706  1
  Al  Al19  1  0.673632  0.836815  0.923406  1
  Al  Al20  1  0.836609  0.162436  0.077020  1
  Al  Al21  1  0.163391  0.837564  0.922980  1
  Al  Al22  1  0.563614  0.124308  0.249716  1
  Al  Al23  1  0.436386  0.875692  0.750284  1
  Al  Al24  1  0.877608  0.438805  0.250597  1
  Al  Al25  1  0.122392  0.561195  0.749403  1
  Al  Al26  1  0.563614  0.439307  0.249716  1
  Al  Al27  1  0.436386  0.560693  0.750284  1
  Al  Al28  1  0.000754  0.000377  0.250157  1
  Al  Al29  1  0.999246  0.999623  0.749843  1
  Ir  Ir30  1  0.000000  0.500000  0.000000  1
  Os  Os31  1  0.500000  0.000000  0.000000  1
  Os  Os32  1  0.500000  0.000000  0.500000  1
  Os  Os33  1  0.500000  0.500000  0.000000  1
  Os  Os34  1  0.000000  0.500000  0.500000  1
  Os  Os35  1  0.500000  0.500000  0.500000  1
  Os  Os36  1  0.000000  0.000000  0.000000  1
  Os  Os37  1  0.000000  0.000000  0.500000  1
