# generated using pymatgen
data_Tb16Ho4Ir7Ru5
_symmetry_space_group_name_H-M   'P 1'
_cell_length_a   10.88234382
_cell_length_b   10.88234366
_cell_length_c   6.41503100
_cell_angle_alpha   89.96701348
_cell_angle_beta   89.96701326
_cell_angle_gamma   90.03172998
_symmetry_Int_Tables_number   1
_chemical_formula_structural   Tb16Ho4Ir7Ru5
_chemical_formula_sum   'Tb16 Ho4 Ir7 Ru5'
_cell_volume   759.70227768
_cell_formula_units_Z   1
loop_
 _symmetry_equiv_pos_site_id
 _symmetry_equiv_pos_as_xyz
  1  'x, y, z'
loop_
 _atom_site_type_symbol
 _atom_site_label
 _atom_site_symmetry_multiplicity
 _atom_site_fract_x
 _atom_site_fract_y
 _atom_site_fract_z
 _atom_site_occupancy
  Tb  Tb0  1  0.293146  0.086361  0.378440  1
  Tb  Tb1  1  0.292594  0.913496  0.878521  1
  Tb  Tb2  1  0.707677  0.086778  0.878815  1
  Tb  Tb3  1  0.707355  0.913873  0.377654  1
  Tb  Tb4  1  0.586445  0.793253  0.878464  1
  Tb  Tb5  1  0.587313  0.207020  0.378619  1
  Tb  Tb6  1  0.413485  0.793135  0.378493  1
  Tb  Tb7  1  0.413364  0.206662  0.877843  1
  Tb  Tb8  1  0.206747  0.413555  0.621536  1
  Tb  Tb9  1  0.206865  0.586515  0.121507  1
  Tb  Tb10  1  0.792980  0.412687  0.121381  1
  Tb  Tb11  1  0.793338  0.586636  0.622157  1
  Tb  Tb12  1  0.913639  0.706854  0.121560  1
  Tb  Tb13  1  0.913222  0.292323  0.621185  1
  Tb  Tb14  1  0.086504  0.707406  0.621479  1
  Tb  Tb15  1  0.086127  0.292645  0.122346  1
  Ho  Ho16  1  0.999566  0.000975  0.499484  1
  Ho  Ho17  1  0.999025  0.000434  0.000516  1
  Ho  Ho18  1  0.500164  0.500074  0.000183  1
  Ho  Ho19  1  0.499926  0.499836  0.499817  1
  Ir  Ir20  1  0.847468  0.847131  0.749805  1
  Ir  Ir21  1  0.152869  0.152532  0.750195  1
  Ir  Ir22  1  0.152547  0.847453  0.250000  1
  Ir  Ir23  1  0.651474  0.348526  0.750000  1
  Ir  Ir24  1  0.652413  0.652112  0.249770  1
  Ir  Ir25  1  0.347888  0.347587  0.250230  1
  Ir  Ir26  1  0.347994  0.652006  0.750000  1
  Ru  Ru27  1  0.848057  0.151943  0.250000  1
  Ru  Ru28  1  0.500176  0.000166  0.121490  1
  Ru  Ru29  1  0.499822  0.000023  0.621588  1
  Ru  Ru30  1  0.999977  0.500178  0.878412  1
  Ru  Ru31  1  0.999834  0.499824  0.378510  1
