# generated using pymatgen
data_La3Sm(AuBr6)4
_symmetry_space_group_name_H-M   'P 1'
_cell_length_a   8.38784179
_cell_length_b   10.63468353
_cell_length_c   15.33466877
_cell_angle_alpha   103.20444565
_cell_angle_beta   96.13218106
_cell_angle_gamma   112.41468780
_symmetry_Int_Tables_number   1
_chemical_formula_structural   La3Sm(AuBr6)4
_chemical_formula_sum   'La3 Sm1 Au4 Br24'
_cell_volume   1202.18727237
_cell_formula_units_Z   1
loop_
 _symmetry_equiv_pos_site_id
 _symmetry_equiv_pos_as_xyz
  1  'x, y, z'
loop_
 _atom_site_type_symbol
 _atom_site_label
 _atom_site_symmetry_multiplicity
 _atom_site_fract_x
 _atom_site_fract_y
 _atom_site_fract_z
 _atom_site_occupancy
  La  La0  1  0.579687  0.923240  0.622112  1
  La  La1  1  0.419390  0.075656  0.377136  1
  La  La2  1  0.975091  0.313587  0.871676  1
  Sm  Sm3  1  0.024899  0.687051  0.128912  1
  Au  Au4  1  0.293957  0.631888  0.762532  1
  Au  Au5  1  0.706762  0.368872  0.236897  1
  Au  Au6  1  0.499895  0.499824  0.499880  1
  Au  Au7  1  0.000172  0.999319  0.000758  1
  Br  Br8  1  0.607728  0.732244  0.751015  1
  Br  Br9  1  0.393046  0.268196  0.249124  1
  Br  Br10  1  0.273786  0.846050  0.735113  1
  Br  Br11  1  0.726683  0.154685  0.264957  1
  Br  Br12  1  0.977891  0.534380  0.769907  1
  Br  Br13  1  0.021660  0.470089  0.227718  1
  Br  Br14  1  0.313742  0.414553  0.786492  1
  Br  Br15  1  0.692134  0.587396  0.212249  1
  Br  Br16  1  0.691136  0.371356  0.507744  1
  Br  Br17  1  0.308692  0.628459  0.492113  1
  Br  Br18  1  0.761696  0.727019  0.526516  1
  Br  Br19  1  0.237955  0.272505  0.473292  1
  Br  Br20  1  0.788113  0.107164  0.980428  1
  Br  Br21  1  0.207947  0.888331  0.022214  1
  Br  Br22  1  0.772074  0.793677  0.031831  1
  Br  Br23  1  0.231629  0.204060  0.969950  1
  Br  Br24  1  0.616431  0.196301  0.746359  1
  Br  Br25  1  0.377041  0.801931  0.251521  1
  Br  Br26  1  0.951934  0.053893  0.728493  1
  Br  Br27  1  0.047229  0.940238  0.268146  1
  Br  Br28  1  0.729707  0.050823  0.480274  1
  Br  Br29  1  0.269796  0.948818  0.519254  1
  Br  Br30  1  0.765214  0.439953  0.980745  1
  Br  Br31  1  0.236884  0.568443  0.024641  1
