# generated using pymatgen
data_TbEu4TmNb2O12
_symmetry_space_group_name_H-M   'P 1'
_cell_length_a   5.74949515
_cell_length_b   5.96266820
_cell_length_c   10.03406362
_cell_angle_alpha   90.04971472
_cell_angle_beta   124.80937598
_cell_angle_gamma   89.90178897
_symmetry_Int_Tables_number   1
_chemical_formula_structural   TbEu4TmNb2O12
_chemical_formula_sum   'Tb1 Eu4 Tm1 Nb2 O12'
_cell_volume   282.43547179
_cell_formula_units_Z   1
loop_
 _symmetry_equiv_pos_site_id
 _symmetry_equiv_pos_as_xyz
  1  'x, y, z'
loop_
 _atom_site_type_symbol
 _atom_site_label
 _atom_site_symmetry_multiplicity
 _atom_site_fract_x
 _atom_site_fract_y
 _atom_site_fract_z
 _atom_site_occupancy
  Tb  Tb0  1  0.500000  0.000000  0.000000  1
  Eu  Eu1  1  0.234650  0.448378  0.749567  1
  Eu  Eu2  1  0.239526  0.052941  0.254590  1
  Eu  Eu3  1  0.765350  0.551622  0.250433  1
  Eu  Eu4  1  0.760474  0.947059  0.745410  1
  Tm  Tm5  1  0.500000  0.500000  0.500000  1
  Nb  Nb6  1  0.000000  0.500000  0.000000  1
  Nb  Nb7  1  0.000000  0.000000  0.500000  1
  O  O8  1  0.338208  0.036642  0.735216  1
  O  O9  1  0.339371  0.464111  0.238649  1
  O  O10  1  0.661792  0.963358  0.264784  1
  O  O11  1  0.660629  0.535889  0.761351  1
  O  O12  1  0.762818  0.195801  0.549073  1
  O  O13  1  0.765544  0.310026  0.051055  1
  O  O14  1  0.237182  0.804199  0.450927  1
  O  O15  1  0.234456  0.689974  0.948945  1
  O  O16  1  0.127672  0.217912  0.941244  1
  O  O17  1  0.135347  0.283063  0.442958  1
  O  O18  1  0.872328  0.782088  0.058756  1
  O  O19  1  0.864653  0.716937  0.557042  1
