# generated using pymatgen
data_Lu3Nb2Sn3N
_symmetry_space_group_name_H-M   'P 1'
_cell_length_a   8.50419312
_cell_length_b   8.50366072
_cell_length_c   5.81988307
_cell_angle_alpha   90.00165954
_cell_angle_beta   89.99919926
_cell_angle_gamma   120.00514965
_symmetry_Int_Tables_number   1
_chemical_formula_structural   Lu3Nb2Sn3N
_chemical_formula_sum   'Lu6 Nb4 Sn6 N2'
_cell_volume   364.46966724
_cell_formula_units_Z   2
loop_
 _symmetry_equiv_pos_site_id
 _symmetry_equiv_pos_as_xyz
  1  'x, y, z'
loop_
 _atom_site_type_symbol
 _atom_site_label
 _atom_site_symmetry_multiplicity
 _atom_site_fract_x
 _atom_site_fract_y
 _atom_site_fract_z
 _atom_site_occupancy
  Lu  Lu0  1  0.780653  0.780572  0.749991  1
  Lu  Lu1  1  0.219436  0.999984  0.750037  1
  Lu  Lu2  1  0.000117  0.219426  0.749959  1
  Lu  Lu3  1  0.219299  0.219333  0.249921  1
  Lu  Lu4  1  0.780470  0.999993  0.249964  1
  Lu  Lu5  1  0.999877  0.780587  0.249999  1
  Nb  Nb6  1  0.666602  0.333257  0.000024  1
  Nb  Nb7  1  0.333445  0.666838  0.999962  1
  Nb  Nb8  1  0.333322  0.666739  0.500069  1
  Nb  Nb9  1  0.666741  0.333356  0.500009  1
  Sn  Sn10  1  0.411001  0.411069  0.749869  1
  Sn  Sn11  1  0.589267  0.000036  0.749893  1
  Sn  Sn12  1  0.999934  0.588920  0.750062  1
  Sn  Sn13  1  0.588926  0.588917  0.250091  1
  Sn  Sn14  1  0.410833  0.000041  0.250258  1
  Sn  Sn15  1  0.000117  0.411013  0.249958  1
  N  N16  1  0.999971  0.999956  0.999976  1
  N  N17  1  0.999990  0.999962  0.499958  1
