# generated using pymatgen
data_NaPa5(Sb4Pt3)2
_symmetry_space_group_name_H-M   'P 1'
_cell_length_a   8.47207966
_cell_length_b   8.47207906
_cell_length_c   8.47207961
_cell_angle_alpha   109.44952707
_cell_angle_beta   109.51462615
_cell_angle_gamma   109.44951576
_symmetry_Int_Tables_number   1
_chemical_formula_structural   NaPa5(Sb4Pt3)2
_chemical_formula_sum   'Na1 Pa5 Sb8 Pt6'
_cell_volume   468.11007605
_cell_formula_units_Z   1
loop_
 _symmetry_equiv_pos_site_id
 _symmetry_equiv_pos_as_xyz
  1  'x, y, z'
loop_
 _atom_site_type_symbol
 _atom_site_label
 _atom_site_symmetry_multiplicity
 _atom_site_fract_x
 _atom_site_fract_y
 _atom_site_fract_z
 _atom_site_occupancy
  Na  Na0  1  0.875000  0.250000  0.125000  1
  Pa  Pa1  1  0.625000  0.750000  0.375000  1
  Pa  Pa2  1  0.247619  0.123228  0.876036  1
  Pa  Pa3  1  0.752808  0.376772  0.624391  1
  Pa  Pa4  1  0.123964  0.871583  0.247192  1
  Pa  Pa5  1  0.375609  0.628417  0.752381  1
  Sb  Sb6  1  0.678882  0.496302  0.997758  1
  Sb  Sb7  1  0.501455  0.003698  0.682580  1
  Sb  Sb8  1  0.000904  0.670855  0.494662  1
  Sb  Sb9  1  0.823807  0.829145  0.830049  1
  Sb  Sb10  1  0.505338  0.006242  0.176193  1
  Sb  Sb11  1  0.169951  0.493758  0.999096  1
  Sb  Sb12  1  0.002242  0.181124  0.498545  1
  Sb  Sb13  1  0.317420  0.318876  0.321118  1
  Pt  Pt14  1  0.375000  0.250000  0.625000  1
  Pt  Pt15  1  0.125000  0.750000  0.875000  1
  Pt  Pt16  1  0.272502  0.637804  0.384409  1
  Pt  Pt17  1  0.746605  0.862196  0.134698  1
  Pt  Pt18  1  0.615591  0.388093  0.253395  1
  Pt  Pt19  1  0.865302  0.111907  0.727498  1
