# generated using pymatgen
data_Nd2PdN2
_symmetry_space_group_name_H-M   'P 1'
_cell_length_a   3.64125961
_cell_length_b   3.64121175
_cell_length_c   6.95397085
_cell_angle_alpha   105.17648678
_cell_angle_beta   105.17759193
_cell_angle_gamma   90.00000750
_symmetry_Int_Tables_number   1
_chemical_formula_structural   Nd2PdN2
_chemical_formula_sum   'Nd2 Pd1 N2'
_cell_volume   85.64764937
_cell_formula_units_Z   1
loop_
 _symmetry_equiv_pos_site_id
 _symmetry_equiv_pos_as_xyz
  1  'x, y, z'
loop_
 _atom_site_type_symbol
 _atom_site_label
 _atom_site_symmetry_multiplicity
 _atom_site_fract_x
 _atom_site_fract_y
 _atom_site_fract_z
 _atom_site_occupancy
  Nd  Nd0  1  0.152899  0.152951  0.805798  1
  Nd  Nd1  1  0.847101  0.847049  0.194202  1
  Pd  Pd2  1  0.500000  0.500000  0.500000  1
  N  N3  1  0.663858  0.663795  0.827715  1
  N  N4  1  0.336142  0.336205  0.172285  1
