# generated using pymatgen
data_LiEu(UBr6)2
_symmetry_space_group_name_H-M   'P 1'
_cell_length_a   7.36238967
_cell_length_b   7.36239019
_cell_length_c   14.29658300
_cell_angle_alpha   84.25000471
_cell_angle_beta   84.25000430
_cell_angle_gamma   119.52701777
_symmetry_Int_Tables_number   1
_chemical_formula_structural   LiEu(UBr6)2
_chemical_formula_sum   'Li1 Eu1 U2 Br12'
_cell_volume   660.81607311
_cell_formula_units_Z   1
loop_
 _symmetry_equiv_pos_site_id
 _symmetry_equiv_pos_as_xyz
  1  'x, y, z'
loop_
 _atom_site_type_symbol
 _atom_site_label
 _atom_site_symmetry_multiplicity
 _atom_site_fract_x
 _atom_site_fract_y
 _atom_site_fract_z
 _atom_site_occupancy
  Li  Li0  1  0.084565  0.915435  0.250000  1
  Eu  Eu1  1  0.915153  0.084847  0.750000  1
  U  U2  1  0.419244  0.580756  0.250000  1
  U  U3  1  0.580450  0.419550  0.750000  1
  Br  Br4  1  0.308427  0.454301  0.634679  1
  Br  Br5  1  0.441816  0.308184  0.141412  1
  Br  Br6  1  0.224167  0.071971  0.866667  1
  Br  Br7  1  0.084619  0.226922  0.359323  1
  Br  Br8  1  0.169175  0.644933  0.140147  1
  Br  Br9  1  0.640159  0.161463  0.632788  1
  Br  Br10  1  0.355067  0.830825  0.359853  1
  Br  Br11  1  0.838537  0.359841  0.867212  1
  Br  Br12  1  0.773078  0.915381  0.140677  1
  Br  Br13  1  0.928029  0.775833  0.633333  1
  Br  Br14  1  0.545699  0.691573  0.865321  1
  Br  Br15  1  0.691816  0.558184  0.358588  1
