# generated using pymatgen
data_DyHo11(TcIr)2
_symmetry_space_group_name_H-M   'P 1'
_cell_length_a   6.32286905
_cell_length_b   7.30144006
_cell_length_c   9.15756900
_cell_angle_alpha   90.00000000
_cell_angle_beta   90.00000000
_cell_angle_gamma   89.98501800
_symmetry_Int_Tables_number   1
_chemical_formula_structural   DyHo11(TcIr)2
_chemical_formula_sum   'Dy1 Ho11 Tc2 Ir2'
_cell_volume   422.76876857
_cell_formula_units_Z   1
loop_
 _symmetry_equiv_pos_site_id
 _symmetry_equiv_pos_as_xyz
  1  'x, y, z'
loop_
 _atom_site_type_symbol
 _atom_site_label
 _atom_site_symmetry_multiplicity
 _atom_site_fract_x
 _atom_site_fract_y
 _atom_site_fract_z
 _atom_site_occupancy
  Dy  Dy0  1  0.873732  0.537442  0.250000  1
  Ho  Ho1  1  0.329511  0.677204  0.065031  1
  Ho  Ho2  1  0.171041  0.176906  0.434768  1
  Ho  Ho3  1  0.668865  0.323504  0.561418  1
  Ho  Ho4  1  0.830949  0.824058  0.938670  1
  Ho  Ho5  1  0.668865  0.323504  0.938582  1
  Ho  Ho6  1  0.830949  0.824058  0.561330  1
  Ho  Ho7  1  0.329511  0.677204  0.434969  1
  Ho  Ho8  1  0.171041  0.176906  0.065232  1
  Ho  Ho9  1  0.626405  0.037451  0.250000  1
  Ho  Ho10  1  0.133270  0.459933  0.750000  1
  Ho  Ho11  1  0.366758  0.960009  0.750000  1
  Tc  Tc12  1  0.035087  0.886508  0.250000  1
  Tc  Tc13  1  0.464242  0.386220  0.250000  1
  Ir  Ir14  1  0.955543  0.114524  0.750000  1
  Ir  Ir15  1  0.544231  0.614567  0.750000  1
