# generated using pymatgen
data_Hf3Sc(CrRe3)2
_symmetry_space_group_name_H-M   'P 1'
_cell_length_a   5.17378706
_cell_length_b   5.27566938
_cell_length_c   8.57522170
_cell_angle_alpha   89.99999665
_cell_angle_beta   89.93776732
_cell_angle_gamma   120.65357665
_symmetry_Int_Tables_number   1
_chemical_formula_structural   Hf3Sc(CrRe3)2
_chemical_formula_sum   'Hf3 Sc1 Cr2 Re6'
_cell_volume   201.35560108
_cell_formula_units_Z   1
loop_
 _symmetry_equiv_pos_site_id
 _symmetry_equiv_pos_as_xyz
  1  'x, y, z'
loop_
 _atom_site_type_symbol
 _atom_site_label
 _atom_site_symmetry_multiplicity
 _atom_site_fract_x
 _atom_site_fract_y
 _atom_site_fract_z
 _atom_site_occupancy
  Hf  Hf0  1  0.335055  0.667528  0.438392  1
  Hf  Hf1  1  0.665750  0.332875  0.939239  1
  Hf  Hf2  1  0.664900  0.332450  0.561283  1
  Sc  Sc3  1  0.334396  0.667198  0.061369  1
  Cr  Cr4  1  0.659861  0.829930  0.749542  1
  Cr  Cr5  1  0.339881  0.169941  0.250230  1
  Re  Re6  1  0.824958  0.170972  0.250073  1
  Re  Re7  1  0.175107  0.346155  0.749917  1
  Re  Re8  1  0.175107  0.828952  0.749917  1
  Re  Re9  1  0.824958  0.653986  0.250073  1
  Re  Re10  1  0.000181  0.000090  0.499965  1
  Re  Re11  1  0.999847  0.999923  0.000000  1
