# generated using pymatgen
data_Ce12AlSi7Os8
_symmetry_space_group_name_H-M   'P 1'
_cell_length_a   5.55631400
_cell_length_b   7.94643757
_cell_length_c   13.37047237
_cell_angle_alpha   89.73285646
_cell_angle_beta   90.00000000
_cell_angle_gamma   90.00000000
_symmetry_Int_Tables_number   1
_chemical_formula_structural   Ce12AlSi7Os8
_chemical_formula_sum   'Ce12 Al1 Si7 Os8'
_cell_volume   590.33874384
_cell_formula_units_Z   1
loop_
 _symmetry_equiv_pos_site_id
 _symmetry_equiv_pos_as_xyz
  1  'x, y, z'
loop_
 _atom_site_type_symbol
 _atom_site_label
 _atom_site_symmetry_multiplicity
 _atom_site_fract_x
 _atom_site_fract_y
 _atom_site_fract_z
 _atom_site_occupancy
  Ce  Ce0  1  0.131751  0.249779  0.750947  1
  Ce  Ce1  1  0.868266  0.750083  0.249777  1
  Ce  Ce2  1  0.131751  0.250221  0.249053  1
  Ce  Ce3  1  0.868266  0.749917  0.750223  1
  Ce  Ce4  1  0.653668  0.400708  0.600862  1
  Ce  Ce5  1  0.348393  0.602137  0.099935  1
  Ce  Ce6  1  0.653668  0.099292  0.399138  1
  Ce  Ce7  1  0.348393  0.897863  0.900065  1
  Ce  Ce8  1  0.347797  0.603075  0.399868  1
  Ce  Ce9  1  0.651625  0.397589  0.899924  1
  Ce  Ce10  1  0.347797  0.896925  0.600132  1
  Ce  Ce11  1  0.651625  0.102411  0.100076  1
  Al  Al12  1  0.122150  0.250000  0.500000  1
  Si  Si13  1  0.888573  0.750000  0.000000  1
  Si  Si14  1  0.886021  0.750000  0.500000  1
  Si  Si15  1  0.111611  0.250000  0.000000  1
  Si  Si16  1  0.639772  0.099870  0.750423  1
  Si  Si17  1  0.360430  0.900635  0.249027  1
  Si  Si18  1  0.639772  0.400130  0.249577  1
  Si  Si19  1  0.360430  0.599365  0.750973  1
  Os  Os20  1  0.852309  0.022824  0.592614  1
  Os  Os21  1  0.143268  0.971422  0.091168  1
  Os  Os22  1  0.852309  0.477176  0.407386  1
  Os  Os23  1  0.143268  0.528578  0.908832  1
  Os  Os24  1  0.141689  0.966047  0.406917  1
  Os  Os25  1  0.856855  0.028415  0.908785  1
  Os  Os26  1  0.141689  0.533953  0.593083  1
  Os  Os27  1  0.856855  0.471585  0.091215  1
