# generated using pymatgen
data_Hf3(V2Re)2
_symmetry_space_group_name_H-M   'P 1'
_cell_length_a   5.20216808
_cell_length_b   5.20855355
_cell_length_c   12.74632881
_cell_angle_alpha   90.26127592
_cell_angle_beta   89.68122498
_cell_angle_gamma   119.90002689
_symmetry_Int_Tables_number   1
_chemical_formula_structural   Hf3(V2Re)2
_chemical_formula_sum   'Hf6 V8 Re4'
_cell_volume   299.39617219
_cell_formula_units_Z   2
loop_
 _symmetry_equiv_pos_site_id
 _symmetry_equiv_pos_as_xyz
  1  'x, y, z'
loop_
 _atom_site_type_symbol
 _atom_site_label
 _atom_site_symmetry_multiplicity
 _atom_site_fract_x
 _atom_site_fract_y
 _atom_site_fract_z
 _atom_site_occupancy
  Hf  Hf0  1  0.334132  0.664562  0.917241  1
  Hf  Hf1  1  0.999864  0.001781  0.249229  1
  Hf  Hf2  1  0.666540  0.333709  0.583656  1
  Hf  Hf3  1  0.333460  0.666291  0.666344  1
  Hf  Hf4  1  0.000136  0.998219  0.000770  1
  Hf  Hf5  1  0.665868  0.335438  0.332759  1
  V  V6  1  0.166892  0.335683  0.458877  1
  V  V7  1  0.833108  0.664317  0.791123  1
  V  V8  1  0.331949  0.669277  0.293495  1
  V  V9  1  0.000000  0.000000  0.625000  1
  V  V10  1  0.668051  0.330723  0.956505  1
  V  V11  1  0.000000  0.500000  0.125000  1
  V  V12  1  0.665539  0.834491  0.459139  1
  V  V13  1  0.334461  0.165509  0.790861  1
  Re  Re14  1  0.500000  0.500000  0.125000  1
  Re  Re15  1  0.166238  0.835179  0.458863  1
  Re  Re16  1  0.833762  0.164821  0.791137  1
  Re  Re17  1  0.500000  0.000000  0.125000  1
