# generated using pymatgen
data_Sc12Ga(TcBr8)2
_symmetry_space_group_name_H-M   'P 1'
_cell_length_a   8.97598329
_cell_length_b   11.23178845
_cell_length_c   11.99310132
_cell_angle_alpha   117.36961563
_cell_angle_beta   102.08835722
_cell_angle_gamma   101.11229931
_symmetry_Int_Tables_number   1
_chemical_formula_structural   Sc12Ga(TcBr8)2
_chemical_formula_sum   'Sc12 Ga1 Tc2 Br16'
_cell_volume   990.08703656
_cell_formula_units_Z   1
loop_
 _symmetry_equiv_pos_site_id
 _symmetry_equiv_pos_as_xyz
  1  'x, y, z'
loop_
 _atom_site_type_symbol
 _atom_site_label
 _atom_site_symmetry_multiplicity
 _atom_site_fract_x
 _atom_site_fract_y
 _atom_site_fract_z
 _atom_site_occupancy
  Sc  Sc0  1  0.088127  0.253673  0.348978  1
  Sc  Sc1  1  0.911873  0.746327  0.651022  1
  Sc  Sc2  1  0.768638  0.538263  0.313402  1
  Sc  Sc3  1  0.231362  0.461737  0.686598  1
  Sc  Sc4  1  0.292960  0.749101  0.653776  1
  Sc  Sc5  1  0.707040  0.250899  0.346224  1
  Sc  Sc6  1  0.147248  0.537442  0.319104  1
  Sc  Sc7  1  0.852752  0.462558  0.680896  1
  Sc  Sc8  1  0.403163  0.354755  0.266706  1
  Sc  Sc9  1  0.596837  0.645245  0.733294  1
  Sc  Sc10  1  0.457461  0.304302  0.521892  1
  Sc  Sc11  1  0.542539  0.695698  0.478108  1
  Ga  Ga12  1  0.000000  0.500000  0.500000  1
  Tc  Tc13  1  0.331321  0.500195  0.500240  1
  Tc  Tc14  1  0.668680  0.499805  0.499760  1
  Br  Br15  1  0.402309  0.743742  0.886145  1
  Br  Br16  1  0.597691  0.256258  0.113855  1
  Br  Br17  1  0.189717  0.965498  0.784069  1
  Br  Br18  1  0.810283  0.034502  0.215931  1
  Br  Br19  1  0.341683  0.093226  0.250457  1
  Br  Br20  1  0.658317  0.906774  0.749543  1
  Br  Br21  1  0.548652  0.437165  0.799455  1
  Br  Br22  1  0.451348  0.562835  0.200545  1
  Br  Br23  1  0.310330  0.826441  0.462220  1
  Br  Br24  1  0.689670  0.173559  0.537780  1
  Br  Br25  1  0.168353  0.169435  0.531062  1
  Br  Br26  1  0.831647  0.830565  0.468938  1
  Br  Br27  1  0.926345  0.574654  0.160092  1
  Br  Br28  1  0.073655  0.425346  0.839908  1
  Br  Br29  1  0.922334  0.740357  0.884123  1
  Br  Br30  1  0.077666  0.259643  0.115877  1
