# generated using pymatgen
data_Tb4DyHo3(Hf3Si4)4
_symmetry_space_group_name_H-M   'P 1'
_cell_length_a   7.29728324
_cell_length_b   7.29586808
_cell_length_c   13.34673607
_cell_angle_alpha   89.99356694
_cell_angle_beta   89.98000208
_cell_angle_gamma   90.00089302
_symmetry_Int_Tables_number   1
_chemical_formula_structural   Tb4DyHo3(Hf3Si4)4
_chemical_formula_sum   'Tb4 Dy1 Ho3 Hf12 Si16'
_cell_volume   710.58039190
_cell_formula_units_Z   1
loop_
 _symmetry_equiv_pos_site_id
 _symmetry_equiv_pos_as_xyz
  1  'x, y, z'
loop_
 _atom_site_type_symbol
 _atom_site_label
 _atom_site_symmetry_multiplicity
 _atom_site_fract_x
 _atom_site_fract_y
 _atom_site_fract_z
 _atom_site_occupancy
  Tb  Tb0  1  0.844593  0.505192  0.965021  1
  Tb  Tb1  1  0.494790  0.155613  0.534970  1
  Tb  Tb2  1  0.344271  0.994776  0.784877  1
  Tb  Tb3  1  0.655660  0.005197  0.285022  1
  Dy  Dy4  1  0.504722  0.844678  0.035140  1
  Ho  Ho5  1  0.995808  0.344755  0.215044  1
  Ho  Ho6  1  0.004282  0.655065  0.714851  1
  Ho  Ho7  1  0.155067  0.495677  0.464981  1
  Hf  Hf8  1  0.174550  0.174590  0.999980  1
  Hf  Hf9  1  0.825583  0.825192  0.499912  1
  Hf  Hf10  1  0.325312  0.674383  0.250028  1
  Hf  Hf11  1  0.674717  0.325564  0.749898  1
  Hf  Hf12  1  0.148616  0.996363  0.374275  1
  Hf  Hf13  1  0.851373  0.003526  0.874340  1
  Hf  Hf14  1  0.503500  0.648566  0.624159  1
  Hf  Hf15  1  0.351171  0.496942  0.875746  1
  Hf  Hf16  1  0.496563  0.351326  0.124429  1
  Hf  Hf17  1  0.648648  0.503038  0.375676  1
  Hf  Hf18  1  0.996974  0.148588  0.625542  1
  Hf  Hf19  1  0.003383  0.851306  0.125902  1
  Si  Si20  1  0.359854  0.296311  0.317028  1
  Si  Si21  1  0.639342  0.704281  0.816457  1
  Si  Si22  1  0.203470  0.859803  0.566962  1
  Si  Si23  1  0.138653  0.795413  0.933298  1
  Si  Si24  1  0.795779  0.138895  0.067346  1
  Si  Si25  1  0.862453  0.205599  0.432979  1
  Si  Si26  1  0.294506  0.362397  0.682983  1
  Si  Si27  1  0.705145  0.637979  0.182998  1
  Si  Si28  1  0.295227  0.049427  0.185765  1
  Si  Si29  1  0.705060  0.950502  0.685800  1
  Si  Si30  1  0.450351  0.794898  0.435871  1
  Si  Si31  1  0.204219  0.548682  0.064452  1
  Si  Si32  1  0.549051  0.204302  0.935942  1
  Si  Si33  1  0.796855  0.451762  0.564170  1
  Si  Si34  1  0.048682  0.296397  0.813875  1
  Si  Si35  1  0.951771  0.703015  0.314284  1
