# generated using pymatgen
data_Tb5Ho6TmOs4
_symmetry_space_group_name_H-M   'P 1'
_cell_length_a   7.40416904
_cell_length_b   9.03237531
_cell_length_c   6.30815518
_cell_angle_alpha   89.89411359
_cell_angle_beta   89.92835700
_cell_angle_gamma   89.97169535
_symmetry_Int_Tables_number   1
_chemical_formula_structural   Tb5Ho6TmOs4
_chemical_formula_sum   'Tb5 Ho6 Tm1 Os4'
_cell_volume   421.87086659
_cell_formula_units_Z   1
loop_
 _symmetry_equiv_pos_site_id
 _symmetry_equiv_pos_as_xyz
  1  'x, y, z'
loop_
 _atom_site_type_symbol
 _atom_site_label
 _atom_site_symmetry_multiplicity
 _atom_site_fract_x
 _atom_site_fract_y
 _atom_site_fract_z
 _atom_site_occupancy
  Tb  Tb0  1  0.039027  0.250937  0.630736  1
  Tb  Tb1  1  0.960741  0.749243  0.370240  1
  Tb  Tb2  1  0.460914  0.749066  0.129719  1
  Tb  Tb3  1  0.539356  0.250571  0.869300  1
  Tb  Tb4  1  0.175223  0.063130  0.167531  1
  Ho  Ho5  1  0.824806  0.936273  0.832169  1
  Ho  Ho6  1  0.325644  0.936005  0.667063  1
  Ho  Ho7  1  0.825185  0.563124  0.832604  1
  Ho  Ho8  1  0.674540  0.063223  0.333305  1
  Ho  Ho9  1  0.174349  0.437832  0.167235  1
  Ho  Ho10  1  0.674620  0.436928  0.333204  1
  Tm  Tm11  1  0.325657  0.563246  0.666894  1
  Os  Os12  1  0.383295  0.251193  0.458902  1
  Os  Os13  1  0.616977  0.750097  0.542478  1
  Os  Os14  1  0.117336  0.748360  0.956368  1
  Os  Os15  1  0.882330  0.250770  0.042253  1
