# generated using pymatgen
data_Sm2Lu6GaPd24
_symmetry_space_group_name_H-M   'P 1'
_cell_length_a   8.31303000
_cell_length_b   8.31303000
_cell_length_c   8.31303000
_cell_angle_alpha   90.00083397
_cell_angle_beta   89.99916603
_cell_angle_gamma   89.99916605
_symmetry_Int_Tables_number   1
_chemical_formula_structural   Sm2Lu6GaPd24
_chemical_formula_sum   'Sm2 Lu6 Ga1 Pd24'
_cell_volume   574.48413986
_cell_formula_units_Z   1
loop_
 _symmetry_equiv_pos_site_id
 _symmetry_equiv_pos_as_xyz
  1  'x, y, z'
loop_
 _atom_site_type_symbol
 _atom_site_label
 _atom_site_symmetry_multiplicity
 _atom_site_fract_x
 _atom_site_fract_y
 _atom_site_fract_z
 _atom_site_occupancy
  Sm  Sm0  1  0.251657  0.748343  0.748343  1
  Sm  Sm1  1  0.748343  0.251657  0.251657  1
  Lu  Lu2  1  0.252129  0.252119  0.252119  1
  Lu  Lu3  1  0.747871  0.747881  0.747881  1
  Lu  Lu4  1  0.747881  0.747871  0.252119  1
  Lu  Lu5  1  0.747881  0.252119  0.747871  1
  Lu  Lu6  1  0.252119  0.252129  0.747881  1
  Lu  Lu7  1  0.252119  0.747881  0.252129  1
  Ga  Ga8  1  0.000000  0.000000  0.000000  1
  Pd  Pd9  1  0.260406  0.498408  0.001704  1
  Pd  Pd10  1  0.739594  0.501592  0.998296  1
  Pd  Pd11  1  0.001704  0.260406  0.501592  1
  Pd  Pd12  1  0.498408  0.260406  0.998296  1
  Pd  Pd13  1  0.998296  0.739594  0.498408  1
  Pd  Pd14  1  0.501592  0.739594  0.001704  1
  Pd  Pd15  1  0.498408  0.998296  0.260406  1
  Pd  Pd16  1  0.260406  0.001704  0.498408  1
  Pd  Pd17  1  0.501592  0.001704  0.739594  1
  Pd  Pd18  1  0.739594  0.998296  0.501592  1
  Pd  Pd19  1  0.001704  0.501592  0.260406  1
  Pd  Pd20  1  0.998296  0.498408  0.739594  1
  Pd  Pd21  1  0.253094  0.498287  0.498287  1
  Pd  Pd22  1  0.746906  0.501713  0.501713  1
  Pd  Pd23  1  0.498287  0.253094  0.501713  1
  Pd  Pd24  1  0.501713  0.746906  0.498287  1
  Pd  Pd25  1  0.498287  0.501713  0.253094  1
  Pd  Pd26  1  0.501713  0.498287  0.746906  1
  Pd  Pd27  1  0.291664  0.001517  0.001517  1
  Pd  Pd28  1  0.708336  0.998483  0.998483  1
  Pd  Pd29  1  0.001517  0.291664  0.998483  1
  Pd  Pd30  1  0.998483  0.708336  0.001517  1
  Pd  Pd31  1  0.001517  0.998483  0.291664  1
  Pd  Pd32  1  0.998483  0.001517  0.708336  1
