# generated using pymatgen
data_CsY(SeO4)2
_symmetry_space_group_name_H-M   'P 1'
_cell_length_a   5.50590600
_cell_length_b   5.50590696
_cell_length_c   9.31681400
_cell_angle_alpha   90.00000000
_cell_angle_beta   90.00000000
_cell_angle_gamma   119.99999583
_symmetry_Int_Tables_number   1
_chemical_formula_structural   CsY(SeO4)2
_chemical_formula_sum   'Cs1 Y1 Se2 O8'
_cell_volume   244.59959654
_cell_formula_units_Z   1
loop_
 _symmetry_equiv_pos_site_id
 _symmetry_equiv_pos_as_xyz
  1  'x, y, z'
loop_
 _atom_site_type_symbol
 _atom_site_label
 _atom_site_symmetry_multiplicity
 _atom_site_fract_x
 _atom_site_fract_y
 _atom_site_fract_z
 _atom_site_occupancy
  Cs  Cs0  1  0.000000  0.000000  0.500001  1
  Y  Y1  1  0.000000  0.000000  0.000000  1
  Se  Se2  1  0.333333  0.666666  0.209854  1
  Se  Se3  1  0.666666  0.333333  0.790146  1
  O  O4  1  0.078299  0.357591  0.147531  1
  O  O5  1  0.642411  0.720710  0.147531  1
  O  O6  1  0.279291  0.921701  0.147531  1
  O  O7  1  0.333333  0.666666  0.386489  1
  O  O8  1  0.666666  0.333333  0.613511  1
  O  O9  1  0.720709  0.078300  0.852469  1
  O  O10  1  0.357591  0.279291  0.852469  1
  O  O11  1  0.921700  0.642410  0.852469  1
