# generated using pymatgen
data_LaNp(AsRh)2
_symmetry_space_group_name_H-M   'P 1'
_cell_length_a   4.33164300
_cell_length_b   7.27053291
_cell_length_c   7.87108781
_cell_angle_alpha   90.78238703
_cell_angle_beta   90.00000000
_cell_angle_gamma   90.00000000
_symmetry_Int_Tables_number   1
_chemical_formula_structural   LaNp(AsRh)2
_chemical_formula_sum   'La2 Np2 As4 Rh4'
_cell_volume   247.86383612
_cell_formula_units_Z   2
loop_
 _symmetry_equiv_pos_site_id
 _symmetry_equiv_pos_as_xyz
  1  'x, y, z'
loop_
 _atom_site_type_symbol
 _atom_site_label
 _atom_site_symmetry_multiplicity
 _atom_site_fract_x
 _atom_site_fract_y
 _atom_site_fract_z
 _atom_site_occupancy
  La  La0  1  0.750000  0.251300  0.999748  1
  La  La1  1  0.250000  0.748700  0.000252  1
  Np  Np2  1  0.250000  0.752254  0.500117  1
  Np  Np3  1  0.750000  0.247746  0.499883  1
  As  As4  1  0.250000  0.412177  0.755971  1
  As  As5  1  0.750000  0.587823  0.244029  1
  As  As6  1  0.750000  0.911434  0.759633  1
  As  As7  1  0.250000  0.088566  0.240367  1
  Rh  Rh8  1  0.250000  0.428277  0.306958  1
  Rh  Rh9  1  0.750000  0.571723  0.693042  1
  Rh  Rh10  1  0.750000  0.928787  0.303148  1
  Rh  Rh11  1  0.250000  0.071213  0.696852  1
