# generated using pymatgen
data_Tm5ZnCo5
_symmetry_space_group_name_H-M   'P 1'
_cell_length_a   5.36728416
_cell_length_b   5.36728453
_cell_length_c   20.35350300
_cell_angle_alpha   90.00000000
_cell_angle_beta   90.00000000
_cell_angle_gamma   136.13656735
_symmetry_Int_Tables_number   1
_chemical_formula_structural   Tm5ZnCo5
_chemical_formula_sum   'Tm10 Zn2 Co10'
_cell_volume   406.29842883
_cell_formula_units_Z   2
loop_
 _symmetry_equiv_pos_site_id
 _symmetry_equiv_pos_as_xyz
  1  'x, y, z'
loop_
 _atom_site_type_symbol
 _atom_site_label
 _atom_site_symmetry_multiplicity
 _atom_site_fract_x
 _atom_site_fract_y
 _atom_site_fract_z
 _atom_site_occupancy
  Tm  Tm0  1  0.292777  0.707223  0.250000  1
  Tm  Tm1  1  0.295331  0.704669  0.065240  1
  Tm  Tm2  1  0.994972  0.005028  0.843119  1
  Tm  Tm3  1  0.707223  0.292777  0.750000  1
  Tm  Tm4  1  0.704669  0.295331  0.565240  1
  Tm  Tm5  1  0.005028  0.994972  0.343119  1
  Tm  Tm6  1  0.994972  0.005028  0.656881  1
  Tm  Tm7  1  0.704669  0.295331  0.934760  1
  Tm  Tm8  1  0.005028  0.994972  0.156881  1
  Tm  Tm9  1  0.295331  0.704669  0.434760  1
  Zn  Zn10  1  0.000000  0.000000  0.500000  1
  Zn  Zn11  1  0.000000  0.000000  0.000000  1
  Co  Co12  1  0.289601  0.710399  0.654989  1
  Co  Co13  1  0.587536  0.412464  0.439752  1
  Co  Co14  1  0.412116  0.587884  0.750000  1
  Co  Co15  1  0.412464  0.587536  0.939752  1
  Co  Co16  1  0.587884  0.412116  0.250000  1
  Co  Co17  1  0.412464  0.587536  0.560248  1
  Co  Co18  1  0.710399  0.289601  0.345011  1
  Co  Co19  1  0.710399  0.289601  0.154989  1
  Co  Co20  1  0.587536  0.412464  0.060248  1
  Co  Co21  1  0.289601  0.710399  0.845011  1
