# generated using pymatgen
data_U2Al9ReRh2
_symmetry_space_group_name_H-M   'P 1'
_cell_length_a   7.54184107
_cell_length_b   7.54890164
_cell_length_c   9.33200000
_cell_angle_alpha   90.00000000
_cell_angle_beta   90.00000000
_cell_angle_gamma   116.94182622
_symmetry_Int_Tables_number   1
_chemical_formula_structural   U2Al9ReRh2
_chemical_formula_sum   'U4 Al18 Re2 Rh4'
_cell_volume   473.63212379
_cell_formula_units_Z   2
loop_
 _symmetry_equiv_pos_site_id
 _symmetry_equiv_pos_as_xyz
  1  'x, y, z'
loop_
 _atom_site_type_symbol
 _atom_site_label
 _atom_site_symmetry_multiplicity
 _atom_site_fract_x
 _atom_site_fract_y
 _atom_site_fract_z
 _atom_site_occupancy
  U  U0  1  0.993948  0.709889  0.250000  1
  U  U1  1  0.006052  0.290111  0.750000  1
  U  U2  1  0.709805  0.993982  0.250000  1
  U  U3  1  0.290195  0.006018  0.750000  1
  Al  Al4  1  0.156942  0.157009  0.250000  1
  Al  Al5  1  0.843058  0.842991  0.750000  1
  Al  Al6  1  0.005977  0.352568  0.082762  1
  Al  Al7  1  0.994023  0.647432  0.917238  1
  Al  Al8  1  0.994023  0.647432  0.582762  1
  Al  Al9  1  0.352529  0.005969  0.417246  1
  Al  Al10  1  0.005977  0.352568  0.417238  1
  Al  Al11  1  0.647471  0.994031  0.582754  1
  Al  Al12  1  0.647471  0.994031  0.917246  1
  Al  Al13  1  0.352529  0.005969  0.082754  1
  Al  Al14  1  0.335740  0.335674  0.539982  1
  Al  Al15  1  0.664260  0.664326  0.460018  1
  Al  Al16  1  0.664260  0.664326  0.039982  1
  Al  Al17  1  0.335740  0.335674  0.960018  1
  Al  Al18  1  0.349800  0.569130  0.250000  1
  Al  Al19  1  0.650200  0.430870  0.750000  1
  Al  Al20  1  0.568980  0.349703  0.250000  1
  Al  Al21  1  0.431020  0.650297  0.750000  1
  Re  Re22  1  0.000000  0.000000  0.000000  1
  Re  Re23  1  0.000000  0.000000  0.500000  1
  Rh  Rh24  1  0.672825  0.327703  0.000178  1
  Rh  Rh25  1  0.327175  0.672297  0.999822  1
  Rh  Rh26  1  0.327175  0.672297  0.500178  1
  Rh  Rh27  1  0.672825  0.327703  0.499822  1
