# generated using pymatgen
data_Re4SiP
_symmetry_space_group_name_H-M   'P 1'
_cell_length_a   5.65810200
_cell_length_b   2.94269000
_cell_length_c   10.08132100
_cell_angle_alpha   90.00000000
_cell_angle_beta   90.00000000
_cell_angle_gamma   90.00000000
_symmetry_Int_Tables_number   1
_chemical_formula_structural   Re4SiP
_chemical_formula_sum   'Re8 Si2 P2'
_cell_volume   167.85439966
_cell_formula_units_Z   2
loop_
 _symmetry_equiv_pos_site_id
 _symmetry_equiv_pos_as_xyz
  1  'x, y, z'
loop_
 _atom_site_type_symbol
 _atom_site_label
 _atom_site_symmetry_multiplicity
 _atom_site_fract_x
 _atom_site_fract_y
 _atom_site_fract_z
 _atom_site_occupancy
  Re  Re0  1  0.857105  0.250001  0.786010  1
  Re  Re1  1  0.642894  0.750001  0.286010  1
  Re  Re2  1  0.362527  0.250001  0.717230  1
  Re  Re3  1  0.137472  0.750001  0.217230  1
  Re  Re4  1  0.837414  0.250001  0.062255  1
  Re  Re5  1  0.662587  0.750001  0.562255  1
  Re  Re6  1  0.322114  0.250001  0.432082  1
  Re  Re7  1  0.177885  0.750001  0.932082  1
  Si  Si8  1  0.411931  0.250001  0.102633  1
  Si  Si9  1  0.088070  0.750001  0.602633  1
  P  P10  1  0.902536  0.250001  0.399790  1
  P  P11  1  0.597463  0.750001  0.899790  1
