# generated using pymatgen
data_Pr5GaSiPb
_symmetry_space_group_name_H-M   'P 1'
_cell_length_a   8.11765913
_cell_length_b   8.11766112
_cell_length_c   9.25111621
_cell_angle_alpha   115.74088231
_cell_angle_beta   115.74088041
_cell_angle_gamma   90.57951888
_symmetry_Int_Tables_number   1
_chemical_formula_structural   Pr5GaSiPb
_chemical_formula_sum   'Pr10 Ga2 Si2 Pb2'
_cell_volume   479.56461212
_cell_formula_units_Z   2
loop_
 _symmetry_equiv_pos_site_id
 _symmetry_equiv_pos_as_xyz
  1  'x, y, z'
loop_
 _atom_site_type_symbol
 _atom_site_label
 _atom_site_symmetry_multiplicity
 _atom_site_fract_x
 _atom_site_fract_y
 _atom_site_fract_z
 _atom_site_occupancy
  Pr  Pr0  1  0.500000  0.500000  0.000000  1
  Pr  Pr1  1  0.000000  0.000000  0.000000  1
  Pr  Pr2  1  0.978210  0.807043  0.285253  1
  Pr  Pr3  1  0.307043  0.478210  0.285253  1
  Pr  Pr4  1  0.817943  0.317943  0.280288  1
  Pr  Pr5  1  0.462344  0.962344  0.280288  1
  Pr  Pr6  1  0.021790  0.192957  0.714747  1
  Pr  Pr7  1  0.692957  0.521790  0.714747  1
  Pr  Pr8  1  0.182057  0.682057  0.719712  1
  Pr  Pr9  1  0.537656  0.037656  0.719712  1
  Ga  Ga10  1  0.623633  0.876367  0.000000  1
  Ga  Ga11  1  0.376367  0.123633  0.000000  1
  Si  Si12  1  0.881363  0.381363  0.000000  1
  Si  Si13  1  0.118637  0.618637  0.000000  1
  Pb  Pb14  1  0.750000  0.750000  0.500000  1
  Pb  Pb15  1  0.250000  0.250000  0.500000  1
