# generated using pymatgen
data_Tm4Tc3Os4W
_symmetry_space_group_name_H-M   'P 1'
_cell_length_a   5.43305671
_cell_length_b   5.24786538
_cell_length_c   8.94900400
_cell_angle_alpha   90.00000000
_cell_angle_beta   90.00000000
_cell_angle_gamma   121.25930665
_symmetry_Int_Tables_number   1
_chemical_formula_structural   Tm4Tc3Os4W
_chemical_formula_sum   'Tm4 Tc3 Os4 W1'
_cell_volume   218.11230069
_cell_formula_units_Z   1
loop_
 _symmetry_equiv_pos_site_id
 _symmetry_equiv_pos_as_xyz
  1  'x, y, z'
loop_
 _atom_site_type_symbol
 _atom_site_label
 _atom_site_symmetry_multiplicity
 _atom_site_fract_x
 _atom_site_fract_y
 _atom_site_fract_z
 _atom_site_occupancy
  Tm  Tm0  1  0.670957  0.341779  0.564394  1
  Tm  Tm1  1  0.332682  0.665748  0.436610  1
  Tm  Tm2  1  0.332682  0.665748  0.063390  1
  Tm  Tm3  1  0.670957  0.341779  0.935606  1
  Tc  Tc4  1  0.825965  0.650366  0.250000  1
  Tc  Tc5  1  0.829200  0.170653  0.250000  1
  Tc  Tc6  1  0.339939  0.170324  0.250000  1
  Os  Os7  1  0.003007  0.007750  0.498366  1
  Os  Os8  1  0.003007  0.007750  0.001634  1
  Os  Os9  1  0.174543  0.825419  0.750000  1
  Os  Os10  1  0.652656  0.826367  0.750000  1
  W  W11  1  0.164406  0.326318  0.750000  1
