# generated using pymatgen
data_Th4Al24FePt8
_symmetry_space_group_name_H-M   'P 1'
_cell_length_a   7.60895416
_cell_length_b   7.62327490
_cell_length_c   13.21566631
_cell_angle_alpha   84.35805542
_cell_angle_beta   78.86971881
_cell_angle_gamma   59.94069902
_symmetry_Int_Tables_number   1
_chemical_formula_structural   Th4Al24FePt8
_chemical_formula_sum   'Th4 Al24 Fe1 Pt8'
_cell_volume   650.99715168
_cell_formula_units_Z   1
loop_
 _symmetry_equiv_pos_site_id
 _symmetry_equiv_pos_as_xyz
  1  'x, y, z'
loop_
 _atom_site_type_symbol
 _atom_site_label
 _atom_site_symmetry_multiplicity
 _atom_site_fract_x
 _atom_site_fract_y
 _atom_site_fract_z
 _atom_site_occupancy
  Th  Th0  1  0.394689  0.166770  0.808333  1
  Th  Th1  1  0.605311  0.833230  0.191667  1
  Th  Th2  1  0.732887  0.497577  0.808218  1
  Th  Th3  1  0.267113  0.502423  0.191782  1
  Al  Al4  1  0.695375  0.823335  0.948386  1
  Al  Al5  1  0.304625  0.176665  0.051614  1
  Al  Al6  1  0.146249  0.832872  0.560889  1
  Al  Al7  1  0.853751  0.167128  0.439111  1
  Al  Al8  1  0.481876  0.166518  0.557912  1
  Al  Al9  1  0.518124  0.833482  0.442088  1
  Al  Al10  1  0.211417  0.165934  0.332865  1
  Al  Al11  1  0.788583  0.834066  0.667135  1
  Al  Al12  1  0.433823  0.510907  0.667118  1
  Al  Al13  1  0.566177  0.489093  0.332882  1
  Al  Al14  1  0.111578  0.155982  0.664655  1
  Al  Al15  1  0.888422  0.844018  0.335345  1
  Al  Al16  1  0.338910  0.501586  0.948361  1
  Al  Al17  1  0.661090  0.498414  0.051639  1
  Al  Al18  1  0.013016  0.175671  0.960402  1
  Al  Al19  1  0.986984  0.824329  0.039598  1
  Al  Al20  1  0.186558  0.499357  0.442574  1
  Al  Al21  1  0.813442  0.500643  0.557426  1
  Al  Al22  1  0.740372  0.163922  0.182331  1
  Al  Al23  1  0.259628  0.836078  0.817669  1
  Al  Al24  1  0.059186  0.628157  0.822002  1
  Al  Al25  1  0.940814  0.371843  0.177998  1
  Al  Al26  1  0.861457  0.035475  0.817312  1
  Al  Al27  1  0.138543  0.964525  0.182689  1
  Fe  Fe28  1  0.000000  0.500000  0.000000  1
  Pt  Pt29  1  0.120072  0.492346  0.639409  1
  Pt  Pt30  1  0.879928  0.507654  0.360591  1
  Pt  Pt31  1  0.655969  0.172039  0.999894  1
  Pt  Pt32  1  0.344031  0.827961  0.000106  1
  Pt  Pt33  1  0.537249  0.166846  0.361588  1
  Pt  Pt34  1  0.462751  0.833154  0.638412  1
  Pt  Pt35  1  0.778937  0.175143  0.637539  1
  Pt  Pt36  1  0.221063  0.824857  0.362461  1
