# generated using pymatgen
data_Tm12ZnCo3SiSn
_symmetry_space_group_name_H-M   'P 1'
_cell_length_a   8.26245033
_cell_length_b   8.26244976
_cell_length_c   8.26245086
_cell_angle_alpha   112.64938764
_cell_angle_beta   110.96224680
_cell_angle_gamma   104.90139444
_symmetry_Int_Tables_number   1
_chemical_formula_structural   Tm12ZnCo3SiSn
_chemical_formula_sum   'Tm12 Zn1 Co3 Si1 Sn1'
_cell_volume   432.06279772
_cell_formula_units_Z   1
loop_
 _symmetry_equiv_pos_site_id
 _symmetry_equiv_pos_as_xyz
  1  'x, y, z'
loop_
 _atom_site_type_symbol
 _atom_site_label
 _atom_site_symmetry_multiplicity
 _atom_site_fract_x
 _atom_site_fract_y
 _atom_site_fract_z
 _atom_site_occupancy
  Tm  Tm0  1  0.433652  0.237539  0.196113  1
  Tm  Tm1  1  0.571734  0.771837  0.799897  1
  Tm  Tm2  1  0.028060  0.228163  0.799897  1
  Tm  Tm3  1  0.958574  0.762461  0.196113  1
  Tm  Tm4  1  0.183035  0.288434  0.471468  1
  Tm  Tm5  1  0.815751  0.719706  0.535457  1
  Tm  Tm6  1  0.183035  0.711566  0.894600  1
  Tm  Tm7  1  0.815751  0.280294  0.096046  1
  Tm  Tm8  1  0.313978  0.623621  0.313704  1
  Tm  Tm9  1  0.690085  0.376379  0.690358  1
  Tm  Tm10  1  0.313978  0.000274  0.690358  1
  Tm  Tm11  1  0.690085  0.999726  0.313704  1
  Zn  Zn12  1  0.995746  0.000000  0.995746  1
  Co  Co13  1  0.646175  0.000000  0.646175  1
  Co  Co14  1  0.112225  0.611285  0.500940  1
  Co  Co15  1  0.889655  0.388715  0.500940  1
  Si  Si16  1  0.362410  0.000000  0.362410  1
  Sn  Sn17  1  0.496071  0.500000  0.996071  1
