# generated using pymatgen
data_Hf8FeCo3Ir4
_symmetry_space_group_name_H-M   'P 1'
_cell_length_a   6.57065300
_cell_length_b   4.54811600
_cell_length_c   9.05706200
_cell_angle_alpha   90.00000000
_cell_angle_beta   89.99971498
_cell_angle_gamma   90.00000000
_symmetry_Int_Tables_number   1
_chemical_formula_structural   Hf8FeCo3Ir4
_chemical_formula_sum   'Hf8 Fe1 Co3 Ir4'
_cell_volume   270.66207442
_cell_formula_units_Z   1
loop_
 _symmetry_equiv_pos_site_id
 _symmetry_equiv_pos_as_xyz
  1  'x, y, z'
loop_
 _atom_site_type_symbol
 _atom_site_label
 _atom_site_symmetry_multiplicity
 _atom_site_fract_x
 _atom_site_fract_y
 _atom_site_fract_z
 _atom_site_occupancy
  Hf  Hf0  1  0.000571  0.750001  0.124773  1
  Hf  Hf1  1  0.499516  0.750001  0.124790  1
  Hf  Hf2  1  0.999814  0.250000  0.374988  1
  Hf  Hf3  1  0.500256  0.250000  0.375006  1
  Hf  Hf4  1  0.499436  0.750001  0.625214  1
  Hf  Hf5  1  0.000492  0.750001  0.625226  1
  Hf  Hf6  1  0.499358  0.250000  0.874989  1
  Hf  Hf7  1  0.000557  0.250000  0.875004  1
  Fe  Fe8  1  0.249974  0.750001  0.874998  1
  Co  Co9  1  0.750027  0.250000  0.125710  1
  Co  Co10  1  0.250029  0.750001  0.374984  1
  Co  Co11  1  0.749968  0.250000  0.624322  1
  Ir  Ir12  1  0.250039  0.250000  0.126015  1
  Ir  Ir13  1  0.750039  0.750001  0.375000  1
  Ir  Ir14  1  0.249961  0.250000  0.623977  1
  Ir  Ir15  1  0.749961  0.750001  0.875004  1
