# generated using pymatgen
data_Er3Sc2Nb3(P3Ir4)4
_symmetry_space_group_name_H-M   'P 1'
_cell_length_a   12.71585300
_cell_length_b   12.72574428
_cell_length_c   3.96404300
_cell_angle_alpha   90.00000000
_cell_angle_beta   90.00000000
_cell_angle_gamma   119.97428901
_symmetry_Int_Tables_number   1
_chemical_formula_structural   Er3Sc2Nb3(P3Ir4)4
_chemical_formula_sum   'Er3 Sc2 Nb3 P12 Ir16'
_cell_volume   555.66128409
_cell_formula_units_Z   1
loop_
 _symmetry_equiv_pos_site_id
 _symmetry_equiv_pos_as_xyz
  1  'x, y, z'
loop_
 _atom_site_type_symbol
 _atom_site_label
 _atom_site_symmetry_multiplicity
 _atom_site_fract_x
 _atom_site_fract_y
 _atom_site_fract_z
 _atom_site_occupancy
  Er  Er0  1  0.333310  0.666593  0.000000  1
  Er  Er1  1  0.666718  0.333407  0.000000  1
  Er  Er2  1  0.815804  0.000000  0.500000  1
  Sc  Sc3  1  0.999932  0.814594  0.500000  1
  Sc  Sc4  1  0.185339  0.185406  0.500000  1
  Nb  Nb5  1  0.452092  0.000000  0.000000  1
  Nb  Nb6  1  0.000210  0.452903  0.000000  1
  Nb  Nb7  1  0.547307  0.547097  0.000000  1
  P  P8  1  0.175390  0.000000  0.000000  1
  P  P9  1  0.001153  0.175487  0.000000  1
  P  P10  1  0.825666  0.824513  0.000000  1
  P  P11  1  0.167315  0.482747  0.500000  1
  P  P12  1  0.517585  0.684556  0.500000  1
  P  P13  1  0.315063  0.833011  0.500000  1
  P  P14  1  0.684567  0.517253  0.500000  1
  P  P15  1  0.833028  0.315444  0.500000  1
  P  P16  1  0.482051  0.166989  0.500000  1
  P  P17  1  0.643133  0.000000  0.000000  1
  P  P18  1  0.000001  0.644787  0.000000  1
  P  P19  1  0.355214  0.355213  0.000000  1
  Ir  Ir20  1  0.355723  0.492674  0.500000  1
  Ir  Ir21  1  0.507031  0.863040  0.500000  1
  Ir  Ir22  1  0.136968  0.644405  0.500000  1
  Ir  Ir23  1  0.863049  0.507326  0.500000  1
  Ir  Ir24  1  0.643991  0.136960  0.500000  1
  Ir  Ir25  1  0.492563  0.355595  0.500000  1
  Ir  Ir26  1  0.178308  0.368918  0.000000  1
  Ir  Ir27  1  0.628973  0.806928  0.000000  1
  Ir  Ir28  1  0.190763  0.821809  0.000000  1
  Ir  Ir29  1  0.809391  0.631082  0.000000  1
  Ir  Ir30  1  0.822045  0.193072  0.000000  1
  Ir  Ir31  1  0.368956  0.178191  0.000000  1
  Ir  Ir32  1  0.280247  0.000000  0.500000  1
  Ir  Ir33  1  0.000764  0.281660  0.500000  1
  Ir  Ir34  1  0.719104  0.718340  0.500000  1
  Ir  Ir35  1  0.001244  0.000000  0.000000  1
