# generated using pymatgen
data_Zr6Ti3Nb(Sn3P)2
_symmetry_space_group_name_H-M   'P 1'
_cell_length_a   8.51948900
_cell_length_b   8.51948920
_cell_length_c   5.74294200
_cell_angle_alpha   90.00000000
_cell_angle_beta   90.00000000
_cell_angle_gamma   119.99998757
_symmetry_Int_Tables_number   1
_chemical_formula_structural   Zr6Ti3Nb(Sn3P)2
_chemical_formula_sum   'Zr6 Ti3 Nb1 Sn6 P2'
_cell_volume   360.98754643
_cell_formula_units_Z   1
loop_
 _symmetry_equiv_pos_site_id
 _symmetry_equiv_pos_as_xyz
  1  'x, y, z'
loop_
 _atom_site_type_symbol
 _atom_site_label
 _atom_site_symmetry_multiplicity
 _atom_site_fract_x
 _atom_site_fract_y
 _atom_site_fract_z
 _atom_site_occupancy
  Zr  Zr0  1  0.747112  0.746194  0.750316  1
  Zr  Zr1  1  0.253806  0.000918  0.750316  1
  Zr  Zr2  1  0.999082  0.252888  0.750316  1
  Zr  Zr3  1  0.253806  0.252888  0.249684  1
  Zr  Zr4  1  0.747112  0.000918  0.249684  1
  Zr  Zr5  1  0.999082  0.746194  0.249684  1
  Ti  Ti6  1  0.333333  0.666667  0.000000  1
  Ti  Ti7  1  0.333333  0.666667  0.500000  1
  Ti  Ti8  1  0.666667  0.333333  0.500000  1
  Nb  Nb9  1  0.666667  0.333333  0.000000  1
  Sn  Sn10  1  0.401691  0.403315  0.748978  1
  Sn  Sn11  1  0.596685  0.998376  0.748978  1
  Sn  Sn12  1  0.001624  0.598309  0.748978  1
  Sn  Sn13  1  0.596685  0.598309  0.251022  1
  Sn  Sn14  1  0.401691  0.998376  0.251022  1
  Sn  Sn15  1  0.001624  0.403315  0.251022  1
  P  P16  1  0.000000  0.000000  0.000000  1
  P  P17  1  0.000000  0.000000  0.500000  1
