# generated using pymatgen
data_Ca2NpO5
_symmetry_space_group_name_H-M   'P 1'
_cell_length_a   5.47821600
_cell_length_b   7.95035498
_cell_length_c   11.44859190
_cell_angle_alpha   71.72466908
_cell_angle_beta   90.00000000
_cell_angle_gamma   90.00000000
_symmetry_Int_Tables_number   1
_chemical_formula_structural   Ca2NpO5
_chemical_formula_sum   'Ca8 Np4 O20'
_cell_volume   473.47867577
_cell_formula_units_Z   4
loop_
 _symmetry_equiv_pos_site_id
 _symmetry_equiv_pos_as_xyz
  1  'x, y, z'
loop_
 _atom_site_type_symbol
 _atom_site_label
 _atom_site_symmetry_multiplicity
 _atom_site_fract_x
 _atom_site_fract_y
 _atom_site_fract_z
 _atom_site_occupancy
  Ca  Ca0  1  0.942498  0.152822  0.681192  1
  Ca  Ca1  1  0.442498  0.847178  0.818808  1
  Ca  Ca2  1  0.057502  0.847178  0.318808  1
  Ca  Ca3  1  0.557502  0.152822  0.181192  1
  Ca  Ca4  1  0.493785  0.349293  0.862302  1
  Ca  Ca5  1  0.993785  0.650707  0.637698  1
  Ca  Ca6  1  0.506215  0.650707  0.137698  1
  Ca  Ca7  1  0.006215  0.349293  0.362302  1
  Np  Np8  1  0.000000  0.000000  0.000000  1
  Np  Np9  1  0.500000  0.000000  0.500000  1
  Np  Np10  1  0.000000  0.500000  0.000000  1
  Np  Np11  1  0.500000  0.500000  0.500000  1
  O  O12  1  0.679419  0.250409  0.503167  1
  O  O13  1  0.179419  0.749591  0.996833  1
  O  O14  1  0.320581  0.749591  0.496833  1
  O  O15  1  0.820581  0.250409  0.003167  1
  O  O16  1  0.751225  0.015894  0.367748  1
  O  O17  1  0.251225  0.984106  0.132252  1
  O  O18  1  0.248775  0.984106  0.632252  1
  O  O19  1  0.748775  0.015894  0.867748  1
  O  O20  1  0.806224  0.614665  0.427807  1
  O  O21  1  0.306224  0.385335  0.072193  1
  O  O22  1  0.193776  0.385335  0.572193  1
  O  O23  1  0.693776  0.614665  0.927807  1
  O  O24  1  0.667491  0.449390  0.671654  1
  O  O25  1  0.167491  0.550610  0.828346  1
  O  O26  1  0.332509  0.550610  0.328346  1
  O  O27  1  0.832509  0.449390  0.171654  1
  O  O28  1  0.721291  0.879578  0.641231  1
  O  O29  1  0.221291  0.120422  0.858769  1
  O  O30  1  0.278709  0.120422  0.358769  1
  O  O31  1  0.778709  0.879578  0.141231  1
