# generated using pymatgen
data_Nd7Hf(Si4Mo3)4
_symmetry_space_group_name_H-M   'P 1'
_cell_length_a   6.87232519
_cell_length_b   7.01770867
_cell_length_c   13.08013851
_cell_angle_alpha   89.74889251
_cell_angle_beta   90.06752758
_cell_angle_gamma   90.11638128
_symmetry_Int_Tables_number   1
_chemical_formula_structural   Nd7Hf(Si4Mo3)4
_chemical_formula_sum   'Nd7 Hf1 Si16 Mo12'
_cell_volume   630.82081502
_cell_formula_units_Z   1
loop_
 _symmetry_equiv_pos_site_id
 _symmetry_equiv_pos_as_xyz
  1  'x, y, z'
loop_
 _atom_site_type_symbol
 _atom_site_label
 _atom_site_symmetry_multiplicity
 _atom_site_fract_x
 _atom_site_fract_y
 _atom_site_fract_z
 _atom_site_occupancy
  Nd  Nd0  1  0.997392  0.163489  0.094281  1
  Nd  Nd1  1  0.003058  0.835993  0.903891  1
  Nd  Nd2  1  0.503355  0.663291  0.906360  1
  Nd  Nd3  1  0.003814  0.835530  0.593303  1
  Nd  Nd4  1  0.497084  0.335196  0.094350  1
  Nd  Nd5  1  0.998804  0.165759  0.408105  1
  Nd  Nd6  1  0.498568  0.334628  0.408033  1
  Hf  Hf7  1  0.505350  0.670897  0.599753  1
  Si  Si8  1  0.035819  0.143519  0.748163  1
  Si  Si9  1  0.961917  0.858527  0.251074  1
  Si  Si10  1  0.462805  0.639527  0.250183  1
  Si  Si11  1  0.535474  0.364829  0.745752  1
  Si  Si12  1  0.310623  0.872481  0.746815  1
  Si  Si13  1  0.692895  0.119424  0.251454  1
  Si  Si14  1  0.194057  0.377859  0.250882  1
  Si  Si15  1  0.799672  0.624925  0.747137  1
  Si  Si16  1  0.168903  0.460349  0.548157  1
  Si  Si17  1  0.839328  0.546921  0.456359  1
  Si  Si18  1  0.346428  0.947221  0.456469  1
  Si  Si19  1  0.845534  0.546840  0.048389  1
  Si  Si20  1  0.652591  0.038581  0.548460  1
  Si  Si21  1  0.152885  0.452760  0.949798  1
  Si  Si22  1  0.653908  0.047277  0.950167  1
  Si  Si23  1  0.345245  0.953385  0.048281  1
  Mo  Mo24  1  0.167356  0.503054  0.745645  1
  Mo  Mo25  1  0.835546  0.502772  0.252308  1
  Mo  Mo26  1  0.334935  0.994621  0.251245  1
  Mo  Mo27  1  0.663597  0.998246  0.746530  1
  Mo  Mo28  1  0.332800  0.163889  0.625681  1
  Mo  Mo29  1  0.664979  0.830306  0.377110  1
  Mo  Mo30  1  0.168497  0.664506  0.374741  1
  Mo  Mo31  1  0.666594  0.833651  0.127261  1
  Mo  Mo32  1  0.830665  0.342193  0.624783  1
  Mo  Mo33  1  0.332956  0.166656  0.870896  1
  Mo  Mo34  1  0.829759  0.336591  0.871792  1
  Mo  Mo35  1  0.166808  0.664307  0.126393  1
