# generated using pymatgen
data_Dy8Lu6Sc6Si15Tc
_symmetry_space_group_name_H-M   'P 1'
_cell_length_a   7.15534769
_cell_length_b   7.57011654
_cell_length_c   14.15391215
_cell_angle_alpha   90.14871001
_cell_angle_beta   90.07573305
_cell_angle_gamma   90.38328488
_symmetry_Int_Tables_number   1
_chemical_formula_structural   Dy8Lu6Sc6Si15Tc
_chemical_formula_sum   'Dy8 Lu6 Sc6 Si15 Tc1'
_cell_volume   766.65192992
_cell_formula_units_Z   1
loop_
 _symmetry_equiv_pos_site_id
 _symmetry_equiv_pos_as_xyz
  1  'x, y, z'
loop_
 _atom_site_type_symbol
 _atom_site_label
 _atom_site_symmetry_multiplicity
 _atom_site_fract_x
 _atom_site_fract_y
 _atom_site_fract_z
 _atom_site_occupancy
  Dy  Dy0  1  0.012966  0.180920  0.094827  1
  Dy  Dy1  1  0.989159  0.825428  0.905967  1
  Dy  Dy2  1  0.487021  0.679303  0.904120  1
  Dy  Dy3  1  0.988035  0.825851  0.596904  1
  Dy  Dy4  1  0.512531  0.320631  0.095574  1
  Dy  Dy5  1  0.014589  0.181868  0.402100  1
  Dy  Dy6  1  0.513381  0.320717  0.402594  1
  Dy  Dy7  1  0.487012  0.678691  0.597308  1
  Lu  Lu8  1  0.313215  0.172036  0.629131  1
  Lu  Lu9  1  0.675007  0.825353  0.372841  1
  Lu  Lu10  1  0.174627  0.677735  0.372955  1
  Lu  Lu11  1  0.674071  0.824988  0.124346  1
  Lu  Lu12  1  0.835648  0.318036  0.628405  1
  Lu  Lu13  1  0.313763  0.172280  0.873549  1
  Sc  Sc14  1  0.155707  0.505735  0.751648  1
  Sc  Sc15  1  0.839769  0.489638  0.248272  1
  Sc  Sc16  1  0.339716  0.010794  0.248478  1
  Sc  Sc17  1  0.669434  0.994165  0.751554  1
  Sc  Sc18  1  0.836872  0.320206  0.872185  1
  Sc  Sc19  1  0.174059  0.677172  0.126256  1
  Si  Si20  1  0.976486  0.892745  0.247359  1
  Si  Si21  1  0.473306  0.602893  0.247062  1
  Si  Si22  1  0.526879  0.397572  0.752913  1
  Si  Si23  1  0.282437  0.862145  0.750898  1
  Si  Si24  1  0.714228  0.134850  0.248751  1
  Si  Si25  1  0.215195  0.367074  0.248195  1
  Si  Si26  1  0.779297  0.630841  0.751711  1
  Si  Si27  1  0.159964  0.471317  0.537796  1
  Si  Si28  1  0.844500  0.533516  0.461004  1
  Si  Si29  1  0.344783  0.969051  0.459300  1
  Si  Si30  1  0.848029  0.531702  0.038070  1
  Si  Si31  1  0.652229  0.031901  0.539343  1
  Si  Si32  1  0.156741  0.473238  0.963777  1
  Si  Si33  1  0.657835  0.036033  0.959788  1
  Si  Si34  1  0.341261  0.964523  0.041354  1
  Tc  Tc35  1  0.020247  0.099051  0.753663  1
