# generated using pymatgen
data_Tb(Y4Rh3)2
_symmetry_space_group_name_H-M   'P 1'
_cell_length_a   7.41001024
_cell_length_b   7.41934044
_cell_length_c   7.42004059
_cell_angle_alpha   71.64323574
_cell_angle_beta   71.58281092
_cell_angle_gamma   71.58758671
_symmetry_Int_Tables_number   1
_chemical_formula_structural   Tb(Y4Rh3)2
_chemical_formula_sum   'Tb1 Y8 Rh6'
_cell_volume   356.58530033
_cell_formula_units_Z   1
loop_
 _symmetry_equiv_pos_site_id
 _symmetry_equiv_pos_as_xyz
  1  'x, y, z'
loop_
 _atom_site_type_symbol
 _atom_site_label
 _atom_site_symmetry_multiplicity
 _atom_site_fract_x
 _atom_site_fract_y
 _atom_site_fract_z
 _atom_site_occupancy
  Tb  Tb0  1  0.606076  0.333924  0.840076  1
  Y  Y1  1  0.001012  0.998709  0.000679  1
  Y  Y2  1  0.796091  0.795514  0.795819  1
  Y  Y3  1  0.203557  0.204020  0.205194  1
  Y  Y4  1  0.160116  0.393915  0.665578  1
  Y  Y5  1  0.665479  0.159713  0.394521  1
  Y  Y6  1  0.393936  0.664853  0.159973  1
  Y  Y7  1  0.839732  0.606387  0.334331  1
  Y  Y8  1  0.334350  0.840158  0.605956  1
  Rh  Rh9  1  0.953878  0.165587  0.590564  1
  Rh  Rh10  1  0.590687  0.955808  0.163579  1
  Rh  Rh11  1  0.165558  0.589469  0.954587  1
  Rh  Rh12  1  0.044963  0.835458  0.410193  1
  Rh  Rh13  1  0.410267  0.046642  0.834355  1
  Rh  Rh14  1  0.834297  0.409843  0.044592  1
