# generated using pymatgen
data_Pr3PI3
_symmetry_space_group_name_H-M   'P 1'
_cell_length_a   10.75207262
_cell_length_b   10.75207344
_cell_length_c   10.75207300
_cell_angle_alpha   109.47122358
_cell_angle_beta   109.47122512
_cell_angle_gamma   109.47121727
_symmetry_Int_Tables_number   1
_chemical_formula_structural   Pr3PI3
_chemical_formula_sum   'Pr12 P4 I12'
_cell_volume   956.87388628
_cell_formula_units_Z   4
loop_
 _symmetry_equiv_pos_site_id
 _symmetry_equiv_pos_as_xyz
  1  'x, y, z'
loop_
 _atom_site_type_symbol
 _atom_site_label
 _atom_site_symmetry_multiplicity
 _atom_site_fract_x
 _atom_site_fract_y
 _atom_site_fract_z
 _atom_site_occupancy
  Pr  Pr0  1  0.461387  0.480694  0.230694  1
  Pr  Pr1  1  0.750000  0.230694  0.269306  1
  Pr  Pr2  1  0.750000  0.019306  0.480694  1
  Pr  Pr3  1  0.230694  0.461387  0.480694  1
  Pr  Pr4  1  0.269306  0.750000  0.230694  1
  Pr  Pr5  1  0.038613  0.269306  0.019306  1
  Pr  Pr6  1  0.019306  0.038613  0.269306  1
  Pr  Pr7  1  0.480694  0.750000  0.019306  1
  Pr  Pr8  1  0.480694  0.230694  0.461387  1
  Pr  Pr9  1  0.019306  0.480694  0.750000  1
  Pr  Pr10  1  0.269306  0.019306  0.038613  1
  Pr  Pr11  1  0.230694  0.269306  0.750000  1
  P  P12  1  0.250000  0.250000  0.250000  1
  P  P13  1  0.500000  0.000000  0.250000  1
  P  P14  1  0.000000  0.250000  0.500000  1
  P  P15  1  0.250000  0.500000  0.000000  1
  I  I16  1  0.250000  0.758756  0.741244  1
  I  I17  1  0.517510  0.508756  0.758756  1
  I  I18  1  0.982490  0.741244  0.991244  1
  I  I19  1  0.741244  0.250000  0.758756  1
  I  I20  1  0.991244  0.982490  0.741244  1
  I  I21  1  0.250000  0.991244  0.508756  1
  I  I22  1  0.758756  0.517510  0.508756  1
  I  I23  1  0.508756  0.250000  0.991244  1
  I  I24  1  0.758756  0.741244  0.250000  1
  I  I25  1  0.741244  0.991244  0.982490  1
  I  I26  1  0.991244  0.508756  0.250000  1
  I  I27  1  0.508756  0.758756  0.517510  1
