# generated using pymatgen
data_Sm2Sc3(SiSn)2
_symmetry_space_group_name_H-M   'P 1'
_cell_length_a   7.44972400
_cell_length_b   7.67905000
_cell_length_c   14.76911300
_cell_angle_alpha   90.00000000
_cell_angle_beta   90.00000000
_cell_angle_gamma   90.00000000
_symmetry_Int_Tables_number   1
_chemical_formula_structural   Sm2Sc3(SiSn)2
_chemical_formula_sum   'Sm8 Sc12 Si8 Sn8'
_cell_volume   844.89373909
_cell_formula_units_Z   4
loop_
 _symmetry_equiv_pos_site_id
 _symmetry_equiv_pos_as_xyz
  1  'x, y, z'
loop_
 _atom_site_type_symbol
 _atom_site_label
 _atom_site_symmetry_multiplicity
 _atom_site_fract_x
 _atom_site_fract_y
 _atom_site_fract_z
 _atom_site_occupancy
  Sm  Sm0  1  0.995124  0.173554  0.107676  1
  Sm  Sm1  1  0.004876  0.826446  0.892324  1
  Sm  Sm2  1  0.504876  0.673554  0.892324  1
  Sm  Sm3  1  0.004876  0.826446  0.607676  1
  Sm  Sm4  1  0.495124  0.326446  0.107676  1
  Sm  Sm5  1  0.995124  0.173554  0.392324  1
  Sm  Sm6  1  0.495124  0.326446  0.392324  1
  Sm  Sm7  1  0.504876  0.673554  0.607676  1
  Sc  Sc8  1  0.171200  0.498870  0.750000  1
  Sc  Sc9  1  0.828800  0.501130  0.250000  1
  Sc  Sc10  1  0.328800  0.998870  0.250000  1
  Sc  Sc11  1  0.671200  0.001130  0.750000  1
  Sc  Sc12  1  0.338393  0.166009  0.636532  1
  Sc  Sc13  1  0.661607  0.833991  0.363468  1
  Sc  Sc14  1  0.161607  0.666009  0.363468  1
  Sc  Sc15  1  0.661607  0.833991  0.136532  1
  Sc  Sc16  1  0.838393  0.333991  0.636532  1
  Sc  Sc17  1  0.338393  0.166009  0.863468  1
  Sc  Sc18  1  0.838393  0.333991  0.863468  1
  Sc  Sc19  1  0.161607  0.666009  0.136532  1
  Si  Si20  1  0.036802  0.126262  0.750000  1
  Si  Si21  1  0.963198  0.873738  0.250000  1
  Si  Si22  1  0.463198  0.626262  0.250000  1
  Si  Si23  1  0.536802  0.373738  0.750000  1
  Si  Si24  1  0.306861  0.867342  0.750000  1
  Si  Si25  1  0.693139  0.132658  0.250000  1
  Si  Si26  1  0.193139  0.367342  0.250000  1
  Si  Si27  1  0.806861  0.632658  0.750000  1
  Sn  Sn28  1  0.176689  0.454307  0.538939  1
  Sn  Sn29  1  0.823311  0.545693  0.461061  1
  Sn  Sn30  1  0.323311  0.954307  0.461061  1
  Sn  Sn31  1  0.823311  0.545693  0.038939  1
  Sn  Sn32  1  0.676689  0.045693  0.538939  1
  Sn  Sn33  1  0.176689  0.454307  0.961061  1
  Sn  Sn34  1  0.676689  0.045693  0.961061  1
  Sn  Sn35  1  0.323311  0.954307  0.038939  1
