# generated using pymatgen
data_BaVCuNiS4
_symmetry_space_group_name_H-M   'P 1'
_cell_length_a   9.17408957
_cell_length_b   9.17409112
_cell_length_c   7.12744900
_cell_angle_alpha   90.00000000
_cell_angle_beta   90.00000000
_cell_angle_gamma   146.02852482
_symmetry_Int_Tables_number   1
_chemical_formula_structural   BaVCuNiS4
_chemical_formula_sum   'Ba2 V2 Cu2 Ni2 S8'
_cell_volume   335.19773247
_cell_formula_units_Z   2
loop_
 _symmetry_equiv_pos_site_id
 _symmetry_equiv_pos_as_xyz
  1  'x, y, z'
loop_
 _atom_site_type_symbol
 _atom_site_label
 _atom_site_symmetry_multiplicity
 _atom_site_fract_x
 _atom_site_fract_y
 _atom_site_fract_z
 _atom_site_occupancy
  Ba  Ba0  1  0.908984  0.560098  0.250000  1
  Ba  Ba1  1  0.560098  0.908984  0.750000  1
  V  V2  1  0.870768  0.091182  0.250000  1
  V  V3  1  0.091182  0.870768  0.750000  1
  Cu  Cu4  1  0.369199  0.590285  0.250000  1
  Cu  Cu5  1  0.590285  0.369199  0.750000  1
  Ni  Ni6  1  0.984066  0.984066  0.500000  1
  Ni  Ni7  1  0.984066  0.984066  0.000000  1
  S  S8  1  0.322532  0.110197  0.495697  1
  S  S9  1  0.110197  0.322532  0.504303  1
  S  S10  1  0.526566  0.955673  0.250000  1
  S  S11  1  0.955673  0.526566  0.750000  1
  S  S12  1  0.735357  0.749736  0.250000  1
  S  S13  1  0.749736  0.735357  0.750000  1
  S  S14  1  0.322532  0.110197  0.004303  1
  S  S15  1  0.110197  0.322532  0.995697  1
