# generated using pymatgen
data_Sm2YBiO7
_symmetry_space_group_name_H-M   'P 1'
_cell_length_a   6.64855044
_cell_length_b   6.65041493
_cell_length_c   7.83292100
_cell_angle_alpha   106.91237936
_cell_angle_beta   89.79528408
_cell_angle_gamma   98.61913569
_symmetry_Int_Tables_number   1
_chemical_formula_structural   Sm2YBiO7
_chemical_formula_sum   'Sm4 Y2 Bi2 O14'
_cell_volume   327.32299043
_cell_formula_units_Z   2
loop_
 _symmetry_equiv_pos_site_id
 _symmetry_equiv_pos_as_xyz
  1  'x, y, z'
loop_
 _atom_site_type_symbol
 _atom_site_label
 _atom_site_symmetry_multiplicity
 _atom_site_fract_x
 _atom_site_fract_y
 _atom_site_fract_z
 _atom_site_occupancy
  Sm  Sm0  1  0.270489  0.538808  0.883194  1
  Sm  Sm1  1  0.729511  0.461192  0.116806  1
  Sm  Sm2  1  0.736147  0.476386  0.614138  1
  Sm  Sm3  1  0.263853  0.523614  0.385862  1
  Y  Y4  1  0.462302  0.005475  0.252689  1
  Y  Y5  1  0.537698  0.994525  0.747311  1
  Bi  Bi6  1  0.000000  0.000000  0.500000  1
  Bi  Bi7  1  0.000000  0.000000  0.000000  1
  O  O8  1  0.444730  0.652351  0.168555  1
  O  O9  1  0.555270  0.347649  0.831445  1
  O  O10  1  0.301832  0.928373  0.952883  1
  O  O11  1  0.698168  0.071627  0.047117  1
  O  O12  1  0.298352  0.928677  0.513339  1
  O  O13  1  0.701648  0.071323  0.486661  1
  O  O14  1  0.544674  0.358165  0.344055  1
  O  O15  1  0.455326  0.641835  0.655945  1
  O  O16  1  0.926590  0.669195  0.957175  1
  O  O17  1  0.073410  0.330805  0.042825  1
  O  O18  1  0.070469  0.344321  0.617705  1
  O  O19  1  0.929531  0.655679  0.382295  1
  O  O20  1  0.877546  0.908497  0.726516  1
  O  O21  1  0.122454  0.091503  0.273484  1
