# generated using pymatgen
data_Yb2Co17Si8Ni
_symmetry_space_group_name_H-M   'P 1'
_cell_length_a   7.90411817
_cell_length_b   7.90411944
_cell_length_c   7.92752961
_cell_angle_alpha   121.77778645
_cell_angle_beta   121.77779508
_cell_angle_gamma   86.96949393
_symmetry_Int_Tables_number   1
_chemical_formula_structural   Yb2Co17Si8Ni
_chemical_formula_sum   'Yb2 Co17 Si8 Ni1'
_cell_volume   340.21285720
_cell_formula_units_Z   1
loop_
 _symmetry_equiv_pos_site_id
 _symmetry_equiv_pos_as_xyz
  1  'x, y, z'
loop_
 _atom_site_type_symbol
 _atom_site_label
 _atom_site_symmetry_multiplicity
 _atom_site_fract_x
 _atom_site_fract_y
 _atom_site_fract_z
 _atom_site_occupancy
  Yb  Yb0  1  0.250637  0.250264  0.000372  1
  Yb  Yb1  1  0.750264  0.750637  0.000372  1
  Co  Co2  1  0.689210  0.189210  0.237705  1
  Co  Co3  1  0.000538  0.500538  0.500234  1
  Co  Co4  1  0.931067  0.198020  0.127846  1
  Co  Co5  1  0.801385  0.931085  0.732998  1
  Co  Co6  1  0.449669  0.688722  0.499792  1
  Co  Co7  1  0.068964  0.802582  0.872186  1
  Co  Co8  1  0.810317  0.049173  0.499484  1
  Co  Co9  1  0.549173  0.310317  0.499484  1
  Co  Co10  1  0.949916  0.449916  0.758268  1
  Co  Co11  1  0.188722  0.949669  0.499792  1
  Co  Co12  1  0.302582  0.568964  0.872186  1
  Co  Co13  1  0.569328  0.696989  0.267594  1
  Co  Co14  1  0.431085  0.301385  0.732998  1
  Co  Co15  1  0.196989  0.069328  0.267594  1
  Co  Co16  1  0.698020  0.431067  0.127846  1
  Co  Co17  1  0.498913  0.998913  0.499158  1
  Co  Co18  1  0.311642  0.811642  0.763910  1
  Si  Si19  1  0.044941  0.208560  0.499427  1
  Si  Si20  1  0.209501  0.709501  0.161549  1
  Si  Si21  1  0.789271  0.289271  0.832704  1
  Si  Si22  1  0.455054  0.955054  0.164408  1
  Si  Si23  1  0.544735  0.044735  0.835492  1
  Si  Si24  1  0.955640  0.793537  0.505010  1
  Si  Si25  1  0.293537  0.455640  0.505010  1
  Si  Si26  1  0.708560  0.544941  0.499427  1
  Ni  Ni27  1  0.050340  0.550340  0.237156  1
