# generated using pymatgen
data_Sc11CoRu2Pt
_symmetry_space_group_name_H-M   'P 1'
_cell_length_a   9.46624012
_cell_length_b   9.46623983
_cell_length_c   9.41587200
_cell_angle_alpha   60.17585462
_cell_angle_beta   60.17585563
_cell_angle_gamma   59.64829841
_symmetry_Int_Tables_number   1
_chemical_formula_structural   Sc11CoRu2Pt
_chemical_formula_sum   'Sc22 Co2 Ru4 Pt2'
_cell_volume   596.59022852
_cell_formula_units_Z   2
loop_
 _symmetry_equiv_pos_site_id
 _symmetry_equiv_pos_as_xyz
  1  'x, y, z'
loop_
 _atom_site_type_symbol
 _atom_site_label
 _atom_site_symmetry_multiplicity
 _atom_site_fract_x
 _atom_site_fract_y
 _atom_site_fract_z
 _atom_site_occupancy
  Sc  Sc0  1  0.806960  0.806960  0.193040  1
  Sc  Sc1  1  0.193356  0.806644  0.193356  1
  Sc  Sc2  1  0.806644  0.193356  0.193356  1
  Sc  Sc3  1  0.193040  0.193040  0.806960  1
  Sc  Sc4  1  0.806644  0.193356  0.806644  1
  Sc  Sc5  1  0.193356  0.806644  0.806644  1
  Sc  Sc6  1  0.615854  0.615854  0.155304  1
  Sc  Sc7  1  0.612991  0.155304  0.615854  1
  Sc  Sc8  1  0.155304  0.612991  0.615854  1
  Sc  Sc9  1  0.615854  0.615854  0.612991  1
  Sc  Sc10  1  0.384146  0.384146  0.844696  1
  Sc  Sc11  1  0.387009  0.844696  0.384146  1
  Sc  Sc12  1  0.844696  0.387009  0.384146  1
  Sc  Sc13  1  0.384146  0.384146  0.387009  1
  Sc  Sc14  1  0.839725  0.839725  0.473652  1
  Sc  Sc15  1  0.846897  0.473652  0.839725  1
  Sc  Sc16  1  0.473652  0.846897  0.839725  1
  Sc  Sc17  1  0.839725  0.839725  0.846897  1
  Sc  Sc18  1  0.160275  0.160275  0.526348  1
  Sc  Sc19  1  0.153103  0.526348  0.160275  1
  Sc  Sc20  1  0.526348  0.153103  0.160275  1
  Sc  Sc21  1  0.160275  0.160275  0.153103  1
  Co  Co22  1  0.000000  0.000000  0.000000  1
  Co  Co23  1  0.500000  0.500000  0.500000  1
  Ru  Ru24  1  0.500000  0.000000  0.500000  1
  Ru  Ru25  1  0.000000  0.500000  0.500000  1
  Ru  Ru26  1  0.000000  0.500000  0.000000  1
  Ru  Ru27  1  0.500000  0.000000  0.000000  1
  Pt  Pt28  1  0.000000  0.000000  0.500000  1
  Pt  Pt29  1  0.500000  0.500000  0.000000  1
