# generated using pymatgen
data_CaYb7Bi12
_symmetry_space_group_name_H-M   'P 1'
_cell_length_a   6.46885700
_cell_length_b   6.75977717
_cell_length_c   14.94678237
_cell_angle_alpha   89.97438102
_cell_angle_beta   90.00000000
_cell_angle_gamma   90.00000000
_symmetry_Int_Tables_number   1
_chemical_formula_structural   CaYb7Bi12
_chemical_formula_sum   'Ca1 Yb7 Bi12'
_cell_volume   653.59331046
_cell_formula_units_Z   1
loop_
 _symmetry_equiv_pos_site_id
 _symmetry_equiv_pos_as_xyz
  1  'x, y, z'
loop_
 _atom_site_type_symbol
 _atom_site_label
 _atom_site_symmetry_multiplicity
 _atom_site_fract_x
 _atom_site_fract_y
 _atom_site_fract_z
 _atom_site_occupancy
  Ca  Ca0  1  0.438690  0.500000  0.750000  1
  Yb  Yb1  1  0.938680  0.000000  0.250000  1
  Yb  Yb2  1  0.561313  0.500000  0.250000  1
  Yb  Yb3  1  0.061258  0.000000  0.750000  1
  Yb  Yb4  1  0.749998  0.750003  0.999821  1
  Yb  Yb5  1  0.749998  0.249997  0.500179  1
  Yb  Yb6  1  0.250004  0.249948  0.000235  1
  Yb  Yb7  1  0.250004  0.750052  0.499765  1
  Bi  Bi8  1  0.750020  0.750016  0.433656  1
  Bi  Bi9  1  0.750020  0.249984  0.066344  1
  Bi  Bi10  1  0.249881  0.249726  0.566218  1
  Bi  Bi11  1  0.249881  0.750274  0.933782  1
  Bi  Bi12  1  0.420620  0.933411  0.149997  1
  Bi  Bi13  1  0.420620  0.066589  0.350003  1
  Bi  Bi14  1  0.079391  0.433448  0.350001  1
  Bi  Bi15  1  0.079391  0.566552  0.149999  1
  Bi  Bi16  1  0.579464  0.066595  0.850065  1
  Bi  Bi17  1  0.579464  0.933405  0.649935  1
  Bi  Bi18  1  0.920650  0.566616  0.649858  1
  Bi  Bi19  1  0.920650  0.433384  0.850142  1
