# generated using pymatgen
data_MnPbF5
_symmetry_space_group_name_H-M   'P 1'
_cell_length_a   5.84503811
_cell_length_b   5.84503749
_cell_length_c   8.27891860
_cell_angle_alpha   69.10930013
_cell_angle_beta   69.10929966
_cell_angle_gamma   70.95020944
_symmetry_Int_Tables_number   1
_chemical_formula_structural   MnPbF5
_chemical_formula_sum   'Mn2 Pb2 F10'
_cell_volume   240.36245453
_cell_formula_units_Z   2
loop_
 _symmetry_equiv_pos_site_id
 _symmetry_equiv_pos_as_xyz
  1  'x, y, z'
loop_
 _atom_site_type_symbol
 _atom_site_label
 _atom_site_symmetry_multiplicity
 _atom_site_fract_x
 _atom_site_fract_y
 _atom_site_fract_z
 _atom_site_occupancy
  Mn  Mn0  1  0.000000  0.000000  0.000000  1
  Mn  Mn1  1  0.000000  0.000000  0.500000  1
  Pb  Pb2  1  0.547890  0.452110  0.750000  1
  Pb  Pb3  1  0.452110  0.547890  0.250000  1
  F  F4  1  0.080378  0.919622  0.250000  1
  F  F5  1  0.919622  0.080378  0.750000  1
  F  F6  1  0.202310  0.232389  0.387719  1
  F  F7  1  0.767611  0.797690  0.112281  1
  F  F8  1  0.726058  0.295702  0.028958  1
  F  F9  1  0.704298  0.273942  0.471042  1
  F  F10  1  0.273942  0.704298  0.971042  1
  F  F11  1  0.295702  0.726058  0.528958  1
  F  F12  1  0.232389  0.202310  0.887719  1
  F  F13  1  0.797690  0.767611  0.612281  1
