# generated using pymatgen
data_Ca2Ho3Bi3C
_symmetry_space_group_name_H-M   'P 1'
_cell_length_a   6.61244600
_cell_length_b   9.14552942
_cell_length_c   9.14492400
_cell_angle_alpha   120.00218391
_cell_angle_beta   90.00000000
_cell_angle_gamma   90.00000000
_symmetry_Int_Tables_number   1
_chemical_formula_structural   Ca2Ho3Bi3C
_chemical_formula_sum   'Ca4 Ho6 Bi6 C2'
_cell_volume   478.93013489
_cell_formula_units_Z   2
loop_
 _symmetry_equiv_pos_site_id
 _symmetry_equiv_pos_as_xyz
  1  'x, y, z'
loop_
 _atom_site_type_symbol
 _atom_site_label
 _atom_site_symmetry_multiplicity
 _atom_site_fract_x
 _atom_site_fract_y
 _atom_site_fract_z
 _atom_site_occupancy
  Ca  Ca0  1  0.500001  0.333328  0.666657  1
  Ca  Ca1  1  0.500001  0.666670  0.333343  1
  Ca  Ca2  1  0.000001  0.666672  0.333343  1
  Ca  Ca3  1  0.000001  0.333330  0.666657  1
  Ho  Ho4  1  0.750001  0.205781  0.000000  1
  Ho  Ho5  1  0.750006  0.794147  0.794155  1
  Ho  Ho6  1  0.750006  0.999992  0.205845  1
  Ho  Ho7  1  0.250001  0.794219  0.000000  1
  Ho  Ho8  1  0.250006  0.205853  0.205845  1
  Ho  Ho9  1  0.250006  0.000008  0.794155  1
  Bi  Bi10  1  0.750002  0.599992  0.000000  1
  Bi  Bi11  1  0.749995  0.400039  0.400070  1
  Bi  Bi12  1  0.749995  0.999969  0.599930  1
  Bi  Bi13  1  0.250002  0.400008  0.000000  1
  Bi  Bi14  1  0.249995  0.599961  0.599930  1
  Bi  Bi15  1  0.249995  0.000031  0.400070  1
  C  C16  1  0.499996  0.999999  0.000000  1
  C  C17  1  0.999996  0.000001  0.000000  1
