# generated using pymatgen
data_La2Pr3(SiC)2
_symmetry_space_group_name_H-M   'P 1'
_cell_length_a   8.10520000
_cell_length_b   12.82429300
_cell_length_c   4.27032100
_cell_angle_alpha   90.00000000
_cell_angle_beta   90.00000000
_cell_angle_gamma   90.00000000
_symmetry_Int_Tables_number   1
_chemical_formula_structural   La2Pr3(SiC)2
_chemical_formula_sum   'La4 Pr6 Si4 C4'
_cell_volume   443.87193844
_cell_formula_units_Z   2
loop_
 _symmetry_equiv_pos_site_id
 _symmetry_equiv_pos_as_xyz
  1  'x, y, z'
loop_
 _atom_site_type_symbol
 _atom_site_label
 _atom_site_symmetry_multiplicity
 _atom_site_fract_x
 _atom_site_fract_y
 _atom_site_fract_z
 _atom_site_occupancy
  La  La0  1  0.830261  0.061506  0.499998  1
  La  La1  1  0.330261  0.438494  0.499998  1
  La  La2  1  0.669740  0.561506  0.499998  1
  La  La3  1  0.169740  0.938494  0.499998  1
  Pr  Pr4  1  0.500000  0.000000  0.000000  1
  Pr  Pr5  1  0.176670  0.213052  0.000000  1
  Pr  Pr6  1  0.676671  0.286948  0.000000  1
  Pr  Pr7  1  0.000000  0.500000  0.000000  1
  Pr  Pr8  1  0.323330  0.713052  0.000000  1
  Pr  Pr9  1  0.823330  0.786948  0.000000  1
  Si  Si10  1  0.455448  0.171322  0.499998  1
  Si  Si11  1  0.955448  0.328678  0.499998  1
  Si  Si12  1  0.044551  0.671322  0.499998  1
  Si  Si13  1  0.544553  0.828678  0.499998  1
  C  C14  1  0.040790  0.046732  0.000000  1
  C  C15  1  0.540789  0.453268  0.000000  1
  C  C16  1  0.459210  0.546732  0.000000  1
  C  C17  1  0.959211  0.953268  0.000000  1
