# generated using pymatgen
data_Sc12Re3Si12Au
_symmetry_space_group_name_H-M   'P 1'
_cell_length_a   4.01225700
_cell_length_b   10.44856664
_cell_length_c   11.76948705
_cell_angle_alpha   89.74714298
_cell_angle_beta   90.00000000
_cell_angle_gamma   90.00000000
_symmetry_Int_Tables_number   1
_chemical_formula_structural   Sc12Re3Si12Au
_chemical_formula_sum   'Sc12 Re3 Si12 Au1'
_cell_volume   493.39956949
_cell_formula_units_Z   1
loop_
 _symmetry_equiv_pos_site_id
 _symmetry_equiv_pos_as_xyz
  1  'x, y, z'
loop_
 _atom_site_type_symbol
 _atom_site_label
 _atom_site_symmetry_multiplicity
 _atom_site_fract_x
 _atom_site_fract_y
 _atom_site_fract_z
 _atom_site_occupancy
  Sc  Sc0  1  0.250000  0.878212  0.019446  1
  Sc  Sc1  1  0.250000  0.627635  0.514639  1
  Sc  Sc2  1  0.750000  0.124248  0.983396  1
  Sc  Sc3  1  0.750000  0.376941  0.476565  1
  Sc  Sc4  1  0.250000  0.922484  0.605552  1
  Sc  Sc5  1  0.250000  0.577427  0.106164  1
  Sc  Sc6  1  0.750000  0.078852  0.392671  1
  Sc  Sc7  1  0.750000  0.422808  0.898252  1
  Sc  Sc8  1  0.250000  0.662626  0.800607  1
  Sc  Sc9  1  0.250000  0.840243  0.297504  1
  Sc  Sc10  1  0.750000  0.339468  0.202238  1
  Sc  Sc11  1  0.750000  0.155348  0.702428  1
  Re  Re12  1  0.250000  0.110952  0.176355  1
  Re  Re13  1  0.750000  0.609973  0.324740  1
  Re  Re14  1  0.750000  0.890104  0.823166  1
  Si  Si15  1  0.250000  0.016119  0.821904  1
  Si  Si16  1  0.250000  0.482034  0.323102  1
  Si  Si17  1  0.750000  0.982259  0.177716  1
  Si  Si18  1  0.750000  0.526383  0.673061  1
  Si  Si19  1  0.250000  0.247268  0.849597  1
  Si  Si20  1  0.250000  0.248434  0.343614  1
  Si  Si21  1  0.750000  0.747365  0.156247  1
  Si  Si22  1  0.750000  0.753651  0.656687  1
  Si  Si23  1  0.250000  0.182331  0.540596  1
  Si  Si24  1  0.250000  0.309263  0.046697  1
  Si  Si25  1  0.750000  0.807830  0.454483  1
  Si  Si26  1  0.750000  0.694826  0.956525  1
  Au  Au27  1  0.250000  0.384918  0.676049  1
