# generated using pymatgen
data_KBaIn5SnAu6
_symmetry_space_group_name_H-M   'P 1'
_cell_length_a   4.62446000
_cell_length_b   8.17099541
_cell_length_c   9.33712797
_cell_angle_alpha   90.52092243
_cell_angle_beta   90.00000000
_cell_angle_gamma   90.00000000
_symmetry_Int_Tables_number   1
_chemical_formula_structural   KBaIn5SnAu6
_chemical_formula_sum   'K1 Ba1 In5 Sn1 Au6'
_cell_volume   352.80225748
_cell_formula_units_Z   1
loop_
 _symmetry_equiv_pos_site_id
 _symmetry_equiv_pos_as_xyz
  1  'x, y, z'
loop_
 _atom_site_type_symbol
 _atom_site_label
 _atom_site_symmetry_multiplicity
 _atom_site_fract_x
 _atom_site_fract_y
 _atom_site_fract_z
 _atom_site_occupancy
  K  K0  1  0.000000  0.499394  0.266733  1
  Ba  Ba1  1  0.500000  0.002143  0.733249  1
  In  In2  1  0.500000  0.194034  0.119425  1
  In  In3  1  0.500000  0.799799  0.115342  1
  In  In4  1  0.000000  0.693089  0.885422  1
  In  In5  1  0.000000  0.001612  0.370568  1
  In  In6  1  0.500000  0.502905  0.621876  1
  Sn  Sn7  1  0.000000  0.306594  0.888154  1
  Au  Au8  1  0.500000  0.785906  0.413621  1
  Au  Au9  1  0.000000  0.998632  0.043957  1
  Au  Au10  1  0.500000  0.497175  0.950295  1
  Au  Au11  1  0.000000  0.719365  0.586312  1
  Au  Au12  1  0.000000  0.282481  0.589325  1
  Au  Au13  1  0.500000  0.216871  0.415721  1
