# generated using pymatgen
data_Nd16MgTl2Hg(RuPt)2
_symmetry_space_group_name_H-M   'P 1'
_cell_length_a   9.92369846
_cell_length_b   9.96250600
_cell_length_c   9.92369800
_cell_angle_alpha   60.05605948
_cell_angle_beta   60.13987956
_cell_angle_gamma   60.05605910
_symmetry_Int_Tables_number   1
_chemical_formula_structural   Nd16MgTl2Hg(RuPt)2
_chemical_formula_sum   'Nd16 Mg1 Tl2 Hg1 Ru2 Pt2'
_cell_volume   695.06585919
_cell_formula_units_Z   1
loop_
 _symmetry_equiv_pos_site_id
 _symmetry_equiv_pos_as_xyz
  1  'x, y, z'
loop_
 _atom_site_type_symbol
 _atom_site_label
 _atom_site_symmetry_multiplicity
 _atom_site_fract_x
 _atom_site_fract_y
 _atom_site_fract_z
 _atom_site_occupancy
  Nd  Nd0  1  0.559870  0.558111  0.934221  1
  Nd  Nd1  1  0.187702  0.810365  0.189461  1
  Nd  Nd2  1  0.807287  0.811475  0.193307  1
  Nd  Nd3  1  0.189046  0.184212  0.813456  1
  Nd  Nd4  1  0.400385  0.802036  0.401597  1
  Nd  Nd5  1  0.807807  0.190232  0.813282  1
  Nd  Nd6  1  0.932562  0.945508  0.562478  1
  Nd  Nd7  1  0.810644  0.185661  0.190228  1
  Nd  Nd8  1  0.940346  0.560018  0.940524  1
  Nd  Nd9  1  0.794051  0.399700  0.405356  1
  Nd  Nd10  1  0.564948  0.942384  0.931815  1
  Nd  Nd11  1  0.192705  0.808770  0.809578  1
  Nd  Nd12  1  0.559649  0.941188  0.558815  1
  Nd  Nd13  1  0.400022  0.394628  0.401912  1
  Nd  Nd14  1  0.934695  0.558863  0.558761  1
  Nd  Nd15  1  0.404504  0.398586  0.795342  1
  Mg  Mg16  1  0.180645  0.177694  0.175956  1
  Tl  Tl17  1  0.167740  0.501316  0.164971  1
  Tl  Tl18  1  0.166654  0.165835  0.502559  1
  Hg  Hg19  1  0.505873  0.163761  0.162627  1
  Ru  Ru20  1  0.606143  0.609529  0.606530  1
  Ru  Ru21  1  0.606970  0.173229  0.605438  1
  Pt  Pt22  1  0.176490  0.608094  0.604571  1
  Pt  Pt23  1  0.603264  0.608802  0.177214  1
