# generated using pymatgen
data_HoEr6Co4Sn23Ir2
_symmetry_space_group_name_H-M   'P 1'
_cell_length_a   9.72955636
_cell_length_b   9.72955749
_cell_length_c   10.00660458
_cell_angle_alpha   90.21126897
_cell_angle_beta   89.78872633
_cell_angle_gamma   120.06455800
_symmetry_Int_Tables_number   1
_chemical_formula_structural   HoEr6Co4Sn23Ir2
_chemical_formula_sum   'Ho1 Er6 Co4 Sn23 Ir2'
_cell_volume   819.81653555
_cell_formula_units_Z   1
loop_
 _symmetry_equiv_pos_site_id
 _symmetry_equiv_pos_as_xyz
  1  'x, y, z'
loop_
 _atom_site_type_symbol
 _atom_site_label
 _atom_site_symmetry_multiplicity
 _atom_site_fract_x
 _atom_site_fract_y
 _atom_site_fract_z
 _atom_site_occupancy
  Ho  Ho0  1  0.000000  0.000000  0.000000  1
  Er  Er1  1  0.479149  0.520851  0.306847  1
  Er  Er2  1  0.520851  0.479149  0.693153  1
  Er  Er3  1  0.479779  0.958489  0.306296  1
  Er  Er4  1  0.520221  0.041511  0.693704  1
  Er  Er5  1  0.041511  0.520221  0.306296  1
  Er  Er6  1  0.958489  0.479779  0.693704  1
  Co  Co7  1  0.830618  0.663478  0.197769  1
  Co  Co8  1  0.169382  0.336522  0.802231  1
  Co  Co9  1  0.336522  0.169382  0.197769  1
  Co  Co10  1  0.663478  0.830618  0.802231  1
  Sn  Sn11  1  0.117801  0.882199  0.274000  1
  Sn  Sn12  1  0.882199  0.117801  0.726000  1
  Sn  Sn13  1  0.124893  0.238366  0.278408  1
  Sn  Sn14  1  0.875107  0.761634  0.721592  1
  Sn  Sn15  1  0.761634  0.875107  0.278408  1
  Sn  Sn16  1  0.238366  0.124893  0.721592  1
  Sn  Sn17  1  0.779128  0.220872  0.457956  1
  Sn  Sn18  1  0.220872  0.779128  0.542044  1
  Sn  Sn19  1  0.780692  0.561091  0.451459  1
  Sn  Sn20  1  0.219308  0.438909  0.548541  1
  Sn  Sn21  1  0.438909  0.219308  0.451459  1
  Sn  Sn22  1  0.561091  0.780692  0.548541  1
  Sn  Sn23  1  0.351405  0.004770  0.005795  1
  Sn  Sn24  1  0.648595  0.995230  0.994205  1
  Sn  Sn25  1  0.004770  0.351405  0.994205  1
  Sn  Sn26  1  0.995230  0.648595  0.005795  1
  Sn  Sn27  1  0.654032  0.654032  0.000000  1
  Sn  Sn28  1  0.345968  0.345968  0.000000  1
  Sn  Sn29  1  0.333717  0.666283  0.119839  1
  Sn  Sn30  1  0.666283  0.333717  0.880161  1
  Sn  Sn31  1  0.336061  0.663939  0.819752  1
  Sn  Sn32  1  0.663939  0.336061  0.180248  1
  Sn  Sn33  1  0.000000  0.000000  0.500000  1
  Ir  Ir34  1  0.831719  0.168281  0.197244  1
  Ir  Ir35  1  0.168281  0.831719  0.802756  1
