# generated using pymatgen
data_U8ReTc(B12Mo)2
_symmetry_space_group_name_H-M   'P 1'
_cell_length_a   3.66644400
_cell_length_b   9.27714830
_cell_length_c   11.36740902
_cell_angle_alpha   90.03333849
_cell_angle_beta   90.00000000
_cell_angle_gamma   90.00000000
_symmetry_Int_Tables_number   1
_chemical_formula_structural   U8ReTc(B12Mo)2
_chemical_formula_sum   'U8 Re1 Tc1 B24 Mo2'
_cell_volume   386.65263007
_cell_formula_units_Z   1
loop_
 _symmetry_equiv_pos_site_id
 _symmetry_equiv_pos_as_xyz
  1  'x, y, z'
loop_
 _atom_site_type_symbol
 _atom_site_label
 _atom_site_symmetry_multiplicity
 _atom_site_fract_x
 _atom_site_fract_y
 _atom_site_fract_z
 _atom_site_occupancy
  U  U0  1  0.000000  0.335677  0.407440  1
  U  U1  1  0.000000  0.663611  0.592662  1
  U  U2  1  0.000000  0.836602  0.092382  1
  U  U3  1  0.000000  0.164551  0.907553  1
  U  U4  1  0.000000  0.956431  0.394877  1
  U  U5  1  0.000000  0.044200  0.604694  1
  U  U6  1  0.000000  0.456075  0.105183  1
  U  U7  1  0.000000  0.543368  0.895148  1
  Re  Re8  1  0.000000  0.855250  0.820260  1
  Tc  Tc9  1  0.000000  0.644459  0.320212  1
  B  B10  1  0.500000  0.550059  0.432431  1
  B  B11  1  0.500000  0.450547  0.566350  1
  B  B12  1  0.500000  0.049476  0.066303  1
  B  B13  1  0.500000  0.950029  0.932432  1
  B  B14  1  0.500000  0.742468  0.423445  1
  B  B15  1  0.500000  0.256915  0.575465  1
  B  B16  1  0.500000  0.243211  0.075575  1
  B  B17  1  0.500000  0.757246  0.923722  1
  B  B18  1  0.500000  0.803167  0.273247  1
  B  B19  1  0.500000  0.195638  0.727250  1
  B  B20  1  0.500000  0.304431  0.227216  1
  B  B21  1  0.500000  0.696714  0.773437  1
  B  B22  1  0.500000  0.644804  0.188430  1
  B  B23  1  0.500000  0.354902  0.812702  1
  B  B24  1  0.500000  0.145128  0.312511  1
  B  B25  1  0.500000  0.855242  0.688196  1
  B  B26  1  0.500000  0.984634  0.218883  1
  B  B27  1  0.500000  0.013621  0.781405  1
  B  B28  1  0.500000  0.486485  0.281451  1
  B  B29  1  0.500000  0.515168  0.719098  1
  B  B30  1  0.500000  0.643496  0.039900  1
  B  B31  1  0.500000  0.357196  0.960575  1
  B  B32  1  0.500000  0.142916  0.460368  1
  B  B33  1  0.500000  0.856413  0.539510  1
  Mo  Mo34  1  0.000000  0.355190  0.679958  1
  Mo  Mo35  1  0.000000  0.144681  0.179728  1
