# generated using pymatgen
data_Cr4P3Ru2
_symmetry_space_group_name_H-M   'P 1'
_cell_length_a   6.99144196
_cell_length_b   7.00565772
_cell_length_c   7.00565779
_cell_angle_alpha   125.43368494
_cell_angle_beta   121.96746561
_cell_angle_gamma   83.78016903
_symmetry_Int_Tables_number   1
_chemical_formula_structural   Cr4P3Ru2
_chemical_formula_sum   'Cr8 P6 Ru4'
_cell_volume   227.18180292
_cell_formula_units_Z   2
loop_
 _symmetry_equiv_pos_site_id
 _symmetry_equiv_pos_as_xyz
  1  'x, y, z'
loop_
 _atom_site_type_symbol
 _atom_site_label
 _atom_site_symmetry_multiplicity
 _atom_site_fract_x
 _atom_site_fract_y
 _atom_site_fract_z
 _atom_site_occupancy
  Cr  Cr0  1  0.414915  0.997668  0.155615  1
  Cr  Cr1  1  0.585085  0.740700  0.582752  1
  Cr  Cr2  1  0.708874  0.443907  0.723325  1
  Cr  Cr3  1  0.291126  0.014451  0.735032  1
  Cr  Cr4  1  0.225981  0.359221  0.151858  1
  Cr  Cr5  1  0.774019  0.925878  0.133241  1
  Cr  Cr6  1  0.500000  0.574419  0.074419  1
  Cr  Cr7  1  0.000000  0.632618  0.632618  1
  P  P8  1  0.392331  0.667150  0.728388  1
  P  P9  1  0.607669  0.336056  0.274818  1
  P  P10  1  0.931667  0.669493  0.272103  1
  P  P11  1  0.068333  0.340437  0.737825  1
  P  P12  1  0.500000  0.071207  0.571207  1
  P  P13  1  0.000000  0.971951  0.971951  1
  Ru  Ru14  1  0.786619  0.260131  0.045819  1
  Ru  Ru15  1  0.213381  0.259200  0.473512  1
  Ru  Ru16  1  0.838254  0.996585  0.578885  1
  Ru  Ru17  1  0.161746  0.740631  0.158331  1
