# generated using pymatgen
data_Rb4Zr5Sc3Te16
_symmetry_space_group_name_H-M   'P 1'
_cell_length_a   7.20651500
_cell_length_b   8.31336300
_cell_length_c   18.29973100
_cell_angle_alpha   90.00000000
_cell_angle_beta   90.00135159
_cell_angle_gamma   90.00000000
_symmetry_Int_Tables_number   1
_chemical_formula_structural   Rb4Zr5Sc3Te16
_chemical_formula_sum   'Rb4 Zr5 Sc3 Te16'
_cell_volume   1096.34374954
_cell_formula_units_Z   1
loop_
 _symmetry_equiv_pos_site_id
 _symmetry_equiv_pos_as_xyz
  1  'x, y, z'
loop_
 _atom_site_type_symbol
 _atom_site_label
 _atom_site_symmetry_multiplicity
 _atom_site_fract_x
 _atom_site_fract_y
 _atom_site_fract_z
 _atom_site_occupancy
  Rb  Rb0  1  0.348128  0.000015  0.002326  1
  Rb  Rb1  1  0.652671  0.500008  0.497241  1
  Rb  Rb2  1  0.021044  0.999990  0.497481  1
  Rb  Rb3  1  0.979648  0.499987  0.002947  1
  Zr  Zr4  1  0.998815  0.499999  0.748947  1
  Zr  Zr5  1  0.499983  0.249967  0.250034  1
  Zr  Zr6  1  0.499605  0.751800  0.750081  1
  Zr  Zr7  1  0.499974  0.750031  0.250037  1
  Zr  Zr8  1  0.499526  0.248200  0.750091  1
  Sc  Sc9  1  0.001590  0.000004  0.248947  1
  Sc  Sc10  1  0.001164  0.000006  0.750846  1
  Sc  Sc11  1  0.998419  0.499996  0.251091  1
  Te  Te12  1  0.832184  0.248491  0.342959  1
  Te  Te13  1  0.832727  0.750736  0.655916  1
  Te  Te14  1  0.167903  0.748563  0.157090  1
  Te  Te15  1  0.166879  0.252039  0.844067  1
  Te  Te16  1  0.167901  0.251438  0.157089  1
  Te  Te17  1  0.166879  0.747959  0.844064  1
  Te  Te18  1  0.832183  0.751510  0.342959  1
  Te  Te19  1  0.832728  0.249265  0.655918  1
  Te  Te20  1  0.668688  0.999998  0.156913  1
  Te  Te21  1  0.669361  0.999998  0.843991  1
  Te  Te22  1  0.331282  0.499999  0.343149  1
  Te  Te23  1  0.330313  0.499997  0.656291  1
  Te  Te24  1  0.336270  0.000003  0.342528  1
  Te  Te25  1  0.334422  0.000002  0.656561  1
  Te  Te26  1  0.663706  0.499998  0.157557  1
  Te  Te27  1  0.666010  0.500001  0.842881  1
