# generated using pymatgen
data_Er3Al6Cu2Tc
_symmetry_space_group_name_H-M   'P 1'
_cell_length_a   5.43950385
_cell_length_b   5.43950371
_cell_length_c   9.05689700
_cell_angle_alpha   107.43367570
_cell_angle_beta   107.43367525
_cell_angle_gamma   60.16049835
_symmetry_Int_Tables_number   1
_chemical_formula_structural   Er3Al6Cu2Tc
_chemical_formula_sum   'Er3 Al6 Cu2 Tc1'
_cell_volume   218.07244236
_cell_formula_units_Z   1
loop_
 _symmetry_equiv_pos_site_id
 _symmetry_equiv_pos_as_xyz
  1  'x, y, z'
loop_
 _atom_site_type_symbol
 _atom_site_label
 _atom_site_symmetry_multiplicity
 _atom_site_fract_x
 _atom_site_fract_y
 _atom_site_fract_z
 _atom_site_occupancy
  Er  Er0  1  0.000000  0.000000  0.000000  1
  Er  Er1  1  0.142807  0.142807  0.427776  1
  Er  Er2  1  0.857192  0.857192  0.572223  1
  Al  Al3  1  0.579839  0.579839  0.242790  1
  Al  Al4  1  0.578714  0.084041  0.242047  1
  Al  Al5  1  0.084041  0.578714  0.242047  1
  Al  Al6  1  0.915958  0.421285  0.757952  1
  Al  Al7  1  0.421285  0.915958  0.757952  1
  Al  Al8  1  0.420161  0.420161  0.757211  1
  Cu  Cu9  1  0.332687  0.332687  0.997923  1
  Cu  Cu10  1  0.667314  0.667314  0.002078  1
  Tc  Tc11  1  0.500000  0.500000  0.500000  1
