# generated using pymatgen
data_TbYGa9Ru2Rh
_symmetry_space_group_name_H-M   'P 1'
_cell_length_a   7.53563201
_cell_length_b   7.53529574
_cell_length_c   9.69340100
_cell_angle_alpha   90.00000000
_cell_angle_beta   90.00000000
_cell_angle_gamma   119.91340879
_symmetry_Int_Tables_number   1
_chemical_formula_structural   TbYGa9Ru2Rh
_chemical_formula_sum   'Tb2 Y2 Ga18 Ru4 Rh2'
_cell_volume   477.09523337
_cell_formula_units_Z   2
loop_
 _symmetry_equiv_pos_site_id
 _symmetry_equiv_pos_as_xyz
  1  'x, y, z'
loop_
 _atom_site_type_symbol
 _atom_site_label
 _atom_site_symmetry_multiplicity
 _atom_site_fract_x
 _atom_site_fract_y
 _atom_site_fract_z
 _atom_site_occupancy
  Tb  Tb0  1  0.996961  0.666743  0.250000  1
  Tb  Tb1  1  0.003039  0.333257  0.750000  1
  Y  Y2  1  0.666746  0.996996  0.250000  1
  Y  Y3  1  0.333254  0.003004  0.750000  1
  Ga  Ga4  1  0.337852  0.337843  0.561281  1
  Ga  Ga5  1  0.662147  0.662159  0.438719  1
  Ga  Ga6  1  0.662147  0.662159  0.061281  1
  Ga  Ga7  1  0.337852  0.337843  0.938719  1
  Ga  Ga8  1  0.336513  0.546781  0.250000  1
  Ga  Ga9  1  0.663487  0.453219  0.750000  1
  Ga  Ga10  1  0.546786  0.336554  0.250000  1
  Ga  Ga11  1  0.453214  0.663447  0.750000  1
  Ga  Ga12  1  0.003258  0.335173  0.076665  1
  Ga  Ga13  1  0.996743  0.664827  0.923334  1
  Ga  Ga14  1  0.996743  0.664827  0.576666  1
  Ga  Ga15  1  0.335211  0.003252  0.423329  1
  Ga  Ga16  1  0.003258  0.335173  0.423335  1
  Ga  Ga17  1  0.664789  0.996747  0.576671  1
  Ga  Ga18  1  0.664789  0.996747  0.923329  1
  Ga  Ga19  1  0.335211  0.003252  0.076671  1
  Ga  Ga20  1  0.126594  0.126567  0.250000  1
  Ga  Ga21  1  0.873406  0.873433  0.750000  1
  Ru  Ru22  1  0.673655  0.326295  0.000003  1
  Ru  Ru23  1  0.326345  0.673705  0.999997  1
  Ru  Ru24  1  0.326345  0.673705  0.500003  1
  Ru  Ru25  1  0.673655  0.326295  0.499997  1
  Rh  Rh26  1  0.000000  0.000000  0.000000  1
  Rh  Rh27  1  0.000000  0.000000  0.500000  1
