# generated using pymatgen
data_KRb3(NpI6)2
_symmetry_space_group_name_H-M   'P 1'
_cell_length_a   8.62214551
_cell_length_b   8.46755319
_cell_length_c   14.72480533
_cell_angle_alpha   55.12524118
_cell_angle_beta   90.06666747
_cell_angle_gamma   89.65971736
_symmetry_Int_Tables_number   1
_chemical_formula_structural   KRb3(NpI6)2
_chemical_formula_sum   'K1 Rb3 Np2 I12'
_cell_volume   881.93416442
_cell_formula_units_Z   1
loop_
 _symmetry_equiv_pos_site_id
 _symmetry_equiv_pos_as_xyz
  1  'x, y, z'
loop_
 _atom_site_type_symbol
 _atom_site_label
 _atom_site_symmetry_multiplicity
 _atom_site_fract_x
 _atom_site_fract_y
 _atom_site_fract_z
 _atom_site_occupancy
  K  K0  1  0.555266  0.263151  0.749991  1
  Rb  Rb1  1  0.449703  0.735560  0.250490  1
  Rb  Rb2  1  0.947838  0.264813  0.249227  1
  Rb  Rb3  1  0.051780  0.735558  0.750722  1
  Np  Np4  1  0.999163  0.001253  0.998669  1
  Np  Np5  1  0.500431  0.998792  0.501393  1
  I  I6  1  0.798053  0.321173  0.967566  1
  I  I7  1  0.501492  0.187922  0.255420  1
  I  I8  1  0.498373  0.817963  0.746155  1
  I  I9  1  0.288928  0.223430  0.970807  1
  I  I10  1  0.305220  0.672445  0.537112  1
  I  I11  1  0.210947  0.222267  0.475249  1
  I  I12  1  0.199496  0.679909  0.030856  1
  I  I13  1  0.788479  0.774617  0.525818  1
  I  I14  1  0.711201  0.779657  0.023314  1
  I  I15  1  0.005027  0.812495  0.244551  1
  I  I16  1  0.988824  0.190455  0.753125  1
  I  I17  1  0.699778  0.318535  0.469535  1
