# generated using pymatgen
data_Sr2Mg(CoSi)4
_symmetry_space_group_name_H-M   'P 1'
_cell_length_a   6.10291227
_cell_length_b   6.10291199
_cell_length_c   10.84587200
_cell_angle_alpha   90.00000000
_cell_angle_beta   90.00000000
_cell_angle_gamma   111.99758213
_symmetry_Int_Tables_number   1
_chemical_formula_structural   Sr2Mg(CoSi)4
_chemical_formula_sum   'Sr4 Mg2 Co8 Si8'
_cell_volume   374.55187293
_cell_formula_units_Z   2
loop_
 _symmetry_equiv_pos_site_id
 _symmetry_equiv_pos_as_xyz
  1  'x, y, z'
loop_
 _atom_site_type_symbol
 _atom_site_label
 _atom_site_symmetry_multiplicity
 _atom_site_fract_x
 _atom_site_fract_y
 _atom_site_fract_z
 _atom_site_occupancy
  Sr  Sr0  1  0.203989  0.796011  0.500000  1
  Sr  Sr1  1  0.203989  0.796011  0.000000  1
  Sr  Sr2  1  0.796011  0.203989  0.500000  1
  Sr  Sr3  1  0.796011  0.203989  0.000000  1
  Mg  Mg4  1  0.025177  0.025177  0.250000  1
  Mg  Mg5  1  0.974823  0.974823  0.750000  1
  Co  Co6  1  0.506984  0.255313  0.250000  1
  Co  Co7  1  0.744687  0.493016  0.750000  1
  Co  Co8  1  0.493016  0.744687  0.750000  1
  Co  Co9  1  0.255313  0.506984  0.250000  1
  Co  Co10  1  0.668874  0.668874  0.367400  1
  Co  Co11  1  0.331126  0.331126  0.632600  1
  Co  Co12  1  0.668874  0.668874  0.132600  1
  Co  Co13  1  0.331126  0.331126  0.867400  1
  Si  Si14  1  0.521257  0.895885  0.250000  1
  Si  Si15  1  0.104115  0.478743  0.750000  1
  Si  Si16  1  0.478743  0.104115  0.750000  1
  Si  Si17  1  0.895885  0.521257  0.250000  1
  Si  Si18  1  0.347638  0.347638  0.425905  1
  Si  Si19  1  0.652362  0.652362  0.574095  1
  Si  Si20  1  0.347638  0.347638  0.074095  1
  Si  Si21  1  0.652362  0.652362  0.925905  1
