# generated using pymatgen
data_Tb2Ho6Hf11Si16Ir
_symmetry_space_group_name_H-M   'P 1'
_cell_length_a   7.25924875
_cell_length_b   7.25916330
_cell_length_c   13.21960212
_cell_angle_alpha   89.75361003
_cell_angle_beta   90.25214493
_cell_angle_gamma   89.97110568
_symmetry_Int_Tables_number   1
_chemical_formula_structural   Tb2Ho6Hf11Si16Ir
_chemical_formula_sum   'Tb2 Ho6 Hf11 Si16 Ir1'
_cell_volume   696.60782443
_cell_formula_units_Z   1
loop_
 _symmetry_equiv_pos_site_id
 _symmetry_equiv_pos_as_xyz
  1  'x, y, z'
loop_
 _atom_site_type_symbol
 _atom_site_label
 _atom_site_symmetry_multiplicity
 _atom_site_fract_x
 _atom_site_fract_y
 _atom_site_fract_z
 _atom_site_occupancy
  Tb  Tb0  1  0.345360  0.997427  0.789004  1
  Tb  Tb1  1  0.652975  0.006117  0.282635  1
  Ho  Ho2  1  0.997967  0.345831  0.210962  1
  Ho  Ho3  1  0.005692  0.652514  0.717268  1
  Ho  Ho4  1  0.155073  0.494089  0.464900  1
  Ho  Ho5  1  0.501984  0.848694  0.032885  1
  Ho  Ho6  1  0.848844  0.501982  0.967191  1
  Ho  Ho7  1  0.494066  0.155213  0.535005  1
  Hf  Hf8  1  0.824593  0.824345  0.500108  1
  Hf  Hf9  1  0.322362  0.676326  0.247740  1
  Hf  Hf10  1  0.676745  0.322814  0.752194  1
  Hf  Hf11  1  0.145889  0.998045  0.371628  1
  Hf  Hf12  1  0.854126  0.002895  0.878591  1
  Hf  Hf13  1  0.502205  0.646575  0.626004  1
  Hf  Hf14  1  0.354370  0.496766  0.877473  1
  Hf  Hf15  1  0.496717  0.354560  0.122440  1
  Hf  Hf16  1  0.646744  0.502202  0.374018  1
  Hf  Hf17  1  0.998065  0.145851  0.628365  1
  Hf  Hf18  1  0.002946  0.854082  0.121332  1
  Si  Si19  1  0.357788  0.296362  0.314974  1
  Si  Si20  1  0.641152  0.704482  0.818888  1
  Si  Si21  1  0.206023  0.860605  0.567316  1
  Si  Si22  1  0.136762  0.789129  0.931057  1
  Si  Si23  1  0.789883  0.137310  0.069097  1
  Si  Si24  1  0.861014  0.206508  0.432855  1
  Si  Si25  1  0.295859  0.358773  0.684849  1
  Si  Si26  1  0.704892  0.640243  0.181002  1
  Si  Si27  1  0.291313  0.057263  0.179686  1
  Si  Si28  1  0.704237  0.949727  0.685792  1
  Si  Si29  1  0.448984  0.796091  0.434802  1
  Si  Si30  1  0.207788  0.554053  0.063331  1
  Si  Si31  1  0.554544  0.208136  0.936901  1
  Si  Si32  1  0.796452  0.449425  0.565338  1
  Si  Si33  1  0.056782  0.292229  0.820169  1
  Si  Si34  1  0.950185  0.703494  0.314015  1
  Ir  Ir35  1  0.169616  0.169840  0.000184  1
