# generated using pymatgen
data_Hf4In2CoPd3
_symmetry_space_group_name_H-M   'P 1'
_cell_length_a   7.53753633
_cell_length_b   7.53753633
_cell_length_c   3.29368800
_cell_angle_alpha   90.00000000
_cell_angle_beta   90.00000000
_cell_angle_gamma   89.96628022
_symmetry_Int_Tables_number   1
_chemical_formula_structural   Hf4In2CoPd3
_chemical_formula_sum   'Hf4 In2 Co1 Pd3'
_cell_volume   187.12905253
_cell_formula_units_Z   1
loop_
 _symmetry_equiv_pos_site_id
 _symmetry_equiv_pos_as_xyz
  1  'x, y, z'
loop_
 _atom_site_type_symbol
 _atom_site_label
 _atom_site_symmetry_multiplicity
 _atom_site_fract_x
 _atom_site_fract_y
 _atom_site_fract_z
 _atom_site_occupancy
  Hf  Hf0  1  0.187440  0.312560  0.000000  1
  Hf  Hf1  1  0.838682  0.661318  0.000000  1
  Hf  Hf2  1  0.640056  0.174616  0.000000  1
  Hf  Hf3  1  0.325384  0.859944  0.000000  1
  In  In4  1  0.996456  0.001458  0.500000  1
  In  In5  1  0.498542  0.503544  0.500000  1
  Co  Co6  1  0.374206  0.125794  0.500000  1
  Pd  Pd7  1  0.630240  0.869760  0.500000  1
  Pd  Pd8  1  0.874129  0.365134  0.500000  1
  Pd  Pd9  1  0.134866  0.625871  0.500000  1
