# generated using pymatgen
data_Li6Hg9Pd7
_symmetry_space_group_name_H-M   'P 1'
_cell_length_a   7.19821020
_cell_length_b   7.19821094
_cell_length_c   9.64254651
_cell_angle_alpha   63.04472358
_cell_angle_beta   63.04471827
_cell_angle_gamma   76.34448618
_symmetry_Int_Tables_number   1
_chemical_formula_structural   Li6Hg9Pd7
_chemical_formula_sum   'Li6 Hg9 Pd7'
_cell_volume   396.66621876
_cell_formula_units_Z   1
loop_
 _symmetry_equiv_pos_site_id
 _symmetry_equiv_pos_as_xyz
  1  'x, y, z'
loop_
 _atom_site_type_symbol
 _atom_site_label
 _atom_site_symmetry_multiplicity
 _atom_site_fract_x
 _atom_site_fract_y
 _atom_site_fract_z
 _atom_site_occupancy
  Li  Li0  1  0.537926  0.054758  0.155416  1
  Li  Li1  1  0.537651  0.537651  0.674981  1
  Li  Li2  1  0.054758  0.537926  0.155416  1
  Li  Li3  1  0.462349  0.462349  0.325019  1
  Li  Li4  1  0.945242  0.462074  0.844584  1
  Li  Li5  1  0.462074  0.945242  0.844584  1
  Hg  Hg6  1  0.236558  0.829651  0.195704  1
  Hg  Hg7  1  0.170834  0.170834  0.389777  1
  Hg  Hg8  1  0.280627  0.280627  0.668175  1
  Hg  Hg9  1  0.829651  0.236558  0.195704  1
  Hg  Hg10  1  0.719373  0.719373  0.331825  1
  Hg  Hg11  1  0.500000  0.500000  0.000000  1
  Hg  Hg12  1  0.763442  0.170349  0.804296  1
  Hg  Hg13  1  0.170349  0.763442  0.804296  1
  Hg  Hg14  1  0.829166  0.829166  0.610223  1
  Pd  Pd15  1  0.500000  0.000000  0.500000  1
  Pd  Pd16  1  0.270352  0.729648  0.500000  1
  Pd  Pd17  1  0.265089  0.265089  0.979572  1
  Pd  Pd18  1  0.734911  0.734911  0.020428  1
  Pd  Pd19  1  0.729648  0.270352  0.500000  1
  Pd  Pd20  1  0.000000  0.000000  0.000000  1
  Pd  Pd21  1  0.000000  0.500000  0.500000  1
