# generated using pymatgen
data_Y8Si(Pd5Pt7)2
_symmetry_space_group_name_H-M   'P 1'
_cell_length_a   8.33990100
_cell_length_b   8.37109025
_cell_length_c   8.37393425
_cell_angle_alpha   90.02774282
_cell_angle_beta   90.00000000
_cell_angle_gamma   90.00000000
_symmetry_Int_Tables_number   1
_chemical_formula_structural   Y8Si(Pd5Pt7)2
_chemical_formula_sum   'Y8 Si1 Pd10 Pt14'
_cell_volume   584.61831204
_cell_formula_units_Z   1
loop_
 _symmetry_equiv_pos_site_id
 _symmetry_equiv_pos_as_xyz
  1  'x, y, z'
loop_
 _atom_site_type_symbol
 _atom_site_label
 _atom_site_symmetry_multiplicity
 _atom_site_fract_x
 _atom_site_fract_y
 _atom_site_fract_z
 _atom_site_occupancy
  Y  Y0  1  0.252117  0.252541  0.252628  1
  Y  Y1  1  0.746830  0.746787  0.747121  1
  Y  Y2  1  0.747341  0.747412  0.252501  1
  Y  Y3  1  0.747451  0.253083  0.746832  1
  Y  Y4  1  0.252549  0.253083  0.746832  1
  Y  Y5  1  0.252659  0.747412  0.252501  1
  Y  Y6  1  0.253170  0.746787  0.747121  1
  Y  Y7  1  0.747883  0.252541  0.252628  1
  Si  Si8  1  0.000000  0.000629  0.003847  1
  Pd  Pd9  1  0.500000  0.257775  0.999919  1
  Pd  Pd10  1  0.000000  0.741799  0.499913  1
  Pd  Pd11  1  0.500000  0.742303  0.999949  1
  Pd  Pd12  1  0.500000  0.999953  0.258026  1
  Pd  Pd13  1  0.258631  0.000074  0.499989  1
  Pd  Pd14  1  0.500000  0.999938  0.741159  1
  Pd  Pd15  1  0.741369  0.000074  0.499989  1
  Pd  Pd16  1  0.000000  0.500136  0.257823  1
  Pd  Pd17  1  0.000000  0.500135  0.741220  1
  Pd  Pd18  1  0.000000  0.999740  0.719227  1
  Pt  Pt19  1  0.258227  0.500071  0.999983  1
  Pt  Pt20  1  0.741773  0.500071  0.999983  1
  Pt  Pt21  1  0.000000  0.258090  0.499704  1
  Pt  Pt22  1  0.252433  0.499809  0.499918  1
  Pt  Pt23  1  0.747567  0.499809  0.499918  1
  Pt  Pt24  1  0.500000  0.252001  0.499942  1
  Pt  Pt25  1  0.500000  0.747643  0.500003  1
  Pt  Pt26  1  0.500000  0.500034  0.252097  1
  Pt  Pt27  1  0.500000  0.500065  0.748081  1
  Pt  Pt28  1  0.282166  0.999948  0.998869  1
  Pt  Pt29  1  0.717834  0.999948  0.998869  1
  Pt  Pt30  1  0.000000  0.281954  0.998861  1
  Pt  Pt31  1  0.000000  0.718738  0.998975  1
  Pt  Pt32  1  0.000000  0.999616  0.285573  1
