# generated using pymatgen
data_Ti10GeAs5C
_symmetry_space_group_name_H-M   'P 1'
_cell_length_a   7.51098472
_cell_length_b   7.52523310
_cell_length_c   5.21046297
_cell_angle_alpha   90.12763449
_cell_angle_beta   89.74423851
_cell_angle_gamma   119.93738610
_symmetry_Int_Tables_number   1
_chemical_formula_structural   Ti10GeAs5C
_chemical_formula_sum   'Ti10 Ge1 As5 C1'
_cell_volume   255.20731706
_cell_formula_units_Z   1
loop_
 _symmetry_equiv_pos_site_id
 _symmetry_equiv_pos_as_xyz
  1  'x, y, z'
loop_
 _atom_site_type_symbol
 _atom_site_label
 _atom_site_symmetry_multiplicity
 _atom_site_fract_x
 _atom_site_fract_y
 _atom_site_fract_z
 _atom_site_occupancy
  Ti  Ti0  1  0.000890  0.762516  0.262382  1
  Ti  Ti1  1  0.238375  0.237484  0.262382  1
  Ti  Ti2  1  0.764397  0.000000  0.259789  1
  Ti  Ti3  1  0.999440  0.238127  0.737728  1
  Ti  Ti4  1  0.761313  0.761873  0.737728  1
  Ti  Ti5  1  0.236169  0.000000  0.740053  1
  Ti  Ti6  1  0.331847  0.664349  0.999806  1
  Ti  Ti7  1  0.667498  0.335651  0.999806  1
  Ti  Ti8  1  0.667307  0.335291  0.500370  1
  Ti  Ti9  1  0.332015  0.664709  0.500370  1
  Ge  Ge10  1  0.603749  0.000000  0.754491  1
  As  As11  1  0.998939  0.393069  0.244996  1
  As  As12  1  0.605870  0.606931  0.244996  1
  As  As13  1  0.397999  0.000000  0.243915  1
  As  As14  1  0.000394  0.606686  0.755445  1
  As  As15  1  0.393708  0.393314  0.755445  1
  C  C16  1  0.000087  0.000000  0.500299  1
