# generated using pymatgen
data_Y6Al24TcOs7
_symmetry_space_group_name_H-M   'P 1'
_cell_length_a   8.84561800
_cell_length_b   8.84561895
_cell_length_c   9.57143200
_cell_angle_alpha   90.00000000
_cell_angle_beta   90.00000000
_cell_angle_gamma   119.99999644
_symmetry_Int_Tables_number   1
_chemical_formula_structural   Y6Al24TcOs7
_chemical_formula_sum   'Y6 Al24 Tc1 Os7'
_cell_volume   648.58062811
_cell_formula_units_Z   1
loop_
 _symmetry_equiv_pos_site_id
 _symmetry_equiv_pos_as_xyz
  1  'x, y, z'
loop_
 _atom_site_type_symbol
 _atom_site_label
 _atom_site_symmetry_multiplicity
 _atom_site_fract_x
 _atom_site_fract_y
 _atom_site_fract_z
 _atom_site_occupancy
  Y  Y0  1  0.192625  0.385249  0.249971  1
  Y  Y1  1  0.807375  0.614751  0.750029  1
  Y  Y2  1  0.614751  0.807375  0.249971  1
  Y  Y3  1  0.385249  0.192625  0.750029  1
  Y  Y4  1  0.192625  0.807375  0.249971  1
  Y  Y5  1  0.807375  0.192625  0.750029  1
  Al  Al6  1  0.333333  0.666667  0.013683  1
  Al  Al7  1  0.666667  0.333333  0.986317  1
  Al  Al8  1  0.666667  0.333333  0.514439  1
  Al  Al9  1  0.333333  0.666667  0.485561  1
  Al  Al10  1  0.162803  0.325605  0.575588  1
  Al  Al11  1  0.837197  0.674395  0.424412  1
  Al  Al12  1  0.674395  0.837197  0.575588  1
  Al  Al13  1  0.837524  0.675047  0.076549  1
  Al  Al14  1  0.325605  0.162803  0.424412  1
  Al  Al15  1  0.162476  0.324953  0.923451  1
  Al  Al16  1  0.162803  0.837197  0.575588  1
  Al  Al17  1  0.324953  0.162476  0.076549  1
  Al  Al18  1  0.837197  0.162803  0.424412  1
  Al  Al19  1  0.675047  0.837524  0.923451  1
  Al  Al20  1  0.837524  0.162476  0.076549  1
  Al  Al21  1  0.162476  0.837524  0.923451  1
  Al  Al22  1  0.560612  0.121223  0.250288  1
  Al  Al23  1  0.439388  0.878777  0.749712  1
  Al  Al24  1  0.878777  0.439388  0.250288  1
  Al  Al25  1  0.121223  0.560612  0.749712  1
  Al  Al26  1  0.560612  0.439388  0.250288  1
  Al  Al27  1  0.439388  0.560612  0.749712  1
  Al  Al28  1  0.000000  0.000000  0.249397  1
  Al  Al29  1  0.000000  0.000000  0.750603  1
  Tc  Tc30  1  0.000000  0.000000  0.000000  1
  Os  Os31  1  0.500000  0.000000  0.000000  1
  Os  Os32  1  0.000000  0.500000  0.000000  1
  Os  Os33  1  0.500000  0.000000  0.500000  1
  Os  Os34  1  0.500000  0.500000  0.000000  1
  Os  Os35  1  0.000000  0.500000  0.500000  1
  Os  Os36  1  0.500000  0.500000  0.500000  1
  Os  Os37  1  0.000000  0.000000  0.500000  1
