# generated using pymatgen
data_Na4DyP12Ir11Ru8
_symmetry_space_group_name_H-M   'P 1'
_cell_length_a   12.52695182
_cell_length_b   12.50861840
_cell_length_c   4.00144700
_cell_angle_alpha   90.00000000
_cell_angle_beta   90.00000000
_cell_angle_gamma   120.16391618
_symmetry_Int_Tables_number   1
_chemical_formula_structural   Na4DyP12Ir11Ru8
_chemical_formula_sum   'Na4 Dy1 P12 Ir11 Ru8'
_cell_volume   542.10416377
_cell_formula_units_Z   1
loop_
 _symmetry_equiv_pos_site_id
 _symmetry_equiv_pos_as_xyz
  1  'x, y, z'
loop_
 _atom_site_type_symbol
 _atom_site_label
 _atom_site_symmetry_multiplicity
 _atom_site_fract_x
 _atom_site_fract_y
 _atom_site_fract_z
 _atom_site_occupancy
  Na  Na0  1  0.666600  0.331413  0.000000  1
  Na  Na1  1  0.818666  0.000159  0.500000  1
  Na  Na2  1  0.178015  0.179943  0.500000  1
  Na  Na3  1  0.999587  0.820360  0.500000  1
  Dy  Dy4  1  0.335618  0.669229  0.000000  1
  P  P5  1  0.633660  0.001363  0.000000  1
  P  P6  1  0.365064  0.362307  0.000000  1
  P  P7  1  0.996695  0.634498  0.000000  1
  P  P8  1  0.688431  0.517610  0.500000  1
  P  P9  1  0.831278  0.308224  0.500000  1
  P  P10  1  0.316298  0.838076  0.500000  1
  P  P11  1  0.525599  0.692822  0.500000  1
  P  P12  1  0.178662  0.999834  0.000000  1
  P  P13  1  0.819838  0.816186  0.000000  1
  P  P14  1  0.995801  0.183043  0.000000  1
  P  P15  1  0.478284  0.166552  0.500000  1
  P  P16  1  0.167863  0.477669  0.500000  1
  Ir  Ir17  1  0.625430  0.807655  0.000000  1
  Ir  Ir18  1  0.186294  0.378572  0.000000  1
  Ir  Ir19  1  0.376716  0.181592  0.000000  1
  Ir  Ir20  1  0.190168  0.815044  0.000000  1
  Ir  Ir21  1  0.802159  0.617705  0.000000  1
  Ir  Ir22  1  0.874435  0.510285  0.500000  1
  Ir  Ir23  1  0.487992  0.360205  0.500000  1
  Ir  Ir24  1  0.636297  0.125560  0.500000  1
  Ir  Ir25  1  0.136573  0.641239  0.500000  1
  Ir  Ir26  1  0.363146  0.495575  0.500000  1
  Ir  Ir27  1  0.997923  0.001325  0.000000  1
  Ru  Ru28  1  0.511052  0.870499  0.500000  1
  Ru  Ru29  1  0.716962  0.713877  0.500000  1
  Ru  Ru30  1  0.001625  0.285086  0.500000  1
  Ru  Ru31  1  0.447975  0.994375  0.000000  1
  Ru  Ru32  1  0.544071  0.546870  0.000000  1
  Ru  Ru33  1  0.007400  0.458326  0.000000  1
  Ru  Ru34  1  0.816179  0.196966  0.000000  1
  Ru  Ru35  1  0.281642  0.999952  0.500000  1
