# generated using pymatgen
data_Ba4Si21Pd2
_symmetry_space_group_name_H-M   'P 1'
_cell_length_a   10.40661000
_cell_length_b   10.40661012
_cell_length_c   10.37179200
_cell_angle_alpha   90.00000000
_cell_angle_beta   90.00000000
_cell_angle_gamma   90.04433749
_symmetry_Int_Tables_number   1
_chemical_formula_structural   Ba4Si21Pd2
_chemical_formula_sum   'Ba8 Si42 Pd4'
_cell_volume   1123.23914902
_cell_formula_units_Z   2
loop_
 _symmetry_equiv_pos_site_id
 _symmetry_equiv_pos_as_xyz
  1  'x, y, z'
loop_
 _atom_site_type_symbol
 _atom_site_label
 _atom_site_symmetry_multiplicity
 _atom_site_fract_x
 _atom_site_fract_y
 _atom_site_fract_z
 _atom_site_occupancy
  Ba  Ba0  1  0.498790  0.002223  0.250000  1
  Ba  Ba1  1  0.002223  0.498790  0.750000  1
  Ba  Ba2  1  0.741249  0.488413  0.250000  1
  Ba  Ba3  1  0.488413  0.741249  0.750000  1
  Ba  Ba4  1  0.012339  0.012339  0.500000  1
  Ba  Ba5  1  0.259234  0.488598  0.250000  1
  Ba  Ba6  1  0.488598  0.259234  0.750000  1
  Ba  Ba7  1  0.012339  0.012339  0.000000  1
  Si  Si8  1  0.500928  0.690841  0.368416  1
  Si  Si9  1  0.616749  0.999150  0.554661  1
  Si  Si10  1  0.807615  0.884506  0.250000  1
  Si  Si11  1  0.500313  0.306978  0.128655  1
  Si  Si12  1  0.379311  0.998807  0.938842  1
  Si  Si13  1  0.190332  0.122209  0.250000  1
  Si  Si14  1  0.500313  0.306978  0.371345  1
  Si  Si15  1  0.379311  0.998807  0.561158  1
  Si  Si16  1  0.500928  0.690841  0.131584  1
  Si  Si17  1  0.616749  0.999150  0.945339  1
  Si  Si18  1  0.812545  0.120134  0.250000  1
  Si  Si19  1  0.195699  0.880885  0.250000  1
  Si  Si20  1  0.690841  0.500928  0.868416  1
  Si  Si21  1  0.999150  0.616749  0.054661  1
  Si  Si22  1  0.884506  0.807615  0.750000  1
  Si  Si23  1  0.306978  0.500313  0.628655  1
  Si  Si24  1  0.998807  0.379311  0.438842  1
  Si  Si25  1  0.122209  0.190332  0.750000  1
  Si  Si26  1  0.306978  0.500313  0.871345  1
  Si  Si27  1  0.998807  0.379311  0.061158  1
  Si  Si28  1  0.690841  0.500928  0.631584  1
  Si  Si29  1  0.999150  0.616749  0.445339  1
  Si  Si30  1  0.120134  0.812545  0.750000  1
  Si  Si31  1  0.880885  0.195699  0.750000  1
  Si  Si32  1  0.685361  0.814671  0.433340  1
  Si  Si33  1  0.317073  0.181369  0.065317  1
  Si  Si34  1  0.317073  0.181369  0.434683  1
  Si  Si35  1  0.685361  0.814671  0.066660  1
  Si  Si36  1  0.686123  0.182170  0.066478  1
  Si  Si37  1  0.318131  0.814418  0.434534  1
  Si  Si38  1  0.318131  0.814418  0.065466  1
  Si  Si39  1  0.686123  0.182170  0.433522  1
  Si  Si40  1  0.814671  0.685361  0.933340  1
  Si  Si41  1  0.181369  0.317073  0.565317  1
  Si  Si42  1  0.181369  0.317073  0.934683  1
  Si  Si43  1  0.814671  0.685361  0.566660  1
  Si  Si44  1  0.182170  0.686123  0.566478  1
  Si  Si45  1  0.814418  0.318131  0.934534  1
  Si  Si46  1  0.814418  0.318131  0.565466  1
  Si  Si47  1  0.182170  0.686123  0.933522  1
  Si  Si48  1  0.748466  0.999485  0.750000  1
  Si  Si49  1  0.999485  0.748466  0.250000  1
  Pd  Pd50  1  0.499884  0.499884  0.500000  1
  Pd  Pd51  1  0.250203  0.000185  0.750000  1
  Pd  Pd52  1  0.000185  0.250203  0.250000  1
  Pd  Pd53  1  0.499884  0.499884  0.000000  1
