# generated using pymatgen
data_Ho6TmFeO12
_symmetry_space_group_name_H-M   'P 1'
_cell_length_a   6.59366602
_cell_length_b   6.59366550
_cell_length_c   6.59366619
_cell_angle_alpha   93.11131319
_cell_angle_beta   93.11132275
_cell_angle_gamma   93.11131978
_symmetry_Int_Tables_number   1
_chemical_formula_structural   Ho6TmFeO12
_chemical_formula_sum   'Ho6 Tm1 Fe1 O12'
_cell_volume   285.35345596
_cell_formula_units_Z   1
loop_
 _symmetry_equiv_pos_site_id
 _symmetry_equiv_pos_as_xyz
  1  'x, y, z'
loop_
 _atom_site_type_symbol
 _atom_site_label
 _atom_site_symmetry_multiplicity
 _atom_site_fract_x
 _atom_site_fract_y
 _atom_site_fract_z
 _atom_site_occupancy
  Ho  Ho0  1  0.740307  0.925130  0.436294  1
  Ho  Ho1  1  0.925130  0.436294  0.740307  1
  Ho  Ho2  1  0.436294  0.740307  0.925130  1
  Ho  Ho3  1  0.259693  0.074870  0.563706  1
  Ho  Ho4  1  0.074870  0.563706  0.259693  1
  Ho  Ho5  1  0.563706  0.259693  0.074870  1
  Tm  Tm6  1  0.000000  0.000000  0.000000  1
  Fe  Fe7  1  0.500000  0.500000  0.500000  1
  O  O8  1  0.589421  0.462301  0.801061  1
  O  O9  1  0.462301  0.801061  0.589421  1
  O  O10  1  0.801061  0.589421  0.462301  1
  O  O11  1  0.410579  0.537699  0.198939  1
  O  O12  1  0.537699  0.198939  0.410579  1
  O  O13  1  0.198939  0.410579  0.537699  1
  O  O14  1  0.068569  0.908770  0.316584  1
  O  O15  1  0.908770  0.316584  0.068569  1
  O  O16  1  0.683416  0.931431  0.091230  1
  O  O17  1  0.091230  0.683416  0.931431  1
  O  O18  1  0.931431  0.091230  0.683416  1
  O  O19  1  0.316584  0.068569  0.908770  1
