# generated using pymatgen
data_LiDyCo(PRh)3
_symmetry_space_group_name_H-M   'P 1'
_cell_length_a   3.82636600
_cell_length_b   10.66602000
_cell_length_c   12.50155800
_cell_angle_alpha   90.00000000
_cell_angle_beta   90.00000000
_cell_angle_gamma   90.00000000
_symmetry_Int_Tables_number   1
_chemical_formula_structural   LiDyCo(PRh)3
_chemical_formula_sum   'Li4 Dy4 Co4 P12 Rh12'
_cell_volume   510.21478879
_cell_formula_units_Z   4
loop_
 _symmetry_equiv_pos_site_id
 _symmetry_equiv_pos_as_xyz
  1  'x, y, z'
loop_
 _atom_site_type_symbol
 _atom_site_label
 _atom_site_symmetry_multiplicity
 _atom_site_fract_x
 _atom_site_fract_y
 _atom_site_fract_z
 _atom_site_occupancy
  Li  Li0  1  0.250000  0.704994  0.988415  1
  Li  Li1  1  0.250000  0.795006  0.488415  1
  Li  Li2  1  0.750000  0.295006  0.011585  1
  Li  Li3  1  0.750000  0.204994  0.511585  1
  Dy  Dy4  1  0.250000  0.578658  0.707450  1
  Dy  Dy5  1  0.250000  0.921342  0.207450  1
  Dy  Dy6  1  0.750000  0.421342  0.292550  1
  Dy  Dy7  1  0.750000  0.078658  0.792550  1
  Co  Co8  1  0.250000  0.465380  0.935865  1
  Co  Co9  1  0.250000  0.034620  0.435865  1
  Co  Co10  1  0.750000  0.534620  0.064135  1
  Co  Co11  1  0.750000  0.965380  0.564135  1
  P  P12  1  0.250000  0.427018  0.108514  1
  P  P13  1  0.250000  0.072982  0.608514  1
  P  P14  1  0.750000  0.572982  0.891486  1
  P  P15  1  0.750000  0.927018  0.391486  1
  P  P16  1  0.250000  0.269184  0.864030  1
  P  P17  1  0.250000  0.230816  0.364030  1
  P  P18  1  0.750000  0.730816  0.135970  1
  P  P19  1  0.750000  0.769184  0.635970  1
  P  P20  1  0.250000  0.600934  0.388682  1
  P  P21  1  0.250000  0.899066  0.888682  1
  P  P22  1  0.750000  0.399066  0.611318  1
  P  P23  1  0.750000  0.100934  0.111318  1
  Rh  Rh24  1  0.250000  0.404174  0.477635  1
  Rh  Rh25  1  0.250000  0.095826  0.977635  1
  Rh  Rh26  1  0.750000  0.595826  0.522365  1
  Rh  Rh27  1  0.750000  0.904174  0.022365  1
  Rh  Rh28  1  0.250000  0.225179  0.173349  1
  Rh  Rh29  1  0.250000  0.274821  0.673349  1
  Rh  Rh30  1  0.750000  0.774821  0.826651  1
  Rh  Rh31  1  0.750000  0.725179  0.326651  1
  Rh  Rh32  1  0.250000  0.879525  0.694143  1
  Rh  Rh33  1  0.250000  0.620475  0.194143  1
  Rh  Rh34  1  0.750000  0.120475  0.305857  1
  Rh  Rh35  1  0.750000  0.379525  0.805857  1
