# generated using pymatgen
data_Tb11PrFe2I17
_symmetry_space_group_name_H-M   'P 1'
_cell_length_a   9.78121466
_cell_length_b   11.77779601
_cell_length_c   11.75252875
_cell_angle_alpha   93.46237565
_cell_angle_beta   104.76678159
_cell_angle_gamma   114.32238798
_symmetry_Int_Tables_number   1
_chemical_formula_structural   Tb11PrFe2I17
_chemical_formula_sum   'Tb11 Pr1 Fe2 I17'
_cell_volume   1171.78790710
_cell_formula_units_Z   1
loop_
 _symmetry_equiv_pos_site_id
 _symmetry_equiv_pos_as_xyz
  1  'x, y, z'
loop_
 _atom_site_type_symbol
 _atom_site_label
 _atom_site_symmetry_multiplicity
 _atom_site_fract_x
 _atom_site_fract_y
 _atom_site_fract_z
 _atom_site_occupancy
  Tb  Tb0  1  0.051279  0.500537  0.320140  1
  Tb  Tb1  1  0.991291  0.810040  0.584628  1
  Tb  Tb2  1  0.653744  0.241594  0.281677  1
  Tb  Tb3  1  0.007075  0.192550  0.409622  1
  Tb  Tb4  1  0.220725  0.670758  0.985791  1
  Tb  Tb5  1  0.257640  0.981188  0.889543  1
  Tb  Tb6  1  0.338569  0.757829  0.720363  1
  Tb  Tb7  1  0.946196  0.493219  0.678321  1
  Tb  Tb8  1  0.747355  0.024603  0.112188  1
  Tb  Tb9  1  0.144256  0.287695  0.153984  1
  Tb  Tb10  1  0.782383  0.327248  0.019176  1
  Pr  Pr11  1  0.855178  0.713183  0.846953  1
  Fe  Fe12  1  0.102160  0.737649  0.785771  1
  Fe  Fe13  1  0.896336  0.262144  0.214607  1
  I  I14  1  0.784384  0.528692  0.418864  1
  I  I15  1  0.643935  0.411566  0.759294  1
  I  I16  1  0.844924  0.896963  0.325962  1
  I  I17  1  0.327526  0.213852  0.368797  1
  I  I18  1  0.156292  0.103093  0.673713  1
  I  I19  1  0.585126  0.050769  0.843108  1
  I  I20  1  0.758032  0.187223  0.538548  1
  I  I21  1  0.546277  0.711176  0.953749  1
  I  I22  1  0.356550  0.581269  0.238575  1
  I  I23  1  0.215993  0.472703  0.583615  1
  I  I24  1  0.057749  0.369169  0.896934  1
  I  I25  1  0.450112  0.289799  0.045876  1
  I  I26  1  0.004160  0.004000  0.001227  1
  I  I27  1  0.242438  0.812127  0.463272  1
  I  I28  1  0.412275  0.946561  0.155592  1
  I  I29  1  0.672382  0.789522  0.623852  1
  I  I30  1  0.947657  0.631280  0.106259  1
