# generated using pymatgen
data_Mn3Nb6Al8Os
_symmetry_space_group_name_H-M   'P 1'
_cell_length_a   8.76358676
_cell_length_b   8.82973415
_cell_length_c   8.25125400
_cell_angle_alpha   90.00000000
_cell_angle_beta   90.00000000
_cell_angle_gamma   120.63068877
_symmetry_Int_Tables_number   1
_chemical_formula_structural   Mn3Nb6Al8Os
_chemical_formula_sum   'Mn6 Nb12 Al16 Os2'
_cell_volume   549.39516077
_cell_formula_units_Z   2
loop_
 _symmetry_equiv_pos_site_id
 _symmetry_equiv_pos_as_xyz
  1  'x, y, z'
loop_
 _atom_site_type_symbol
 _atom_site_label
 _atom_site_symmetry_multiplicity
 _atom_site_fract_x
 _atom_site_fract_y
 _atom_site_fract_z
 _atom_site_occupancy
  Mn  Mn0  1  0.176918  0.504035  0.750000  1
  Mn  Mn1  1  0.823082  0.495965  0.250000  1
  Mn  Mn2  1  0.485837  0.655542  0.750000  1
  Mn  Mn3  1  0.499942  0.166978  0.750000  1
  Mn  Mn4  1  0.514163  0.344458  0.250000  1
  Mn  Mn5  1  0.500058  0.833022  0.250000  1
  Nb  Nb6  1  0.334657  0.003540  0.062885  1
  Nb  Nb7  1  0.665343  0.996460  0.937115  1
  Nb  Nb8  1  0.999688  0.328720  0.059617  1
  Nb  Nb9  1  0.665343  0.996460  0.562885  1
  Nb  Nb10  1  0.999688  0.328720  0.440383  1
  Nb  Nb11  1  0.000312  0.671280  0.940383  1
  Nb  Nb12  1  0.334657  0.003540  0.437115  1
  Nb  Nb13  1  0.000312  0.671280  0.559617  1
  Nb  Nb14  1  0.664364  0.670256  0.063401  1
  Nb  Nb15  1  0.335636  0.329744  0.936599  1
  Nb  Nb16  1  0.335636  0.329744  0.563401  1
  Nb  Nb17  1  0.664364  0.670256  0.436599  1
  Al  Al18  1  0.342034  0.843842  0.750000  1
  Al  Al19  1  0.653235  0.501919  0.750000  1
  Al  Al20  1  0.657966  0.156158  0.250000  1
  Al  Al21  1  0.346765  0.498081  0.250000  1
  Al  Al22  1  0.844728  0.341150  0.750000  1
  Al  Al23  1  0.155272  0.658850  0.250000  1
  Al  Al24  1  0.337631  0.669513  0.500012  1
  Al  Al25  1  0.662369  0.330487  0.499988  1
  Al  Al26  1  0.662369  0.330487  0.000012  1
  Al  Al27  1  0.337631  0.669513  0.999988  1
  Al  Al28  1  0.175703  0.004629  0.750000  1
  Al  Al29  1  0.824297  0.995371  0.250000  1
  Al  Al30  1  0.011687  0.180360  0.750000  1
  Al  Al31  1  0.988313  0.819640  0.250000  1
  Al  Al32  1  0.818824  0.831696  0.750000  1
  Al  Al33  1  0.181176  0.168304  0.250000  1
  Os  Os34  1  0.000000  0.000000  0.500000  1
  Os  Os35  1  0.000000  0.000000  0.000000  1
