# generated using pymatgen
data_Zr8Pt4CO
_symmetry_space_group_name_H-M   'P 1'
_cell_length_a   8.96168846
_cell_length_b   8.92489448
_cell_length_c   8.92489495
_cell_angle_alpha   59.73455956
_cell_angle_beta   59.86353469
_cell_angle_gamma   59.86353019
_symmetry_Int_Tables_number   1
_chemical_formula_structural   Zr8Pt4CO
_chemical_formula_sum   'Zr16 Pt8 C2 O2'
_cell_volume   502.69773796
_cell_formula_units_Z   2
loop_
 _symmetry_equiv_pos_site_id
 _symmetry_equiv_pos_as_xyz
  1  'x, y, z'
loop_
 _atom_site_type_symbol
 _atom_site_label
 _atom_site_symmetry_multiplicity
 _atom_site_fract_x
 _atom_site_fract_y
 _atom_site_fract_z
 _atom_site_occupancy
  Zr  Zr0  1  0.125000  0.625000  0.625000  1
  Zr  Zr1  1  0.625000  0.125000  0.625000  1
  Zr  Zr2  1  0.625000  0.625000  0.125000  1
  Zr  Zr3  1  0.625000  0.625000  0.625000  1
  Zr  Zr4  1  0.812837  0.821021  0.182796  1
  Zr  Zr5  1  0.183346  0.182796  0.821021  1
  Zr  Zr6  1  0.812837  0.182796  0.821021  1
  Zr  Zr7  1  0.183346  0.821021  0.182796  1
  Zr  Zr8  1  0.183803  0.816197  0.816197  1
  Zr  Zr9  1  0.817249  0.182751  0.182751  1
  Zr  Zr10  1  0.437163  0.428979  0.067204  1
  Zr  Zr11  1  0.066654  0.067204  0.428979  1
  Zr  Zr12  1  0.437163  0.067204  0.428979  1
  Zr  Zr13  1  0.066654  0.428979  0.067204  1
  Zr  Zr14  1  0.066197  0.433803  0.433803  1
  Zr  Zr15  1  0.432751  0.067249  0.067249  1
  Pt  Pt16  1  0.781862  0.407117  0.407117  1
  Pt  Pt17  1  0.404854  0.781502  0.408791  1
  Pt  Pt18  1  0.404854  0.408791  0.781502  1
  Pt  Pt19  1  0.403905  0.407117  0.407117  1
  Pt  Pt20  1  0.468138  0.842883  0.842883  1
  Pt  Pt21  1  0.845146  0.468498  0.841209  1
  Pt  Pt22  1  0.845146  0.841209  0.468498  1
  Pt  Pt23  1  0.846095  0.842883  0.842883  1
  C  C24  1  0.625000  0.125000  0.125000  1
  C  C25  1  0.125000  0.125000  0.125000  1
  O  O26  1  0.125000  0.625000  0.125000  1
  O  O27  1  0.125000  0.125000  0.625000  1
