# generated using pymatgen
data_Sm4Al3(CoO4)5
_symmetry_space_group_name_H-M   'P 1'
_cell_length_a   5.68493300
_cell_length_b   7.36611000
_cell_length_c   8.44105739
_cell_angle_alpha   89.67847059
_cell_angle_beta   90.00000000
_cell_angle_gamma   90.00000000
_symmetry_Int_Tables_number   1
_chemical_formula_structural   Sm4Al3(CoO4)5
_chemical_formula_sum   'Sm4 Al3 Co5 O20'
_cell_volume   353.47081827
_cell_formula_units_Z   1
loop_
 _symmetry_equiv_pos_site_id
 _symmetry_equiv_pos_as_xyz
  1  'x, y, z'
loop_
 _atom_site_type_symbol
 _atom_site_label
 _atom_site_symmetry_multiplicity
 _atom_site_fract_x
 _atom_site_fract_y
 _atom_site_fract_z
 _atom_site_occupancy
  Sm  Sm0  1  0.000000  0.141125  0.169922  1
  Sm  Sm1  1  0.000000  0.858290  0.829091  1
  Sm  Sm2  1  0.000000  0.638272  0.328504  1
  Sm  Sm3  1  0.000000  0.367712  0.672436  1
  Al  Al4  1  0.500000  0.392944  0.359701  1
  Al  Al5  1  0.500000  0.610529  0.641323  1
  Al  Al6  1  0.500000  0.889804  0.142915  1
  Co  Co7  1  0.255457  0.000604  0.498307  1
  Co  Co8  1  0.742456  0.499484  0.002187  1
  Co  Co9  1  0.744543  0.000604  0.498307  1
  Co  Co10  1  0.257544  0.499484  0.002187  1
  Co  Co11  1  0.500000  0.088146  0.848025  1
  O  O12  1  0.281532  0.998224  0.001434  1
  O  O13  1  0.716631  0.501700  0.500197  1
  O  O14  1  0.718468  0.998224  0.001434  1
  O  O15  1  0.283369  0.501700  0.500197  1
  O  O16  1  0.000000  0.157407  0.447438  1
  O  O17  1  0.000000  0.844099  0.550778  1
  O  O18  1  0.000000  0.655766  0.051912  1
  O  O19  1  0.000000  0.342400  0.947760  1
  O  O20  1  0.500000  0.156574  0.432716  1
  O  O21  1  0.500000  0.846397  0.568749  1
  O  O22  1  0.500000  0.657754  0.070173  1
  O  O23  1  0.500000  0.348775  0.940752  1
  O  O24  1  0.254258  0.400716  0.210177  1
  O  O25  1  0.255338  0.599708  0.791058  1
  O  O26  1  0.746077  0.901796  0.290824  1
  O  O27  1  0.753707  0.099771  0.704719  1
  O  O28  1  0.744662  0.599708  0.791058  1
  O  O29  1  0.745742  0.400716  0.210177  1
  O  O30  1  0.246293  0.099771  0.704719  1
  O  O31  1  0.253923  0.901796  0.290824  1
