# generated using pymatgen
data_YbEu2Sn5
_symmetry_space_group_name_H-M   'P 1'
_cell_length_a   6.64941854
_cell_length_b   6.64941803
_cell_length_c   10.59284800
_cell_angle_alpha   90.00000000
_cell_angle_beta   90.00000000
_cell_angle_gamma   100.89720145
_symmetry_Int_Tables_number   1
_chemical_formula_structural   YbEu2Sn5
_chemical_formula_sum   'Yb2 Eu4 Sn10'
_cell_volume   459.91477238
_cell_formula_units_Z   2
loop_
 _symmetry_equiv_pos_site_id
 _symmetry_equiv_pos_as_xyz
  1  'x, y, z'
loop_
 _atom_site_type_symbol
 _atom_site_label
 _atom_site_symmetry_multiplicity
 _atom_site_fract_x
 _atom_site_fract_y
 _atom_site_fract_z
 _atom_site_occupancy
  Yb  Yb0  1  0.122713  0.122713  0.250000  1
  Yb  Yb1  1  0.877287  0.877287  0.750000  1
  Eu  Eu2  1  0.294062  0.705938  0.500000  1
  Eu  Eu3  1  0.294062  0.705938  0.000000  1
  Eu  Eu4  1  0.705938  0.294062  0.500000  1
  Eu  Eu5  1  0.705938  0.294062  0.000000  1
  Sn  Sn6  1  0.993463  0.568876  0.250000  1
  Sn  Sn7  1  0.431124  0.006537  0.750000  1
  Sn  Sn8  1  0.006537  0.431124  0.750000  1
  Sn  Sn9  1  0.568876  0.993463  0.250000  1
  Sn  Sn10  1  0.807420  0.807420  0.045760  1
  Sn  Sn11  1  0.192580  0.192580  0.954240  1
  Sn  Sn12  1  0.807420  0.807420  0.454240  1
  Sn  Sn13  1  0.192580  0.192580  0.545760  1
  Sn  Sn14  1  0.518681  0.518681  0.250000  1
  Sn  Sn15  1  0.481319  0.481319  0.750000  1
