# generated using pymatgen
data_La5Nd11Cd4Co3Pd
_symmetry_space_group_name_H-M   'P 1'
_cell_length_a   9.91474003
_cell_length_b   9.93490718
_cell_length_c   9.93490731
_cell_angle_alpha   59.79594746
_cell_angle_beta   60.11512813
_cell_angle_gamma   60.11513461
_symmetry_Int_Tables_number   1
_chemical_formula_structural   La5Nd11Cd4Co3Pd
_chemical_formula_sum   'La5 Nd11 Cd4 Co3 Pd1'
_cell_volume   692.10345403
_cell_formula_units_Z   1
loop_
 _symmetry_equiv_pos_site_id
 _symmetry_equiv_pos_as_xyz
  1  'x, y, z'
loop_
 _atom_site_type_symbol
 _atom_site_label
 _atom_site_symmetry_multiplicity
 _atom_site_fract_x
 _atom_site_fract_y
 _atom_site_fract_z
 _atom_site_occupancy
  La  La0  1  0.334539  0.353126  0.353126  1
  La  La1  1  0.337357  0.353196  0.957457  1
  La  La2  1  0.337357  0.957457  0.353196  1
  La  La3  1  0.962790  0.347988  0.347988  1
  La  La4  1  0.828545  0.186747  0.186747  1
  Nd  Nd5  1  0.187333  0.811452  0.811452  1
  Nd  Nd6  1  0.191412  0.808374  0.186767  1
  Nd  Nd7  1  0.821002  0.187380  0.797875  1
  Nd  Nd8  1  0.191412  0.186767  0.808374  1
  Nd  Nd9  1  0.821002  0.797875  0.187380  1
  Nd  Nd10  1  0.933241  0.565760  0.565760  1
  Nd  Nd11  1  0.560023  0.938267  0.938267  1
  Nd  Nd12  1  0.561580  0.938562  0.563632  1
  Nd  Nd13  1  0.934906  0.563573  0.936385  1
  Nd  Nd14  1  0.561580  0.563632  0.938562  1
  Nd  Nd15  1  0.934906  0.936385  0.563573  1
  Cd  Cd16  1  0.580008  0.579731  0.579731  1
  Cd  Cd17  1  0.580126  0.580614  0.259587  1
  Cd  Cd18  1  0.580126  0.259587  0.580614  1
  Cd  Cd19  1  0.257099  0.580892  0.580892  1
  Co  Co20  1  0.135181  0.144216  0.144216  1
  Co  Co21  1  0.145188  0.142970  0.573224  1
  Co  Co22  1  0.145188  0.573224  0.142970  1
  Pd  Pd23  1  0.578100  0.142225  0.142225  1
