# generated using pymatgen
data_Ti13Al9VRh7
_symmetry_space_group_name_H-M   'P 1'
_cell_length_a   8.74131396
_cell_length_b   8.74131385
_cell_length_c   8.74131472
_cell_angle_alpha   59.77901643
_cell_angle_beta   59.77901235
_cell_angle_gamma   59.77902546
_symmetry_Int_Tables_number   1
_chemical_formula_structural   Ti13Al9VRh7
_chemical_formula_sum   'Ti13 Al9 V1 Rh7'
_cell_volume   469.92742828
_cell_formula_units_Z   1
loop_
 _symmetry_equiv_pos_site_id
 _symmetry_equiv_pos_as_xyz
  1  'x, y, z'
loop_
 _atom_site_type_symbol
 _atom_site_label
 _atom_site_symmetry_multiplicity
 _atom_site_fract_x
 _atom_site_fract_y
 _atom_site_fract_z
 _atom_site_occupancy
  Ti  Ti0  1  0.212292  0.212292  0.787212  1
  Ti  Ti1  1  0.787212  0.212292  0.212292  1
  Ti  Ti2  1  0.212292  0.787212  0.212292  1
  Ti  Ti3  1  0.797529  0.797529  0.189282  1
  Ti  Ti4  1  0.189282  0.797529  0.797529  1
  Ti  Ti5  1  0.797529  0.189282  0.797529  1
  Ti  Ti6  1  0.378265  0.378265  0.378265  1
  Ti  Ti7  1  0.378960  0.866830  0.378960  1
  Ti  Ti8  1  0.866830  0.378960  0.378960  1
  Ti  Ti9  1  0.378960  0.378960  0.866830  1
  Ti  Ti10  1  0.845969  0.463340  0.845969  1
  Ti  Ti11  1  0.463340  0.845969  0.845969  1
  Ti  Ti12  1  0.845969  0.845969  0.463340  1
  Al  Al13  1  0.150369  0.150369  0.150369  1
  Al  Al14  1  0.154637  0.540509  0.154637  1
  Al  Al15  1  0.540509  0.154637  0.154637  1
  Al  Al16  1  0.154637  0.154637  0.540509  1
  Al  Al17  1  0.619044  0.619044  0.619044  1
  Al  Al18  1  0.620619  0.142037  0.620619  1
  Al  Al19  1  0.142037  0.620619  0.620619  1
  Al  Al20  1  0.620619  0.620619  0.142037  1
  Al  Al21  1  0.832595  0.832595  0.832595  1
  V  V22  1  0.004155  0.004155  0.004155  1
  Rh  Rh23  1  0.003650  0.003650  0.497839  1
  Rh  Rh24  1  0.497839  0.003650  0.003650  1
  Rh  Rh25  1  0.003650  0.497839  0.003650  1
  Rh  Rh26  1  0.500120  0.500120  0.000842  1
  Rh  Rh27  1  0.000842  0.500120  0.500120  1
  Rh  Rh28  1  0.500120  0.000842  0.500120  1
  Rh  Rh29  1  0.500132  0.500132  0.500132  1
