# generated using pymatgen
data_Ho6Zn21SiAg2
_symmetry_space_group_name_H-M   'P 1'
_cell_length_a   9.08345494
_cell_length_b   9.07459276
_cell_length_c   9.07459300
_cell_angle_alpha   59.99999546
_cell_angle_beta   60.03226414
_cell_angle_gamma   60.03226627
_symmetry_Int_Tables_number   1
_chemical_formula_structural   Ho6Zn21SiAg2
_chemical_formula_sum   'Ho6 Zn21 Si1 Ag2'
_cell_volume   529.17824490
_cell_formula_units_Z   1
loop_
 _symmetry_equiv_pos_site_id
 _symmetry_equiv_pos_as_xyz
  1  'x, y, z'
loop_
 _atom_site_type_symbol
 _atom_site_label
 _atom_site_symmetry_multiplicity
 _atom_site_fract_x
 _atom_site_fract_y
 _atom_site_fract_z
 _atom_site_occupancy
  Ho  Ho0  1  0.715927  0.284636  0.284636  1
  Ho  Ho1  1  0.715927  0.284636  0.714802  1
  Ho  Ho2  1  0.715927  0.714802  0.284636  1
  Ho  Ho3  1  0.283382  0.716480  0.716480  1
  Ho  Ho4  1  0.283382  0.716480  0.283658  1
  Ho  Ho5  1  0.283382  0.283658  0.716480  1
  Zn  Zn6  1  0.125485  0.622920  0.125798  1
  Zn  Zn7  1  0.125485  0.125798  0.622920  1
  Zn  Zn8  1  0.125485  0.125798  0.125798  1
  Zn  Zn9  1  0.377539  0.874153  0.874153  1
  Zn  Zn10  1  0.873457  0.375664  0.875439  1
  Zn  Zn11  1  0.873457  0.875439  0.375664  1
  Zn  Zn12  1  0.873457  0.875439  0.875439  1
  Zn  Zn13  1  0.498000  0.999143  0.999143  1
  Zn  Zn14  1  0.498000  0.999143  0.503714  1
  Zn  Zn15  1  0.498000  0.503714  0.999143  1
  Zn  Zn16  1  0.999688  0.500223  0.500223  1
  Zn  Zn17  1  0.999688  0.500223  0.999866  1
  Zn  Zn18  1  0.999688  0.999866  0.500223  1
  Zn  Zn19  1  0.001565  0.332811  0.332811  1
  Zn  Zn20  1  0.332135  0.000890  0.333487  1
  Zn  Zn21  1  0.332135  0.333487  0.000890  1
  Zn  Zn22  1  0.332135  0.333487  0.333487  1
  Zn  Zn23  1  0.998749  0.667084  0.667084  1
  Zn  Zn24  1  0.667303  0.998144  0.667277  1
  Zn  Zn25  1  0.667303  0.667277  0.998144  1
  Zn  Zn26  1  0.667303  0.667277  0.667277  1
  Si  Si27  1  0.498924  0.500359  0.500359  1
  Ag  Ag28  1  0.627628  0.124124  0.124124  1
  Ag  Ag29  1  0.009464  0.996845  0.996845  1
