# generated using pymatgen
data_TbLuMo3P7Rh9
_symmetry_space_group_name_H-M   'P 1'
_cell_length_a   3.92463165
_cell_length_b   9.51417285
_cell_length_c   9.51366399
_cell_angle_alpha   120.00153965
_cell_angle_beta   89.99607394
_cell_angle_gamma   90.00464941
_symmetry_Int_Tables_number   1
_chemical_formula_structural   TbLuMo3P7Rh9
_chemical_formula_sum   'Tb1 Lu1 Mo3 P7 Rh9'
_cell_volume   307.63917603
_cell_formula_units_Z   1
loop_
 _symmetry_equiv_pos_site_id
 _symmetry_equiv_pos_as_xyz
  1  'x, y, z'
loop_
 _atom_site_type_symbol
 _atom_site_label
 _atom_site_symmetry_multiplicity
 _atom_site_fract_x
 _atom_site_fract_y
 _atom_site_fract_z
 _atom_site_occupancy
  Tb  Tb0  1  0.261247  0.666626  0.333268  1
  Lu  Lu1  1  0.762257  0.333355  0.666707  1
  Mo  Mo2  1  0.761985  0.091793  0.870756  1
  Mo  Mo3  1  0.762026  0.129324  0.221226  1
  Mo  Mo4  1  0.761991  0.778847  0.908085  1
  P  P5  1  0.262373  0.000026  0.999964  1
  P  P6  1  0.761655  0.881942  0.593885  1
  P  P7  1  0.761664  0.406086  0.288044  1
  P  P8  1  0.761630  0.711939  0.118003  1
  P  P9  1  0.262017  0.118803  0.412604  1
  P  P10  1  0.262059  0.587443  0.706248  1
  P  P11  1  0.262013  0.293806  0.881244  1
  Rh  Rh12  1  0.261871  0.884559  0.159888  1
  Rh  Rh13  1  0.261900  0.840040  0.724519  1
  Rh  Rh14  1  0.261906  0.275445  0.115571  1
  Rh  Rh15  1  0.761883  0.612428  0.558712  1
  Rh  Rh16  1  0.761849  0.441172  0.053583  1
  Rh  Rh17  1  0.761893  0.946293  0.387540  1
  Rh  Rh18  1  0.261967  0.371038  0.441003  1
  Rh  Rh19  1  0.261892  0.559111  0.930144  1
  Rh  Rh20  1  0.261923  0.069922  0.629008  1
