# generated using pymatgen
data_TiNb5(IrRh2)6
_symmetry_space_group_name_H-M   'P 1'
_cell_length_a   5.54723400
_cell_length_b   5.54723488
_cell_length_c   13.45262100
_cell_angle_alpha   90.00000000
_cell_angle_beta   90.00000000
_cell_angle_gamma   120.00000670
_symmetry_Int_Tables_number   1
_chemical_formula_structural   TiNb5(IrRh2)6
_chemical_formula_sum   'Ti1 Nb5 Ir6 Rh12'
_cell_volume   358.50114777
_cell_formula_units_Z   1
loop_
 _symmetry_equiv_pos_site_id
 _symmetry_equiv_pos_as_xyz
  1  'x, y, z'
loop_
 _atom_site_type_symbol
 _atom_site_label
 _atom_site_symmetry_multiplicity
 _atom_site_fract_x
 _atom_site_fract_y
 _atom_site_fract_z
 _atom_site_occupancy
  Ti  Ti0  1  0.000000  0.000000  0.250000  1
  Nb  Nb1  1  0.000000  0.000000  0.750000  1
  Nb  Nb2  1  0.333333  0.666667  0.409594  1
  Nb  Nb3  1  0.666667  0.333333  0.587708  1
  Nb  Nb4  1  0.666667  0.333333  0.912292  1
  Nb  Nb5  1  0.333333  0.666667  0.090406  1
  Ir  Ir6  1  0.503793  0.496207  0.250000  1
  Ir  Ir7  1  0.503793  0.007587  0.250000  1
  Ir  Ir8  1  0.992413  0.496207  0.250000  1
  Ir  Ir9  1  0.496218  0.503782  0.750000  1
  Ir  Ir10  1  0.496218  0.992435  0.750000  1
  Ir  Ir11  1  0.007565  0.503782  0.750000  1
  Rh  Rh12  1  0.164909  0.329815  0.917535  1
  Rh  Rh13  1  0.670185  0.835091  0.917535  1
  Rh  Rh14  1  0.164909  0.835091  0.917535  1
  Rh  Rh15  1  0.835505  0.671012  0.083521  1
  Rh  Rh16  1  0.328988  0.164495  0.083521  1
  Rh  Rh17  1  0.835505  0.164495  0.083521  1
  Rh  Rh18  1  0.835505  0.671012  0.416479  1
  Rh  Rh19  1  0.328988  0.164495  0.416479  1
  Rh  Rh20  1  0.835505  0.164495  0.416479  1
  Rh  Rh21  1  0.164909  0.329815  0.582465  1
  Rh  Rh22  1  0.670185  0.835091  0.582465  1
  Rh  Rh23  1  0.164909  0.835091  0.582465  1
