# generated using pymatgen
data_Th3Al12(RePt)2
_symmetry_space_group_name_H-M   'P 1'
_cell_length_a   9.13378900
_cell_length_b   9.03133695
_cell_length_c   9.83261700
_cell_angle_alpha   90.00000000
_cell_angle_beta   90.00000000
_cell_angle_gamma   119.62963885
_symmetry_Int_Tables_number   1
_chemical_formula_structural   Th3Al12(RePt)2
_chemical_formula_sum   'Th6 Al24 Re4 Pt4'
_cell_volume   705.03632957
_cell_formula_units_Z   2
loop_
 _symmetry_equiv_pos_site_id
 _symmetry_equiv_pos_as_xyz
  1  'x, y, z'
loop_
 _atom_site_type_symbol
 _atom_site_label
 _atom_site_symmetry_multiplicity
 _atom_site_fract_x
 _atom_site_fract_y
 _atom_site_fract_z
 _atom_site_occupancy
  Th  Th0  1  0.183018  0.386829  0.250000  1
  Th  Th1  1  0.816982  0.613171  0.750000  1
  Th  Th2  1  0.619826  0.809914  0.250000  1
  Th  Th3  1  0.380174  0.190086  0.750000  1
  Th  Th4  1  0.183018  0.796191  0.250000  1
  Th  Th5  1  0.816982  0.203809  0.750000  1
  Al  Al6  1  0.330413  0.665207  0.018617  1
  Al  Al7  1  0.669587  0.334793  0.981383  1
  Al  Al8  1  0.669587  0.334793  0.518617  1
  Al  Al9  1  0.330413  0.665207  0.481383  1
  Al  Al10  1  0.158760  0.325502  0.575118  1
  Al  Al11  1  0.841240  0.674498  0.424882  1
  Al  Al12  1  0.679734  0.839866  0.575670  1
  Al  Al13  1  0.841240  0.674498  0.075118  1
  Al  Al14  1  0.320266  0.160134  0.424330  1
  Al  Al15  1  0.158760  0.325502  0.924882  1
  Al  Al16  1  0.158760  0.833258  0.575118  1
  Al  Al17  1  0.320266  0.160134  0.075670  1
  Al  Al18  1  0.841240  0.166742  0.424882  1
  Al  Al19  1  0.679734  0.839866  0.924330  1
  Al  Al20  1  0.841240  0.166742  0.075118  1
  Al  Al21  1  0.158760  0.833258  0.924882  1
  Al  Al22  1  0.561620  0.126284  0.250000  1
  Al  Al23  1  0.438380  0.873716  0.750000  1
  Al  Al24  1  0.865034  0.432516  0.250000  1
  Al  Al25  1  0.134966  0.567484  0.750000  1
  Al  Al26  1  0.561620  0.435336  0.250000  1
  Al  Al27  1  0.438380  0.564664  0.750000  1
  Al  Al28  1  0.999776  0.999889  0.250000  1
  Al  Al29  1  0.000224  0.000111  0.750000  1
  Re  Re30  1  0.000000  0.500000  0.000000  1
  Re  Re31  1  0.000000  0.500000  0.500000  1
  Re  Re32  1  0.000000  0.000000  0.000000  1
  Re  Re33  1  0.000000  0.000000  0.500000  1
  Pt  Pt34  1  0.500000  0.000000  0.000000  1
  Pt  Pt35  1  0.500000  0.000000  0.500000  1
  Pt  Pt36  1  0.500000  0.500000  0.000000  1
  Pt  Pt37  1  0.500000  0.500000  0.500000  1
