# generated using pymatgen
data_Dy5Er7(TcIr)2
_symmetry_space_group_name_H-M   'P 1'
_cell_length_a   6.31651054
_cell_length_b   7.31067066
_cell_length_c   9.11765576
_cell_angle_alpha   89.96167938
_cell_angle_beta   90.13418453
_cell_angle_gamma   90.02962986
_symmetry_Int_Tables_number   1
_chemical_formula_structural   Dy5Er7(TcIr)2
_chemical_formula_sum   'Dy5 Er7 Tc2 Ir2'
_cell_volume   421.03314862
_cell_formula_units_Z   1
loop_
 _symmetry_equiv_pos_site_id
 _symmetry_equiv_pos_as_xyz
  1  'x, y, z'
loop_
 _atom_site_type_symbol
 _atom_site_label
 _atom_site_symmetry_multiplicity
 _atom_site_fract_x
 _atom_site_fract_y
 _atom_site_fract_z
 _atom_site_occupancy
  Dy  Dy0  1  0.329270  0.676652  0.065317  1
  Dy  Dy1  1  0.873794  0.537802  0.250336  1
  Dy  Dy2  1  0.626186  0.038309  0.250228  1
  Dy  Dy3  1  0.132586  0.459877  0.749731  1
  Dy  Dy4  1  0.367258  0.960181  0.749642  1
  Er  Er5  1  0.170130  0.176660  0.434646  1
  Er  Er6  1  0.668536  0.323754  0.561182  1
  Er  Er7  1  0.831737  0.824048  0.938646  1
  Er  Er8  1  0.668465  0.323534  0.938490  1
  Er  Er9  1  0.832062  0.824076  0.561233  1
  Er  Er10  1  0.329851  0.676407  0.435134  1
  Er  Er11  1  0.169700  0.176449  0.065407  1
  Tc  Tc12  1  0.036210  0.886770  0.250344  1
  Tc  Tc13  1  0.463756  0.386153  0.250197  1
  Ir  Ir14  1  0.954671  0.114786  0.750264  1
  Ir  Ir15  1  0.545788  0.614540  0.749203  1
