# generated using pymatgen
data_Lu2Zr2Al17GaRh6
_symmetry_space_group_name_H-M   'P 1'
_cell_length_a   7.49300572
_cell_length_b   7.48323685
_cell_length_c   9.34035900
_cell_angle_alpha   90.00000000
_cell_angle_beta   90.00000000
_cell_angle_gamma   119.59235283
_symmetry_Int_Tables_number   1
_chemical_formula_structural   Lu2Zr2Al17GaRh6
_chemical_formula_sum   'Lu2 Zr2 Al17 Ga1 Rh6'
_cell_volume   455.41685647
_cell_formula_units_Z   1
loop_
 _symmetry_equiv_pos_site_id
 _symmetry_equiv_pos_as_xyz
  1  'x, y, z'
loop_
 _atom_site_type_symbol
 _atom_site_label
 _atom_site_symmetry_multiplicity
 _atom_site_fract_x
 _atom_site_fract_y
 _atom_site_fract_z
 _atom_site_occupancy
  Lu  Lu0  1  0.672668  0.993380  0.250000  1
  Lu  Lu1  1  0.329069  0.006565  0.750000  1
  Zr  Zr2  1  0.994455  0.672757  0.250000  1
  Zr  Zr3  1  0.005312  0.328474  0.750000  1
  Al  Al4  1  0.874873  0.876340  0.750000  1
  Al  Al5  1  0.998803  0.336919  0.075261  1
  Al  Al6  1  0.001220  0.663152  0.924039  1
  Al  Al7  1  0.001220  0.663152  0.575961  1
  Al  Al8  1  0.333202  0.998445  0.421489  1
  Al  Al9  1  0.998803  0.336919  0.424739  1
  Al  Al10  1  0.666881  0.001801  0.578586  1
  Al  Al11  1  0.666881  0.001801  0.921414  1
  Al  Al12  1  0.333202  0.998445  0.078511  1
  Al  Al13  1  0.331061  0.333098  0.557173  1
  Al  Al14  1  0.668622  0.666558  0.444076  1
  Al  Al15  1  0.668622  0.666558  0.055924  1
  Al  Al16  1  0.331061  0.333098  0.942827  1
  Al  Al17  1  0.334421  0.550126  0.250000  1
  Al  Al18  1  0.664957  0.450119  0.750000  1
  Al  Al19  1  0.556911  0.342464  0.250000  1
  Al  Al20  1  0.443611  0.657075  0.750000  1
  Ga  Ga21  1  0.127213  0.126516  0.250000  1
  Rh  Rh22  1  0.671376  0.326567  0.999577  1
  Rh  Rh23  1  0.327662  0.672456  0.001104  1
  Rh  Rh24  1  0.327662  0.672456  0.498896  1
  Rh  Rh25  1  0.671376  0.326567  0.500423  1
  Rh  Rh26  1  0.999428  0.999096  0.998161  1
  Rh  Rh27  1  0.999428  0.999096  0.501839  1
