# generated using pymatgen
data_CsTm10(C2I9)2
_symmetry_space_group_name_H-M   'P 1'
_cell_length_a   11.49699606
_cell_length_b   11.45495114
_cell_length_c   11.40704746
_cell_angle_alpha   113.06554751
_cell_angle_beta   86.28020990
_cell_angle_gamma   120.57520805
_symmetry_Int_Tables_number   1
_chemical_formula_structural   CsTm10(C2I9)2
_chemical_formula_sum   'Cs1 Tm10 C4 I18'
_cell_volume   1172.75125628
_cell_formula_units_Z   1
loop_
 _symmetry_equiv_pos_site_id
 _symmetry_equiv_pos_as_xyz
  1  'x, y, z'
loop_
 _atom_site_type_symbol
 _atom_site_label
 _atom_site_symmetry_multiplicity
 _atom_site_fract_x
 _atom_site_fract_y
 _atom_site_fract_z
 _atom_site_occupancy
  Cs  Cs0  1  0.500000  0.000000  0.500000  1
  Tm  Tm1  1  0.687428  0.730467  0.718322  1
  Tm  Tm2  1  0.275229  0.349716  0.013808  1
  Tm  Tm3  1  0.092617  0.381283  0.285693  1
  Tm  Tm4  1  0.962654  0.035103  0.321106  1
  Tm  Tm5  1  0.907383  0.618717  0.714307  1
  Tm  Tm6  1  0.101107  0.945360  0.000477  1
  Tm  Tm7  1  0.037346  0.964897  0.678894  1
  Tm  Tm8  1  0.312572  0.269533  0.281678  1
  Tm  Tm9  1  0.724771  0.650284  0.986192  1
  Tm  Tm10  1  0.898893  0.054640  0.999523  1
  C  C11  1  0.149586  0.215730  0.115928  1
  C  C12  1  0.850414  0.784270  0.884072  1
  C  C13  1  0.928075  0.862122  0.806738  1
  C  C14  1  0.071925  0.137878  0.193262  1
  I  I15  1  0.454671  0.531760  0.833464  1
  I  I16  1  0.377584  0.041300  0.155657  1
  I  I17  1  0.782457  0.856837  0.504656  1
  I  I18  1  0.842249  0.306340  0.152452  1
  I  I19  1  0.545329  0.468240  0.166536  1
  I  I20  1  0.217543  0.143163  0.495344  1
  I  I21  1  0.315945  0.098585  0.828828  1
  I  I22  1  0.684055  0.901415  0.171172  1
  I  I23  1  0.970432  0.755628  0.169705  1
  I  I24  1  0.934523  0.293738  0.497049  1
  I  I25  1  0.029568  0.244372  0.830295  1
  I  I26  1  0.065477  0.706262  0.502951  1
  I  I27  1  0.258631  0.615864  0.179856  1
  I  I28  1  0.741369  0.384136  0.820144  1
  I  I29  1  0.648854  0.444079  0.508154  1
  I  I30  1  0.157751  0.693660  0.847548  1
  I  I31  1  0.622416  0.958700  0.844343  1
  I  I32  1  0.351146  0.555921  0.491846  1
