# generated using pymatgen
data_Zr5Ti3(Co4As3)4
_symmetry_space_group_name_H-M   'P 1'
_cell_length_a   12.43614800
_cell_length_b   12.43614755
_cell_length_c   3.76195500
_cell_angle_alpha   90.00000000
_cell_angle_beta   90.00000000
_cell_angle_gamma   120.00000651
_symmetry_Int_Tables_number   1
_chemical_formula_structural   Zr5Ti3(Co4As3)4
_chemical_formula_sum   'Zr5 Ti3 Co16 As12'
_cell_volume   503.86703684
_cell_formula_units_Z   1
loop_
 _symmetry_equiv_pos_site_id
 _symmetry_equiv_pos_as_xyz
  1  'x, y, z'
loop_
 _atom_site_type_symbol
 _atom_site_label
 _atom_site_symmetry_multiplicity
 _atom_site_fract_x
 _atom_site_fract_y
 _atom_site_fract_z
 _atom_site_occupancy
  Zr  Zr0  1  0.180268  0.180268  0.500000  1
  Zr  Zr1  1  0.819732  0.000000  0.500000  1
  Zr  Zr2  1  0.000000  0.819732  0.500000  1
  Zr  Zr3  1  0.333333  0.666667  0.000000  1
  Zr  Zr4  1  0.666667  0.333333  0.000000  1
  Ti  Ti5  1  0.560590  0.560590  0.000000  1
  Ti  Ti6  1  0.439410  0.000000  0.000000  1
  Ti  Ti7  1  0.000000  0.439410  0.000000  1
  Co  Co8  1  0.716515  0.716515  0.500000  1
  Co  Co9  1  0.283485  0.000000  0.500000  1
  Co  Co10  1  0.000000  0.283485  0.500000  1
  Co  Co11  1  0.177960  0.375432  0.000000  1
  Co  Co12  1  0.624568  0.802528  0.000000  1
  Co  Co13  1  0.197472  0.822040  0.000000  1
  Co  Co14  1  0.802528  0.624568  0.000000  1
  Co  Co15  1  0.822040  0.197472  0.000000  1
  Co  Co16  1  0.375432  0.177960  0.000000  1
  Co  Co17  1  0.354798  0.479406  0.500000  1
  Co  Co18  1  0.520594  0.875392  0.500000  1
  Co  Co19  1  0.124608  0.645202  0.500000  1
  Co  Co20  1  0.875392  0.520594  0.500000  1
  Co  Co21  1  0.645202  0.124608  0.500000  1
  Co  Co22  1  0.479406  0.354798  0.500000  1
  Co  Co23  1  0.000000  0.000000  0.000000  1
  As  As24  1  0.823498  0.823498  0.000000  1
  As  As25  1  0.176502  0.000000  0.000000  1
  As  As26  1  0.000000  0.176502  0.000000  1
  As  As27  1  0.170115  0.485254  0.500000  1
  As  As28  1  0.514746  0.684862  0.500000  1
  As  As29  1  0.315138  0.829885  0.500000  1
  As  As30  1  0.684862  0.514746  0.500000  1
  As  As31  1  0.829885  0.315138  0.500000  1
  As  As32  1  0.485254  0.170115  0.500000  1
  As  As33  1  0.354163  0.354163  0.000000  1
  As  As34  1  0.645837  0.000000  0.000000  1
  As  As35  1  0.000000  0.645837  0.000000  1
