# generated using pymatgen
data_Er20Ir3RuAu8
_symmetry_space_group_name_H-M   'P 1'
_cell_length_a   11.24541100
_cell_length_b   11.24541100
_cell_length_c   6.28639500
_cell_angle_alpha   90.00000000
_cell_angle_beta   90.00000000
_cell_angle_gamma   90.00000000
_symmetry_Int_Tables_number   1
_chemical_formula_structural   Er20Ir3RuAu8
_chemical_formula_sum   'Er20 Ir3 Ru1 Au8'
_cell_volume   794.97291357
_cell_formula_units_Z   1
loop_
 _symmetry_equiv_pos_site_id
 _symmetry_equiv_pos_as_xyz
  1  'x, y, z'
loop_
 _atom_site_type_symbol
 _atom_site_label
 _atom_site_symmetry_multiplicity
 _atom_site_fract_x
 _atom_site_fract_y
 _atom_site_fract_z
 _atom_site_occupancy
  Er  Er0  1  0.299878  0.083005  0.358407  1
  Er  Er1  1  0.300327  0.916718  0.860982  1
  Er  Er2  1  0.699673  0.083282  0.860982  1
  Er  Er3  1  0.700122  0.916995  0.358407  1
  Er  Er4  1  0.583282  0.800327  0.860982  1
  Er  Er5  1  0.583005  0.200122  0.358407  1
  Er  Er6  1  0.416995  0.799878  0.358407  1
  Er  Er7  1  0.416718  0.199673  0.860982  1
  Er  Er8  1  0.201637  0.416100  0.640068  1
  Er  Er9  1  0.201530  0.584037  0.140205  1
  Er  Er10  1  0.798470  0.415963  0.140205  1
  Er  Er11  1  0.798363  0.583900  0.640068  1
  Er  Er12  1  0.915963  0.701530  0.140205  1
  Er  Er13  1  0.916100  0.298363  0.640068  1
  Er  Er14  1  0.083900  0.701637  0.640068  1
  Er  Er15  1  0.084037  0.298470  0.140205  1
  Er  Er16  1  0.000000  0.000000  0.498690  1
  Er  Er17  1  0.000000  0.000000  0.998643  1
  Er  Er18  1  0.500000  0.500000  0.998643  1
  Er  Er19  1  0.500000  0.500000  0.498690  1
  Ir  Ir20  1  0.500000  0.000000  0.612888  1
  Ir  Ir21  1  0.000000  0.500000  0.890301  1
  Ir  Ir22  1  0.000000  0.500000  0.390385  1
  Ru  Ru23  1  0.500000  0.000000  0.114751  1
  Au  Au24  1  0.844011  0.156053  0.249736  1
  Au  Au25  1  0.843882  0.844227  0.749853  1
  Au  Au26  1  0.156118  0.155773  0.749853  1
  Au  Au27  1  0.155989  0.843947  0.249736  1
  Au  Au28  1  0.655773  0.343882  0.749853  1
  Au  Au29  1  0.656053  0.655989  0.249736  1
  Au  Au30  1  0.343947  0.344011  0.249736  1
  Au  Au31  1  0.344227  0.656118  0.749853  1
