# generated using pymatgen
data_HfZr(SiPd)2
_symmetry_space_group_name_H-M   'P 1'
_cell_length_a   3.90349300
_cell_length_b   6.64848100
_cell_length_c   7.63151900
_cell_angle_alpha   90.00000000
_cell_angle_beta   90.00000000
_cell_angle_gamma   90.00000000
_symmetry_Int_Tables_number   1
_chemical_formula_structural   HfZr(SiPd)2
_chemical_formula_sum   'Hf2 Zr2 Si4 Pd4'
_cell_volume   198.05546325
_cell_formula_units_Z   2
loop_
 _symmetry_equiv_pos_site_id
 _symmetry_equiv_pos_as_xyz
  1  'x, y, z'
loop_
 _atom_site_type_symbol
 _atom_site_label
 _atom_site_symmetry_multiplicity
 _atom_site_fract_x
 _atom_site_fract_y
 _atom_site_fract_z
 _atom_site_occupancy
  Hf  Hf0  1  0.250000  0.026638  0.320224  1
  Hf  Hf1  1  0.250000  0.526638  0.179776  1
  Zr  Zr2  1  0.750000  0.973185  0.678694  1
  Zr  Zr3  1  0.750000  0.473185  0.821306  1
  Si  Si4  1  0.250000  0.260928  0.623319  1
  Si  Si5  1  0.250000  0.760928  0.876681  1
  Si  Si6  1  0.750000  0.740098  0.375760  1
  Si  Si7  1  0.750000  0.240098  0.124240  1
  Pd  Pd8  1  0.250000  0.143173  0.940828  1
  Pd  Pd9  1  0.250000  0.643173  0.559172  1
  Pd  Pd10  1  0.750000  0.855977  0.064319  1
  Pd  Pd11  1  0.750000  0.355977  0.435681  1
