# generated using pymatgen
data_Er8Sc12Si15Hg
_symmetry_space_group_name_H-M   'P 1'
_cell_length_a   7.10895145
_cell_length_b   7.37093830
_cell_length_c   14.04709523
_cell_angle_alpha   89.91420635
_cell_angle_beta   89.53555150
_cell_angle_gamma   90.13585530
_symmetry_Int_Tables_number   1
_chemical_formula_structural   Er8Sc12Si15Hg
_chemical_formula_sum   'Er8 Sc12 Si15 Hg1'
_cell_volume   736.03567028
_cell_formula_units_Z   1
loop_
 _symmetry_equiv_pos_site_id
 _symmetry_equiv_pos_as_xyz
  1  'x, y, z'
loop_
 _atom_site_type_symbol
 _atom_site_label
 _atom_site_symmetry_multiplicity
 _atom_site_fract_x
 _atom_site_fract_y
 _atom_site_fract_z
 _atom_site_occupancy
  Er  Er0  1  0.011664  0.175839  0.097186  1
  Er  Er1  1  0.987837  0.825142  0.904653  1
  Er  Er2  1  0.487695  0.677170  0.904198  1
  Er  Er3  1  0.989553  0.831346  0.598037  1
  Er  Er4  1  0.511525  0.323382  0.096360  1
  Er  Er5  1  0.007017  0.171300  0.398157  1
  Er  Er6  1  0.511051  0.321542  0.399039  1
  Er  Er7  1  0.496815  0.682175  0.600211  1
  Sc  Sc8  1  0.163411  0.502169  0.754391  1
  Sc  Sc9  1  0.836207  0.497710  0.249959  1
  Sc  Sc10  1  0.336524  0.001470  0.248786  1
  Sc  Sc11  1  0.665903  0.996119  0.751641  1
  Sc  Sc12  1  0.343288  0.168020  0.628852  1
  Sc  Sc13  1  0.663514  0.824604  0.372988  1
  Sc  Sc14  1  0.165790  0.677810  0.370520  1
  Sc  Sc15  1  0.668860  0.823575  0.124272  1
  Sc  Sc16  1  0.825988  0.325177  0.626243  1
  Sc  Sc17  1  0.329369  0.175320  0.876277  1
  Sc  Sc18  1  0.830923  0.322705  0.876275  1
  Sc  Sc19  1  0.168324  0.676806  0.124959  1
  Si  Si20  1  0.036290  0.119602  0.751550  1
  Si  Si21  1  0.963608  0.885034  0.247655  1
  Si  Si22  1  0.465568  0.613846  0.247763  1
  Si  Si23  1  0.534201  0.387393  0.752366  1
  Si  Si24  1  0.285388  0.871154  0.752004  1
  Si  Si25  1  0.712127  0.128750  0.247599  1
  Si  Si26  1  0.212701  0.369871  0.247879  1
  Si  Si27  1  0.789248  0.629571  0.752873  1
  Si  Si28  1  0.831525  0.537845  0.459060  1
  Si  Si29  1  0.337052  0.962480  0.459971  1
  Si  Si30  1  0.842518  0.534958  0.038879  1
  Si  Si31  1  0.661861  0.037108  0.537397  1
  Si  Si32  1  0.157412  0.464319  0.962397  1
  Si  Si33  1  0.657194  0.034511  0.960702  1
  Si  Si34  1  0.341774  0.965420  0.039913  1
  Hg  Hg35  1  0.170274  0.458760  0.538989  1
