# generated using pymatgen
data_Er2ReTcC3
_symmetry_space_group_name_H-M   'P 1'
_cell_length_a   6.00845950
_cell_length_b   6.00845974
_cell_length_c   5.64485269
_cell_angle_alpha   67.74398872
_cell_angle_beta   67.74398659
_cell_angle_gamma   31.97907055
_symmetry_Int_Tables_number   1
_chemical_formula_structural   Er2ReTcC3
_chemical_formula_sum   'Er2 Re1 Tc1 C3'
_cell_volume   99.19840509
_cell_formula_units_Z   1
loop_
 _symmetry_equiv_pos_site_id
 _symmetry_equiv_pos_as_xyz
  1  'x, y, z'
loop_
 _atom_site_type_symbol
 _atom_site_label
 _atom_site_symmetry_multiplicity
 _atom_site_fract_x
 _atom_site_fract_y
 _atom_site_fract_z
 _atom_site_occupancy
  Er  Er0  1  0.609162  0.609162  0.174786  1
  Er  Er1  1  0.390819  0.390819  0.821549  1
  Re  Re2  1  0.842388  0.842388  0.322961  1
  Tc  Tc3  1  0.156971  0.156971  0.679658  1
  C  C4  1  0.246685  0.246685  0.268190  1
  C  C5  1  0.754521  0.754521  0.730665  1
  C  C6  1  0.999453  0.999453  0.002191  1
