# generated using pymatgen
data_BaSrCaSb2
_symmetry_space_group_name_H-M   'P 1'
_cell_length_a   5.13178226
_cell_length_b   7.81375300
_cell_length_c   10.13832652
_cell_angle_alpha   90.00000000
_cell_angle_beta   75.34964739
_cell_angle_gamma   90.00000000
_symmetry_Int_Tables_number   1
_chemical_formula_structural   BaSrCaSb2
_chemical_formula_sum   'Ba2 Sr2 Ca2 Sb4'
_cell_volume   393.31402660
_cell_formula_units_Z   2
loop_
 _symmetry_equiv_pos_site_id
 _symmetry_equiv_pos_as_xyz
  1  'x, y, z'
loop_
 _atom_site_type_symbol
 _atom_site_label
 _atom_site_symmetry_multiplicity
 _atom_site_fract_x
 _atom_site_fract_y
 _atom_site_fract_z
 _atom_site_occupancy
  Ba  Ba0  1  0.302201  0.523090  0.395637  1
  Ba  Ba1  1  0.697798  0.023091  0.604364  1
  Sr  Sr2  1  0.475720  0.225204  0.048594  1
  Sr  Sr3  1  0.524280  0.725204  0.951406  1
  Ca  Ca4  1  0.902054  0.901527  0.195825  1
  Ca  Ca5  1  0.097946  0.401527  0.804175  1
  Sb  Sb6  1  0.938797  0.505047  0.122512  1
  Sb  Sb7  1  0.327044  0.999592  0.345921  1
  Sb  Sb8  1  0.672955  0.499592  0.654079  1
  Sb  Sb9  1  0.061203  0.005046  0.877488  1
