# generated using pymatgen
data_Nd3Ag2HgPd3
_symmetry_space_group_name_H-M   'P 1'
_cell_length_a   7.68597000
_cell_length_b   7.68596997
_cell_length_c   4.04030000
_cell_angle_alpha   90.00000000
_cell_angle_beta   90.00000000
_cell_angle_gamma   120.74991062
_symmetry_Int_Tables_number   1
_chemical_formula_structural   Nd3Ag2HgPd3
_chemical_formula_sum   'Nd3 Ag2 Hg1 Pd3'
_cell_volume   205.12092869
_cell_formula_units_Z   1
loop_
 _symmetry_equiv_pos_site_id
 _symmetry_equiv_pos_as_xyz
  1  'x, y, z'
loop_
 _atom_site_type_symbol
 _atom_site_label
 _atom_site_symmetry_multiplicity
 _atom_site_fract_x
 _atom_site_fract_y
 _atom_site_fract_z
 _atom_site_occupancy
  Nd  Nd0  1  0.600552  0.004836  0.000000  1
  Nd  Nd1  1  0.004836  0.600552  0.000000  1
  Nd  Nd2  1  0.393181  0.393181  0.000000  1
  Ag  Ag3  1  0.255962  0.001682  0.500000  1
  Ag  Ag4  1  0.001682  0.255962  0.500000  1
  Hg  Hg5  1  0.743035  0.743035  0.500000  1
  Pd  Pd6  1  0.332830  0.668729  0.500000  1
  Pd  Pd7  1  0.668729  0.332830  0.500000  1
  Pd  Pd8  1  0.999193  0.999193  0.000000  1
