# generated using pymatgen
data_Tb7CoBr12
_symmetry_space_group_name_H-M   'P 1'
_cell_length_a   9.24281358
_cell_length_b   9.24281345
_cell_length_c   9.24281427
_cell_angle_alpha   106.74309844
_cell_angle_beta   106.74310297
_cell_angle_gamma   106.74310268
_symmetry_Int_Tables_number   1
_chemical_formula_structural   Tb7CoBr12
_chemical_formula_sum   'Tb7 Co1 Br12'
_cell_volume   662.14903056
_cell_formula_units_Z   1
loop_
 _symmetry_equiv_pos_site_id
 _symmetry_equiv_pos_as_xyz
  1  'x, y, z'
loop_
 _atom_site_type_symbol
 _atom_site_label
 _atom_site_symmetry_multiplicity
 _atom_site_fract_x
 _atom_site_fract_y
 _atom_site_fract_z
 _atom_site_occupancy
  Tb  Tb0  1  0.000000  0.000000  0.000000  1
  Tb  Tb1  1  0.597333  0.521267  0.801940  1
  Tb  Tb2  1  0.521267  0.801940  0.597333  1
  Tb  Tb3  1  0.801940  0.597333  0.521267  1
  Tb  Tb4  1  0.402667  0.478733  0.198060  1
  Tb  Tb5  1  0.478733  0.198060  0.402667  1
  Tb  Tb6  1  0.198060  0.402667  0.478733  1
  Co  Co7  1  0.500000  0.500000  0.500000  1
  Br  Br8  1  0.569321  0.178471  0.721965  1
  Br  Br9  1  0.178471  0.721965  0.569321  1
  Br  Br10  1  0.721965  0.569321  0.178471  1
  Br  Br11  1  0.430679  0.821529  0.278035  1
  Br  Br12  1  0.821529  0.278035  0.430679  1
  Br  Br13  1  0.278035  0.430679  0.821529  1
  Br  Br14  1  0.665883  0.884700  0.961891  1
  Br  Br15  1  0.884700  0.961891  0.665883  1
  Br  Br16  1  0.961891  0.665883  0.884700  1
  Br  Br17  1  0.334117  0.115300  0.038109  1
  Br  Br18  1  0.115300  0.038109  0.334117  1
  Br  Br19  1  0.038109  0.334117  0.115300  1
