# generated using pymatgen
data_Hf7Zr3Ga2(Sn2Bi)2
_symmetry_space_group_name_H-M   'P 1'
_cell_length_a   8.73304508
_cell_length_b   8.72150464
_cell_length_c   5.87085700
_cell_angle_alpha   90.00000000
_cell_angle_beta   90.00000000
_cell_angle_gamma   119.95630248
_symmetry_Int_Tables_number   1
_chemical_formula_structural   Hf7Zr3Ga2(Sn2Bi)2
_chemical_formula_sum   'Hf7 Zr3 Ga2 Sn4 Bi2'
_cell_volume   387.41846366
_cell_formula_units_Z   1
loop_
 _symmetry_equiv_pos_site_id
 _symmetry_equiv_pos_as_xyz
  1  'x, y, z'
loop_
 _atom_site_type_symbol
 _atom_site_label
 _atom_site_symmetry_multiplicity
 _atom_site_fract_x
 _atom_site_fract_y
 _atom_site_fract_z
 _atom_site_occupancy
  Hf  Hf0  1  0.271136  0.271752  0.250000  1
  Hf  Hf1  1  0.728864  0.000615  0.250000  1
  Hf  Hf2  1  0.000000  0.727246  0.250000  1
  Hf  Hf3  1  0.670224  0.336046  0.004462  1
  Hf  Hf4  1  0.329776  0.665823  0.004462  1
  Hf  Hf5  1  0.329776  0.665823  0.495538  1
  Hf  Hf6  1  0.670224  0.336046  0.495538  1
  Zr  Zr7  1  0.742522  0.737368  0.750000  1
  Zr  Zr8  1  0.257478  0.994846  0.750000  1
  Zr  Zr9  1  0.000000  0.263198  0.750000  1
  Ga  Ga10  1  0.000000  0.000316  0.013069  1
  Ga  Ga11  1  0.000000  0.000316  0.486931  1
  Sn  Sn12  1  0.000000  0.606583  0.750000  1
  Sn  Sn13  1  0.613947  0.615011  0.250000  1
  Sn  Sn14  1  0.386053  0.001063  0.250000  1
  Sn  Sn15  1  0.000000  0.386512  0.250000  1
  Bi  Bi16  1  0.393222  0.392329  0.750000  1
  Bi  Bi17  1  0.606778  0.999107  0.750000  1
