# generated using pymatgen
data_LaTb15Cd4Ni3Ir
_symmetry_space_group_name_H-M   'P 1'
_cell_length_a   9.64269387
_cell_length_b   9.64269485
_cell_length_c   9.64269459
_cell_angle_alpha   59.74656919
_cell_angle_beta   59.74657386
_cell_angle_gamma   59.74657284
_symmetry_Int_Tables_number   1
_chemical_formula_structural   LaTb15Cd4Ni3Ir
_chemical_formula_sum   'La1 Tb15 Cd4 Ni3 Ir1'
_cell_volume   630.33824689
_cell_formula_units_Z   1
loop_
 _symmetry_equiv_pos_site_id
 _symmetry_equiv_pos_as_xyz
  1  'x, y, z'
loop_
 _atom_site_type_symbol
 _atom_site_label
 _atom_site_symmetry_multiplicity
 _atom_site_fract_x
 _atom_site_fract_y
 _atom_site_fract_z
 _atom_site_occupancy
  La  La0  1  0.345395  0.345395  0.345395  1
  Tb  Tb1  1  0.351736  0.351736  0.948407  1
  Tb  Tb2  1  0.351736  0.948407  0.351736  1
  Tb  Tb3  1  0.948407  0.351736  0.351736  1
  Tb  Tb4  1  0.811640  0.188483  0.188483  1
  Tb  Tb5  1  0.188692  0.812080  0.812080  1
  Tb  Tb6  1  0.188483  0.811640  0.188483  1
  Tb  Tb7  1  0.812080  0.188692  0.812080  1
  Tb  Tb8  1  0.188483  0.188483  0.811640  1
  Tb  Tb9  1  0.812080  0.812080  0.188692  1
  Tb  Tb10  1  0.936193  0.566179  0.566179  1
  Tb  Tb11  1  0.559987  0.938067  0.938067  1
  Tb  Tb12  1  0.566179  0.936193  0.566179  1
  Tb  Tb13  1  0.938067  0.559987  0.938067  1
  Tb  Tb14  1  0.566179  0.566179  0.936193  1
  Tb  Tb15  1  0.938067  0.938067  0.559987  1
  Cd  Cd16  1  0.580822  0.580822  0.580822  1
  Cd  Cd17  1  0.581580  0.581580  0.255630  1
  Cd  Cd18  1  0.581580  0.255630  0.581580  1
  Cd  Cd19  1  0.255630  0.581580  0.581580  1
  Ni  Ni20  1  0.139321  0.139321  0.575111  1
  Ni  Ni21  1  0.139321  0.575111  0.139321  1
  Ni  Ni22  1  0.575111  0.139321  0.139321  1
  Ir  Ir23  1  0.143229  0.143229  0.143229  1
