# generated using pymatgen
data_NdDy3(CBr)2
_symmetry_space_group_name_H-M   'P 1'
_cell_length_a   3.70990100
_cell_length_b   3.70990031
_cell_length_c   14.39099300
_cell_angle_alpha   90.00000000
_cell_angle_beta   90.00000000
_cell_angle_gamma   119.99999726
_symmetry_Int_Tables_number   1
_chemical_formula_structural   NdDy3(CBr)2
_chemical_formula_sum   'Nd1 Dy3 C2 Br2'
_cell_volume   171.53232153
_cell_formula_units_Z   1
loop_
 _symmetry_equiv_pos_site_id
 _symmetry_equiv_pos_as_xyz
  1  'x, y, z'
loop_
 _atom_site_type_symbol
 _atom_site_label
 _atom_site_symmetry_multiplicity
 _atom_site_fract_x
 _atom_site_fract_y
 _atom_site_fract_z
 _atom_site_occupancy
  Nd  Nd0  1  0.333333  0.666667  0.408888  1
  Dy  Dy1  1  0.333333  0.666667  0.086826  1
  Dy  Dy2  1  0.666667  0.333333  0.593113  1
  Dy  Dy3  1  0.666667  0.333333  0.910093  1
  C  C4  1  0.000000  0.000000  0.998187  1
  C  C5  1  0.000000  0.000000  0.510221  1
  Br  Br6  1  0.333333  0.666667  0.753413  1
  Br  Br7  1  0.666667  0.333333  0.239260  1
