# generated using pymatgen
data_EuBr37
_symmetry_space_group_name_H-M   'P 1'
_cell_length_a   14.20848141
_cell_length_b   15.29732181
_cell_length_c   14.42416200
_cell_angle_alpha   103.00376457
_cell_angle_beta   48.80056783
_cell_angle_gamma   81.50743146
_symmetry_Int_Tables_number   1
_chemical_formula_structural   EuBr37
_chemical_formula_sum   'Eu1 Br37'
_cell_volume   2102.91272627
_cell_formula_units_Z   1
loop_
 _symmetry_equiv_pos_site_id
 _symmetry_equiv_pos_as_xyz
  1  'x, y, z'
loop_
 _atom_site_type_symbol
 _atom_site_label
 _atom_site_symmetry_multiplicity
 _atom_site_fract_x
 _atom_site_fract_y
 _atom_site_fract_z
 _atom_site_occupancy
  Eu  Eu0  1  0.500000  0.000000  0.000000  1
  Br  Br1  1  0.781904  0.300364  0.138178  1
  Br  Br2  1  0.218096  0.699636  0.861822  1
  Br  Br3  1  0.741311  0.083501  0.364027  1
  Br  Br4  1  0.258689  0.916499  0.635973  1
  Br  Br5  1  0.116258  0.350554  0.166565  1
  Br  Br6  1  0.883742  0.649446  0.833435  1
  Br  Br7  1  0.861271  0.527534  0.246802  1
  Br  Br8  1  0.138729  0.472466  0.753198  1
  Br  Br9  1  0.686915  0.273847  0.521320  1
  Br  Br10  1  0.313085  0.726153  0.478680  1
  Br  Br11  1  0.040091  0.142717  0.491468  1
  Br  Br12  1  0.959909  0.857283  0.508532  1
  Br  Br13  1  0.974773  0.008814  0.288623  1
  Br  Br14  1  0.025227  0.991186  0.711377  1
  Br  Br15  1  0.949538  0.337621  0.607029  1
  Br  Br16  1  0.050462  0.662379  0.392971  1
  Br  Br17  1  0.574272  0.430546  0.236044  1
  Br  Br18  1  0.425728  0.569454  0.763956  1
  Br  Br19  1  0.167594  0.480146  0.280175  1
  Br  Br20  1  0.832406  0.519854  0.719825  1
  Br  Br21  1  0.000000  0.500000  0.000000  1
  Br  Br22  1  0.563358  0.952449  0.147071  1
  Br  Br23  1  0.436642  0.047551  0.852929  1
  Br  Br24  1  0.303900  0.049118  0.316320  1
  Br  Br25  1  0.696100  0.950882  0.683680  1
  Br  Br26  1  0.528881  0.133758  0.415005  1
  Br  Br27  1  0.471119  0.866242  0.584995  1
  Br  Br28  1  0.099056  0.215325  0.061065  1
  Br  Br29  1  0.900944  0.784675  0.938935  1
  Br  Br30  1  0.662349  0.688893  0.401749  1
  Br  Br31  1  0.337651  0.311107  0.598251  1
  Br  Br32  1  0.899166  0.147047  0.921231  1
  Br  Br33  1  0.100834  0.852953  0.078769  1
  Br  Br34  1  0.453961  0.194755  0.089459  1
  Br  Br35  1  0.546039  0.805245  0.910541  1
  Br  Br36  1  0.654540  0.427993  0.648396  1
  Br  Br37  1  0.345460  0.572007  0.351604  1
