# generated using pymatgen
data_TbY(Ga3Ru)3
_symmetry_space_group_name_H-M   'P 1'
_cell_length_a   7.48410432
_cell_length_b   7.49460786
_cell_length_c   9.75068404
_cell_angle_alpha   89.99514030
_cell_angle_beta   89.99782942
_cell_angle_gamma   119.19355107
_symmetry_Int_Tables_number   1
_chemical_formula_structural   TbY(Ga3Ru)3
_chemical_formula_sum   'Tb2 Y2 Ga18 Ru6'
_cell_volume   477.44859509
_cell_formula_units_Z   2
loop_
 _symmetry_equiv_pos_site_id
 _symmetry_equiv_pos_as_xyz
  1  'x, y, z'
loop_
 _atom_site_type_symbol
 _atom_site_label
 _atom_site_symmetry_multiplicity
 _atom_site_fract_x
 _atom_site_fract_y
 _atom_site_fract_z
 _atom_site_occupancy
  Tb  Tb0  1  0.997564  0.672395  0.249915  1
  Tb  Tb1  1  0.002436  0.327605  0.750085  1
  Y  Y2  1  0.672454  0.997324  0.249900  1
  Y  Y3  1  0.327546  0.002676  0.750100  1
  Ga  Ga4  1  0.130011  0.129225  0.250049  1
  Ga  Ga5  1  0.869989  0.870775  0.749951  1
  Ga  Ga6  1  0.009976  0.337137  0.077522  1
  Ga  Ga7  1  0.990024  0.662863  0.922478  1
  Ga  Ga8  1  0.990290  0.663362  0.577385  1
  Ga  Ga9  1  0.337576  0.009543  0.423163  1
  Ga  Ga10  1  0.009710  0.336638  0.422615  1
  Ga  Ga11  1  0.662424  0.990457  0.576837  1
  Ga  Ga12  1  0.661999  0.990245  0.922999  1
  Ga  Ga13  1  0.338001  0.009755  0.077001  1
  Ga  Ga14  1  0.339355  0.339084  0.559969  1
  Ga  Ga15  1  0.660645  0.660916  0.440031  1
  Ga  Ga16  1  0.661008  0.661237  0.060272  1
  Ga  Ga17  1  0.338992  0.338763  0.939728  1
  Ga  Ga18  1  0.338868  0.552081  0.249865  1
  Ga  Ga19  1  0.661132  0.447919  0.750135  1
  Ga  Ga20  1  0.552500  0.338832  0.249879  1
  Ga  Ga21  1  0.447500  0.661168  0.750121  1
  Ru  Ru22  1  0.676524  0.324446  0.999930  1
  Ru  Ru23  1  0.323476  0.675554  0.000070  1
  Ru  Ru24  1  0.323523  0.675536  0.499921  1
  Ru  Ru25  1  0.676477  0.324464  0.500079  1
  Ru  Ru26  1  0.000000  0.000000  0.000000  1
  Ru  Ru27  1  0.000000  0.000000  0.500000  1
