# generated using pymatgen
data_Cs3Rb9(AlSe3)4
_symmetry_space_group_name_H-M   'P 1'
_cell_length_a   13.92159815
_cell_length_b   8.52828770
_cell_length_c   10.92373834
_cell_angle_alpha   52.94637147
_cell_angle_beta   89.69987149
_cell_angle_gamma   89.64596353
_symmetry_Int_Tables_number   1
_chemical_formula_structural   Cs3Rb9(AlSe3)4
_chemical_formula_sum   'Cs3 Rb9 Al4 Se12'
_cell_volume   1035.03527667
_cell_formula_units_Z   1
loop_
 _symmetry_equiv_pos_site_id
 _symmetry_equiv_pos_as_xyz
  1  'x, y, z'
loop_
 _atom_site_type_symbol
 _atom_site_label
 _atom_site_symmetry_multiplicity
 _atom_site_fract_x
 _atom_site_fract_y
 _atom_site_fract_z
 _atom_site_occupancy
  Cs  Cs0  1  0.312184  0.156544  0.069123  1
  Cs  Cs1  1  0.687255  0.844110  0.930787  1
  Cs  Cs2  1  0.813149  0.843999  0.431037  1
  Rb  Rb3  1  0.899787  0.323451  0.397336  1
  Rb  Rb4  1  0.618460  0.376093  0.472554  1
  Rb  Rb5  1  0.118674  0.623344  0.027906  1
  Rb  Rb6  1  0.380865  0.623982  0.527748  1
  Rb  Rb7  1  0.882024  0.376703  0.971949  1
  Rb  Rb8  1  0.601439  0.322903  0.897506  1
  Rb  Rb9  1  0.101826  0.677149  0.602490  1
  Rb  Rb10  1  0.398266  0.676950  0.102436  1
  Rb  Rb11  1  0.188576  0.153009  0.573940  1
  Al  Al12  1  0.062074  0.942794  0.155374  1
  Al  Al13  1  0.560391  0.054893  0.345081  1
  Al  Al14  1  0.437384  0.947633  0.654375  1
  Al  Al15  1  0.939639  0.055119  0.844154  1
  Se  Se16  1  0.404734  0.168222  0.375311  1
  Se  Se17  1  0.906802  0.833783  0.124156  1
  Se  Se18  1  0.592731  0.833267  0.624834  1
  Se  Se19  1  0.095130  0.164168  0.874268  1
  Se  Se20  1  0.678202  0.311454  0.205973  1
  Se  Se21  1  0.178566  0.681379  0.296998  1
  Se  Se22  1  0.318240  0.694270  0.791465  1
  Se  Se23  1  0.821032  0.311650  0.706314  1
  Se  Se24  1  0.548741  0.875444  0.241947  1
  Se  Se25  1  0.049933  0.124246  0.256997  1
  Se  Se26  1  0.450419  0.126031  0.758173  1
  Se  Se27  1  0.953477  0.877407  0.739765  1
