# generated using pymatgen
data_HfZrTaGa3
_symmetry_space_group_name_H-M   'P 1'
_cell_length_a   5.55009300
_cell_length_b   8.48428900
_cell_length_c   9.18578200
_cell_angle_alpha   90.00000000
_cell_angle_beta   90.00000000
_cell_angle_gamma   90.00000000
_symmetry_Int_Tables_number   1
_chemical_formula_structural   HfZrTaGa3
_chemical_formula_sum   'Hf4 Zr4 Ta4 Ga12'
_cell_volume   432.54554988
_cell_formula_units_Z   4
loop_
 _symmetry_equiv_pos_site_id
 _symmetry_equiv_pos_as_xyz
  1  'x, y, z'
loop_
 _atom_site_type_symbol
 _atom_site_label
 _atom_site_symmetry_multiplicity
 _atom_site_fract_x
 _atom_site_fract_y
 _atom_site_fract_z
 _atom_site_occupancy
  Hf  Hf0  1  0.750000  0.365285  0.181119  1
  Hf  Hf1  1  0.250000  0.634715  0.818881  1
  Hf  Hf2  1  0.750000  0.865285  0.818881  1
  Hf  Hf3  1  0.250000  0.134715  0.181119  1
  Zr  Zr4  1  0.750000  0.468108  0.621710  1
  Zr  Zr5  1  0.250000  0.531892  0.378290  1
  Zr  Zr6  1  0.750000  0.968108  0.378290  1
  Zr  Zr7  1  0.250000  0.031892  0.621710  1
  Ta  Ta8  1  0.000000  0.750000  0.109533  1
  Ta  Ta9  1  0.500000  0.250000  0.890467  1
  Ta  Ta10  1  0.000000  0.250000  0.890467  1
  Ta  Ta11  1  0.500000  0.750000  0.109533  1
  Ga  Ga12  1  0.000000  0.750000  0.573378  1
  Ga  Ga13  1  0.500000  0.250000  0.426622  1
  Ga  Ga14  1  0.000000  0.250000  0.426622  1
  Ga  Ga15  1  0.500000  0.750000  0.573378  1
  Ga  Ga16  1  0.750000  0.044097  0.079464  1
  Ga  Ga17  1  0.250000  0.955903  0.920536  1
  Ga  Ga18  1  0.750000  0.544097  0.920536  1
  Ga  Ga19  1  0.250000  0.455903  0.079464  1
  Ga  Ga20  1  0.750000  0.131133  0.654727  1
  Ga  Ga21  1  0.250000  0.868867  0.345273  1
  Ga  Ga22  1  0.750000  0.631133  0.345273  1
  Ga  Ga23  1  0.250000  0.368867  0.654727  1
