# generated using pymatgen
data_Tm4Co14As11PRu6
_symmetry_space_group_name_H-M   'P 1'
_cell_length_a   3.81621900
_cell_length_b   10.78036757
_cell_length_c   12.26578845
_cell_angle_alpha   90.13516797
_cell_angle_beta   90.00000000
_cell_angle_gamma   90.00000000
_symmetry_Int_Tables_number   1
_chemical_formula_structural   Tm4Co14As11PRu6
_chemical_formula_sum   'Tm4 Co14 As11 P1 Ru6'
_cell_volume   504.61612007
_cell_formula_units_Z   1
loop_
 _symmetry_equiv_pos_site_id
 _symmetry_equiv_pos_as_xyz
  1  'x, y, z'
loop_
 _atom_site_type_symbol
 _atom_site_label
 _atom_site_symmetry_multiplicity
 _atom_site_fract_x
 _atom_site_fract_y
 _atom_site_fract_z
 _atom_site_occupancy
  Tm  Tm0  1  0.250000  0.584972  0.704341  1
  Tm  Tm1  1  0.250000  0.921310  0.200635  1
  Tm  Tm2  1  0.750000  0.415820  0.294271  1
  Tm  Tm3  1  0.750000  0.083275  0.795273  1
  Co  Co4  1  0.750000  0.595845  0.513742  1
  Co  Co5  1  0.750000  0.909141  0.017192  1
  Co  Co6  1  0.250000  0.216511  0.176147  1
  Co  Co7  1  0.250000  0.279347  0.678729  1
  Co  Co8  1  0.750000  0.782385  0.823529  1
  Co  Co9  1  0.750000  0.717986  0.322627  1
  Co  Co10  1  0.250000  0.884883  0.698813  1
  Co  Co11  1  0.250000  0.615476  0.197883  1
  Co  Co12  1  0.750000  0.111600  0.291874  1
  Co  Co13  1  0.750000  0.385079  0.802219  1
  Co  Co14  1  0.250000  0.466682  0.932041  1
  Co  Co15  1  0.250000  0.032890  0.429480  1
  Co  Co16  1  0.750000  0.535517  0.068365  1
  Co  Co17  1  0.750000  0.964482  0.567616  1
  As  As18  1  0.250000  0.418461  0.114791  1
  As  As19  1  0.250000  0.080466  0.613681  1
  As  As20  1  0.750000  0.582591  0.885482  1
  As  As21  1  0.750000  0.918036  0.383586  1
  As  As22  1  0.250000  0.270042  0.867666  1
  As  As23  1  0.250000  0.228014  0.364282  1
  As  As24  1  0.750000  0.733729  0.133170  1
  As  As25  1  0.750000  0.767733  0.633160  1
  As  As26  1  0.250000  0.599761  0.385535  1
  As  As27  1  0.250000  0.901523  0.886839  1
  As  As28  1  0.750000  0.403688  0.615094  1
  P  P29  1  0.750000  0.097310  0.111651  1
  Ru  Ru30  1  0.250000  0.712898  0.991448  1
  Ru  Ru31  1  0.250000  0.789332  0.490557  1
  Ru  Ru32  1  0.750000  0.285743  0.016955  1
  Ru  Ru33  1  0.750000  0.208344  0.510436  1
  Ru  Ru34  1  0.250000  0.407749  0.487252  1
  Ru  Ru35  1  0.250000  0.091382  0.993632  1
