# generated using pymatgen
data_Pr4Lu3Au10
_symmetry_space_group_name_H-M   'P 1'
_cell_length_a   8.80186347
_cell_length_b   8.80166787
_cell_length_c   10.49846800
_cell_angle_alpha   89.98440288
_cell_angle_beta   89.98136979
_cell_angle_gamma   107.25833394
_symmetry_Int_Tables_number   1
_chemical_formula_structural   Pr4Lu3Au10
_chemical_formula_sum   'Pr8 Lu6 Au20'
_cell_volume   776.70893113
_cell_formula_units_Z   2
loop_
 _symmetry_equiv_pos_site_id
 _symmetry_equiv_pos_as_xyz
  1  'x, y, z'
loop_
 _atom_site_type_symbol
 _atom_site_label
 _atom_site_symmetry_multiplicity
 _atom_site_fract_x
 _atom_site_fract_y
 _atom_site_fract_z
 _atom_site_occupancy
  Pr  Pr0  1  0.695021  0.304988  0.999989  1
  Pr  Pr1  1  0.195006  0.804992  0.500001  1
  Pr  Pr2  1  0.806176  0.806182  0.305453  1
  Pr  Pr3  1  0.306233  0.306234  0.194538  1
  Pr  Pr4  1  0.804994  0.195008  0.499999  1
  Pr  Pr5  1  0.304979  0.695012  0.000011  1
  Pr  Pr6  1  0.693767  0.693766  0.805462  1
  Pr  Pr7  1  0.193824  0.193818  0.694547  1
  Lu  Lu8  1  0.504304  0.004336  0.250005  1
  Lu  Lu9  1  0.995668  0.495732  0.749986  1
  Lu  Lu10  1  0.000000  0.000000  0.000000  1
  Lu  Lu11  1  0.004332  0.504268  0.250014  1
  Lu  Lu12  1  0.495696  0.995664  0.749995  1
  Lu  Lu13  1  0.500000  0.500000  0.500000  1
  Au  Au14  1  0.147734  0.439898  0.493776  1
  Au  Au15  1  0.896288  0.896284  0.599199  1
  Au  Au16  1  0.560098  0.852275  0.506220  1
  Au  Au17  1  0.865618  0.153784  0.206987  1
  Au  Au18  1  0.365640  0.653804  0.293018  1
  Au  Au19  1  0.653794  0.365636  0.293008  1
  Au  Au20  1  0.396295  0.396289  0.900818  1
  Au  Au21  1  0.939872  0.647711  0.006239  1
  Au  Au22  1  0.346206  0.634364  0.706992  1
  Au  Au23  1  0.352272  0.060116  0.993770  1
  Au  Au24  1  0.603705  0.603711  0.099182  1
  Au  Au25  1  0.647728  0.939884  0.006230  1
  Au  Au26  1  0.103712  0.103716  0.400801  1
  Au  Au27  1  0.634360  0.346196  0.706982  1
  Au  Au28  1  0.134382  0.846216  0.793013  1
  Au  Au29  1  0.060128  0.352289  0.993761  1
  Au  Au30  1  0.852266  0.560102  0.506224  1
  Au  Au31  1  0.153797  0.865616  0.206994  1
  Au  Au32  1  0.439902  0.147725  0.493780  1
  Au  Au33  1  0.846203  0.134384  0.793006  1
