# generated using pymatgen
data_YIn2Pd3
_symmetry_space_group_name_H-M   'P 1'
_cell_length_a   4.64361100
_cell_length_b   9.80529600
_cell_length_c   10.37249500
_cell_angle_alpha   90.00000000
_cell_angle_beta   90.00000000
_cell_angle_gamma   90.00000000
_symmetry_Int_Tables_number   1
_chemical_formula_structural   YIn2Pd3
_chemical_formula_sum   'Y4 In8 Pd12'
_cell_volume   472.28023866
_cell_formula_units_Z   4
loop_
 _symmetry_equiv_pos_site_id
 _symmetry_equiv_pos_as_xyz
  1  'x, y, z'
loop_
 _atom_site_type_symbol
 _atom_site_label
 _atom_site_symmetry_multiplicity
 _atom_site_fract_x
 _atom_site_fract_y
 _atom_site_fract_z
 _atom_site_occupancy
  Y  Y0  1  0.250000  0.445415  0.724720  1
  Y  Y1  1  0.250000  0.054585  0.224720  1
  Y  Y2  1  0.750000  0.554585  0.275280  1
  Y  Y3  1  0.750000  0.945415  0.775280  1
  In  In4  1  0.250000  0.886208  0.513708  1
  In  In5  1  0.250000  0.613792  0.013708  1
  In  In6  1  0.750000  0.113792  0.486292  1
  In  In7  1  0.750000  0.386208  0.986292  1
  In  In8  1  0.250000  0.162327  0.893518  1
  In  In9  1  0.250000  0.337673  0.393518  1
  In  In10  1  0.750000  0.837673  0.106482  1
  In  In11  1  0.750000  0.662327  0.606482  1
  Pd  Pd12  1  0.250000  0.144408  0.623475  1
  Pd  Pd13  1  0.250000  0.355592  0.123475  1
  Pd  Pd14  1  0.750000  0.855592  0.376525  1
  Pd  Pd15  1  0.750000  0.644408  0.876525  1
  Pd  Pd16  1  0.250000  0.743807  0.740816  1
  Pd  Pd17  1  0.250000  0.756193  0.240816  1
  Pd  Pd18  1  0.750000  0.256193  0.259184  1
  Pd  Pd19  1  0.750000  0.243807  0.759184  1
  Pd  Pd20  1  0.250000  0.895971  0.973498  1
  Pd  Pd21  1  0.250000  0.604029  0.473498  1
  Pd  Pd22  1  0.750000  0.104029  0.026502  1
  Pd  Pd23  1  0.750000  0.395971  0.526502  1
