# generated using pymatgen
data_Dy16Lu4(Ir3Os)3
_symmetry_space_group_name_H-M   'P 1'
_cell_length_a   10.82583100
_cell_length_b   10.82583100
_cell_length_c   6.38530700
_cell_angle_alpha   90.00000000
_cell_angle_beta   90.00000000
_cell_angle_gamma   90.00000000
_symmetry_Int_Tables_number   1
_chemical_formula_structural   Dy16Lu4(Ir3Os)3
_chemical_formula_sum   'Dy16 Lu4 Ir9 Os3'
_cell_volume   748.34914850
_cell_formula_units_Z   1
loop_
 _symmetry_equiv_pos_site_id
 _symmetry_equiv_pos_as_xyz
  1  'x, y, z'
loop_
 _atom_site_type_symbol
 _atom_site_label
 _atom_site_symmetry_multiplicity
 _atom_site_fract_x
 _atom_site_fract_y
 _atom_site_fract_z
 _atom_site_occupancy
  Dy  Dy0  1  0.293010  0.086487  0.377768  1
  Dy  Dy1  1  0.293044  0.913809  0.877927  1
  Dy  Dy2  1  0.706956  0.086191  0.877927  1
  Dy  Dy3  1  0.706990  0.913513  0.377768  1
  Dy  Dy4  1  0.586191  0.793044  0.877927  1
  Dy  Dy5  1  0.586487  0.206990  0.377768  1
  Dy  Dy6  1  0.413513  0.793010  0.377768  1
  Dy  Dy7  1  0.413809  0.206956  0.877927  1
  Dy  Dy8  1  0.208843  0.413000  0.623839  1
  Dy  Dy9  1  0.208371  0.587193  0.119951  1
  Dy  Dy10  1  0.791629  0.412807  0.119951  1
  Dy  Dy11  1  0.791157  0.587000  0.623839  1
  Dy  Dy12  1  0.912807  0.708371  0.119951  1
  Dy  Dy13  1  0.913000  0.291157  0.623839  1
  Dy  Dy14  1  0.087000  0.708843  0.623839  1
  Dy  Dy15  1  0.087193  0.291629  0.119951  1
  Lu  Lu16  1  0.000000  0.000000  0.499618  1
  Lu  Lu17  1  0.000000  0.000000  0.999764  1
  Lu  Lu18  1  0.500000  0.500000  0.999764  1
  Lu  Lu19  1  0.500000  0.500000  0.499618  1
  Ir  Ir20  1  0.850257  0.151145  0.250287  1
  Ir  Ir21  1  0.850041  0.849094  0.749627  1
  Ir  Ir22  1  0.149959  0.150906  0.749627  1
  Ir  Ir23  1  0.149743  0.848855  0.250287  1
  Ir  Ir24  1  0.650906  0.350041  0.749627  1
  Ir  Ir25  1  0.651145  0.649743  0.250287  1
  Ir  Ir26  1  0.348855  0.350257  0.250287  1
  Ir  Ir27  1  0.349094  0.649959  0.749627  1
  Ir  Ir28  1  0.000000  0.500000  0.377720  1
  Os  Os29  1  0.500000  0.000000  0.125161  1
  Os  Os30  1  0.500000  0.000000  0.624557  1
  Os  Os31  1  0.000000  0.500000  0.876201  1
