# generated using pymatgen
data_DyY3Be8(B5O11)4
_symmetry_space_group_name_H-M   'P 1'
_cell_length_a   4.36340200
_cell_length_b   6.71940000
_cell_length_c   25.80961301
_cell_angle_alpha   90.00115926
_cell_angle_beta   89.99645580
_cell_angle_gamma   90.00158088
_symmetry_Int_Tables_number   1
_chemical_formula_structural   DyY3Be8(B5O11)4
_chemical_formula_sum   'Dy1 Y3 Be8 B20 O44'
_cell_volume   756.72348655
_cell_formula_units_Z   1
loop_
 _symmetry_equiv_pos_site_id
 _symmetry_equiv_pos_as_xyz
  1  'x, y, z'
loop_
 _atom_site_type_symbol
 _atom_site_label
 _atom_site_symmetry_multiplicity
 _atom_site_fract_x
 _atom_site_fract_y
 _atom_site_fract_z
 _atom_site_occupancy
  Dy  Dy0  1  0.865378  0.368129  0.919574  1
  Y  Y1  1  0.135133  0.868265  0.080447  1
  Y  Y2  1  0.364867  0.868276  0.580445  1
  Y  Y3  1  0.635132  0.368277  0.419553  1
  Be  Be4  1  0.169464  0.451585  0.790872  1
  Be  Be5  1  0.830521  0.951577  0.209136  1
  Be  Be6  1  0.669482  0.951576  0.709135  1
  Be  Be7  1  0.330519  0.451577  0.290864  1
  Be  Be8  1  0.666809  0.227352  0.793243  1
  Be  Be9  1  0.333196  0.727342  0.206762  1
  Be  Be10  1  0.166806  0.727343  0.706762  1
  Be  Be11  1  0.833194  0.227343  0.293237  1
  B  B12  1  0.374367  0.040038  0.869869  1
  B  B13  1  0.625636  0.539962  0.130138  1
  B  B14  1  0.874356  0.539965  0.630139  1
  B  B15  1  0.125644  0.039966  0.369861  1
  B  B16  1  0.146036  0.709651  0.870787  1
  B  B17  1  0.853922  0.209715  0.129219  1
  B  B18  1  0.646077  0.209713  0.629220  1
  B  B19  1  0.353922  0.709714  0.370780  1
  B  B20  1  0.025889  0.938887  0.943422  1
  B  B21  1  0.974079  0.438886  0.056567  1
  B  B22  1  0.525923  0.438886  0.556579  1
  B  B23  1  0.474077  0.938885  0.443420  1
  B  B24  1  0.537585  0.959517  0.997986  1
  B  B25  1  0.462414  0.459454  0.001971  1
  B  B26  1  0.037574  0.459491  0.502009  1
  B  B27  1  0.962424  0.959491  0.497991  1
  B  B28  1  0.181339  0.086623  0.751713  1
  B  B29  1  0.818660  0.586623  0.248287  1
  B  B30  1  0.681337  0.586625  0.748287  1
  B  B31  1  0.318660  0.086625  0.251713  1
  O  O32  1  0.351864  0.846450  0.850003  1
  O  O33  1  0.648094  0.346423  0.150007  1
  O  O34  1  0.851903  0.346422  0.650006  1
  O  O35  1  0.148101  0.846421  0.349994  1
  O  O36  1  0.628508  0.928088  0.047479  1
  O  O37  1  0.371333  0.427950  0.952485  1
  O  O38  1  0.128509  0.428084  0.452516  1
  O  O39  1  0.871490  0.928084  0.547485  1
  O  O40  1  0.992644  0.745546  0.917247  1
  O  O41  1  0.007281  0.245661  0.082763  1
  O  O42  1  0.492703  0.245658  0.582767  1
  O  O43  1  0.507294  0.745658  0.417234  1
  O  O44  1  0.221453  0.927165  0.990532  1
  O  O45  1  0.778701  0.427125  0.009392  1
  O  O46  1  0.721444  0.427164  0.509460  1
  O  O47  1  0.278554  0.927164  0.490541  1
  O  O48  1  0.156642  0.088104  0.907720  1
  O  O49  1  0.843064  0.587832  0.092276  1
  O  O50  1  0.656930  0.587840  0.592281  1
  O  O51  1  0.343068  0.087840  0.407720  1
  O  O52  1  0.085917  0.527844  0.849542  1
  O  O53  1  0.913850  0.027991  0.150513  1
  O  O54  1  0.586150  0.027991  0.650514  1
  O  O55  1  0.413849  0.527991  0.349487  1
  O  O56  1  0.580322  0.178641  0.853994  1
  O  O57  1  0.419838  0.678546  0.146059  1
  O  O58  1  0.080162  0.678544  0.646058  1
  O  O59  1  0.919842  0.178544  0.353943  1
  O  O60  1  0.723474  0.019507  0.957235  1
  O  O61  1  0.276604  0.519326  0.042754  1
  O  O62  1  0.223443  0.519329  0.542757  1
  O  O63  1  0.776556  0.019330  0.457244  1
  O  O64  1  0.031959  0.222109  0.783358  1
  O  O65  1  0.968043  0.722111  0.216643  1
  O  O66  1  0.531959  0.722109  0.716644  1
  O  O67  1  0.468041  0.222110  0.283357  1
  O  O68  1  0.496290  0.085464  0.752055  1
  O  O69  1  0.503712  0.585464  0.247947  1
  O  O70  1  0.996290  0.585464  0.747948  1
  O  O71  1  0.003711  0.085464  0.252053  1
  O  O72  1  0.031040  0.953128  0.720437  1
  O  O73  1  0.968958  0.453131  0.279563  1
  O  O74  1  0.531026  0.453128  0.779564  1
  O  O75  1  0.468961  0.953129  0.220437  1
