# generated using pymatgen
data_Ce3Pr2HgPb3
_symmetry_space_group_name_H-M   'P 1'
_cell_length_a   9.76961700
_cell_length_b   9.76961633
_cell_length_c   6.65776600
_cell_angle_alpha   90.00000000
_cell_angle_beta   90.00000000
_cell_angle_gamma   120.29298140
_symmetry_Int_Tables_number   1
_chemical_formula_structural   Ce3Pr2HgPb3
_chemical_formula_sum   'Ce6 Pr4 Hg2 Pb6'
_cell_volume   548.68673791
_cell_formula_units_Z   2
loop_
 _symmetry_equiv_pos_site_id
 _symmetry_equiv_pos_as_xyz
  1  'x, y, z'
loop_
 _atom_site_type_symbol
 _atom_site_label
 _atom_site_symmetry_multiplicity
 _atom_site_fract_x
 _atom_site_fract_y
 _atom_site_fract_z
 _atom_site_occupancy
  Ce  Ce0  1  0.669069  0.333019  0.503092  1
  Ce  Ce1  1  0.333019  0.669069  0.503092  1
  Ce  Ce2  1  0.333019  0.669069  0.996908  1
  Ce  Ce3  1  0.669069  0.333019  0.996908  1
  Ce  Ce4  1  0.708128  0.000197  0.750000  1
  Ce  Ce5  1  0.000197  0.708128  0.750000  1
  Pr  Pr6  1  0.711130  0.711130  0.250000  1
  Pr  Pr7  1  0.288772  0.000153  0.250000  1
  Pr  Pr8  1  0.000153  0.288772  0.250000  1
  Pr  Pr9  1  0.290514  0.290514  0.750000  1
  Hg  Hg10  1  0.997956  0.997956  0.503944  1
  Hg  Hg11  1  0.997956  0.997956  0.996056  1
  Pb  Pb12  1  0.368845  0.368845  0.250000  1
  Pb  Pb13  1  0.631988  0.999505  0.250000  1
  Pb  Pb14  1  0.999505  0.631988  0.250000  1
  Pb  Pb15  1  0.637735  0.637735  0.750000  1
  Pb  Pb16  1  0.365254  0.997690  0.750000  1
  Pb  Pb17  1  0.997690  0.365254  0.750000  1
