# generated using pymatgen
data_Th4Hg2Ru3Au
_symmetry_space_group_name_H-M   'P 1'
_cell_length_a   7.92857300
_cell_length_b   7.92857214
_cell_length_c   3.80488000
_cell_angle_alpha   90.00000000
_cell_angle_beta   90.00000000
_cell_angle_gamma   89.41864026
_symmetry_Int_Tables_number   1
_chemical_formula_structural   Th4Hg2Ru3Au
_chemical_formula_sum   'Th4 Hg2 Ru3 Au1'
_cell_volume   239.17105477
_cell_formula_units_Z   1
loop_
 _symmetry_equiv_pos_site_id
 _symmetry_equiv_pos_as_xyz
  1  'x, y, z'
loop_
 _atom_site_type_symbol
 _atom_site_label
 _atom_site_symmetry_multiplicity
 _atom_site_fract_x
 _atom_site_fract_y
 _atom_site_fract_z
 _atom_site_occupancy
  Th  Th0  1  0.340803  0.193773  0.500000  1
  Th  Th1  1  0.824192  0.324192  0.500000  1
  Th  Th2  1  0.146802  0.646802  0.500000  1
  Th  Th3  1  0.693773  0.840803  0.500000  1
  Hg  Hg4  1  0.004515  0.004388  0.000000  1
  Hg  Hg5  1  0.504388  0.504515  0.000000  1
  Ru  Ru6  1  0.625398  0.125398  0.000000  1
  Ru  Ru7  1  0.132524  0.360440  0.000000  1
  Ru  Ru8  1  0.860440  0.632524  0.000000  1
  Au  Au9  1  0.367167  0.867167  0.000000  1
