# generated using pymatgen
data_La9Pr7Cd4(RuPt)2
_symmetry_space_group_name_H-M   'P 1'
_cell_length_a   10.08992957
_cell_length_b   10.08993074
_cell_length_c   10.15994100
_cell_angle_alpha   59.77019557
_cell_angle_beta   59.77019170
_cell_angle_gamma   60.10954286
_symmetry_Int_Tables_number   1
_chemical_formula_structural   La9Pr7Cd4(RuPt)2
_chemical_formula_sum   'La9 Pr7 Cd4 Ru2 Pt2'
_cell_volume   729.44228371
_cell_formula_units_Z   1
loop_
 _symmetry_equiv_pos_site_id
 _symmetry_equiv_pos_as_xyz
  1  'x, y, z'
loop_
 _atom_site_type_symbol
 _atom_site_label
 _atom_site_symmetry_multiplicity
 _atom_site_fract_x
 _atom_site_fract_y
 _atom_site_fract_z
 _atom_site_occupancy
  La  La0  1  0.346191  0.346191  0.354692  1
  La  La1  1  0.346191  0.346191  0.952926  1
  La  La2  1  0.343864  0.959305  0.348415  1
  La  La3  1  0.959305  0.343864  0.348415  1
  La  La4  1  0.815786  0.189160  0.191249  1
  La  La5  1  0.189160  0.815786  0.803804  1
  La  La6  1  0.189160  0.815786  0.191249  1
  La  La7  1  0.815786  0.189160  0.803804  1
  La  La8  1  0.189370  0.189370  0.810630  1
  Pr  Pr9  1  0.804004  0.804004  0.195996  1
  Pr  Pr10  1  0.935546  0.561713  0.565588  1
  Pr  Pr11  1  0.561713  0.935546  0.937153  1
  Pr  Pr12  1  0.561713  0.935546  0.565588  1
  Pr  Pr13  1  0.935546  0.561713  0.937153  1
  Pr  Pr14  1  0.563280  0.563280  0.936720  1
  Pr  Pr15  1  0.936407  0.936407  0.563593  1
  Cd  Cd16  1  0.580348  0.580348  0.579320  1
  Cd  Cd17  1  0.580348  0.580348  0.259982  1
  Cd  Cd18  1  0.581342  0.257748  0.580455  1
  Cd  Cd19  1  0.257748  0.581342  0.580455  1
  Ru  Ru20  1  0.141687  0.141687  0.136243  1
  Ru  Ru21  1  0.141687  0.141687  0.580384  1
  Pt  Pt22  1  0.148292  0.575526  0.138091  1
  Pt  Pt23  1  0.575526  0.148292  0.138091  1
