# generated using pymatgen
data_NdInNiPt3
_symmetry_space_group_name_H-M   'P 1'
_cell_length_a   5.46444149
_cell_length_b   5.46444086
_cell_length_c   5.26700901
_cell_angle_alpha   58.75206975
_cell_angle_beta   58.75207334
_cell_angle_gamma   59.99999762
_symmetry_Int_Tables_number   1
_chemical_formula_structural   NdInNiPt3
_chemical_formula_sum   'Nd1 In1 Ni1 Pt3'
_cell_volume   109.06510748
_cell_formula_units_Z   1
loop_
 _symmetry_equiv_pos_site_id
 _symmetry_equiv_pos_as_xyz
  1  'x, y, z'
loop_
 _atom_site_type_symbol
 _atom_site_label
 _atom_site_symmetry_multiplicity
 _atom_site_fract_x
 _atom_site_fract_y
 _atom_site_fract_z
 _atom_site_occupancy
  Nd  Nd0  1  0.000659  0.000659  0.998024  1
  In  In1  1  0.254352  0.254352  0.236944  1
  Ni  Ni2  1  0.623154  0.623154  0.130539  1
  Pt  Pt3  1  0.623009  0.125818  0.628165  1
  Pt  Pt4  1  0.125818  0.623009  0.628165  1
  Pt  Pt5  1  0.623009  0.623009  0.628165  1
