# generated using pymatgen
data_Rb6H9Pt2F
_symmetry_space_group_name_H-M   'P 1'
_cell_length_a   7.82010300
_cell_length_b   7.82010300
_cell_length_c   6.01771600
_cell_angle_alpha   90.00000000
_cell_angle_beta   90.00000000
_cell_angle_gamma   90.00000000
_symmetry_Int_Tables_number   1
_chemical_formula_structural   Rb6H9Pt2F
_chemical_formula_sum   'Rb6 H9 Pt2 F1'
_cell_volume   368.00747004
_cell_formula_units_Z   1
loop_
 _symmetry_equiv_pos_site_id
 _symmetry_equiv_pos_as_xyz
  1  'x, y, z'
loop_
 _atom_site_type_symbol
 _atom_site_label
 _atom_site_symmetry_multiplicity
 _atom_site_fract_x
 _atom_site_fract_y
 _atom_site_fract_z
 _atom_site_occupancy
  Rb  Rb0  1  0.500000  0.500000  0.000000  1
  Rb  Rb1  1  0.000000  0.000000  0.000000  1
  Rb  Rb2  1  0.189172  0.681442  0.500000  1
  Rb  Rb3  1  0.810828  0.318558  0.500000  1
  Rb  Rb4  1  0.681442  0.810828  0.500000  1
  Rb  Rb5  1  0.318558  0.189172  0.500000  1
  H  H6  1  0.000000  0.000000  0.500000  1
  H  H7  1  0.608102  0.108074  0.807362  1
  H  H8  1  0.391898  0.891926  0.807362  1
  H  H9  1  0.108074  0.391898  0.807362  1
  H  H10  1  0.891926  0.608102  0.807362  1
  H  H11  1  0.391898  0.891926  0.192638  1
  H  H12  1  0.608102  0.108074  0.192638  1
  H  H13  1  0.891926  0.608102  0.192638  1
  H  H14  1  0.108074  0.391898  0.192638  1
  Pt  Pt15  1  0.500000  0.000000  0.000000  1
  Pt  Pt16  1  0.000000  0.500000  0.000000  1
  F  F17  1  0.500000  0.500000  0.500000  1
