# generated using pymatgen
data_Sm2B8RuW
_symmetry_space_group_name_H-M   'P 1'
_cell_length_a   3.64501800
_cell_length_b   6.05705067
_cell_length_c   11.72767001
_cell_angle_alpha   89.79753310
_cell_angle_beta   90.00000000
_cell_angle_gamma   90.00000000
_symmetry_Int_Tables_number   1
_chemical_formula_structural   Sm2B8RuW
_chemical_formula_sum   'Sm4 B16 Ru2 W2'
_cell_volume   258.92257053
_cell_formula_units_Z   2
loop_
 _symmetry_equiv_pos_site_id
 _symmetry_equiv_pos_as_xyz
  1  'x, y, z'
loop_
 _atom_site_type_symbol
 _atom_site_label
 _atom_site_symmetry_multiplicity
 _atom_site_fract_x
 _atom_site_fract_y
 _atom_site_fract_z
 _atom_site_occupancy
  Sm  Sm0  1  0.500000  0.373763  0.152440  1
  Sm  Sm1  1  0.500000  0.626237  0.847560  1
  Sm  Sm2  1  0.500000  0.126545  0.648010  1
  Sm  Sm3  1  0.500000  0.873455  0.351990  1
  B  B4  1  0.000000  0.113471  0.046427  1
  B  B5  1  0.000000  0.886529  0.953573  1
  B  B6  1  0.000000  0.388838  0.545555  1
  B  B7  1  0.000000  0.611162  0.454445  1
  B  B8  1  0.000000  0.139641  0.468749  1
  B  B9  1  0.000000  0.860359  0.531251  1
  B  B10  1  0.000000  0.365450  0.967438  1
  B  B11  1  0.000000  0.634550  0.032562  1
  B  B12  1  0.000000  0.024456  0.192870  1
  B  B13  1  0.000000  0.975544  0.807130  1
  B  B14  1  0.000000  0.474919  0.689051  1
  B  B15  1  0.000000  0.525081  0.310949  1
  B  B16  1  0.000000  0.217522  0.316483  1
  B  B17  1  0.000000  0.782478  0.683517  1
  B  B18  1  0.000000  0.286671  0.813087  1
  B  B19  1  0.000000  0.713329  0.186913  1
  Ru  Ru20  1  0.500000  0.360765  0.409141  1
  Ru  Ru21  1  0.500000  0.639235  0.590859  1
  W  W22  1  0.500000  0.128369  0.914719  1
  W  W23  1  0.500000  0.871631  0.085281  1
