# generated using pymatgen
data_Dy2YB7Ru
_symmetry_space_group_name_H-M   'P 1'
_cell_length_a   8.07181506
_cell_length_b   8.07181545
_cell_length_c   9.34662600
_cell_angle_alpha   90.00000000
_cell_angle_beta   90.00000000
_cell_angle_gamma   154.79694806
_symmetry_Int_Tables_number   1
_chemical_formula_structural   Dy2YB7Ru
_chemical_formula_sum   'Dy4 Y2 B14 Ru2'
_cell_volume   259.31699710
_cell_formula_units_Z   2
loop_
 _symmetry_equiv_pos_site_id
 _symmetry_equiv_pos_as_xyz
  1  'x, y, z'
loop_
 _atom_site_type_symbol
 _atom_site_label
 _atom_site_symmetry_multiplicity
 _atom_site_fract_x
 _atom_site_fract_y
 _atom_site_fract_z
 _atom_site_occupancy
  Dy  Dy0  1  0.894202  0.105798  0.439987  1
  Dy  Dy1  1  0.105798  0.894202  0.560013  1
  Dy  Dy2  1  0.894202  0.105798  0.060013  1
  Dy  Dy3  1  0.105798  0.894202  0.939987  1
  Y  Y4  1  0.244337  0.755663  0.250000  1
  Y  Y5  1  0.755663  0.244337  0.750000  1
  B  B6  1  0.727214  0.272786  0.465816  1
  B  B7  1  0.272786  0.727214  0.534184  1
  B  B8  1  0.727214  0.272786  0.034184  1
  B  B9  1  0.272786  0.727214  0.965816  1
  B  B10  1  0.631556  0.368444  0.150670  1
  B  B11  1  0.368444  0.631556  0.849330  1
  B  B12  1  0.631556  0.368444  0.349330  1
  B  B13  1  0.368444  0.631556  0.650670  1
  B  B14  1  0.520862  0.479138  0.096447  1
  B  B15  1  0.479138  0.520862  0.903553  1
  B  B16  1  0.520862  0.479138  0.403553  1
  B  B17  1  0.479138  0.520862  0.596447  1
  B  B18  1  0.457609  0.542391  0.250000  1
  B  B19  1  0.542391  0.457609  0.750000  1
  Ru  Ru20  1  0.054126  0.945874  0.250000  1
  Ru  Ru21  1  0.945874  0.054126  0.750000  1
