# generated using pymatgen
data_Tm12InFe2Co2Pt
_symmetry_space_group_name_H-M   'P 1'
_cell_length_a   8.17275135
_cell_length_b   8.17275261
_cell_length_c   8.17275223
_cell_angle_alpha   111.45850720
_cell_angle_beta   111.33097829
_cell_angle_gamma   105.68913223
_symmetry_Int_Tables_number   1
_chemical_formula_structural   Tm12InFe2Co2Pt
_chemical_formula_sum   'Tm12 In1 Fe2 Co2 Pt1'
_cell_volume   418.86401502
_cell_formula_units_Z   1
loop_
 _symmetry_equiv_pos_site_id
 _symmetry_equiv_pos_as_xyz
  1  'x, y, z'
loop_
 _atom_site_type_symbol
 _atom_site_label
 _atom_site_symmetry_multiplicity
 _atom_site_fract_x
 _atom_site_fract_y
 _atom_site_fract_z
 _atom_site_occupancy
  Tm  Tm0  1  0.419052  0.219831  0.199221  1
  Tm  Tm1  1  0.580948  0.780169  0.800779  1
  Tm  Tm2  1  0.020610  0.219831  0.800779  1
  Tm  Tm3  1  0.979390  0.780169  0.199221  1
  Tm  Tm4  1  0.186820  0.285865  0.472685  1
  Tm  Tm5  1  0.813180  0.714135  0.527315  1
  Tm  Tm6  1  0.186820  0.714135  0.900956  1
  Tm  Tm7  1  0.813180  0.285865  0.099044  1
  Tm  Tm8  1  0.315002  0.618555  0.303553  1
  Tm  Tm9  1  0.684998  0.381445  0.696447  1
  Tm  Tm10  1  0.315002  0.011447  0.696447  1
  Tm  Tm11  1  0.684998  0.988553  0.303553  1
  In  In12  1  0.500000  0.500000  0.000000  1
  Fe  Fe13  1  0.381995  0.000000  0.381995  1
  Fe  Fe14  1  0.618005  0.000000  0.618005  1
  Co  Co15  1  0.111802  0.611802  0.500000  1
  Co  Co16  1  0.888198  0.388198  0.500000  1
  Pt  Pt17  1  0.000000  0.000000  0.000000  1
