# generated using pymatgen
data_Sm4OsRh3O14
_symmetry_space_group_name_H-M   'P 1'
_cell_length_a   7.34174368
_cell_length_b   7.34174302
_cell_length_c   7.34174374
_cell_angle_alpha   59.78955404
_cell_angle_beta   59.78956138
_cell_angle_gamma   59.78955785
_symmetry_Int_Tables_number   1
_chemical_formula_structural   Sm4OsRh3O14
_chemical_formula_sum   'Sm4 Os1 Rh3 O14'
_cell_volume   278.48563235
_cell_formula_units_Z   1
loop_
 _symmetry_equiv_pos_site_id
 _symmetry_equiv_pos_as_xyz
  1  'x, y, z'
loop_
 _atom_site_type_symbol
 _atom_site_label
 _atom_site_symmetry_multiplicity
 _atom_site_fract_x
 _atom_site_fract_y
 _atom_site_fract_z
 _atom_site_occupancy
  Sm  Sm0  1  0.125000  0.625000  0.125000  1
  Sm  Sm1  1  0.125000  0.125000  0.625000  1
  Sm  Sm2  1  0.625000  0.125000  0.125000  1
  Sm  Sm3  1  0.125000  0.125000  0.125000  1
  Os  Os4  1  0.625000  0.625000  0.625000  1
  Rh  Rh5  1  0.625000  0.625000  0.125000  1
  Rh  Rh6  1  0.625000  0.125000  0.625000  1
  Rh  Rh7  1  0.125000  0.625000  0.625000  1
  O  O8  1  0.302549  0.703335  0.703335  1
  O  O9  1  0.286857  0.706926  0.286857  1
  O  O10  1  0.546665  0.947451  0.546665  1
  O  O11  1  0.286857  0.286857  0.706926  1
  O  O12  1  0.251065  0.251065  0.251065  1
  O  O13  1  0.703335  0.703335  0.302549  1
  O  O14  1  0.963143  0.963143  0.543074  1
  O  O15  1  0.706926  0.286857  0.286857  1
  O  O16  1  0.947451  0.546665  0.546665  1
  O  O17  1  0.998935  0.998935  0.998935  1
  O  O18  1  0.543074  0.963143  0.963143  1
  O  O19  1  0.963143  0.543074  0.963143  1
  O  O20  1  0.703335  0.302549  0.703335  1
  O  O21  1  0.546665  0.546665  0.947451  1
