# generated using pymatgen
data_DyFe4P3W
_symmetry_space_group_name_H-M   'P 1'
_cell_length_a   3.69981700
_cell_length_b   10.40327200
_cell_length_c   12.01453400
_cell_angle_alpha   90.00000000
_cell_angle_beta   90.00000000
_cell_angle_gamma   90.00000000
_symmetry_Int_Tables_number   1
_chemical_formula_structural   DyFe4P3W
_chemical_formula_sum   'Dy4 Fe16 P12 W4'
_cell_volume   462.44184782
_cell_formula_units_Z   4
loop_
 _symmetry_equiv_pos_site_id
 _symmetry_equiv_pos_as_xyz
  1  'x, y, z'
loop_
 _atom_site_type_symbol
 _atom_site_label
 _atom_site_symmetry_multiplicity
 _atom_site_fract_x
 _atom_site_fract_y
 _atom_site_fract_z
 _atom_site_occupancy
  Dy  Dy0  1  0.250000  0.582919  0.708564  1
  Dy  Dy1  1  0.250000  0.917081  0.208564  1
  Dy  Dy2  1  0.750000  0.417081  0.291436  1
  Dy  Dy3  1  0.750000  0.082919  0.791436  1
  Fe  Fe4  1  0.250000  0.409448  0.492358  1
  Fe  Fe5  1  0.250000  0.090553  0.992358  1
  Fe  Fe6  1  0.750000  0.590552  0.507642  1
  Fe  Fe7  1  0.750000  0.909448  0.007642  1
  Fe  Fe8  1  0.250000  0.218116  0.176597  1
  Fe  Fe9  1  0.250000  0.281884  0.676597  1
  Fe  Fe10  1  0.750000  0.781884  0.823403  1
  Fe  Fe11  1  0.750000  0.718116  0.323403  1
  Fe  Fe12  1  0.250000  0.878328  0.699719  1
  Fe  Fe13  1  0.250000  0.621672  0.199719  1
  Fe  Fe14  1  0.750000  0.121672  0.300281  1
  Fe  Fe15  1  0.750000  0.378328  0.800281  1
  Fe  Fe16  1  0.250000  0.463374  0.934006  1
  Fe  Fe17  1  0.250000  0.036626  0.434006  1
  Fe  Fe18  1  0.750000  0.536626  0.065994  1
  Fe  Fe19  1  0.750000  0.963374  0.565994  1
  P  P20  1  0.250000  0.424392  0.114117  1
  P  P21  1  0.250000  0.075608  0.614117  1
  P  P22  1  0.750000  0.575608  0.885883  1
  P  P23  1  0.750000  0.924392  0.385883  1
  P  P24  1  0.250000  0.267046  0.865104  1
  P  P25  1  0.250000  0.232954  0.365104  1
  P  P26  1  0.750000  0.732954  0.134896  1
  P  P27  1  0.750000  0.767046  0.634896  1
  P  P28  1  0.250000  0.594492  0.386859  1
  P  P29  1  0.250000  0.905508  0.886859  1
  P  P30  1  0.750000  0.405508  0.613141  1
  P  P31  1  0.750000  0.094492  0.113141  1
  W  W32  1  0.250000  0.705540  0.988874  1
  W  W33  1  0.250000  0.794460  0.488874  1
  W  W34  1  0.750000  0.294460  0.011126  1
  W  W35  1  0.750000  0.205540  0.511126  1
