# generated using pymatgen
data_Ba5Ir2Br2O9
_symmetry_space_group_name_H-M   'P 1'
_cell_length_a   5.92805500
_cell_length_b   5.92805506
_cell_length_c   25.97098600
_cell_angle_alpha   90.00000000
_cell_angle_beta   90.00000000
_cell_angle_gamma   120.00000527
_symmetry_Int_Tables_number   1
_chemical_formula_structural   Ba5Ir2Br2O9
_chemical_formula_sum   'Ba10 Ir4 Br4 O18'
_cell_volume   790.39375369
_cell_formula_units_Z   2
loop_
 _symmetry_equiv_pos_site_id
 _symmetry_equiv_pos_as_xyz
  1  'x, y, z'
loop_
 _atom_site_type_symbol
 _atom_site_label
 _atom_site_symmetry_multiplicity
 _atom_site_fract_x
 _atom_site_fract_y
 _atom_site_fract_z
 _atom_site_occupancy
  Ba  Ba0  1  0.666667  0.333333  0.829153  1
  Ba  Ba1  1  0.333333  0.666667  0.170847  1
  Ba  Ba2  1  0.333333  0.666667  0.586485  1
  Ba  Ba3  1  0.333333  0.666667  0.329153  1
  Ba  Ba4  1  0.333333  0.666667  0.913515  1
  Ba  Ba5  1  0.666667  0.333333  0.086485  1
  Ba  Ba6  1  0.666667  0.333333  0.413515  1
  Ba  Ba7  1  0.666667  0.333333  0.670847  1
  Ba  Ba8  1  0.666667  0.333333  0.250000  1
  Ba  Ba9  1  0.333333  0.666667  0.750000  1
  Ir  Ir10  1  0.000000  0.000000  0.802732  1
  Ir  Ir11  1  0.000000  0.000000  0.302732  1
  Ir  Ir12  1  0.000000  0.000000  0.197268  1
  Ir  Ir13  1  0.000000  0.000000  0.697268  1
  Br  Br14  1  0.666667  0.333333  0.544862  1
  Br  Br15  1  0.333333  0.666667  0.455138  1
  Br  Br16  1  0.333333  0.666667  0.044862  1
  Br  Br17  1  0.666667  0.333333  0.955138  1
  O  O18  1  0.153600  0.307199  0.250000  1
  O  O19  1  0.159363  0.840637  0.842518  1
  O  O20  1  0.840637  0.159363  0.157482  1
  O  O21  1  0.840637  0.681272  0.157482  1
  O  O22  1  0.159363  0.318728  0.842518  1
  O  O23  1  0.840637  0.681272  0.342518  1
  O  O24  1  0.692801  0.846400  0.250000  1
  O  O25  1  0.846400  0.153600  0.750000  1
  O  O26  1  0.681272  0.840637  0.657482  1
  O  O27  1  0.318728  0.159363  0.342518  1
  O  O28  1  0.846400  0.692801  0.750000  1
  O  O29  1  0.840637  0.159363  0.342518  1
  O  O30  1  0.681272  0.840637  0.842518  1
  O  O31  1  0.159363  0.318728  0.657482  1
  O  O32  1  0.159363  0.840637  0.657482  1
  O  O33  1  0.307199  0.153600  0.750000  1
  O  O34  1  0.153600  0.846400  0.250000  1
  O  O35  1  0.318728  0.159363  0.157482  1
