# generated using pymatgen
data_Sr7LaHg8
_symmetry_space_group_name_H-M   'P 1'
_cell_length_a   8.12786300
_cell_length_b   8.12393100
_cell_length_c   8.04410900
_cell_angle_alpha   90.00000000
_cell_angle_beta   90.00110674
_cell_angle_gamma   90.00000000
_symmetry_Int_Tables_number   1
_chemical_formula_structural   Sr7LaHg8
_chemical_formula_sum   'Sr7 La1 Hg8'
_cell_volume   531.15411153
_cell_formula_units_Z   1
loop_
 _symmetry_equiv_pos_site_id
 _symmetry_equiv_pos_as_xyz
  1  'x, y, z'
loop_
 _atom_site_type_symbol
 _atom_site_label
 _atom_site_symmetry_multiplicity
 _atom_site_fract_x
 _atom_site_fract_y
 _atom_site_fract_z
 _atom_site_occupancy
  Sr  Sr0  1  0.749734  0.249986  0.000052  1
  Sr  Sr1  1  0.249964  0.750002  0.500035  1
  Sr  Sr2  1  0.750269  0.249982  0.499963  1
  Sr  Sr3  1  0.250453  0.750011  0.999959  1
  Sr  Sr4  1  0.250839  0.250018  0.999983  1
  Sr  Sr5  1  0.748857  0.749989  0.000019  1
  Sr  Sr6  1  0.248699  0.250023  0.499977  1
  La  La7  1  0.750489  0.749999  0.500015  1
  Hg  Hg8  1  0.996526  0.503502  0.252204  1
  Hg  Hg9  1  0.996527  0.996496  0.252202  1
  Hg  Hg10  1  0.503751  0.996342  0.254921  1
  Hg  Hg11  1  0.503753  0.503662  0.254925  1
  Hg  Hg12  1  0.503607  0.503653  0.745085  1
  Hg  Hg13  1  0.503601  0.996343  0.745084  1
  Hg  Hg14  1  0.996466  0.996495  0.747788  1
  Hg  Hg15  1  0.996464  0.503498  0.747785  1
