# generated using pymatgen
data_Ni6AuIO12
_symmetry_space_group_name_H-M   'P 1'
_cell_length_a   5.18488221
_cell_length_b   5.53343810
_cell_length_c   8.98924065
_cell_angle_alpha   105.43435328
_cell_angle_beta   90.17679847
_cell_angle_gamma   118.00946146
_symmetry_Int_Tables_number   1
_chemical_formula_structural   Ni6AuIO12
_chemical_formula_sum   'Ni6 Au1 I1 O12'
_cell_volume   216.98413671
_cell_formula_units_Z   1
loop_
 _symmetry_equiv_pos_site_id
 _symmetry_equiv_pos_as_xyz
  1  'x, y, z'
loop_
 _atom_site_type_symbol
 _atom_site_label
 _atom_site_symmetry_multiplicity
 _atom_site_fract_x
 _atom_site_fract_y
 _atom_site_fract_z
 _atom_site_occupancy
  Ni  Ni0  1  0.260071  0.530601  0.758426  1
  Ni  Ni1  1  0.759886  0.509878  0.249369  1
  Ni  Ni2  1  0.838144  0.666115  0.620110  1
  Ni  Ni3  1  0.318317  0.647968  0.100405  1
  Ni  Ni4  1  0.017866  0.042374  0.000920  1
  Ni  Ni5  1  0.527509  0.046825  0.512763  1
  Au  Au6  1  0.562186  0.128875  0.854282  1
  I  I7  1  0.060891  0.115998  0.352665  1
  O  O8  1  0.714735  0.838043  0.806494  1
  O  O9  1  0.221685  0.853890  0.308407  1
  O  O10  1  0.273241  0.845645  0.655163  1
  O  O11  1  0.778985  0.849547  0.165764  1
  O  O12  1  0.267465  0.846501  0.958162  1
  O  O13  1  0.784886  0.848785  0.454416  1
  O  O14  1  0.328385  0.346006  0.909247  1
  O  O15  1  0.849036  0.325238  0.399987  1
  O  O16  1  0.344313  0.328557  0.536877  1
  O  O17  1  0.866692  0.342480  0.053931  1
  O  O18  1  0.815818  0.345933  0.708948  1
  O  O19  1  0.304571  0.330100  0.225224  1
