# generated using pymatgen
data_Lu5Al2SiC4
_symmetry_space_group_name_H-M   'P 1'
_cell_length_a   10.51037600
_cell_length_b   10.51037600
_cell_length_c   3.44730500
_cell_angle_alpha   90.00000000
_cell_angle_beta   90.00000000
_cell_angle_gamma   90.00000000
_symmetry_Int_Tables_number   1
_chemical_formula_structural   Lu5Al2SiC4
_chemical_formula_sum   'Lu10 Al4 Si2 C8'
_cell_volume   380.81690136
_cell_formula_units_Z   2
loop_
 _symmetry_equiv_pos_site_id
 _symmetry_equiv_pos_as_xyz
  1  'x, y, z'
loop_
 _atom_site_type_symbol
 _atom_site_label
 _atom_site_symmetry_multiplicity
 _atom_site_fract_x
 _atom_site_fract_y
 _atom_site_fract_z
 _atom_site_occupancy
  Lu  Lu0  1  0.550719  0.726755  0.500000  1
  Lu  Lu1  1  0.449281  0.273245  0.500000  1
  Lu  Lu2  1  0.050719  0.773245  0.500000  1
  Lu  Lu3  1  0.949281  0.226755  0.500000  1
  Lu  Lu4  1  0.273245  0.550719  0.500000  1
  Lu  Lu5  1  0.726755  0.449281  0.500000  1
  Lu  Lu6  1  0.226755  0.050719  0.500000  1
  Lu  Lu7  1  0.773245  0.949281  0.500000  1
  Lu  Lu8  1  0.500000  0.000000  0.000000  1
  Lu  Lu9  1  0.000000  0.500000  0.000000  1
  Al  Al10  1  0.703337  0.203337  0.000000  1
  Al  Al11  1  0.296663  0.796663  0.000000  1
  Al  Al12  1  0.203337  0.296663  0.000000  1
  Al  Al13  1  0.796663  0.703337  0.000000  1
  Si  Si14  1  0.500000  0.500000  0.000000  1
  Si  Si15  1  0.000000  0.000000  0.000000  1
  C  C16  1  0.630080  0.130080  0.500000  1
  C  C17  1  0.369920  0.869920  0.500000  1
  C  C18  1  0.130080  0.369920  0.500000  1
  C  C19  1  0.869920  0.630080  0.500000  1
  C  C20  1  0.161677  0.661677  0.000000  1
  C  C21  1  0.838323  0.338323  0.000000  1
  C  C22  1  0.661677  0.838323  0.000000  1
  C  C23  1  0.338323  0.161677  0.000000  1
