# generated using pymatgen
data_Tb(GdH3)3
_symmetry_space_group_name_H-M   'P 1'
_cell_length_a   6.49990066
_cell_length_b   6.49990115
_cell_length_c   6.49990112
_cell_angle_alpha   131.99161701
_cell_angle_beta   131.99162440
_cell_angle_gamma   70.24226267
_symmetry_Int_Tables_number   1
_chemical_formula_structural   Tb(GdH3)3
_chemical_formula_sum   'Tb1 Gd3 H9'
_cell_volume   148.68584405
_cell_formula_units_Z   1
loop_
 _symmetry_equiv_pos_site_id
 _symmetry_equiv_pos_as_xyz
  1  'x, y, z'
loop_
 _atom_site_type_symbol
 _atom_site_label
 _atom_site_symmetry_multiplicity
 _atom_site_fract_x
 _atom_site_fract_y
 _atom_site_fract_z
 _atom_site_occupancy
  Tb  Tb0  1  0.252679  0.252679  0.000000  1
  Gd  Gd1  1  0.499922  0.999922  0.500000  1
  Gd  Gd2  1  0.999922  0.499922  0.500000  1
  Gd  Gd3  1  0.747120  0.747120  0.000000  1
  H  H4  1  0.885497  0.370129  0.000000  1
  H  H5  1  0.370129  0.885497  0.000000  1
  H  H6  1  0.628935  0.115603  0.000000  1
  H  H7  1  0.115603  0.115603  0.486668  1
  H  H8  1  0.370129  0.370129  0.484632  1
  H  H9  1  0.500029  0.500029  0.000000  1
  H  H10  1  0.115603  0.628935  0.000000  1
  H  H11  1  0.628935  0.628935  0.513332  1
  H  H12  1  0.885497  0.885497  0.515368  1
