# generated using pymatgen
data_Pr16Dy4Si15B
_symmetry_space_group_name_H-M   'P 1'
_cell_length_a   7.79226644
_cell_length_b   7.80378194
_cell_length_c   15.33940900
_cell_angle_alpha   89.84569923
_cell_angle_beta   90.12463180
_cell_angle_gamma   90.55497636
_symmetry_Int_Tables_number   1
_chemical_formula_structural   Pr16Dy4Si15B
_chemical_formula_sum   'Pr16 Dy4 Si15 B1'
_cell_volume   932.72709948
_cell_formula_units_Z   1
loop_
 _symmetry_equiv_pos_site_id
 _symmetry_equiv_pos_as_xyz
  1  'x, y, z'
loop_
 _atom_site_type_symbol
 _atom_site_label
 _atom_site_symmetry_multiplicity
 _atom_site_fract_x
 _atom_site_fract_y
 _atom_site_fract_z
 _atom_site_occupancy
  Pr  Pr0  1  0.382255  0.011847  0.444630  1
  Pr  Pr1  1  0.483177  0.883904  0.695772  1
  Pr  Pr2  1  0.514663  0.119879  0.194665  1
  Pr  Pr3  1  0.880686  0.485885  0.305917  1
  Pr  Pr4  1  0.121699  0.509803  0.801180  1
  Pr  Pr5  1  0.616050  0.989348  0.941529  1
  Pr  Pr6  1  0.017260  0.377364  0.557692  1
  Pr  Pr7  1  0.986594  0.621711  0.054127  1
  Pr  Pr8  1  0.121062  0.975272  0.876663  1
  Pr  Pr9  1  0.524682  0.625502  0.127642  1
  Pr  Pr10  1  0.464911  0.364058  0.629613  1
  Pr  Pr11  1  0.621242  0.519276  0.868117  1
  Pr  Pr12  1  0.373855  0.475498  0.373077  1
  Pr  Pr13  1  0.877711  0.024980  0.379421  1
  Pr  Pr14  1  0.975075  0.123225  0.120184  1
  Pr  Pr15  1  0.036520  0.893431  0.625233  1
  Dy  Dy16  1  0.306749  0.307863  0.998777  1
  Dy  Dy17  1  0.192957  0.808261  0.250083  1
  Dy  Dy18  1  0.829959  0.190653  0.747379  1
  Dy  Dy19  1  0.694897  0.689957  0.502286  1
  Si  Si20  1  0.327760  0.687235  0.957156  1
  Si  Si21  1  0.674399  0.314384  0.460402  1
  Si  Si22  1  0.685527  0.327547  0.039204  1
  Si  Si23  1  0.312392  0.672219  0.543606  1
  Si  Si24  1  0.815642  0.825836  0.210431  1
  Si  Si25  1  0.174493  0.186060  0.289945  1
  Si  Si26  1  0.824004  0.812501  0.789121  1
  Si  Si27  1  0.286156  0.919516  0.062534  1
  Si  Si28  1  0.581197  0.784036  0.314038  1
  Si  Si29  1  0.398162  0.213641  0.808138  1
  Si  Si30  1  0.785468  0.579149  0.684900  1
  Si  Si31  1  0.213967  0.420381  0.185839  1
  Si  Si32  1  0.715099  0.079025  0.564028  1
  Si  Si33  1  0.917580  0.286113  0.935958  1
  Si  Si34  1  0.080207  0.716019  0.438670  1
  B  B35  1  0.185947  0.178620  0.722046  1
