# generated using pymatgen
data_La2TbRh2
_symmetry_space_group_name_H-M   'P 1'
_cell_length_a   7.64749786
_cell_length_b   7.64749710
_cell_length_c   7.64749857
_cell_angle_alpha   70.96258691
_cell_angle_beta   70.96257946
_cell_angle_gamma   70.96257965
_symmetry_Int_Tables_number   1
_chemical_formula_structural   La2TbRh2
_chemical_formula_sum   'La6 Tb3 Rh6'
_cell_volume   387.39338143
_cell_formula_units_Z   3
loop_
 _symmetry_equiv_pos_site_id
 _symmetry_equiv_pos_as_xyz
  1  'x, y, z'
loop_
 _atom_site_type_symbol
 _atom_site_label
 _atom_site_symmetry_multiplicity
 _atom_site_fract_x
 _atom_site_fract_y
 _atom_site_fract_z
 _atom_site_occupancy
  La  La0  1  0.160126  0.389101  0.670822  1
  La  La1  1  0.670822  0.160126  0.389101  1
  La  La2  1  0.389101  0.670822  0.160126  1
  La  La3  1  0.839874  0.610899  0.329178  1
  La  La4  1  0.329178  0.839874  0.610899  1
  La  La5  1  0.610899  0.329178  0.839874  1
  Tb  Tb6  1  0.000000  0.000000  0.000000  1
  Tb  Tb7  1  0.801733  0.801733  0.801733  1
  Tb  Tb8  1  0.198267  0.198267  0.198267  1
  Rh  Rh9  1  0.957313  0.161651  0.592626  1
  Rh  Rh10  1  0.592626  0.957313  0.161651  1
  Rh  Rh11  1  0.161651  0.592626  0.957313  1
  Rh  Rh12  1  0.042687  0.838349  0.407374  1
  Rh  Rh13  1  0.407374  0.042687  0.838349  1
  Rh  Rh14  1  0.838349  0.407374  0.042687  1
