# generated using pymatgen
data_Ag5(PO3)6
_symmetry_space_group_name_H-M   'P 1'
_cell_length_a   8.18591949
_cell_length_b   7.72292993
_cell_length_c   7.98755878
_cell_angle_alpha   116.95143312
_cell_angle_beta   102.73628427
_cell_angle_gamma   99.38938706
_symmetry_Int_Tables_number   1
_chemical_formula_structural   Ag5(PO3)6
_chemical_formula_sum   'Ag5 P6 O18'
_cell_volume   418.47012271
_cell_formula_units_Z   1
loop_
 _symmetry_equiv_pos_site_id
 _symmetry_equiv_pos_as_xyz
  1  'x, y, z'
loop_
 _atom_site_type_symbol
 _atom_site_label
 _atom_site_symmetry_multiplicity
 _atom_site_fract_x
 _atom_site_fract_y
 _atom_site_fract_z
 _atom_site_occupancy
  Ag  Ag0  1  0.330884  0.665497  0.492041  1
  Ag  Ag1  1  0.669116  0.334503  0.507959  1
  Ag  Ag2  1  0.000000  0.500000  0.000000  1
  Ag  Ag3  1  0.351689  0.196864  0.027253  1
  Ag  Ag4  1  0.648311  0.803136  0.972747  1
  P  P5  1  0.016560  0.217433  0.295046  1
  P  P6  1  0.983440  0.782567  0.704954  1
  P  P7  1  0.277936  0.345518  0.678419  1
  P  P8  1  0.722064  0.654482  0.321581  1
  P  P9  1  0.731931  0.009418  0.685404  1
  P  P10  1  0.268069  0.990582  0.314596  1
  O  O11  1  0.086498  0.313644  0.535964  1
  O  O12  1  0.913502  0.686356  0.464036  1
  O  O13  1  0.236191  0.771051  0.260780  1
  O  O14  1  0.763809  0.228949  0.739220  1
  O  O15  1  0.820039  0.145603  0.224831  1
  O  O16  1  0.179961  0.854397  0.775169  1
  O  O17  1  0.258071  0.366212  0.867618  1
  O  O18  1  0.741929  0.633788  0.132382  1
  O  O19  1  0.583884  0.492207  0.314422  1
  O  O20  1  0.416116  0.507793  0.685578  1
  O  O21  1  0.305946  0.123342  0.552349  1
  O  O22  1  0.694054  0.876658  0.447651  1
  O  O23  1  0.411377  0.084405  0.261830  1
  O  O24  1  0.588623  0.915595  0.738170  1
  O  O25  1  0.111383  0.361962  0.244078  1
  O  O26  1  0.888617  0.638038  0.755922  1
  O  O27  1  0.083325  0.014580  0.219910  1
  O  O28  1  0.916675  0.985420  0.780090  1
