# generated using pymatgen
data_Er16Tm4Si15Se
_symmetry_space_group_name_H-M   'P 1'
_cell_length_a   7.46755731
_cell_length_b   7.59973764
_cell_length_c   14.54975500
_cell_angle_alpha   89.68137759
_cell_angle_beta   85.68221783
_cell_angle_gamma   89.89773642
_symmetry_Int_Tables_number   1
_chemical_formula_structural   Er16Tm4Si15Se
_chemical_formula_sum   'Er16 Tm4 Si15 Se1'
_cell_volume   823.36302677
_cell_formula_units_Z   1
loop_
 _symmetry_equiv_pos_site_id
 _symmetry_equiv_pos_as_xyz
  1  'x, y, z'
loop_
 _atom_site_type_symbol
 _atom_site_label
 _atom_site_symmetry_multiplicity
 _atom_site_fract_x
 _atom_site_fract_y
 _atom_site_fract_z
 _atom_site_occupancy
  Er  Er0  1  0.020600  0.833627  0.105998  1
  Er  Er1  1  0.476820  0.684760  0.397850  1
  Er  Er2  1  0.478685  0.315196  0.895942  1
  Er  Er3  1  0.023255  0.182173  0.602135  1
  Er  Er4  1  0.989244  0.168486  0.896740  1
  Er  Er5  1  0.523002  0.314840  0.601727  1
  Er  Er6  1  0.506775  0.687096  0.104865  1
  Er  Er7  1  0.976039  0.815672  0.397970  1
  Er  Er8  1  0.635741  0.838059  0.879673  1
  Er  Er9  1  0.173786  0.674644  0.623274  1
  Er  Er10  1  0.864255  0.335563  0.119074  1
  Er  Er11  1  0.328139  0.178460  0.377753  1
  Er  Er12  1  0.363057  0.167562  0.119925  1
  Er  Er13  1  0.826647  0.325132  0.377401  1
  Er  Er14  1  0.140033  0.664789  0.881771  1
  Er  Er15  1  0.672902  0.821712  0.623005  1
  Tm  Tm16  1  0.675247  0.997070  0.246842  1
  Tm  Tm17  1  0.173697  0.506475  0.246229  1
  Tm  Tm18  1  0.826714  0.492330  0.747630  1
  Tm  Tm19  1  0.324879  0.003082  0.752741  1
  Si  Si20  1  0.792068  0.632585  0.250826  1
  Si  Si21  1  0.292441  0.871279  0.252906  1
  Si  Si22  1  0.706450  0.130663  0.748757  1
  Si  Si23  1  0.205001  0.366490  0.749502  1
  Si  Si24  1  0.047315  0.114227  0.252158  1
  Si  Si25  1  0.547542  0.391645  0.249918  1
  Si  Si26  1  0.454182  0.609144  0.751115  1
  Si  Si27  1  0.953287  0.885707  0.750246  1
  Si  Si28  1  0.354135  0.970264  0.542073  1
  Si  Si29  1  0.714301  0.030071  0.042664  1
  Si  Si30  1  0.146991  0.471650  0.458495  1
  Si  Si31  1  0.214301  0.473697  0.044457  1
  Si  Si32  1  0.647601  0.028722  0.458193  1
  Si  Si33  1  0.291499  0.968056  0.956621  1
  Si  Si34  1  0.854129  0.526902  0.542393  1
  Se  Se35  1  0.779235  0.522169  0.951133  1
