# generated using pymatgen
data_Ca2SiPd6
_symmetry_space_group_name_H-M   'P 1'
_cell_length_a   6.12495421
_cell_length_b   6.12495321
_cell_length_c   6.12495300
_cell_angle_alpha   59.99999572
_cell_angle_beta   60.00000112
_cell_angle_gamma   59.99999534
_symmetry_Int_Tables_number   1
_chemical_formula_structural   Ca2SiPd6
_chemical_formula_sum   'Ca2 Si1 Pd6'
_cell_volume   162.47754868
_cell_formula_units_Z   1
loop_
 _symmetry_equiv_pos_site_id
 _symmetry_equiv_pos_as_xyz
  1  'x, y, z'
loop_
 _atom_site_type_symbol
 _atom_site_label
 _atom_site_symmetry_multiplicity
 _atom_site_fract_x
 _atom_site_fract_y
 _atom_site_fract_z
 _atom_site_occupancy
  Ca  Ca0  1  0.250000  0.250000  0.250000  1
  Ca  Ca1  1  0.750000  0.750000  0.750000  1
  Si  Si2  1  0.500000  0.500000  0.500000  1
  Pd  Pd3  1  0.768914  0.231086  0.231086  1
  Pd  Pd4  1  0.231086  0.768914  0.231086  1
  Pd  Pd5  1  0.768914  0.768914  0.231086  1
  Pd  Pd6  1  0.231086  0.231086  0.768914  1
  Pd  Pd7  1  0.768914  0.231086  0.768914  1
  Pd  Pd8  1  0.231086  0.768914  0.768914  1
