# generated using pymatgen
data_Ba4Ca2VReN8
_symmetry_space_group_name_H-M   'P 1'
_cell_length_a   10.86136059
_cell_length_b   10.55575149
_cell_length_c   8.02639998
_cell_angle_alpha   70.02778434
_cell_angle_beta   65.98140110
_cell_angle_gamma   43.99080498
_symmetry_Int_Tables_number   1
_chemical_formula_structural   Ba4Ca2VReN8
_chemical_formula_sum   'Ba8 Ca4 V2 Re2 N16'
_cell_volume   582.07102398
_cell_formula_units_Z   2
loop_
 _symmetry_equiv_pos_site_id
 _symmetry_equiv_pos_as_xyz
  1  'x, y, z'
loop_
 _atom_site_type_symbol
 _atom_site_label
 _atom_site_symmetry_multiplicity
 _atom_site_fract_x
 _atom_site_fract_y
 _atom_site_fract_z
 _atom_site_occupancy
  Ba  Ba0  1  0.579560  0.920440  0.920440  1
  Ba  Ba1  1  0.920440  0.579560  0.579560  1
  Ba  Ba2  1  0.318968  0.681032  0.681032  1
  Ba  Ba3  1  0.122032  0.122032  0.877968  1
  Ba  Ba4  1  0.148304  0.148304  0.351696  1
  Ba  Ba5  1  0.351696  0.351696  0.148304  1
  Ba  Ba6  1  0.681032  0.318968  0.318968  1
  Ba  Ba7  1  0.877968  0.877968  0.122032  1
  Ca  Ca8  1  0.334384  0.334384  0.665616  1
  Ca  Ca9  1  0.908337  0.908337  0.591663  1
  Ca  Ca10  1  0.665616  0.665616  0.334384  1
  Ca  Ca11  1  0.591663  0.591663  0.908337  1
  V  V12  1  0.492625  0.007375  0.492625  1
  V  V13  1  0.007375  0.492625  0.007375  1
  Re  Re14  1  0.757009  0.242991  0.757009  1
  Re  Re15  1  0.242991  0.757009  0.242991  1
  N  N16  1  0.004967  0.658871  0.828409  1
  N  N17  1  0.699052  0.284962  0.993246  1
  N  N18  1  0.658871  0.004967  0.507754  1
  N  N19  1  0.507754  0.828409  0.658871  1
  N  N20  1  0.239851  0.596773  0.427418  1
  N  N21  1  0.735956  0.427418  0.596773  1
  N  N22  1  0.993246  0.022740  0.699052  1
  N  N23  1  0.544011  0.969574  0.257577  1
  N  N24  1  0.427418  0.735956  0.239851  1
  N  N25  1  0.969574  0.544011  0.228838  1
  N  N26  1  0.284962  0.699052  0.022740  1
  N  N27  1  0.828409  0.507754  0.004967  1
  N  N28  1  0.228838  0.257577  0.969574  1
  N  N29  1  0.596773  0.239851  0.735956  1
  N  N30  1  0.257577  0.228838  0.544011  1
  N  N31  1  0.022740  0.993246  0.284962  1
