# generated using pymatgen
data_Tb2ZnIrRu
_symmetry_space_group_name_H-M   'P 1'
_cell_length_a   5.49709009
_cell_length_b   5.49709028
_cell_length_c   5.49709118
_cell_angle_alpha   135.15712709
_cell_angle_beta   115.62432805
_cell_angle_gamma   81.86466432
_symmetry_Int_Tables_number   1
_chemical_formula_structural   Tb2ZnIrRu
_chemical_formula_sum   'Tb2 Zn1 Ir1 Ru1'
_cell_volume   101.99126848
_cell_formula_units_Z   1
loop_
 _symmetry_equiv_pos_site_id
 _symmetry_equiv_pos_as_xyz
  1  'x, y, z'
loop_
 _atom_site_type_symbol
 _atom_site_label
 _atom_site_symmetry_multiplicity
 _atom_site_fract_x
 _atom_site_fract_y
 _atom_site_fract_z
 _atom_site_occupancy
  Tb  Tb0  1  0.707039  0.207147  0.499892  1
  Tb  Tb1  1  0.292744  0.792853  0.499892  1
  Zn  Zn2  1  0.996628  0.000000  0.996628  1
  Ir  Ir3  1  0.277641  0.500000  0.777641  1
  Ru  Ru4  1  0.725948  0.500000  0.225948  1
