# generated using pymatgen
data_Cs3KSrI6
_symmetry_space_group_name_H-M   'P 1'
_cell_length_a   10.48807219
_cell_length_b   10.48807265
_cell_length_c   10.48807178
_cell_angle_alpha   91.22319454
_cell_angle_beta   91.22318890
_cell_angle_gamma   91.22318936
_symmetry_Int_Tables_number   1
_chemical_formula_structural   Cs3KSrI6
_chemical_formula_sum   'Cs6 K2 Sr2 I12'
_cell_volume   1152.88426483
_cell_formula_units_Z   2
loop_
 _symmetry_equiv_pos_site_id
 _symmetry_equiv_pos_as_xyz
  1  'x, y, z'
loop_
 _atom_site_type_symbol
 _atom_site_label
 _atom_site_symmetry_multiplicity
 _atom_site_fract_x
 _atom_site_fract_y
 _atom_site_fract_z
 _atom_site_occupancy
  Cs  Cs0  1  0.371887  0.128113  0.750000  1
  Cs  Cs1  1  0.128113  0.750000  0.371887  1
  Cs  Cs2  1  0.750000  0.371887  0.128113  1
  Cs  Cs3  1  0.628113  0.871887  0.250000  1
  Cs  Cs4  1  0.250000  0.628113  0.871887  1
  Cs  Cs5  1  0.871887  0.250000  0.628113  1
  K  K6  1  0.250000  0.250000  0.250000  1
  K  K7  1  0.750000  0.750000  0.750000  1
  Sr  Sr8  1  0.000000  0.000000  0.000000  1
  Sr  Sr9  1  0.500000  0.500000  0.500000  1
  I  I10  1  0.949975  0.079764  0.298093  1
  I  I11  1  0.079764  0.298093  0.949975  1
  I  I12  1  0.298093  0.949975  0.079764  1
  I  I13  1  0.579764  0.449975  0.798093  1
  I  I14  1  0.798093  0.579764  0.449975  1
  I  I15  1  0.449975  0.798093  0.579764  1
  I  I16  1  0.201907  0.420236  0.550025  1
  I  I17  1  0.420236  0.550025  0.201907  1
  I  I18  1  0.550025  0.201907  0.420236  1
  I  I19  1  0.920236  0.701907  0.050025  1
  I  I20  1  0.050025  0.920236  0.701907  1
  I  I21  1  0.701907  0.050025  0.920236  1
