# generated using pymatgen
data_Ho3Tm13(InRh)4
_symmetry_space_group_name_H-M   'P 1'
_cell_length_a   9.55584524
_cell_length_b   9.55321562
_cell_length_c   9.56172136
_cell_angle_alpha   59.98874497
_cell_angle_beta   59.96145674
_cell_angle_gamma   59.97515759
_symmetry_Int_Tables_number   1
_chemical_formula_structural   Ho3Tm13(InRh)4
_chemical_formula_sum   'Ho3 Tm13 In4 Rh4'
_cell_volume   616.87139587
_cell_formula_units_Z   1
loop_
 _symmetry_equiv_pos_site_id
 _symmetry_equiv_pos_as_xyz
  1  'x, y, z'
loop_
 _atom_site_type_symbol
 _atom_site_label
 _atom_site_symmetry_multiplicity
 _atom_site_fract_x
 _atom_site_fract_y
 _atom_site_fract_z
 _atom_site_occupancy
  Ho  Ho0  1  0.061635  0.061635  0.438365  1
  Ho  Ho1  1  0.437881  0.062263  0.438058  1
  Ho  Ho2  1  0.062263  0.437881  0.061797  1
  Tm  Tm3  1  0.049496  0.649059  0.650651  1
  Tm  Tm4  1  0.438459  0.438459  0.061541  1
  Tm  Tm5  1  0.649059  0.049496  0.650795  1
  Tm  Tm6  1  0.189399  0.811140  0.188051  1
  Tm  Tm7  1  0.188547  0.188547  0.811453  1
  Tm  Tm8  1  0.811266  0.811266  0.188734  1
  Tm  Tm9  1  0.438619  0.061440  0.060986  1
  Tm  Tm10  1  0.811275  0.189306  0.187905  1
  Tm  Tm11  1  0.061440  0.438619  0.438955  1
  Tm  Tm12  1  0.811140  0.189399  0.811411  1
  Tm  Tm13  1  0.189306  0.811275  0.811514  1
  Tm  Tm14  1  0.649969  0.650051  0.048374  1
  Tm  Tm15  1  0.650051  0.649969  0.651608  1
  In  In16  1  0.416535  0.417085  0.416584  1
  In  In17  1  0.749031  0.417111  0.417061  1
  In  In18  1  0.417111  0.749031  0.416796  1
  In  In19  1  0.417085  0.416535  0.749795  1
  Rh  Rh20  1  0.857939  0.857319  0.427203  1
  Rh  Rh21  1  0.857319  0.857939  0.857540  1
  Rh  Rh22  1  0.427684  0.857491  0.857706  1
  Rh  Rh23  1  0.857491  0.427684  0.857119  1
