# generated using pymatgen
data_PrFe8P5
_symmetry_space_group_name_H-M   'P 1'
_cell_length_a   3.59381900
_cell_length_b   9.12376200
_cell_length_c   10.55075900
_cell_angle_alpha   90.00000000
_cell_angle_beta   90.00000000
_cell_angle_gamma   90.00000000
_symmetry_Int_Tables_number   1
_chemical_formula_structural   PrFe8P5
_chemical_formula_sum   'Pr2 Fe16 P10'
_cell_volume   345.95041131
_cell_formula_units_Z   2
loop_
 _symmetry_equiv_pos_site_id
 _symmetry_equiv_pos_as_xyz
  1  'x, y, z'
loop_
 _atom_site_type_symbol
 _atom_site_label
 _atom_site_symmetry_multiplicity
 _atom_site_fract_x
 _atom_site_fract_y
 _atom_site_fract_z
 _atom_site_occupancy
  Pr  Pr0  1  0.750000  0.818952  0.750000  1
  Pr  Pr1  1  0.250000  0.181048  0.250000  1
  Fe  Fe2  1  0.750000  0.518699  0.920568  1
  Fe  Fe3  1  0.750000  0.518699  0.579432  1
  Fe  Fe4  1  0.250000  0.481301  0.079432  1
  Fe  Fe5  1  0.250000  0.481301  0.420568  1
  Fe  Fe6  1  0.750000  0.109504  0.990993  1
  Fe  Fe7  1  0.750000  0.109504  0.509007  1
  Fe  Fe8  1  0.250000  0.890496  0.009007  1
  Fe  Fe9  1  0.250000  0.890496  0.490993  1
  Fe  Fe10  1  0.750000  0.692290  0.105623  1
  Fe  Fe11  1  0.750000  0.692290  0.394377  1
  Fe  Fe12  1  0.250000  0.307710  0.894377  1
  Fe  Fe13  1  0.250000  0.307710  0.605623  1
  Fe  Fe14  1  0.750000  0.153757  0.750000  1
  Fe  Fe15  1  0.250000  0.846243  0.250000  1
  Fe  Fe16  1  0.250000  0.543331  0.750000  1
  Fe  Fe17  1  0.750000  0.456669  0.250000  1
  P  P18  1  0.750000  0.933390  0.130707  1
  P  P19  1  0.750000  0.933390  0.369293  1
  P  P20  1  0.250000  0.066610  0.869293  1
  P  P21  1  0.250000  0.066610  0.630707  1
  P  P22  1  0.750000  0.338611  0.061028  1
  P  P23  1  0.750000  0.338611  0.438972  1
  P  P24  1  0.250000  0.661389  0.938972  1
  P  P25  1  0.250000  0.661389  0.561028  1
  P  P26  1  0.750000  0.390447  0.750000  1
  P  P27  1  0.250000  0.609553  0.250000  1
