# generated using pymatgen
data_Fe3Sb9Te3Os
_symmetry_space_group_name_H-M   'P 1'
_cell_length_a   7.97696304
_cell_length_b   7.97696354
_cell_length_c   7.97696326
_cell_angle_alpha   109.55304129
_cell_angle_beta   109.55305231
_cell_angle_gamma   109.55305108
_symmetry_Int_Tables_number   1
_chemical_formula_structural   Fe3Sb9Te3Os
_chemical_formula_sum   'Fe3 Sb9 Te3 Os1'
_cell_volume   389.55442777
_cell_formula_units_Z   1
loop_
 _symmetry_equiv_pos_site_id
 _symmetry_equiv_pos_as_xyz
  1  'x, y, z'
loop_
 _atom_site_type_symbol
 _atom_site_label
 _atom_site_symmetry_multiplicity
 _atom_site_fract_x
 _atom_site_fract_y
 _atom_site_fract_z
 _atom_site_occupancy
  Fe  Fe0  1  0.500604  0.995850  0.000046  1
  Fe  Fe1  1  0.995850  0.000046  0.500604  1
  Fe  Fe2  1  0.000046  0.500604  0.995850  1
  Sb  Sb3  1  0.666791  0.166138  0.835088  1
  Sb  Sb4  1  0.842524  0.167416  0.324562  1
  Sb  Sb5  1  0.166138  0.835088  0.666791  1
  Sb  Sb6  1  0.167416  0.324562  0.842524  1
  Sb  Sb7  1  0.151427  0.491875  0.326972  1
  Sb  Sb8  1  0.326972  0.151427  0.491875  1
  Sb  Sb9  1  0.491875  0.326972  0.151427  1
  Sb  Sb10  1  0.324562  0.842524  0.167416  1
  Sb  Sb11  1  0.835088  0.666791  0.166138  1
  Te  Te12  1  0.666785  0.852358  0.507991  1
  Te  Te13  1  0.852358  0.507991  0.666785  1
  Te  Te14  1  0.507991  0.666785  0.852358  1
  Os  Os15  1  0.503574  0.503574  0.503574  1
