# generated using pymatgen
data_Ho4HfZrSn5
_symmetry_space_group_name_H-M   'P 1'
_cell_length_a   11.27129533
_cell_length_b   11.27129465
_cell_length_c   11.27353800
_cell_angle_alpha   148.26370580
_cell_angle_beta   132.36970265
_cell_angle_gamma   58.35239794
_symmetry_Int_Tables_number   1
_chemical_formula_structural   Ho4HfZrSn5
_chemical_formula_sum   'Ho8 Hf2 Zr2 Sn10'
_cell_volume   552.24775141
_cell_formula_units_Z   2
loop_
 _symmetry_equiv_pos_site_id
 _symmetry_equiv_pos_as_xyz
  1  'x, y, z'
loop_
 _atom_site_type_symbol
 _atom_site_label
 _atom_site_symmetry_multiplicity
 _atom_site_fract_x
 _atom_site_fract_y
 _atom_site_fract_z
 _atom_site_occupancy
  Ho  Ho0  1  0.672944  0.439051  0.234537  1
  Ho  Ho1  1  0.327056  0.560949  0.765463  1
  Ho  Ho2  1  0.204517  0.938407  0.265463  1
  Ho  Ho3  1  0.795483  0.061593  0.734537  1
  Ho  Ho4  1  0.258567  0.145606  0.113817  1
  Ho  Ho5  1  0.741433  0.854394  0.886183  1
  Ho  Ho6  1  0.031789  0.644750  0.386183  1
  Ho  Ho7  1  0.968211  0.355250  0.613817  1
  Hf  Hf8  1  0.693768  0.943768  0.250000  1
  Hf  Hf9  1  0.306232  0.056232  0.750000  1
  Zr  Zr10  1  0.306047  0.556047  0.250000  1
  Zr  Zr11  1  0.693953  0.443953  0.750000  1
  Sn  Sn12  1  0.588695  0.286077  0.296417  1
  Sn  Sn13  1  0.411305  0.713923  0.703583  1
  Sn  Sn14  1  0.989661  0.792278  0.203583  1
  Sn  Sn15  1  0.010339  0.207722  0.796417  1
  Sn  Sn16  1  0.000233  0.250233  0.250000  1
  Sn  Sn17  1  0.999767  0.749767  0.750000  1
  Sn  Sn18  1  0.477008  0.073591  0.399547  1
  Sn  Sn19  1  0.522992  0.926409  0.600453  1
  Sn  Sn20  1  0.674043  0.577460  0.100453  1
  Sn  Sn21  1  0.325957  0.422540  0.899547  1
