# generated using pymatgen
data_CsSm6(CI6)2
_symmetry_space_group_name_H-M   'P 1'
_cell_length_a   9.66897736
_cell_length_b   9.66083045
_cell_length_c   10.07419134
_cell_angle_alpha   72.59478693
_cell_angle_beta   71.72585899
_cell_angle_gamma   73.13859439
_symmetry_Int_Tables_number   1
_chemical_formula_structural   CsSm6(CI6)2
_chemical_formula_sum   'Cs1 Sm6 C2 I12'
_cell_volume   832.41825576
_cell_formula_units_Z   1
loop_
 _symmetry_equiv_pos_site_id
 _symmetry_equiv_pos_as_xyz
  1  'x, y, z'
loop_
 _atom_site_type_symbol
 _atom_site_label
 _atom_site_symmetry_multiplicity
 _atom_site_fract_x
 _atom_site_fract_y
 _atom_site_fract_z
 _atom_site_occupancy
  Cs  Cs0  1  0.000000  0.500000  0.999997  1
  Sm  Sm1  1  0.472184  0.106931  0.196500  1
  Sm  Sm2  1  0.765036  0.032080  0.412297  1
  Sm  Sm3  1  0.587782  0.737222  0.474467  1
  Sm  Sm4  1  0.412217  0.262781  0.525534  1
  Sm  Sm5  1  0.234967  0.967917  0.587704  1
  Sm  Sm6  1  0.527816  0.893070  0.803500  1
  C  C7  1  0.493049  0.024478  0.428317  1
  C  C8  1  0.506954  0.975525  0.571682  1
  I  I9  1  0.795946  0.154331  0.081980  1
  I  I10  1  0.581757  0.782155  0.142787  1
  I  I11  1  0.353670  0.431443  0.223202  1
  I  I12  1  0.136108  0.067991  0.294234  1
  I  I13  1  0.922264  0.721370  0.356726  1
  I  I14  1  0.714160  0.363480  0.433021  1
  I  I15  1  0.285841  0.636518  0.566979  1
  I  I16  1  0.077736  0.278629  0.643273  1
  I  I17  1  0.863890  0.932008  0.705766  1
  I  I18  1  0.646329  0.568557  0.776797  1
  I  I19  1  0.418242  0.217846  0.857215  1
  I  I20  1  0.204055  0.845665  0.918022  1
