# generated using pymatgen
data_Th5TlSn2Se
_symmetry_space_group_name_H-M   'P 1'
_cell_length_a   9.55554900
_cell_length_b   9.54025694
_cell_length_c   6.67220800
_cell_angle_alpha   90.00000000
_cell_angle_beta   90.00000000
_cell_angle_gamma   120.05303416
_symmetry_Int_Tables_number   1
_chemical_formula_structural   Th5TlSn2Se
_chemical_formula_sum   'Th10 Tl2 Sn4 Se2'
_cell_volume   526.48206979
_cell_formula_units_Z   2
loop_
 _symmetry_equiv_pos_site_id
 _symmetry_equiv_pos_as_xyz
  1  'x, y, z'
loop_
 _atom_site_type_symbol
 _atom_site_label
 _atom_site_symmetry_multiplicity
 _atom_site_fract_x
 _atom_site_fract_y
 _atom_site_fract_z
 _atom_site_occupancy
  Th  Th0  1  0.001286  0.737263  0.750000  1
  Th  Th1  1  0.264024  0.262737  0.750000  1
  Th  Th2  1  0.334262  0.668781  0.496293  1
  Th  Th3  1  0.665482  0.331219  0.496293  1
  Th  Th4  1  0.736273  0.736098  0.250000  1
  Th  Th5  1  0.734224  0.000000  0.750000  1
  Th  Th6  1  0.000175  0.263902  0.250000  1
  Th  Th7  1  0.264273  0.000000  0.250000  1
  Th  Th8  1  0.334262  0.668781  0.003707  1
  Th  Th9  1  0.665482  0.331219  0.003707  1
  Tl  Tl10  1  0.613450  0.613207  0.750000  1
  Tl  Tl11  1  0.000243  0.386793  0.750000  1
  Sn  Sn12  1  0.387906  0.000000  0.750000  1
  Sn  Sn13  1  0.613489  0.000000  0.250000  1
  Sn  Sn14  1  0.387067  0.388201  0.250000  1
  Sn  Sn15  1  0.998866  0.611799  0.250000  1
  Se  Se16  1  0.999616  0.000000  0.999481  1
  Se  Se17  1  0.999616  0.000000  0.500519  1
