# generated using pymatgen
data_Ac6Si11H
_symmetry_space_group_name_H-M   'P 1'
_cell_length_a   4.50240307
_cell_length_b   4.38120217
_cell_length_c   21.75715257
_cell_angle_alpha   84.28866966
_cell_angle_beta   95.37439544
_cell_angle_gamma   90.00712673
_symmetry_Int_Tables_number   1
_chemical_formula_structural   Ac6Si11H
_chemical_formula_sum   'Ac6 Si11 H1'
_cell_volume   425.15408950
_cell_formula_units_Z   1
loop_
 _symmetry_equiv_pos_site_id
 _symmetry_equiv_pos_as_xyz
  1  'x, y, z'
loop_
 _atom_site_type_symbol
 _atom_site_label
 _atom_site_symmetry_multiplicity
 _atom_site_fract_x
 _atom_site_fract_y
 _atom_site_fract_z
 _atom_site_occupancy
  Ac  Ac0  1  0.381659  0.871918  0.254827  1
  Ac  Ac1  1  0.037644  0.206631  0.586708  1
  Ac  Ac2  1  0.676066  0.543280  0.915395  1
  Ac  Ac3  1  0.303114  0.454157  0.089845  1
  Ac  Ac4  1  0.962648  0.787804  0.421377  1
  Ac  Ac5  1  0.611284  0.124641  0.752115  1
  Si  Si6  1  0.909972  0.344280  0.311367  1
  Si  Si7  1  0.566617  0.678563  0.643073  1
  Si  Si8  1  0.199716  0.015940  0.972733  1
  Si  Si9  1  0.436115  0.315429  0.364176  1
  Si  Si10  1  0.091454  0.651253  0.696928  1
  Si  Si11  1  0.855832  0.398746  0.199454  1
  Si  Si12  1  0.511674  0.733803  0.532028  1
  Si  Si13  1  0.168546  0.070789  0.861409  1
  Si  Si14  1  0.829820  0.928243  0.141000  1
  Si  Si15  1  0.486653  0.262558  0.474966  1
  Si  Si16  1  0.126420  0.597258  0.807181  1
  H  H17  1  0.844768  0.014705  0.975419  1
