# generated using pymatgen
data_Ba3TiZnTeO9
_symmetry_space_group_name_H-M   'P 1'
_cell_length_a   5.89284900
_cell_length_b   5.89284881
_cell_length_c   14.47981500
_cell_angle_alpha   90.00000000
_cell_angle_beta   90.00000000
_cell_angle_gamma   119.99999547
_symmetry_Int_Tables_number   1
_chemical_formula_structural   Ba3TiZnTeO9
_chemical_formula_sum   'Ba6 Ti2 Zn2 Te2 O18'
_cell_volume   435.45599701
_cell_formula_units_Z   2
loop_
 _symmetry_equiv_pos_site_id
 _symmetry_equiv_pos_as_xyz
  1  'x, y, z'
loop_
 _atom_site_type_symbol
 _atom_site_label
 _atom_site_symmetry_multiplicity
 _atom_site_fract_x
 _atom_site_fract_y
 _atom_site_fract_z
 _atom_site_occupancy
  Ba  Ba0  1  0.666667  0.333333  0.591482  1
  Ba  Ba1  1  0.333333  0.666667  0.409493  1
  Ba  Ba2  1  0.333333  0.666667  0.091482  1
  Ba  Ba3  1  0.666667  0.333333  0.909493  1
  Ba  Ba4  1  0.000000  0.000000  0.750866  1
  Ba  Ba5  1  0.000000  0.000000  0.250866  1
  Ti  Ti6  1  0.666667  0.333333  0.358297  1
  Ti  Ti7  1  0.333333  0.666667  0.858297  1
  Zn  Zn8  1  0.000000  0.000000  0.493311  1
  Zn  Zn9  1  0.000000  0.000000  0.993311  1
  Te  Te10  1  0.333333  0.666667  0.658460  1
  Te  Te11  1  0.666667  0.333333  0.158460  1
  O  O12  1  0.174502  0.349003  0.584709  1
  O  O13  1  0.174502  0.825498  0.584709  1
  O  O14  1  0.650997  0.825498  0.584709  1
  O  O15  1  0.827959  0.655919  0.415458  1
  O  O16  1  0.827959  0.172041  0.415458  1
  O  O17  1  0.344081  0.172041  0.415458  1
  O  O18  1  0.825498  0.650997  0.084709  1
  O  O19  1  0.825498  0.174502  0.084709  1
  O  O20  1  0.349003  0.174502  0.084709  1
  O  O21  1  0.172041  0.344081  0.915458  1
  O  O22  1  0.172041  0.827959  0.915458  1
  O  O23  1  0.655919  0.827959  0.915458  1
  O  O24  1  0.482348  0.964696  0.745863  1
  O  O25  1  0.482348  0.517652  0.745863  1
  O  O26  1  0.035304  0.517652  0.745863  1
  O  O27  1  0.517652  0.035304  0.245863  1
  O  O28  1  0.517652  0.482348  0.245863  1
  O  O29  1  0.964696  0.482348  0.245863  1
