# generated using pymatgen
data_Nd8TmThRu4
_symmetry_space_group_name_H-M   'P 1'
_cell_length_a   6.58179059
_cell_length_b   7.28176627
_cell_length_c   8.91220499
_cell_angle_alpha   96.33760414
_cell_angle_beta   111.66981666
_cell_angle_gamma   89.99999867
_symmetry_Int_Tables_number   1
_chemical_formula_structural   Nd8TmThRu4
_chemical_formula_sum   'Nd8 Tm1 Th1 Ru4'
_cell_volume   394.13869812
_cell_formula_units_Z   1
loop_
 _symmetry_equiv_pos_site_id
 _symmetry_equiv_pos_as_xyz
  1  'x, y, z'
loop_
 _atom_site_type_symbol
 _atom_site_label
 _atom_site_symmetry_multiplicity
 _atom_site_fract_x
 _atom_site_fract_y
 _atom_site_fract_z
 _atom_site_occupancy
  Nd  Nd0  1  0.794676  0.080167  0.815871  1
  Nd  Nd1  1  0.978805  0.419833  0.184129  1
  Nd  Nd2  1  0.201914  0.913295  0.184502  1
  Nd  Nd3  1  0.017412  0.586705  0.815498  1
  Nd  Nd4  1  0.209652  0.186966  0.565672  1
  Nd  Nd5  1  0.643978  0.313034  0.434328  1
  Nd  Nd6  1  0.791037  0.813702  0.430647  1
  Nd  Nd7  1  0.360392  0.686298  0.569353  1
  Tm  Tm8  1  0.569916  0.750000  0.000000  1
  Th  Th9  1  0.427595  0.250000  0.000000  1
  Ru  Ru10  1  0.597281  0.427020  0.792014  1
  Ru  Ru11  1  0.805265  0.072980  0.207986  1
  Ru  Ru12  1  0.405343  0.563305  0.208612  1
  Ru  Ru13  1  0.196733  0.936695  0.791388  1
