# generated using pymatgen
data_LiHo3Mg2ZnSi2
_symmetry_space_group_name_H-M   'P 1'
_cell_length_a   7.11710000
_cell_length_b   7.15526412
_cell_length_c   4.28879700
_cell_angle_alpha   90.00000000
_cell_angle_beta   90.00000000
_cell_angle_gamma   119.82370927
_symmetry_Int_Tables_number   1
_chemical_formula_structural   LiHo3Mg2ZnSi2
_chemical_formula_sum   'Li1 Ho3 Mg2 Zn1 Si2'
_cell_volume   189.48010301
_cell_formula_units_Z   1
loop_
 _symmetry_equiv_pos_site_id
 _symmetry_equiv_pos_as_xyz
  1  'x, y, z'
loop_
 _atom_site_type_symbol
 _atom_site_label
 _atom_site_symmetry_multiplicity
 _atom_site_fract_x
 _atom_site_fract_y
 _atom_site_fract_z
 _atom_site_occupancy
  Li  Li0  1  0.250599  0.000000  0.500000  1
  Ho  Ho1  1  0.568510  0.000000  0.000000  1
  Ho  Ho2  1  0.001675  0.579151  0.000000  1
  Ho  Ho3  1  0.422524  0.420849  0.000000  1
  Mg  Mg4  1  0.001091  0.245154  0.500000  1
  Mg  Mg5  1  0.755937  0.754846  0.500000  1
  Zn  Zn6  1  0.005558  0.000000  0.000000  1
  Si  Si7  1  0.331020  0.667936  0.500000  1
  Si  Si8  1  0.663085  0.332064  0.500000  1
