# generated using pymatgen
data_ErTm7Ta11TiSi16
_symmetry_space_group_name_H-M   'P 1'
_cell_length_a   7.00944513
_cell_length_b   7.00608483
_cell_length_c   12.90488402
_cell_angle_alpha   89.96238725
_cell_angle_beta   90.00749632
_cell_angle_gamma   89.98540346
_symmetry_Int_Tables_number   1
_chemical_formula_structural   ErTm7Ta11TiSi16
_chemical_formula_sum   'Er1 Tm7 Ta11 Ti1 Si16'
_cell_volume   633.74278302
_cell_formula_units_Z   1
loop_
 _symmetry_equiv_pos_site_id
 _symmetry_equiv_pos_as_xyz
  1  'x, y, z'
loop_
 _atom_site_type_symbol
 _atom_site_label
 _atom_site_symmetry_multiplicity
 _atom_site_fract_x
 _atom_site_fract_y
 _atom_site_fract_z
 _atom_site_occupancy
  Er  Er0  1  0.997987  0.658845  0.031608  1
  Tm  Tm1  1  0.342680  0.001595  0.468016  1
  Tm  Tm2  1  0.498496  0.842403  0.717879  1
  Tm  Tm3  1  0.501705  0.158102  0.218233  1
  Tm  Tm4  1  0.841897  0.498117  0.281937  1
  Tm  Tm5  1  0.157699  0.501270  0.782076  1
  Tm  Tm6  1  0.658102  0.997833  0.968097  1
  Tm  Tm7  1  0.002207  0.341824  0.531931  1
  Ta  Ta8  1  0.328755  0.328891  0.999792  1
  Ta  Ta9  1  0.171497  0.828404  0.250183  1
  Ta  Ta10  1  0.827228  0.172575  0.749967  1
  Ta  Ta11  1  0.671011  0.671330  0.499835  1
  Ta  Ta12  1  0.151796  0.006335  0.873543  1
  Ta  Ta13  1  0.493491  0.652347  0.123906  1
  Ta  Ta14  1  0.506593  0.347410  0.623605  1
  Ta  Ta15  1  0.652477  0.492237  0.876425  1
  Ta  Ta16  1  0.348130  0.506731  0.376296  1
  Ta  Ta17  1  0.846576  0.992449  0.373844  1
  Ta  Ta18  1  0.007395  0.152610  0.126047  1
  Ti  Ti19  1  0.993131  0.846600  0.626663  1
  Si  Si20  1  0.202732  0.132691  0.680948  1
  Si  Si21  1  0.365426  0.704824  0.930624  1
  Si  Si22  1  0.635249  0.295529  0.431465  1
  Si  Si23  1  0.704274  0.364888  0.069192  1
  Si  Si24  1  0.294708  0.636268  0.569113  1
  Si  Si25  1  0.795894  0.865093  0.180938  1
  Si  Si26  1  0.135008  0.204027  0.319381  1
  Si  Si27  1  0.864629  0.796699  0.818000  1
  Si  Si28  1  0.295518  0.954415  0.063666  1
  Si  Si29  1  0.545162  0.795477  0.313809  1
  Si  Si30  1  0.453826  0.204816  0.813512  1
  Si  Si31  1  0.796490  0.547107  0.685298  1
  Si  Si32  1  0.204791  0.454545  0.186368  1
  Si  Si33  1  0.707719  0.044655  0.564522  1
  Si  Si34  1  0.954258  0.295227  0.935934  1
  Si  Si35  1  0.045462  0.705838  0.437347  1
