# generated using pymatgen
data_Zr2Co11Si7Mo
_symmetry_space_group_name_H-M   'P 1'
_cell_length_a   9.12621792
_cell_length_b   9.11226206
_cell_length_c   3.62126400
_cell_angle_alpha   90.00000000
_cell_angle_beta   90.00000000
_cell_angle_gamma   120.70383752
_symmetry_Int_Tables_number   1
_chemical_formula_structural   Zr2Co11Si7Mo
_chemical_formula_sum   'Zr2 Co11 Si7 Mo1'
_cell_volume   258.93084810
_cell_formula_units_Z   1
loop_
 _symmetry_equiv_pos_site_id
 _symmetry_equiv_pos_as_xyz
  1  'x, y, z'
loop_
 _atom_site_type_symbol
 _atom_site_label
 _atom_site_symmetry_multiplicity
 _atom_site_fract_x
 _atom_site_fract_y
 _atom_site_fract_z
 _atom_site_occupancy
  Zr  Zr0  1  0.998598  0.002953  0.000000  1
  Zr  Zr1  1  0.334637  0.669399  0.500000  1
  Co  Co2  1  0.292392  0.390487  0.000000  1
  Co  Co3  1  0.103163  0.710341  0.000000  1
  Co  Co4  1  0.546571  0.437916  0.500000  1
  Co  Co5  1  0.380508  0.176073  0.000000  1
  Co  Co6  1  0.790390  0.616909  0.000000  1
  Co  Co7  1  0.820409  0.207681  0.000000  1
  Co  Co8  1  0.235774  0.952538  0.500000  1
  Co  Co9  1  0.049392  0.277350  0.500000  1
  Co  Co10  1  0.718282  0.768730  0.500000  1
  Co  Co11  1  0.567340  0.106123  0.500000  1
  Co  Co12  1  0.608804  0.899164  0.000000  1
  Si  Si13  1  0.653385  0.327703  0.000000  1
  Si  Si14  1  0.084823  0.450378  0.000000  1
  Si  Si15  1  0.261468  0.218325  0.500000  1
  Si  Si16  1  0.780507  0.040522  0.500000  1
  Si  Si17  1  0.961694  0.748692  0.500000  1
  Si  Si18  1  0.550043  0.623788  0.000000  1
  Si  Si19  1  0.378846  0.929726  0.000000  1
  Mo  Mo20  1  0.882971  0.445205  0.500000  1
