# generated using pymatgen
data_LuHf4Zr5Sn6
_symmetry_space_group_name_H-M   'P 1'
_cell_length_a   8.57045510
_cell_length_b   8.57045641
_cell_length_c   5.80951100
_cell_angle_alpha   90.00000000
_cell_angle_beta   90.00000000
_cell_angle_gamma   120.63097918
_symmetry_Int_Tables_number   1
_chemical_formula_structural   LuHf4Zr5Sn6
_chemical_formula_sum   'Lu1 Hf4 Zr5 Sn6'
_cell_volume   367.18206877
_cell_formula_units_Z   1
loop_
 _symmetry_equiv_pos_site_id
 _symmetry_equiv_pos_as_xyz
  1  'x, y, z'
loop_
 _atom_site_type_symbol
 _atom_site_label
 _atom_site_symmetry_multiplicity
 _atom_site_fract_x
 _atom_site_fract_y
 _atom_site_fract_z
 _atom_site_occupancy
  Lu  Lu0  1  0.764074  0.764074  0.750000  1
  Hf  Hf1  1  0.665428  0.332671  0.000452  1
  Hf  Hf2  1  0.332671  0.665428  0.000452  1
  Hf  Hf3  1  0.332671  0.665428  0.499548  1
  Hf  Hf4  1  0.665428  0.332671  0.499548  1
  Zr  Zr5  1  0.250524  0.001841  0.750000  1
  Zr  Zr6  1  0.001841  0.250524  0.750000  1
  Zr  Zr7  1  0.240339  0.240339  0.250000  1
  Zr  Zr8  1  0.750782  0.999024  0.250000  1
  Zr  Zr9  1  0.999024  0.750782  0.250000  1
  Sn  Sn10  1  0.393456  0.393456  0.750000  1
  Sn  Sn11  1  0.606427  0.001658  0.750000  1
  Sn  Sn12  1  0.001658  0.606427  0.750000  1
  Sn  Sn13  1  0.605396  0.605396  0.250000  1
  Sn  Sn14  1  0.391087  0.999194  0.250000  1
  Sn  Sn15  1  0.999194  0.391087  0.250000  1
