# generated using pymatgen
data_La2B4IrOs2Ru
_symmetry_space_group_name_H-M   'P 1'
_cell_length_a   6.94220181
_cell_length_b   6.10533101
_cell_length_c   5.66964372
_cell_angle_alpha   72.14572002
_cell_angle_beta   56.83479476
_cell_angle_gamma   50.54015152
_symmetry_Int_Tables_number   1
_chemical_formula_structural   La2B4IrOs2Ru
_chemical_formula_sum   'La2 B4 Ir1 Os2 Ru1'
_cell_volume   154.99427563
_cell_formula_units_Z   1
loop_
 _symmetry_equiv_pos_site_id
 _symmetry_equiv_pos_as_xyz
  1  'x, y, z'
loop_
 _atom_site_type_symbol
 _atom_site_label
 _atom_site_symmetry_multiplicity
 _atom_site_fract_x
 _atom_site_fract_y
 _atom_site_fract_z
 _atom_site_occupancy
  La  La0  1  0.999827  0.999827  0.000173  1
  La  La1  1  0.248248  0.248248  0.251752  1
  B  B2  1  0.317546  0.684849  0.316100  1
  B  B3  1  0.684849  0.317546  0.681506  1
  B  B4  1  0.573788  0.925245  0.575095  1
  B  B5  1  0.925245  0.573788  0.925872  1
  Ir  Ir6  1  0.365749  0.365749  0.634251  1
  Os  Os7  1  0.613629  0.613629  0.886371  1
  Os  Os8  1  0.885645  0.885645  0.614355  1
  Ru  Ru9  1  0.635475  0.635475  0.364525  1
