# generated using pymatgen
data_Y20AsPb12
_symmetry_space_group_name_H-M   'P 1'
_cell_length_a   6.76602400
_cell_length_b   9.21558179
_cell_length_c   16.05862700
_cell_angle_alpha   90.00000622
_cell_angle_beta   90.00000000
_cell_angle_gamma   89.89064433
_symmetry_Int_Tables_number   1
_chemical_formula_structural   Y20AsPb12
_chemical_formula_sum   'Y20 As1 Pb12'
_cell_volume   1001.29929715
_cell_formula_units_Z   1
loop_
 _symmetry_equiv_pos_site_id
 _symmetry_equiv_pos_as_xyz
  1  'x, y, z'
loop_
 _atom_site_type_symbol
 _atom_site_label
 _atom_site_symmetry_multiplicity
 _atom_site_fract_x
 _atom_site_fract_y
 _atom_site_fract_z
 _atom_site_occupancy
  Y  Y0  1  0.499998  0.999995  0.334461  1
  Y  Y1  1  0.500000  0.500000  0.831116  1
  Y  Y2  1  0.500000  0.500000  0.168884  1
  Y  Y3  1  0.499998  0.999995  0.665539  1
  Y  Y4  1  0.000000  0.500004  0.165757  1
  Y  Y5  1  0.999997  0.999998  0.666689  1
  Y  Y6  1  0.999997  0.999998  0.333311  1
  Y  Y7  1  0.000000  0.500004  0.834243  1
  Y  Y8  1  0.749142  0.244895  0.000000  1
  Y  Y9  1  0.749384  0.739106  0.500000  1
  Y  Y10  1  0.751194  0.381158  0.382605  1
  Y  Y11  1  0.748730  0.875920  0.876202  1
  Y  Y12  1  0.748730  0.875920  0.123798  1
  Y  Y13  1  0.751194  0.381158  0.617395  1
  Y  Y14  1  0.250849  0.755102  0.000000  1
  Y  Y15  1  0.250614  0.260898  0.500000  1
  Y  Y16  1  0.251270  0.124083  0.123797  1
  Y  Y17  1  0.248822  0.618844  0.617394  1
  Y  Y18  1  0.248822  0.618844  0.382606  1
  Y  Y19  1  0.251270  0.124083  0.876203  1
  As  As20  1  0.499999  0.999998  0.000000  1
  Pb  Pb21  1  0.748115  0.603482  0.000000  1
  Pb  Pb22  1  0.750322  0.105045  0.500000  1
  Pb  Pb23  1  0.749803  0.198442  0.199251  1
  Pb  Pb24  1  0.752416  0.696044  0.695529  1
  Pb  Pb25  1  0.752416  0.696044  0.304471  1
  Pb  Pb26  1  0.749803  0.198442  0.800749  1
  Pb  Pb27  1  0.251885  0.396519  0.000000  1
  Pb  Pb28  1  0.249664  0.894958  0.500000  1
  Pb  Pb29  1  0.247584  0.303956  0.304471  1
  Pb  Pb30  1  0.250197  0.801558  0.800752  1
  Pb  Pb31  1  0.250197  0.801558  0.199248  1
  Pb  Pb32  1  0.247584  0.303956  0.695529  1
