# generated using pymatgen
data_Ba8Si12PdAu3
_symmetry_space_group_name_H-M   'P 1'
_cell_length_a   12.49888506
_cell_length_b   10.94119374
_cell_length_c   8.51426706
_cell_angle_alpha   78.78878302
_cell_angle_beta   59.13784020
_cell_angle_gamma   42.02371541
_symmetry_Int_Tables_number   1
_chemical_formula_structural   Ba8Si12PdAu3
_chemical_formula_sum   'Ba8 Si12 Pd1 Au3'
_cell_volume   632.81497059
_cell_formula_units_Z   1
loop_
 _symmetry_equiv_pos_site_id
 _symmetry_equiv_pos_as_xyz
  1  'x, y, z'
loop_
 _atom_site_type_symbol
 _atom_site_label
 _atom_site_symmetry_multiplicity
 _atom_site_fract_x
 _atom_site_fract_y
 _atom_site_fract_z
 _atom_site_occupancy
  Ba  Ba0  1  0.122814  0.126057  0.378767  1
  Ba  Ba1  1  0.875400  0.878222  0.121930  1
  Ba  Ba2  1  0.122225  0.125152  0.875214  1
  Ba  Ba3  1  0.378362  0.371745  0.123399  1
  Ba  Ba4  1  0.622891  0.623519  0.376835  1
  Ba  Ba5  1  0.376737  0.376731  0.623361  1
  Ba  Ba6  1  0.628643  0.623282  0.872875  1
  Ba  Ba7  1  0.873081  0.875241  0.627916  1
  Si  Si8  1  0.338531  0.658906  0.823602  1
  Si  Si9  1  0.169481  0.832590  0.663057  1
  Si  Si10  1  0.822944  0.179516  0.339205  1
  Si  Si11  1  0.663598  0.334158  0.168744  1
  Si  Si12  1  0.913501  0.589519  0.423991  1
  Si  Si13  1  0.073709  0.426273  0.588552  1
  Si  Si14  1  0.424162  0.072498  0.913298  1
  Si  Si15  1  0.912516  0.588179  0.911616  1
  Si  Si16  1  0.665908  0.333393  0.666056  1
  Si  Si17  1  0.338287  0.661150  0.339289  1
  Si  Si18  1  0.588476  0.912416  0.588007  1
  Si  Si19  1  0.588054  0.911984  0.074232  1
  Pd  Pd20  1  0.832879  0.167476  0.832596  1
  Au  Au21  1  0.082313  0.417283  0.083642  1
  Au  Au22  1  0.167820  0.832681  0.166624  1
  Au  Au23  1  0.417667  0.082033  0.417191  1
