# generated using pymatgen
data_Tm3Lu5B24(RhW)2
_symmetry_space_group_name_H-M   'P 1'
_cell_length_a   3.58991800
_cell_length_b   9.11050454
_cell_length_c   11.51698803
_cell_angle_alpha   90.37896080
_cell_angle_beta   90.00000000
_cell_angle_gamma   90.00000000
_symmetry_Int_Tables_number   1
_chemical_formula_structural   Tm3Lu5B24(RhW)2
_chemical_formula_sum   'Tm3 Lu5 B24 Rh2 W2'
_cell_volume   376.66595958
_cell_formula_units_Z   1
loop_
 _symmetry_equiv_pos_site_id
 _symmetry_equiv_pos_as_xyz
  1  'x, y, z'
loop_
 _atom_site_type_symbol
 _atom_site_label
 _atom_site_symmetry_multiplicity
 _atom_site_fract_x
 _atom_site_fract_y
 _atom_site_fract_z
 _atom_site_occupancy
  Tm  Tm0  1  0.500000  0.318295  0.412244  1
  Tm  Tm1  1  0.500000  0.681705  0.587747  1
  Tm  Tm2  1  0.500000  0.176315  0.916371  1
  Lu  Lu3  1  0.500000  0.823738  0.083452  1
  Lu  Lu4  1  0.500000  0.444989  0.127195  1
  Lu  Lu5  1  0.500000  0.555167  0.872899  1
  Lu  Lu6  1  0.500000  0.055504  0.626864  1
  Lu  Lu7  1  0.500000  0.944407  0.373108  1
  B  B8  1  0.000000  0.105933  0.472214  1
  B  B9  1  0.000000  0.894056  0.527759  1
  B  B10  1  0.000000  0.395936  0.970464  1
  B  B11  1  0.000000  0.604419  0.029653  1
  B  B12  1  0.000000  0.131830  0.318592  1
  B  B13  1  0.000000  0.868139  0.681404  1
  B  B14  1  0.000000  0.368433  0.816177  1
  B  B15  1  0.000000  0.631862  0.183667  1
  B  B16  1  0.000000  0.051056  0.065480  1
  B  B17  1  0.000000  0.948583  0.934722  1
  B  B18  1  0.000000  0.446512  0.565591  1
  B  B19  1  0.000000  0.553502  0.434393  1
  B  B20  1  0.000000  0.482830  0.288367  1
  B  B21  1  0.000000  0.517210  0.711641  1
  B  B22  1  0.000000  0.022365  0.786010  1
  B  B23  1  0.000000  0.977283  0.213828  1
  B  B24  1  0.000000  0.251857  0.078282  1
  B  B25  1  0.000000  0.748203  0.922098  1
  B  B26  1  0.000000  0.249735  0.579077  1
  B  B27  1  0.000000  0.750252  0.420900  1
  B  B28  1  0.000000  0.297368  0.237265  1
  B  B29  1  0.000000  0.702622  0.762749  1
  B  B30  1  0.000000  0.208656  0.734443  1
  B  B31  1  0.000000  0.791402  0.265346  1
  Rh  Rh32  1  0.500000  0.361342  0.678369  1
  Rh  Rh33  1  0.500000  0.638730  0.321568  1
  W  W34  1  0.500000  0.139149  0.181225  1
  W  W35  1  0.500000  0.860614  0.818837  1
