# generated using pymatgen
data_La3YbH11
_symmetry_space_group_name_H-M   'P 1'
_cell_length_a   6.74261156
_cell_length_b   6.74261077
_cell_length_c   6.74261200
_cell_angle_alpha   130.84397542
_cell_angle_beta   133.30654185
_cell_angle_gamma   70.12903493
_symmetry_Int_Tables_number   1
_chemical_formula_structural   La3YbH11
_chemical_formula_sum   'La3 Yb1 H11'
_cell_volume   165.42692986
_cell_formula_units_Z   1
loop_
 _symmetry_equiv_pos_site_id
 _symmetry_equiv_pos_as_xyz
  1  'x, y, z'
loop_
 _atom_site_type_symbol
 _atom_site_label
 _atom_site_symmetry_multiplicity
 _atom_site_fract_x
 _atom_site_fract_y
 _atom_site_fract_z
 _atom_site_occupancy
  La  La0  1  0.260810  0.260810  0.000000  1
  La  La1  1  0.000000  0.500000  0.500000  1
  La  La2  1  0.739190  0.739190  0.000000  1
  Yb  Yb3  1  0.500000  0.000000  0.500000  1
  H  H4  1  0.643701  0.106963  0.987955  1
  H  H5  1  0.356302  0.344253  0.463263  1
  H  H6  1  0.119008  0.655746  0.012045  1
  H  H7  1  0.880989  0.893038  0.536737  1
  H  H8  1  0.880992  0.344254  0.987955  1
  H  H9  1  0.643698  0.655747  0.536737  1
  H  H10  1  0.356299  0.893037  0.012045  1
  H  H11  1  0.119011  0.106962  0.463263  1
  H  H12  1  0.764335  0.264335  0.500000  1
  H  H13  1  0.500000  0.500000  0.000000  1
  H  H14  1  0.235665  0.735665  0.500000  1
