# generated using pymatgen
data_TbY3Al17GaIr6
_symmetry_space_group_name_H-M   'P 1'
_cell_length_a   7.54440910
_cell_length_b   7.54403857
_cell_length_c   9.51800600
_cell_angle_alpha   90.00000000
_cell_angle_beta   90.00000000
_cell_angle_gamma   119.38837071
_symmetry_Int_Tables_number   1
_chemical_formula_structural   TbY3Al17GaIr6
_chemical_formula_sum   'Tb1 Y3 Al17 Ga1 Ir6'
_cell_volume   472.00816719
_cell_formula_units_Z   1
loop_
 _symmetry_equiv_pos_site_id
 _symmetry_equiv_pos_as_xyz
  1  'x, y, z'
loop_
 _atom_site_type_symbol
 _atom_site_label
 _atom_site_symmetry_multiplicity
 _atom_site_fract_x
 _atom_site_fract_y
 _atom_site_fract_z
 _atom_site_occupancy
  Tb  Tb0  1  0.325050  0.006384  0.750000  1
  Y  Y1  1  0.994748  0.672215  0.250000  1
  Y  Y2  1  0.006456  0.325243  0.750000  1
  Y  Y3  1  0.672235  0.994781  0.250000  1
  Al  Al4  1  0.130420  0.130468  0.250000  1
  Al  Al5  1  0.001441  0.335811  0.073843  1
  Al  Al6  1  0.998718  0.664123  0.927038  1
  Al  Al7  1  0.998718  0.664123  0.572962  1
  Al  Al8  1  0.335834  0.001472  0.426065  1
  Al  Al9  1  0.001441  0.335811  0.426157  1
  Al  Al10  1  0.664364  0.998825  0.573019  1
  Al  Al11  1  0.664364  0.998825  0.926981  1
  Al  Al12  1  0.335834  0.001472  0.073935  1
  Al  Al13  1  0.334136  0.334247  0.549871  1
  Al  Al14  1  0.666622  0.666636  0.447048  1
  Al  Al15  1  0.666622  0.666636  0.052952  1
  Al  Al16  1  0.334136  0.334247  0.950129  1
  Al  Al17  1  0.339377  0.548822  0.250000  1
  Al  Al18  1  0.661415  0.450626  0.750000  1
  Al  Al19  1  0.548848  0.339444  0.250000  1
  Al  Al20  1  0.450712  0.661473  0.750000  1
  Ga  Ga21  1  0.864764  0.864584  0.750000  1
  Ir  Ir22  1  0.672338  0.329024  0.999781  1
  Ir  Ir23  1  0.329047  0.672379  0.999752  1
  Ir  Ir24  1  0.329047  0.672379  0.500248  1
  Ir  Ir25  1  0.672338  0.329024  0.500219  1
  Ir  Ir26  1  0.000486  0.000467  0.002615  1
  Ir  Ir27  1  0.000486  0.000467  0.497385  1
