# generated using pymatgen
data_Sr2Cd20NiAu
_symmetry_space_group_name_H-M   'P 1'
_cell_length_a   9.38070802
_cell_length_b   9.39116736
_cell_length_c   9.38097512
_cell_angle_alpha   99.51415889
_cell_angle_beta   99.94684173
_cell_angle_gamma   131.83340562
_symmetry_Int_Tables_number   1
_chemical_formula_structural   Sr2Cd20NiAu
_chemical_formula_sum   'Sr2 Cd20 Ni1 Au1'
_cell_volume   560.45402092
_cell_formula_units_Z   1
loop_
 _symmetry_equiv_pos_site_id
 _symmetry_equiv_pos_as_xyz
  1  'x, y, z'
loop_
 _atom_site_type_symbol
 _atom_site_label
 _atom_site_symmetry_multiplicity
 _atom_site_fract_x
 _atom_site_fract_y
 _atom_site_fract_z
 _atom_site_occupancy
  Sr  Sr0  1  0.750373  0.250699  0.500773  1
  Sr  Sr1  1  0.499627  0.499301  0.999227  1
  Cd  Cd2  1  0.987093  0.308997  0.915403  1
  Cd  Cd3  1  0.125000  0.875000  0.750000  1
  Cd  Cd4  1  0.681215  0.619013  0.685649  1
  Cd  Cd5  1  0.394553  0.319853  0.319518  1
  Cd  Cd6  1  0.683045  0.998798  0.066280  1
  Cd  Cd7  1  0.855447  0.430147  0.180482  1
  Cd  Cd8  1  0.406508  0.081260  0.083786  1
  Cd  Cd9  1  0.982878  0.997458  0.992172  1
  Cd  Cd10  1  0.843492  0.668740  0.416214  1
  Cd  Cd11  1  0.267122  0.752542  0.507828  1
  Cd  Cd12  1  0.331796  0.741127  0.172914  1
  Cd  Cd13  1  0.125000  0.875000  0.250000  1
  Cd  Cd14  1  0.262907  0.441003  0.584597  1
  Cd  Cd15  1  0.566955  0.751202  0.433720  1
  Cd  Cd16  1  0.983429  0.075941  0.675704  1
  Cd  Cd17  1  0.918204  0.008873  0.327086  1
  Cd  Cd18  1  0.333787  0.162484  0.588417  1
  Cd  Cd19  1  0.266571  0.674059  0.824296  1
  Cd  Cd20  1  0.568785  0.130987  0.814351  1
  Cd  Cd21  1  0.916213  0.587516  0.911583  1
  Ni  Ni22  1  0.625000  0.875000  0.750000  1
  Au  Au23  1  0.125000  0.375000  0.250000  1
