# generated using pymatgen
data_Nb8GaGeTe8
_symmetry_space_group_name_H-M   'P 1'
_cell_length_a   4.91440100
_cell_length_b   11.28279300
_cell_length_c   19.94971400
_cell_angle_alpha   90.00000000
_cell_angle_beta   90.00000000
_cell_angle_gamma   90.00000000
_symmetry_Int_Tables_number   1
_chemical_formula_structural   Nb8GaGeTe8
_chemical_formula_sum   'Nb16 Ga2 Ge2 Te16'
_cell_volume   1106.17511740
_cell_formula_units_Z   2
loop_
 _symmetry_equiv_pos_site_id
 _symmetry_equiv_pos_as_xyz
  1  'x, y, z'
loop_
 _atom_site_type_symbol
 _atom_site_label
 _atom_site_symmetry_multiplicity
 _atom_site_fract_x
 _atom_site_fract_y
 _atom_site_fract_z
 _atom_site_occupancy
  Nb  Nb0  1  0.501192  0.564191  0.385355  1
  Nb  Nb1  1  0.501192  0.435809  0.614645  1
  Nb  Nb2  1  0.498808  0.064191  0.114645  1
  Nb  Nb3  1  0.498808  0.935809  0.885355  1
  Nb  Nb4  1  0.501300  0.703050  0.536176  1
  Nb  Nb5  1  0.501300  0.296950  0.463824  1
  Nb  Nb6  1  0.498700  0.203050  0.963824  1
  Nb  Nb7  1  0.498700  0.796950  0.036176  1
  Nb  Nb8  1  0.999179  0.688935  0.444432  1
  Nb  Nb9  1  0.999179  0.311065  0.555568  1
  Nb  Nb10  1  0.000821  0.188935  0.055568  1
  Nb  Nb11  1  0.000821  0.811065  0.944432  1
  Nb  Nb12  1  0.999268  0.401874  0.393303  1
  Nb  Nb13  1  0.999268  0.598126  0.606697  1
  Nb  Nb14  1  0.000732  0.901874  0.106697  1
  Nb  Nb15  1  0.000732  0.098126  0.893303  1
  Ga  Ga16  1  0.750157  0.500000  0.500000  1
  Ga  Ga17  1  0.249843  0.000000  0.000000  1
  Ge  Ge18  1  0.250392  0.500000  0.500000  1
  Ge  Ge19  1  0.749608  0.000000  0.000000  1
  Te  Te20  1  0.000413  0.837715  0.560212  1
  Te  Te21  1  0.000413  0.162285  0.439788  1
  Te  Te22  1  0.999587  0.337715  0.939788  1
  Te  Te23  1  0.999587  0.662285  0.060212  1
  Te  Te24  1  0.500086  0.336934  0.322513  1
  Te  Te25  1  0.500086  0.663066  0.677487  1
  Te  Te26  1  0.499914  0.836934  0.177487  1
  Te  Te27  1  0.499914  0.163066  0.822513  1
  Te  Te28  1  0.500009  0.814256  0.407575  1
  Te  Te29  1  0.500009  0.185744  0.592425  1
  Te  Te30  1  0.499991  0.314256  0.092425  1
  Te  Te31  1  0.499991  0.685744  0.907575  1
  Te  Te32  1  0.000358  0.606641  0.309237  1
  Te  Te33  1  0.000358  0.393359  0.690763  1
  Te  Te34  1  0.999642  0.106641  0.190763  1
  Te  Te35  1  0.999642  0.893359  0.809237  1
