# generated using pymatgen
data_LaPr2Cd3CuAu2
_symmetry_space_group_name_H-M   'P 1'
_cell_length_a   7.99166800
_cell_length_b   7.99391067
_cell_length_c   4.00029000
_cell_angle_alpha   90.00000000
_cell_angle_beta   90.00000000
_cell_angle_gamma   119.99072000
_symmetry_Int_Tables_number   1
_chemical_formula_structural   LaPr2Cd3CuAu2
_chemical_formula_sum   'La1 Pr2 Cd3 Cu1 Au2'
_cell_volume   221.33976100
_cell_formula_units_Z   1
loop_
 _symmetry_equiv_pos_site_id
 _symmetry_equiv_pos_as_xyz
  1  'x, y, z'
loop_
 _atom_site_type_symbol
 _atom_site_label
 _atom_site_symmetry_multiplicity
 _atom_site_fract_x
 _atom_site_fract_y
 _atom_site_fract_z
 _atom_site_occupancy
  La  La0  1  0.411329  0.000000  0.500000  1
  Pr  Pr1  1  0.999214  0.410417  0.500000  1
  Pr  Pr2  1  0.588797  0.589583  0.500000  1
  Cd  Cd3  1  0.759135  0.000000  0.000000  1
  Cd  Cd4  1  0.998881  0.756669  0.000000  1
  Cd  Cd5  1  0.242212  0.243331  0.000000  1
  Cu  Cu6  1  0.999479  0.000000  0.500000  1
  Au  Au7  1  0.333590  0.666228  0.000000  1
  Au  Au8  1  0.667363  0.333772  0.000000  1
