# generated using pymatgen
data_LiZrScBIr5
_symmetry_space_group_name_H-M   'P 1'
_cell_length_a   5.69483052
_cell_length_b   5.69483018
_cell_length_c   5.73585200
_cell_angle_alpha   59.76141623
_cell_angle_beta   59.76141817
_cell_angle_gamma   61.07782249
_symmetry_Int_Tables_number   1
_chemical_formula_structural   LiZrScBIr5
_chemical_formula_sum   'Li1 Zr1 Sc1 B1 Ir5'
_cell_volume   132.08567885
_cell_formula_units_Z   1
loop_
 _symmetry_equiv_pos_site_id
 _symmetry_equiv_pos_as_xyz
  1  'x, y, z'
loop_
 _atom_site_type_symbol
 _atom_site_label
 _atom_site_symmetry_multiplicity
 _atom_site_fract_x
 _atom_site_fract_y
 _atom_site_fract_z
 _atom_site_occupancy
  Li  Li0  1  0.730250  0.730250  0.269750  1
  Zr  Zr1  1  0.247961  0.247961  0.252039  1
  Sc  Sc2  1  0.749470  0.749470  0.750530  1
  B  B3  1  0.003701  0.003701  0.996299  1
  Ir  Ir4  1  0.257107  0.744431  0.255101  1
  Ir  Ir5  1  0.744431  0.257107  0.255101  1
  Ir  Ir6  1  0.265541  0.265541  0.734459  1
  Ir  Ir7  1  0.744431  0.257107  0.743361  1
  Ir  Ir8  1  0.257107  0.744431  0.743361  1
