# generated using pymatgen
data_Nd2Al9CoPt2
_symmetry_space_group_name_H-M   'P 1'
_cell_length_a   7.60120543
_cell_length_b   7.60120442
_cell_length_c   9.51486354
_cell_angle_alpha   89.83592189
_cell_angle_beta   89.83592674
_cell_angle_gamma   119.58761602
_symmetry_Int_Tables_number   1
_chemical_formula_structural   Nd2Al9CoPt2
_chemical_formula_sum   'Nd4 Al18 Co2 Pt4'
_cell_volume   478.05820559
_cell_formula_units_Z   2
loop_
 _symmetry_equiv_pos_site_id
 _symmetry_equiv_pos_as_xyz
  1  'x, y, z'
loop_
 _atom_site_type_symbol
 _atom_site_label
 _atom_site_symmetry_multiplicity
 _atom_site_fract_x
 _atom_site_fract_y
 _atom_site_fract_z
 _atom_site_occupancy
  Nd  Nd0  1  0.005448  0.330375  0.749977  1
  Nd  Nd1  1  0.332934  0.008814  0.749609  1
  Nd  Nd2  1  0.991186  0.667066  0.250391  1
  Nd  Nd3  1  0.669625  0.994552  0.250023  1
  Al  Al4  1  0.657155  0.990277  0.926796  1
  Al  Al5  1  0.000563  0.674185  0.572324  1
  Al  Al6  1  0.128304  0.127133  0.256162  1
  Al  Al7  1  0.659386  0.666800  0.047899  1
  Al  Al8  1  0.325563  0.325975  0.547787  1
  Al  Al9  1  0.333200  0.340614  0.952101  1
  Al  Al10  1  0.674025  0.674437  0.452213  1
  Al  Al11  1  0.333695  0.990138  0.072716  1
  Al  Al12  1  0.001392  0.326299  0.427240  1
  Al  Al13  1  0.340485  0.550470  0.242471  1
  Al  Al14  1  0.009723  0.342845  0.073204  1
  Al  Al15  1  0.541983  0.340285  0.249905  1
  Al  Al16  1  0.659715  0.458017  0.750095  1
  Al  Al17  1  0.872867  0.871696  0.743838  1
  Al  Al18  1  0.009862  0.666305  0.927284  1
  Al  Al19  1  0.673701  0.998608  0.572760  1
  Al  Al20  1  0.325815  0.999437  0.427676  1
  Al  Al21  1  0.449530  0.659515  0.757529  1
  Co  Co22  1  0.000227  0.999773  0.500000  1
  Co  Co23  1  0.330658  0.669342  0.000000  1
  Pt  Pt24  1  0.671456  0.328544  0.500000  1
  Pt  Pt25  1  0.671796  0.328204  0.000000  1
  Pt  Pt26  1  0.329417  0.670583  0.500000  1
  Pt  Pt27  1  0.000287  0.999713  0.000000  1
