# generated using pymatgen
data_Sr4Yb2MoIrO12
_symmetry_space_group_name_H-M   'P 1'
_cell_length_a   5.78958917
_cell_length_b   8.22825293
_cell_length_c   5.89757846
_cell_angle_alpha   89.83095496
_cell_angle_beta   89.99514359
_cell_angle_gamma   90.25845186
_symmetry_Int_Tables_number   1
_chemical_formula_structural   Sr4Yb2MoIrO12
_chemical_formula_sum   'Sr4 Yb2 Mo1 Ir1 O12'
_cell_volume   280.94596362
_cell_formula_units_Z   1
loop_
 _symmetry_equiv_pos_site_id
 _symmetry_equiv_pos_as_xyz
  1  'x, y, z'
loop_
 _atom_site_type_symbol
 _atom_site_label
 _atom_site_symmetry_multiplicity
 _atom_site_fract_x
 _atom_site_fract_y
 _atom_site_fract_z
 _atom_site_occupancy
  Sr  Sr0  1  0.489335  0.248345  0.542672  1
  Sr  Sr1  1  0.008968  0.249827  0.043836  1
  Sr  Sr2  1  0.991032  0.750172  0.956162  1
  Sr  Sr3  1  0.510666  0.751655  0.457327  1
  Yb  Yb4  1  0.000000  0.500000  0.500000  1
  Yb  Yb5  1  0.500000  0.000000  0.000000  1
  Mo  Mo6  1  0.500000  0.500002  0.000000  1
  Ir  Ir7  1  0.000000  0.999997  0.500000  1
  O  O8  1  0.769767  0.540472  0.190945  1
  O  O9  1  0.230231  0.459528  0.809055  1
  O  O10  1  0.269973  0.040263  0.307098  1
  O  O11  1  0.730029  0.959736  0.692903  1
  O  O12  1  0.581728  0.270536  0.974930  1
  O  O13  1  0.918841  0.230052  0.475383  1
  O  O14  1  0.081160  0.769949  0.524617  1
  O  O15  1  0.418270  0.729464  0.025070  1
  O  O16  1  0.312959  0.453389  0.270141  1
  O  O17  1  0.811205  0.954224  0.230094  1
  O  O18  1  0.188796  0.045777  0.769906  1
  O  O19  1  0.687041  0.546611  0.729858  1
