# generated using pymatgen
data_Ho2B8IrRu
_symmetry_space_group_name_H-M   'P 1'
_cell_length_a   3.55686700
_cell_length_b   5.95783408
_cell_length_c   11.54614016
_cell_angle_alpha   90.12005583
_cell_angle_beta   90.00000000
_cell_angle_gamma   90.00000000
_symmetry_Int_Tables_number   1
_chemical_formula_structural   Ho2B8IrRu
_chemical_formula_sum   'Ho4 B16 Ir2 Ru2'
_cell_volume   244.67629877
_cell_formula_units_Z   2
loop_
 _symmetry_equiv_pos_site_id
 _symmetry_equiv_pos_as_xyz
  1  'x, y, z'
loop_
 _atom_site_type_symbol
 _atom_site_label
 _atom_site_symmetry_multiplicity
 _atom_site_fract_x
 _atom_site_fract_y
 _atom_site_fract_z
 _atom_site_occupancy
  Ho  Ho0  1  0.000000  0.629730  0.647603  1
  Ho  Ho1  1  0.000000  0.370270  0.352397  1
  Ho  Ho2  1  0.000000  0.130982  0.848987  1
  Ho  Ho3  1  0.000000  0.869018  0.151013  1
  B  B4  1  0.500000  0.975310  0.691562  1
  B  B5  1  0.500000  0.024690  0.308438  1
  B  B6  1  0.500000  0.475730  0.806738  1
  B  B7  1  0.500000  0.524270  0.193262  1
  B  B8  1  0.500000  0.790418  0.811726  1
  B  B9  1  0.500000  0.209582  0.188274  1
  B  B10  1  0.500000  0.289717  0.685924  1
  B  B11  1  0.500000  0.710283  0.314076  1
  B  B12  1  0.500000  0.863516  0.970751  1
  B  B13  1  0.500000  0.136484  0.029249  1
  B  B14  1  0.500000  0.364160  0.530702  1
  B  B15  1  0.500000  0.635840  0.469298  1
  B  B16  1  0.500000  0.887842  0.546345  1
  B  B17  1  0.500000  0.112158  0.453655  1
  B  B18  1  0.500000  0.387559  0.952471  1
  B  B19  1  0.500000  0.612441  0.047529  1
  Ir  Ir20  1  0.000000  0.645197  0.903796  1
  Ir  Ir21  1  0.000000  0.354803  0.096204  1
  Ru  Ru22  1  0.000000  0.140371  0.593127  1
  Ru  Ru23  1  0.000000  0.859629  0.406873  1
