# generated using pymatgen
data_Zr6Ti4Al12Fe2Pd5
_symmetry_space_group_name_H-M   'P 1'
_cell_length_a   8.77032985
_cell_length_b   8.77032967
_cell_length_c   8.74712200
_cell_angle_alpha   60.08749565
_cell_angle_beta   60.08749631
_cell_angle_gamma   59.98745847
_symmetry_Int_Tables_number   1
_chemical_formula_structural   Zr6Ti4Al12Fe2Pd5
_chemical_formula_sum   'Zr6 Ti4 Al12 Fe2 Pd5'
_cell_volume   476.33647007
_cell_formula_units_Z   1
loop_
 _symmetry_equiv_pos_site_id
 _symmetry_equiv_pos_as_xyz
  1  'x, y, z'
loop_
 _atom_site_type_symbol
 _atom_site_label
 _atom_site_symmetry_multiplicity
 _atom_site_fract_x
 _atom_site_fract_y
 _atom_site_fract_z
 _atom_site_occupancy
  Zr  Zr0  1  0.692795  0.692795  0.307205  1
  Zr  Zr1  1  0.307990  0.692392  0.313090  1
  Zr  Zr2  1  0.692392  0.307990  0.313090  1
  Zr  Zr3  1  0.306450  0.306450  0.693550  1
  Zr  Zr4  1  0.692392  0.307990  0.686529  1
  Zr  Zr5  1  0.307990  0.692392  0.686529  1
  Ti  Ti6  1  0.889991  0.889991  0.349112  1
  Ti  Ti7  1  0.886678  0.343803  0.884760  1
  Ti  Ti8  1  0.343803  0.886678  0.884760  1
  Ti  Ti9  1  0.889991  0.889991  0.870906  1
  Al  Al10  1  0.114408  0.114408  0.645487  1
  Al  Al11  1  0.113178  0.650561  0.118130  1
  Al  Al12  1  0.650561  0.113178  0.118130  1
  Al  Al13  1  0.114408  0.114408  0.125696  1
  Al  Al14  1  0.667149  0.667149  0.999189  1
  Al  Al15  1  0.671945  0.998853  0.664600  1
  Al  Al16  1  0.998853  0.671945  0.664600  1
  Al  Al17  1  0.667149  0.667149  0.666511  1
  Al  Al18  1  0.334019  0.334019  0.998833  1
  Al  Al19  1  0.324263  0.000076  0.337830  1
  Al  Al20  1  0.000076  0.324263  0.337830  1
  Al  Al21  1  0.334019  0.334019  0.333127  1
  Fe  Fe22  1  0.002625  0.002625  0.997375  1
  Fe  Fe23  1  0.996015  0.996015  0.503985  1
  Pd  Pd24  1  0.500018  0.000391  0.499469  1
  Pd  Pd25  1  0.000391  0.500018  0.499469  1
  Pd  Pd26  1  0.500038  0.500038  0.999962  1
  Pd  Pd27  1  0.000391  0.500018  0.000123  1
  Pd  Pd28  1  0.500018  0.000391  0.000123  1
