# generated using pymatgen
data_U3Ta(ZnRu2)4
_symmetry_space_group_name_H-M   'P 1'
_cell_length_a   5.97266701
_cell_length_b   7.09616100
_cell_length_c   5.97257100
_cell_angle_alpha   90.00030842
_cell_angle_beta   89.99702617
_cell_angle_gamma   89.99921410
_symmetry_Int_Tables_number   1
_chemical_formula_structural   U3Ta(ZnRu2)4
_chemical_formula_sum   'U3 Ta1 Zn4 Ru8'
_cell_volume   253.13551625
_cell_formula_units_Z   1
loop_
 _symmetry_equiv_pos_site_id
 _symmetry_equiv_pos_as_xyz
  1  'x, y, z'
loop_
 _atom_site_type_symbol
 _atom_site_label
 _atom_site_symmetry_multiplicity
 _atom_site_fract_x
 _atom_site_fract_y
 _atom_site_fract_z
 _atom_site_occupancy
  U  U0  1  0.999944  0.249985  0.999991  1
  U  U1  1  0.000054  0.750021  0.999999  1
  U  U2  1  0.499941  0.750016  0.499984  1
  Ta  Ta3  1  0.500059  0.249992  0.500013  1
  Zn  Zn4  1  0.499988  0.249999  0.999995  1
  Zn  Zn5  1  0.500030  0.750000  0.999992  1
  Zn  Zn6  1  0.999963  0.749999  0.499987  1
  Zn  Zn7  1  0.999983  0.250000  0.500007  1
  Ru  Ru8  1  0.750359  0.003683  0.249624  1
  Ru  Ru9  1  0.750355  0.496323  0.249635  1
  Ru  Ru10  1  0.249889  0.003668  0.249898  1
  Ru  Ru11  1  0.249889  0.496333  0.249906  1
  Ru  Ru12  1  0.750124  0.003618  0.750124  1
  Ru  Ru13  1  0.750121  0.496377  0.750131  1
  Ru  Ru14  1  0.249652  0.003705  0.750350  1
  Ru  Ru15  1  0.249644  0.496280  0.750361  1
