# generated using pymatgen
data_LaDy4(B3Ru)2
_symmetry_space_group_name_H-M   'P 1'
_cell_length_a   5.52099683
_cell_length_b   5.52099721
_cell_length_c   8.52796797
_cell_angle_alpha   71.11319874
_cell_angle_beta   71.11320005
_cell_angle_gamma   60.00002342
_symmetry_Int_Tables_number   1
_chemical_formula_structural   LaDy4(B3Ru)2
_chemical_formula_sum   'La1 Dy4 B6 Ru2'
_cell_volume   208.80175280
_cell_formula_units_Z   1
loop_
 _symmetry_equiv_pos_site_id
 _symmetry_equiv_pos_as_xyz
  1  'x, y, z'
loop_
 _atom_site_type_symbol
 _atom_site_label
 _atom_site_symmetry_multiplicity
 _atom_site_fract_x
 _atom_site_fract_y
 _atom_site_fract_z
 _atom_site_occupancy
  La  La0  1  0.000000  0.000000  0.000000  1
  Dy  Dy1  1  0.248130  0.248130  0.255608  1
  Dy  Dy2  1  0.751870  0.751870  0.744392  1
  Dy  Dy3  1  0.418798  0.418798  0.743608  1
  Dy  Dy4  1  0.581202  0.581202  0.256392  1
  B  B5  1  0.172350  0.827650  0.500000  1
  B  B6  1  0.827650  0.500000  0.500000  1
  B  B7  1  0.500000  0.172350  0.500000  1
  B  B8  1  0.172350  0.500000  0.500000  1
  B  B9  1  0.500000  0.827650  0.500000  1
  B  B10  1  0.827650  0.172350  0.500000  1
  Ru  Ru11  1  0.112523  0.112523  0.662432  1
  Ru  Ru12  1  0.887477  0.887477  0.337568  1
