# generated using pymatgen
data_DyY6RhI12
_symmetry_space_group_name_H-M   'P 1'
_cell_length_a   9.79073423
_cell_length_b   9.78798081
_cell_length_c   9.79050011
_cell_angle_alpha   106.84380726
_cell_angle_beta   106.86690320
_cell_angle_gamma   106.88387535
_symmetry_Int_Tables_number   1
_chemical_formula_structural   DyY6RhI12
_chemical_formula_sum   'Dy1 Y6 Rh1 I12'
_cell_volume   784.23656274
_cell_formula_units_Z   1
loop_
 _symmetry_equiv_pos_site_id
 _symmetry_equiv_pos_as_xyz
  1  'x, y, z'
loop_
 _atom_site_type_symbol
 _atom_site_label
 _atom_site_symmetry_multiplicity
 _atom_site_fract_x
 _atom_site_fract_y
 _atom_site_fract_z
 _atom_site_occupancy
  Dy  Dy0  1  0.294903  0.094267  0.022249  1
  Y  Y1  1  0.499887  0.499990  0.500049  1
  Y  Y2  1  0.905284  0.977580  0.703852  1
  Y  Y3  1  0.977558  0.703726  0.905284  1
  Y  Y4  1  0.704543  0.905468  0.977535  1
  Y  Y5  1  0.094678  0.022396  0.296046  1
  Y  Y6  1  0.022461  0.296160  0.094701  1
  Rh  Rh7  1  0.000932  0.000195  0.999959  1
  I  I8  1  0.536505  0.838417  0.613712  1
  I  I9  1  0.838118  0.613571  0.536549  1
  I  I10  1  0.613528  0.536611  0.838447  1
  I  I11  1  0.463397  0.161945  0.386733  1
  I  I12  1  0.161566  0.386399  0.463482  1
  I  I13  1  0.386394  0.463982  0.162179  1
  I  I14  1  0.675705  0.224348  0.070479  1
  I  I15  1  0.223774  0.069962  0.674053  1
  I  I16  1  0.070157  0.674531  0.224213  1
  I  I17  1  0.325271  0.775349  0.929483  1
  I  I18  1  0.775684  0.929710  0.325285  1
  I  I19  1  0.929653  0.325392  0.775709  1
