# generated using pymatgen
data_Li2Nd3MgAg2Os
_symmetry_space_group_name_H-M   'P 1'
_cell_length_a   7.71352415
_cell_length_b   7.76146242
_cell_length_c   4.06310100
_cell_angle_alpha   90.00000000
_cell_angle_beta   90.00000000
_cell_angle_gamma   119.50265583
_symmetry_Int_Tables_number   1
_chemical_formula_structural   Li2Nd3MgAg2Os
_chemical_formula_sum   'Li2 Nd3 Mg1 Ag2 Os1'
_cell_volume   211.70904164
_cell_formula_units_Z   1
loop_
 _symmetry_equiv_pos_site_id
 _symmetry_equiv_pos_as_xyz
  1  'x, y, z'
loop_
 _atom_site_type_symbol
 _atom_site_label
 _atom_site_symmetry_multiplicity
 _atom_site_fract_x
 _atom_site_fract_y
 _atom_site_fract_z
 _atom_site_occupancy
  Li  Li0  1  0.243136  0.996650  0.500000  1
  Li  Li1  1  0.000875  0.245667  0.500000  1
  Nd  Nd2  1  0.565989  0.970761  0.000000  1
  Nd  Nd3  1  0.032146  0.600295  0.000000  1
  Nd  Nd4  1  0.395405  0.426669  0.000000  1
  Mg  Mg5  1  0.752057  0.754518  0.500000  1
  Ag  Ag6  1  0.666956  0.333114  0.500000  1
  Ag  Ag7  1  0.002977  0.003673  0.000000  1
  Os  Os8  1  0.340461  0.668652  0.500000  1
