# generated using pymatgen
data_Sr6Cd2InRhO12
_symmetry_space_group_name_H-M   'P 1'
_cell_length_a   6.92440292
_cell_length_b   6.92440365
_cell_length_c   6.92440197
_cell_angle_alpha   90.98307876
_cell_angle_beta   90.98308716
_cell_angle_gamma   90.98308667
_symmetry_Int_Tables_number   1
_chemical_formula_structural   Sr6Cd2InRhO12
_chemical_formula_sum   'Sr6 Cd2 In1 Rh1 O12'
_cell_volume   331.85849077
_cell_formula_units_Z   1
loop_
 _symmetry_equiv_pos_site_id
 _symmetry_equiv_pos_as_xyz
  1  'x, y, z'
loop_
 _atom_site_type_symbol
 _atom_site_label
 _atom_site_symmetry_multiplicity
 _atom_site_fract_x
 _atom_site_fract_y
 _atom_site_fract_z
 _atom_site_occupancy
  Sr  Sr0  1  0.889004  0.613293  0.247785  1
  Sr  Sr1  1  0.110996  0.386707  0.752215  1
  Sr  Sr2  1  0.247785  0.889004  0.613293  1
  Sr  Sr3  1  0.613293  0.247785  0.889004  1
  Sr  Sr4  1  0.386707  0.752215  0.110996  1
  Sr  Sr5  1  0.752215  0.110996  0.386707  1
  Cd  Cd6  1  0.753149  0.753149  0.753149  1
  Cd  Cd7  1  0.246851  0.246851  0.246851  1
  In  In8  1  0.000000  0.000000  0.000000  1
  Rh  Rh9  1  0.500000  0.500000  0.500000  1
  O  O10  1  0.452997  0.574226  0.777983  1
  O  O11  1  0.574226  0.777983  0.452997  1
  O  O12  1  0.943425  0.298340  0.092870  1
  O  O13  1  0.547003  0.425774  0.222017  1
  O  O14  1  0.222017  0.547003  0.425774  1
  O  O15  1  0.056575  0.701660  0.907130  1
  O  O16  1  0.777983  0.452997  0.574226  1
  O  O17  1  0.701660  0.907130  0.056575  1
  O  O18  1  0.092870  0.943425  0.298340  1
  O  O19  1  0.907130  0.056575  0.701660  1
  O  O20  1  0.425774  0.222017  0.547003  1
  O  O21  1  0.298340  0.092870  0.943425  1
