# generated using pymatgen
data_ZrMoOsBr12
_symmetry_space_group_name_H-M   'P 1'
_cell_length_a   9.58227154
_cell_length_b   9.58227145
_cell_length_c   7.36633878
_cell_angle_alpha   69.49017869
_cell_angle_beta   69.49016860
_cell_angle_gamma   84.46366207
_symmetry_Int_Tables_number   1
_chemical_formula_structural   ZrMoOsBr12
_chemical_formula_sum   'Zr1 Mo1 Os1 Br12'
_cell_volume   593.07988582
_cell_formula_units_Z   1
loop_
 _symmetry_equiv_pos_site_id
 _symmetry_equiv_pos_as_xyz
  1  'x, y, z'
loop_
 _atom_site_type_symbol
 _atom_site_label
 _atom_site_symmetry_multiplicity
 _atom_site_fract_x
 _atom_site_fract_y
 _atom_site_fract_z
 _atom_site_occupancy
  Zr  Zr0  1  0.737819  0.737819  0.260309  1
  Mo  Mo1  1  0.231516  0.231516  0.770948  1
  Os  Os2  1  0.027743  0.027743  0.971869  1
  Br  Br3  1  0.961783  0.264851  0.731307  1
  Br  Br4  1  0.264851  0.961783  0.731307  1
  Br  Br5  1  0.040215  0.771315  0.228858  1
  Br  Br6  1  0.771315  0.040215  0.228858  1
  Br  Br7  1  0.199016  0.477782  0.804798  1
  Br  Br8  1  0.477782  0.199016  0.804798  1
  Br  Br9  1  0.792040  0.491335  0.205098  1
  Br  Br10  1  0.491335  0.792040  0.205098  1
  Br  Br11  1  0.126004  0.126004  0.181937  1
  Br  Br12  1  0.893218  0.893218  0.834678  1
  Br  Br13  1  0.655255  0.655255  0.646947  1
  Br  Br14  1  0.330110  0.330110  0.393192  1
