# generated using pymatgen
data_CsDyBeF6
_symmetry_space_group_name_H-M   'P 1'
_cell_length_a   5.93430700
_cell_length_b   6.68354531
_cell_length_c   7.53159498
_cell_angle_alpha   65.10014698
_cell_angle_beta   90.00000000
_cell_angle_gamma   90.00000000
_symmetry_Int_Tables_number   1
_chemical_formula_structural   CsDyBeF6
_chemical_formula_sum   'Cs2 Dy2 Be2 F12'
_cell_volume   270.95223792
_cell_formula_units_Z   2
loop_
 _symmetry_equiv_pos_site_id
 _symmetry_equiv_pos_as_xyz
  1  'x, y, z'
loop_
 _atom_site_type_symbol
 _atom_site_label
 _atom_site_symmetry_multiplicity
 _atom_site_fract_x
 _atom_site_fract_y
 _atom_site_fract_z
 _atom_site_occupancy
  Cs  Cs0  1  0.250000  0.096433  0.778333  1
  Cs  Cs1  1  0.750000  0.903567  0.221667  1
  Dy  Dy2  1  0.250000  0.401605  0.178102  1
  Dy  Dy3  1  0.750000  0.598395  0.821898  1
  Be  Be4  1  0.250000  0.767087  0.467364  1
  Be  Be5  1  0.750000  0.232913  0.532636  1
  F  F6  1  0.463147  0.729607  0.600579  1
  F  F7  1  0.536853  0.270393  0.399421  1
  F  F8  1  0.963147  0.270393  0.399421  1
  F  F9  1  0.036853  0.729607  0.600579  1
  F  F10  1  0.250000  0.608401  0.363431  1
  F  F11  1  0.750000  0.391599  0.636569  1
  F  F12  1  0.499807  0.677185  0.015202  1
  F  F13  1  0.500193  0.322815  0.984798  1
  F  F14  1  0.999807  0.322815  0.984798  1
  F  F15  1  0.000193  0.677185  0.015202  1
  F  F16  1  0.250000  0.011299  0.303293  1
  F  F17  1  0.750000  0.988701  0.696707  1
