# generated using pymatgen
data_Cs4Sn2SbAu6
_symmetry_space_group_name_H-M   'P 1'
_cell_length_a   10.85708787
_cell_length_b   10.85708710
_cell_length_c   10.85708833
_cell_angle_alpha   38.24563307
_cell_angle_beta   38.24563733
_cell_angle_gamma   38.24563594
_symmetry_Int_Tables_number   1
_chemical_formula_structural   Cs4Sn2SbAu6
_chemical_formula_sum   'Cs4 Sn2 Sb1 Au6'
_cell_volume   440.42352806
_cell_formula_units_Z   1
loop_
 _symmetry_equiv_pos_site_id
 _symmetry_equiv_pos_as_xyz
  1  'x, y, z'
loop_
 _atom_site_type_symbol
 _atom_site_label
 _atom_site_symmetry_multiplicity
 _atom_site_fract_x
 _atom_site_fract_y
 _atom_site_fract_z
 _atom_site_occupancy
  Cs  Cs0  1  0.812878  0.812878  0.812878  1
  Cs  Cs1  1  0.684618  0.684618  0.684618  1
  Cs  Cs2  1  0.315382  0.315382  0.315382  1
  Cs  Cs3  1  0.187122  0.187122  0.187122  1
  Sn  Sn4  1  0.450509  0.450509  0.450509  1
  Sn  Sn5  1  0.549491  0.549491  0.549491  1
  Sb  Sb6  1  0.000000  0.000000  0.000000  1
  Au  Au7  1  0.784112  0.784112  0.198093  1
  Au  Au8  1  0.215888  0.801907  0.215888  1
  Au  Au9  1  0.784112  0.198093  0.784112  1
  Au  Au10  1  0.801907  0.215888  0.215888  1
  Au  Au11  1  0.198093  0.784112  0.784112  1
  Au  Au12  1  0.215888  0.215888  0.801907  1
