# generated using pymatgen
data_RbYEr9(C2Br9)2
_symmetry_space_group_name_H-M   'P 1'
_cell_length_a   10.56833915
_cell_length_b   10.66360995
_cell_length_c   10.82838009
_cell_angle_alpha   113.47211596
_cell_angle_beta   87.58149229
_cell_angle_gamma   118.61941196
_symmetry_Int_Tables_number   1
_chemical_formula_structural   RbYEr9(C2Br9)2
_chemical_formula_sum   'Rb1 Y1 Er9 C4 Br18'
_cell_volume   965.70971791
_cell_formula_units_Z   1
loop_
 _symmetry_equiv_pos_site_id
 _symmetry_equiv_pos_as_xyz
  1  'x, y, z'
loop_
 _atom_site_type_symbol
 _atom_site_label
 _atom_site_symmetry_multiplicity
 _atom_site_fract_x
 _atom_site_fract_y
 _atom_site_fract_z
 _atom_site_occupancy
  Rb  Rb0  1  0.500011  0.999984  0.500039  1
  Y  Y1  1  0.886751  0.058760  0.999007  1
  Er  Er2  1  0.664078  0.718365  0.703811  1
  Er  Er3  1  0.282671  0.363284  0.011547  1
  Er  Er4  1  0.092411  0.404765  0.298935  1
  Er  Er5  1  0.959533  0.034450  0.331642  1
  Er  Er6  1  0.907624  0.594677  0.700693  1
  Er  Er7  1  0.111406  0.941734  0.000992  1
  Er  Er8  1  0.040680  0.965498  0.668397  1
  Er  Er9  1  0.336560  0.281927  0.296562  1
  Er  Er10  1  0.717484  0.636575  0.988430  1
  C  C11  1  0.158668  0.227966  0.123183  1
  C  C12  1  0.842829  0.771200  0.876789  1
  C  C13  1  0.923012  0.851616  0.795579  1
  C  C14  1  0.078485  0.147615  0.204446  1
  Br  Br15  1  0.450024  0.530195  0.832990  1
  Br  Br16  1  0.385171  0.039764  0.159874  1
  Br  Br17  1  0.777282  0.858135  0.501412  1
  Br  Br18  1  0.836741  0.314838  0.156223  1
  Br  Br19  1  0.550137  0.469929  0.166986  1
  Br  Br20  1  0.222773  0.141827  0.498672  1
  Br  Br21  1  0.316890  0.098542  0.828013  1
  Br  Br22  1  0.682370  0.900645  0.172876  1
  Br  Br23  1  0.974315  0.757929  0.171971  1
  Br  Br24  1  0.932832  0.301158  0.501085  1
  Br  Br25  1  0.026747  0.242972  0.827123  1
  Br  Br26  1  0.067274  0.698834  0.498837  1
  Br  Br27  1  0.261765  0.624054  0.187116  1
  Br  Br28  1  0.738105  0.375721  0.812840  1
  Br  Br29  1  0.640164  0.434111  0.500345  1
  Br  Br30  1  0.163093  0.687980  0.845628  1
  Br  Br31  1  0.612343  0.959052  0.838295  1
  Br  Br32  1  0.359771  0.565897  0.499662  1
