# generated using pymatgen
data_Ho4Tm8InNi5
_symmetry_space_group_name_H-M   'P 1'
_cell_length_a   8.23945487
_cell_length_b   8.23233976
_cell_length_c   8.23945400
_cell_angle_alpha   109.48612377
_cell_angle_beta   111.74921925
_cell_angle_gamma   107.24273789
_symmetry_Int_Tables_number   1
_chemical_formula_structural   Ho4Tm8InNi5
_chemical_formula_sum   'Ho4 Tm8 In1 Ni5'
_cell_volume   429.38668169
_cell_formula_units_Z   1
loop_
 _symmetry_equiv_pos_site_id
 _symmetry_equiv_pos_as_xyz
  1  'x, y, z'
loop_
 _atom_site_type_symbol
 _atom_site_label
 _atom_site_symmetry_multiplicity
 _atom_site_fract_x
 _atom_site_fract_y
 _atom_site_fract_z
 _atom_site_occupancy
  Ho  Ho0  1  0.294328  0.182680  0.477062  1
  Ho  Ho1  1  0.705672  0.817320  0.522938  1
  Ho  Ho2  1  0.294382  0.817320  0.111648  1
  Ho  Ho3  1  0.705618  0.182680  0.888352  1
  Tm  Tm4  1  0.626759  0.322167  0.304593  1
  Tm  Tm5  1  0.373241  0.677833  0.695407  1
  Tm  Tm6  1  0.017574  0.322167  0.695408  1
  Tm  Tm7  1  0.982426  0.677833  0.304592  1
  Tm  Tm8  1  0.212215  0.402777  0.190564  1
  Tm  Tm9  1  0.787785  0.597223  0.809436  1
  Tm  Tm10  1  0.212016  0.021557  0.809541  1
  Tm  Tm11  1  0.787984  0.978443  0.190459  1
  In  In12  1  0.500000  0.500000  0.000000  1
  Ni  Ni13  1  0.000107  0.366049  0.365942  1
  Ni  Ni14  1  0.999893  0.633951  0.634058  1
  Ni  Ni15  1  0.374618  0.873658  0.499040  1
  Ni  Ni16  1  0.625382  0.126342  0.500960  1
  Ni  Ni17  1  0.000000  0.000000  0.000000  1
