# generated using pymatgen
data_Dy4Ga5(Ir2Pd)3
_symmetry_space_group_name_H-M   'P 1'
_cell_length_a   5.59298684
_cell_length_b   5.57194844
_cell_length_c   23.92678500
_cell_angle_alpha   90.03975369
_cell_angle_beta   89.88720084
_cell_angle_gamma   120.41000431
_symmetry_Int_Tables_number   1
_chemical_formula_structural   Dy4Ga5(Ir2Pd)3
_chemical_formula_sum   'Dy8 Ga10 Ir12 Pd6'
_cell_volume   643.06645086
_cell_formula_units_Z   2
loop_
 _symmetry_equiv_pos_site_id
 _symmetry_equiv_pos_as_xyz
  1  'x, y, z'
loop_
 _atom_site_type_symbol
 _atom_site_label
 _atom_site_symmetry_multiplicity
 _atom_site_fract_x
 _atom_site_fract_y
 _atom_site_fract_z
 _atom_site_occupancy
  Dy  Dy0  1  0.336642  0.673163  0.529803  1
  Dy  Dy1  1  0.663358  0.326837  0.470197  1
  Dy  Dy2  1  0.670800  0.328680  0.031157  1
  Dy  Dy3  1  0.329200  0.671320  0.968843  1
  Dy  Dy4  1  0.333337  0.667425  0.676781  1
  Dy  Dy5  1  0.666663  0.332575  0.323219  1
  Dy  Dy6  1  0.667522  0.332707  0.184183  1
  Dy  Dy7  1  0.332478  0.667293  0.815817  1
  Ga  Ga8  1  0.000000  0.000000  0.000000  1
  Ga  Ga9  1  0.000000  0.000000  0.500000  1
  Ga  Ga10  1  0.326250  0.669429  0.167255  1
  Ga  Ga11  1  0.673750  0.330571  0.832745  1
  Ga  Ga12  1  0.659218  0.326336  0.667092  1
  Ga  Ga13  1  0.340782  0.673664  0.332908  1
  Ga  Ga14  1  0.007751  0.995247  0.165935  1
  Ga  Ga15  1  0.992249  0.004753  0.834065  1
  Ga  Ga16  1  0.008082  0.009882  0.665526  1
  Ga  Ga17  1  0.991918  0.990118  0.334474  1
  Ir  Ir18  1  0.170276  0.830638  0.081178  1
  Ir  Ir19  1  0.338928  0.168975  0.582437  1
  Ir  Ir20  1  0.829724  0.169362  0.918822  1
  Ir  Ir21  1  0.661072  0.831025  0.417563  1
  Ir  Ir22  1  0.830468  0.169294  0.583199  1
  Ir  Ir23  1  0.169532  0.830706  0.416801  1
  Ir  Ir24  1  0.165863  0.331095  0.250786  1
  Ir  Ir25  1  0.834137  0.668905  0.749214  1
  Ir  Ir26  1  0.668680  0.835581  0.248236  1
  Ir  Ir27  1  0.331320  0.164419  0.751764  1
  Ir  Ir28  1  0.166004  0.834361  0.251232  1
  Ir  Ir29  1  0.833996  0.165639  0.748768  1
  Pd  Pd30  1  0.170258  0.337054  0.083502  1
  Pd  Pd31  1  0.829742  0.662946  0.916498  1
  Pd  Pd32  1  0.663039  0.829808  0.083876  1
  Pd  Pd33  1  0.831189  0.662612  0.583883  1
  Pd  Pd34  1  0.336961  0.170192  0.916124  1
  Pd  Pd35  1  0.168811  0.337388  0.416117  1
