# generated using pymatgen
data_HoEr2In3Ni2Au
_symmetry_space_group_name_H-M   'P 1'
_cell_length_a   7.63712521
_cell_length_b   7.64063711
_cell_length_c   3.70182600
_cell_angle_alpha   90.00000000
_cell_angle_beta   90.00000000
_cell_angle_gamma   119.95765542
_symmetry_Int_Tables_number   1
_chemical_formula_structural   HoEr2In3Ni2Au
_chemical_formula_sum   'Ho1 Er2 In3 Ni2 Au1'
_cell_volume   187.15061965
_cell_formula_units_Z   1
loop_
 _symmetry_equiv_pos_site_id
 _symmetry_equiv_pos_as_xyz
  1  'x, y, z'
loop_
 _atom_site_type_symbol
 _atom_site_label
 _atom_site_symmetry_multiplicity
 _atom_site_fract_x
 _atom_site_fract_y
 _atom_site_fract_z
 _atom_site_occupancy
  Ho  Ho0  1  0.599752  0.017763  0.500000  1
  Er  Er1  1  0.982274  0.582017  0.500000  1
  Er  Er2  1  0.417995  0.400268  0.500000  1
  In  In3  1  0.253282  0.004250  0.000000  1
  In  In4  1  0.750711  0.746074  0.000000  1
  In  In5  1  0.996316  0.249665  0.000000  1
  Ni  Ni6  1  0.000063  0.999984  0.500000  1
  Ni  Ni7  1  0.666839  0.334080  0.000000  1
  Au  Au8  1  0.332769  0.665898  0.000000  1
