# generated using pymatgen
data_Eu4HgPt4Pb
_symmetry_space_group_name_H-M   'P 1'
_cell_length_a   7.86411900
_cell_length_b   7.86411900
_cell_length_c   7.95990400
_cell_angle_alpha   90.00000000
_cell_angle_beta   90.00000000
_cell_angle_gamma   90.00000000
_symmetry_Int_Tables_number   1
_chemical_formula_structural   Eu4HgPt4Pb
_chemical_formula_sum   'Eu8 Hg2 Pt8 Pb2'
_cell_volume   492.27522940
_cell_formula_units_Z   2
loop_
 _symmetry_equiv_pos_site_id
 _symmetry_equiv_pos_as_xyz
  1  'x, y, z'
loop_
 _atom_site_type_symbol
 _atom_site_label
 _atom_site_symmetry_multiplicity
 _atom_site_fract_x
 _atom_site_fract_y
 _atom_site_fract_z
 _atom_site_occupancy
  Eu  Eu0  1  0.666751  0.673879  0.000000  1
  Eu  Eu1  1  0.332654  0.325506  0.500000  1
  Eu  Eu2  1  0.826121  0.166751  0.500000  1
  Eu  Eu3  1  0.667346  0.674494  0.500000  1
  Eu  Eu4  1  0.333249  0.326121  0.000000  1
  Eu  Eu5  1  0.173879  0.833249  0.500000  1
  Eu  Eu6  1  0.825506  0.167346  0.000000  1
  Eu  Eu7  1  0.174494  0.832654  0.000000  1
  Hg  Hg8  1  0.500000  0.000000  0.750000  1
  Hg  Hg9  1  0.500000  0.000000  0.250000  1
  Pt  Pt10  1  0.875076  0.869640  0.750584  1
  Pt  Pt11  1  0.124924  0.130360  0.750584  1
  Pt  Pt12  1  0.630360  0.375076  0.749416  1
  Pt  Pt13  1  0.630360  0.375076  0.250584  1
  Pt  Pt14  1  0.369640  0.624924  0.250584  1
  Pt  Pt15  1  0.124924  0.130360  0.249416  1
  Pt  Pt16  1  0.875076  0.869640  0.249416  1
  Pt  Pt17  1  0.369640  0.624924  0.749416  1
  Pb  Pb18  1  0.000000  0.500000  0.750000  1
  Pb  Pb19  1  0.000000  0.500000  0.250000  1
