# generated using pymatgen
data_CsHf3Zr3BI14
_symmetry_space_group_name_H-M   'P 1'
_cell_length_a   10.98474935
_cell_length_b   10.97964990
_cell_length_c   13.17836700
_cell_angle_alpha   90.00000000
_cell_angle_beta   90.00000000
_cell_angle_gamma   94.45843423
_symmetry_Int_Tables_number   1
_chemical_formula_structural   CsHf3Zr3BI14
_chemical_formula_sum   'Cs2 Hf6 Zr6 B2 I28'
_cell_volume   1584.61612258
_cell_formula_units_Z   2
loop_
 _symmetry_equiv_pos_site_id
 _symmetry_equiv_pos_as_xyz
  1  'x, y, z'
loop_
 _atom_site_type_symbol
 _atom_site_label
 _atom_site_symmetry_multiplicity
 _atom_site_fract_x
 _atom_site_fract_y
 _atom_site_fract_z
 _atom_site_occupancy
  Cs  Cs0  1  0.999726  0.999973  0.000215  1
  Cs  Cs1  1  0.500274  0.500027  0.500215  1
  Hf  Hf2  1  0.870495  0.870942  0.595080  1
  Hf  Hf3  1  0.371729  0.371022  0.904421  1
  Hf  Hf4  1  0.333199  0.542694  0.107478  1
  Hf  Hf5  1  0.128271  0.128978  0.404421  1
  Hf  Hf6  1  0.166801  0.957306  0.607478  1
  Hf  Hf7  1  0.629505  0.629058  0.095080  1
  Zr  Zr8  1  0.457615  0.667298  0.891774  1
  Zr  Zr9  1  0.666831  0.457314  0.892560  1
  Zr  Zr10  1  0.956488  0.167936  0.607764  1
  Zr  Zr11  1  0.833169  0.042686  0.392560  1
  Zr  Zr12  1  0.543512  0.332064  0.107764  1
  Zr  Zr13  1  0.042385  0.832702  0.391774  1
  B  B14  1  0.498112  0.500523  0.001471  1
  B  B15  1  0.001888  0.999477  0.501471  1
  I  I16  1  0.464854  0.710400  0.245343  1
  I  I17  1  0.532781  0.287776  0.753346  1
  I  I18  1  0.897177  0.396243  0.750125  1
  I  I19  1  0.357073  0.109792  0.506261  1
  I  I20  1  0.345275  0.348336  0.256868  1
  I  I21  1  0.142927  0.390208  0.006261  1
  I  I22  1  0.154725  0.151664  0.756868  1
  I  I23  1  0.750094  0.249717  0.499817  1
  I  I24  1  0.654412  0.654314  0.741706  1
  I  I25  1  0.888225  0.641223  0.495259  1
  I  I26  1  0.249277  0.752472  0.501550  1
  I  I27  1  0.035146  0.789600  0.745343  1
  I  I28  1  0.611775  0.858777  0.995259  1
  I  I29  1  0.105876  0.602515  0.249074  1
  I  I30  1  0.712053  0.467660  0.246598  1
  I  I31  1  0.749906  0.250283  0.999817  1
  I  I32  1  0.394124  0.897485  0.749074  1
  I  I33  1  0.858841  0.612233  0.995142  1
  I  I34  1  0.287681  0.532401  0.753545  1
  I  I35  1  0.112446  0.358651  0.504605  1
  I  I36  1  0.250723  0.747528  0.001550  1
  I  I37  1  0.787947  0.032340  0.746598  1
  I  I38  1  0.641159  0.887767  0.495142  1
  I  I39  1  0.212319  0.967599  0.253545  1
  I  I40  1  0.845588  0.845686  0.241706  1
  I  I41  1  0.967219  0.212224  0.253346  1
  I  I42  1  0.387554  0.141349  0.004605  1
  I  I43  1  0.602823  0.103757  0.250125  1
