# generated using pymatgen
data_Na3Co2P6Ir7
_symmetry_space_group_name_H-M   'P 1'
_cell_length_a   3.88127600
_cell_length_b   11.05710446
_cell_length_c   12.51235000
_cell_angle_alpha   89.83212995
_cell_angle_beta   90.00000000
_cell_angle_gamma   90.00000000
_symmetry_Int_Tables_number   1
_chemical_formula_structural   Na3Co2P6Ir7
_chemical_formula_sum   'Na6 Co4 P12 Ir14'
_cell_volume   536.97363086
_cell_formula_units_Z   2
loop_
 _symmetry_equiv_pos_site_id
 _symmetry_equiv_pos_as_xyz
  1  'x, y, z'
loop_
 _atom_site_type_symbol
 _atom_site_label
 _atom_site_symmetry_multiplicity
 _atom_site_fract_x
 _atom_site_fract_y
 _atom_site_fract_z
 _atom_site_occupancy
  Na  Na0  1  0.000000  0.500909  0.528138  1
  Na  Na1  1  0.500000  0.000260  0.470656  1
  Na  Na2  1  0.500000  0.827138  0.201658  1
  Na  Na3  1  0.000000  0.676468  0.798556  1
  Na  Na4  1  0.000000  0.324813  0.798098  1
  Na  Na5  1  0.500000  0.170919  0.201421  1
  Co  Co6  1  0.000000  0.499478  0.996110  1
  Co  Co7  1  0.500000  0.999641  0.008724  1
  Co  Co8  1  0.000000  0.161598  0.006049  1
  Co  Co9  1  0.000000  0.837511  0.006011  1
  P  P10  1  0.500000  0.313014  0.621687  1
  P  P11  1  0.500000  0.689534  0.622693  1
  P  P12  1  0.000000  0.187491  0.377669  1
  P  P13  1  0.000000  0.811742  0.377395  1
  P  P14  1  0.500000  0.500191  0.883207  1
  P  P15  1  0.000000  0.999267  0.112493  1
  P  P16  1  0.500000  0.848576  0.897907  1
  P  P17  1  0.500000  0.150948  0.897523  1
  P  P18  1  0.000000  0.661314  0.102882  1
  P  P19  1  0.000000  0.336502  0.102064  1
  P  P20  1  0.500000  0.499830  0.345896  1
  P  P21  1  0.000000  0.001089  0.655373  1
  Ir  Ir22  1  0.500000  0.299539  0.430395  1
  Ir  Ir23  1  0.500000  0.701947  0.430993  1
  Ir  Ir24  1  0.000000  0.201644  0.569023  1
  Ir  Ir25  1  0.000000  0.800253  0.569295  1
  Ir  Ir26  1  0.500000  0.876037  0.714530  1
  Ir  Ir27  1  0.500000  0.125971  0.714062  1
  Ir  Ir28  1  0.000000  0.624885  0.285277  1
  Ir  Ir29  1  0.000000  0.372255  0.283534  1
  Ir  Ir30  1  0.500000  0.328611  0.994282  1
  Ir  Ir31  1  0.500000  0.670387  0.994832  1
  Ir  Ir32  1  0.500000  0.498898  0.161114  1
  Ir  Ir33  1  0.000000  0.000784  0.842868  1
  Ir  Ir34  1  0.500000  0.500985  0.702036  1
  Ir  Ir35  1  0.000000  0.999568  0.295554  1
