# generated using pymatgen
data_CaTh7H30
_symmetry_space_group_name_H-M   'P 1'
_cell_length_a   7.89190566
_cell_length_b   7.89190588
_cell_length_c   7.89190561
_cell_angle_alpha   109.42378640
_cell_angle_beta   109.42377993
_cell_angle_gamma   109.42378959
_symmetry_Int_Tables_number   1
_chemical_formula_structural   CaTh7H30
_chemical_formula_sum   'Ca1 Th7 H30'
_cell_volume   379.03923246
_cell_formula_units_Z   1
loop_
 _symmetry_equiv_pos_site_id
 _symmetry_equiv_pos_as_xyz
  1  'x, y, z'
loop_
 _atom_site_type_symbol
 _atom_site_label
 _atom_site_symmetry_multiplicity
 _atom_site_fract_x
 _atom_site_fract_y
 _atom_site_fract_z
 _atom_site_occupancy
  Ca  Ca0  1  0.919012  0.919012  0.919012  1
  Th  Th1  1  0.499800  0.998715  0.081331  1
  Th  Th2  1  0.998715  0.081331  0.499800  1
  Th  Th3  1  0.081331  0.499800  0.998715  1
  Th  Th4  1  0.999327  0.585107  0.501612  1
  Th  Th5  1  0.585107  0.501612  0.999327  1
  Th  Th6  1  0.501612  0.999327  0.585107  1
  Th  Th7  1  0.417454  0.417454  0.417454  1
  H  H8  1  0.652562  0.970872  0.373464  1
  H  H9  1  0.218113  0.315838  0.846165  1
  H  H10  1  0.184285  0.403439  0.532884  1
  H  H11  1  0.103261  0.295345  0.138943  1
  H  H12  1  0.295345  0.138943  0.103261  1
  H  H13  1  0.138943  0.103261  0.295345  1
  H  H14  1  0.463409  0.152366  0.869900  1
  H  H15  1  0.717444  0.347422  0.814331  1
  H  H16  1  0.629397  0.374886  0.251024  1
  H  H17  1  0.251024  0.629397  0.374886  1
  H  H18  1  0.742773  0.870862  0.135425  1
  H  H19  1  0.135425  0.742773  0.870862  1
  H  H20  1  0.374886  0.251024  0.629397  1
  H  H21  1  0.870862  0.135425  0.742773  1
  H  H22  1  0.777397  0.582100  0.618112  1
  H  H23  1  0.315838  0.846165  0.218113  1
  H  H24  1  0.373464  0.652562  0.970872  1
  H  H25  1  0.970872  0.373464  0.652562  1
  H  H26  1  0.532884  0.184285  0.403439  1
  H  H27  1  0.403439  0.532884  0.184285  1
  H  H28  1  0.846165  0.218113  0.315838  1
  H  H29  1  0.901578  0.679150  0.034893  1
  H  H30  1  0.814331  0.717444  0.347422  1
  H  H31  1  0.152366  0.869900  0.463409  1
  H  H32  1  0.679150  0.034893  0.901578  1
  H  H33  1  0.347422  0.814331  0.717444  1
  H  H34  1  0.869900  0.463409  0.152366  1
  H  H35  1  0.618112  0.777397  0.582100  1
  H  H36  1  0.582100  0.618112  0.777397  1
  H  H37  1  0.034893  0.901578  0.679150  1
