# generated using pymatgen
data_Hf2Zr3Nb5(ZnSn3)2
_symmetry_space_group_name_H-M   'P 1'
_cell_length_a   8.49739106
_cell_length_b   8.49739043
_cell_length_c   5.74941500
_cell_angle_alpha   90.00000000
_cell_angle_beta   90.00000000
_cell_angle_gamma   120.16149889
_symmetry_Int_Tables_number   1
_chemical_formula_structural   Hf2Zr3Nb5(ZnSn3)2
_chemical_formula_sum   'Hf2 Zr3 Nb5 Zn2 Sn6'
_cell_volume   358.93549492
_cell_formula_units_Z   1
loop_
 _symmetry_equiv_pos_site_id
 _symmetry_equiv_pos_as_xyz
  1  'x, y, z'
loop_
 _atom_site_type_symbol
 _atom_site_label
 _atom_site_symmetry_multiplicity
 _atom_site_fract_x
 _atom_site_fract_y
 _atom_site_fract_z
 _atom_site_occupancy
  Hf  Hf0  1  0.276976  0.003441  0.750000  1
  Hf  Hf1  1  0.003441  0.276976  0.750000  1
  Zr  Zr2  1  0.264873  0.264873  0.250000  1
  Zr  Zr3  1  0.731913  0.001255  0.250000  1
  Zr  Zr4  1  0.001255  0.731913  0.250000  1
  Nb  Nb5  1  0.665599  0.332968  0.999657  1
  Nb  Nb6  1  0.332968  0.665599  0.999657  1
  Nb  Nb7  1  0.332968  0.665599  0.500343  1
  Nb  Nb8  1  0.665599  0.332968  0.500343  1
  Nb  Nb9  1  0.726854  0.726854  0.750000  1
  Zn  Zn10  1  0.996122  0.996122  0.987597  1
  Zn  Zn11  1  0.996122  0.996122  0.512403  1
  Sn  Sn12  1  0.391081  0.391081  0.750000  1
  Sn  Sn13  1  0.616395  0.997972  0.750000  1
  Sn  Sn14  1  0.997972  0.616395  0.750000  1
  Sn  Sn15  1  0.611964  0.611964  0.250000  1
  Sn  Sn16  1  0.388010  0.999889  0.250000  1
  Sn  Sn17  1  0.999889  0.388010  0.250000  1
