# generated using pymatgen
data_Y4Al17Pd7
_symmetry_space_group_name_H-M   'P 1'
_cell_length_a   7.61475615
_cell_length_b   7.61475592
_cell_length_c   9.48022900
_cell_angle_alpha   90.00000000
_cell_angle_beta   90.00000000
_cell_angle_gamma   118.73986440
_symmetry_Int_Tables_number   1
_chemical_formula_structural   Y4Al17Pd7
_chemical_formula_sum   'Y4 Al17 Pd7'
_cell_volume   481.98909874
_cell_formula_units_Z   1
loop_
 _symmetry_equiv_pos_site_id
 _symmetry_equiv_pos_as_xyz
  1  'x, y, z'
loop_
 _atom_site_type_symbol
 _atom_site_label
 _atom_site_symmetry_multiplicity
 _atom_site_fract_x
 _atom_site_fract_y
 _atom_site_fract_z
 _atom_site_occupancy
  Y  Y0  1  0.991554  0.674905  0.250000  1
  Y  Y1  1  0.006738  0.325666  0.750000  1
  Y  Y2  1  0.674905  0.991554  0.250000  1
  Y  Y3  1  0.325666  0.006738  0.750000  1
  Al  Al4  1  0.861158  0.861158  0.750000  1
  Al  Al5  1  0.004755  0.328791  0.083237  1
  Al  Al6  1  0.999345  0.661431  0.921809  1
  Al  Al7  1  0.999345  0.661431  0.578191  1
  Al  Al8  1  0.328791  0.004755  0.416763  1
  Al  Al9  1  0.004755  0.328791  0.416763  1
  Al  Al10  1  0.661431  0.999345  0.578191  1
  Al  Al11  1  0.661431  0.999345  0.921809  1
  Al  Al12  1  0.328791  0.004755  0.083237  1
  Al  Al13  1  0.330412  0.330412  0.540905  1
  Al  Al14  1  0.665875  0.665875  0.447279  1
  Al  Al15  1  0.665875  0.665875  0.052721  1
  Al  Al16  1  0.330412  0.330412  0.959095  1
  Al  Al17  1  0.341670  0.550324  0.250000  1
  Al  Al18  1  0.656341  0.448216  0.750000  1
  Al  Al19  1  0.550324  0.341670  0.250000  1
  Al  Al20  1  0.448216  0.656341  0.750000  1
  Pd  Pd21  1  0.166857  0.166857  0.250000  1
  Pd  Pd22  1  0.676612  0.328125  0.999697  1
  Pd  Pd23  1  0.328125  0.676612  0.999697  1
  Pd  Pd24  1  0.328125  0.676612  0.500303  1
  Pd  Pd25  1  0.676612  0.328125  0.500303  1
  Pd  Pd26  1  0.992942  0.992942  0.988978  1
  Pd  Pd27  1  0.992942  0.992942  0.511022  1
