# generated using pymatgen
data_LaNd2Sn3Hg2
_symmetry_space_group_name_H-M   'P 1'
_cell_length_a   6.64557496
_cell_length_b   6.64557573
_cell_length_c   10.46437300
_cell_angle_alpha   90.00000000
_cell_angle_beta   90.00000000
_cell_angle_gamma   103.02704317
_symmetry_Int_Tables_number   1
_chemical_formula_structural   LaNd2Sn3Hg2
_chemical_formula_sum   'La2 Nd4 Sn6 Hg4'
_cell_volume   450.25126484
_cell_formula_units_Z   2
loop_
 _symmetry_equiv_pos_site_id
 _symmetry_equiv_pos_as_xyz
  1  'x, y, z'
loop_
 _atom_site_type_symbol
 _atom_site_label
 _atom_site_symmetry_multiplicity
 _atom_site_fract_x
 _atom_site_fract_y
 _atom_site_fract_z
 _atom_site_occupancy
  La  La0  1  0.795253  0.204747  0.500000  1
  La  La1  1  0.795253  0.204747  0.000000  1
  Nd  Nd2  1  0.625317  0.627225  0.250000  1
  Nd  Nd3  1  0.372775  0.374683  0.750000  1
  Nd  Nd4  1  0.204816  0.795184  0.500000  1
  Nd  Nd5  1  0.204816  0.795184  0.000000  1
  Sn  Sn6  1  0.017468  0.014321  0.250000  1
  Sn  Sn7  1  0.985679  0.982532  0.750000  1
  Sn  Sn8  1  0.487340  0.063349  0.250000  1
  Sn  Sn9  1  0.936651  0.512660  0.750000  1
  Sn  Sn10  1  0.507481  0.933315  0.750000  1
  Sn  Sn11  1  0.066685  0.492519  0.250000  1
  Hg  Hg12  1  0.313205  0.312971  0.043986  1
  Hg  Hg13  1  0.687029  0.686795  0.956014  1
  Hg  Hg14  1  0.313205  0.312971  0.456014  1
  Hg  Hg15  1  0.687029  0.686795  0.543986  1
