# generated using pymatgen
data_Rb2GdF5
_symmetry_space_group_name_H-M   'P 1'
_cell_length_a   6.98099400
_cell_length_b   7.59245700
_cell_length_c   11.54634000
_cell_angle_alpha   90.00000000
_cell_angle_beta   90.00000000
_cell_angle_gamma   90.00000000
_symmetry_Int_Tables_number   1
_chemical_formula_structural   Rb2GdF5
_chemical_formula_sum   'Rb8 Gd4 F20'
_cell_volume   611.98946700
_cell_formula_units_Z   4
loop_
 _symmetry_equiv_pos_site_id
 _symmetry_equiv_pos_as_xyz
  1  'x, y, z'
loop_
 _atom_site_type_symbol
 _atom_site_label
 _atom_site_symmetry_multiplicity
 _atom_site_fract_x
 _atom_site_fract_y
 _atom_site_fract_z
 _atom_site_occupancy
  Rb  Rb0  1  0.535749  0.997077  0.829133  1
  Rb  Rb1  1  0.464251  0.497077  0.170867  1
  Rb  Rb2  1  0.964251  0.997077  0.329133  1
  Rb  Rb3  1  0.035749  0.497077  0.670867  1
  Rb  Rb4  1  0.535749  0.502923  0.829133  1
  Rb  Rb5  1  0.464251  0.002923  0.170867  1
  Rb  Rb6  1  0.964251  0.502923  0.329133  1
  Rb  Rb7  1  0.035749  0.002923  0.670867  1
  Gd  Gd8  1  0.560012  0.250000  0.501713  1
  Gd  Gd9  1  0.439988  0.750000  0.498287  1
  Gd  Gd10  1  0.939988  0.250000  0.001713  1
  Gd  Gd11  1  0.060012  0.750000  0.998287  1
  F  F12  1  0.879423  0.750000  0.837082  1
  F  F13  1  0.120577  0.250000  0.162918  1
  F  F14  1  0.620577  0.750000  0.337082  1
  F  F15  1  0.379423  0.250000  0.662918  1
  F  F16  1  0.846620  0.250000  0.814868  1
  F  F17  1  0.153380  0.750000  0.185132  1
  F  F18  1  0.653380  0.250000  0.314868  1
  F  F19  1  0.346620  0.750000  0.685132  1
  F  F20  1  0.643807  0.965857  0.571229  1
  F  F21  1  0.356193  0.465857  0.428771  1
  F  F22  1  0.856193  0.965857  0.071229  1
  F  F23  1  0.143807  0.465857  0.928771  1
  F  F24  1  0.381379  0.750000  0.985664  1
  F  F25  1  0.618621  0.250000  0.014336  1
  F  F26  1  0.118621  0.750000  0.485664  1
  F  F27  1  0.881379  0.250000  0.514336  1
  F  F28  1  0.143807  0.034143  0.928771  1
  F  F29  1  0.856193  0.534143  0.071229  1
  F  F30  1  0.356193  0.034143  0.428771  1
  F  F31  1  0.643807  0.534143  0.571229  1
