# generated using pymatgen
data_TmGe(AsRh2)3
_symmetry_space_group_name_H-M   'P 1'
_cell_length_a   7.26747900
_cell_length_b   7.26747924
_cell_length_c   3.81008500
_cell_angle_alpha   90.00000000
_cell_angle_beta   90.00000000
_cell_angle_gamma   119.99999436
_symmetry_Int_Tables_number   1
_chemical_formula_structural   TmGe(AsRh2)3
_chemical_formula_sum   'Tm1 Ge1 As3 Rh6'
_cell_volume   174.27412313
_cell_formula_units_Z   1
loop_
 _symmetry_equiv_pos_site_id
 _symmetry_equiv_pos_as_xyz
  1  'x, y, z'
loop_
 _atom_site_type_symbol
 _atom_site_label
 _atom_site_symmetry_multiplicity
 _atom_site_fract_x
 _atom_site_fract_y
 _atom_site_fract_z
 _atom_site_occupancy
  Tm  Tm0  1  0.000000  0.000000  0.000000  1
  Ge  Ge1  1  0.333333  0.666667  0.000000  1
  As  As2  1  0.809521  0.190479  0.500000  1
  As  As3  1  0.809521  0.619041  0.500000  1
  As  As4  1  0.380959  0.190479  0.500000  1
  Rh  Rh5  1  0.534472  0.465528  0.000000  1
  Rh  Rh6  1  0.534472  0.068943  0.000000  1
  Rh  Rh7  1  0.931057  0.465528  0.000000  1
  Rh  Rh8  1  0.196469  0.803531  0.500000  1
  Rh  Rh9  1  0.196469  0.392939  0.500000  1
  Rh  Rh10  1  0.607061  0.803531  0.500000  1
