# generated using pymatgen
data_Al2Ag3Au5
_symmetry_space_group_name_H-M   'P 1'
_cell_length_a   7.04507279
_cell_length_b   6.98675786
_cell_length_c   7.13974756
_cell_angle_alpha   89.98880611
_cell_angle_beta   90.19099468
_cell_angle_gamma   90.20037255
_symmetry_Int_Tables_number   1
_chemical_formula_structural   Al2Ag3Au5
_chemical_formula_sum   'Al4 Ag6 Au10'
_cell_volume   351.43010155
_cell_formula_units_Z   2
loop_
 _symmetry_equiv_pos_site_id
 _symmetry_equiv_pos_as_xyz
  1  'x, y, z'
loop_
 _atom_site_type_symbol
 _atom_site_label
 _atom_site_symmetry_multiplicity
 _atom_site_fract_x
 _atom_site_fract_y
 _atom_site_fract_z
 _atom_site_occupancy
  Al  Al0  1  0.067026  0.073141  0.069466  1
  Al  Al1  1  0.434918  0.940311  0.560631  1
  Al  Al2  1  0.561254  0.428529  0.931433  1
  Al  Al3  1  0.940534  0.558015  0.438186  1
  Ag  Ag4  1  0.792153  0.950090  0.380703  1
  Ag  Ag5  1  0.382507  0.789489  0.952175  1
  Ag  Ag6  1  0.953851  0.381979  0.789832  1
  Ag  Ag7  1  0.547193  0.619921  0.291734  1
  Ag  Ag8  1  0.878444  0.708448  0.047525  1
  Ag  Ag9  1  0.045086  0.881237  0.710179  1
  Au  Au10  1  0.683711  0.683966  0.681214  1
  Au  Au11  1  0.812061  0.322557  0.182565  1
  Au  Au12  1  0.177975  0.815846  0.312565  1
  Au  Au13  1  0.312369  0.176996  0.814821  1
  Au  Au14  1  0.115849  0.215312  0.448779  1
  Au  Au15  1  0.618388  0.286980  0.554354  1
  Au  Au16  1  0.453842  0.111654  0.217743  1
  Au  Au17  1  0.286670  0.556950  0.617038  1
  Au  Au18  1  0.217834  0.451032  0.110075  1
  Au  Au19  1  0.718334  0.047550  0.888980  1
