# generated using pymatgen
data_Tb2Nd(SiPd)3
_symmetry_space_group_name_H-M   'P 1'
_cell_length_a   4.39538000
_cell_length_b   7.47236800
_cell_length_c   21.36414800
_cell_angle_alpha   90.00000000
_cell_angle_beta   90.00000000
_cell_angle_gamma   90.00000000
_symmetry_Int_Tables_number   1
_chemical_formula_structural   Tb2Nd(SiPd)3
_chemical_formula_sum   'Tb8 Nd4 Si12 Pd12'
_cell_volume   701.68187341
_cell_formula_units_Z   4
loop_
 _symmetry_equiv_pos_site_id
 _symmetry_equiv_pos_as_xyz
  1  'x, y, z'
loop_
 _atom_site_type_symbol
 _atom_site_label
 _atom_site_symmetry_multiplicity
 _atom_site_fract_x
 _atom_site_fract_y
 _atom_site_fract_z
 _atom_site_occupancy
  Tb  Tb0  1  0.250000  0.792441  0.165445  1
  Tb  Tb1  1  0.750000  0.207559  0.834555  1
  Tb  Tb2  1  0.750000  0.292441  0.334555  1
  Tb  Tb3  1  0.250000  0.707559  0.665445  1
  Tb  Tb4  1  0.250000  0.710512  0.001090  1
  Tb  Tb5  1  0.750000  0.289488  0.998910  1
  Tb  Tb6  1  0.750000  0.210512  0.498910  1
  Tb  Tb7  1  0.250000  0.789488  0.501090  1
  Nd  Nd8  1  0.250000  0.704595  0.332947  1
  Nd  Nd9  1  0.750000  0.295405  0.667053  1
  Nd  Nd10  1  0.750000  0.204595  0.167053  1
  Nd  Nd11  1  0.250000  0.795405  0.832947  1
  Si  Si12  1  0.250000  0.087299  0.069879  1
  Si  Si13  1  0.750000  0.912701  0.930121  1
  Si  Si14  1  0.750000  0.587299  0.430121  1
  Si  Si15  1  0.250000  0.412701  0.569879  1
  Si  Si16  1  0.250000  0.087494  0.272829  1
  Si  Si17  1  0.750000  0.912506  0.727171  1
  Si  Si18  1  0.750000  0.587494  0.227171  1
  Si  Si19  1  0.250000  0.412506  0.772829  1
  Si  Si20  1  0.250000  0.088811  0.395996  1
  Si  Si21  1  0.750000  0.911189  0.604004  1
  Si  Si22  1  0.750000  0.588811  0.104004  1
  Si  Si23  1  0.250000  0.411189  0.895996  1
  Pd  Pd24  1  0.250000  0.418677  0.237487  1
  Pd  Pd25  1  0.750000  0.581323  0.762513  1
  Pd  Pd26  1  0.750000  0.918677  0.262513  1
  Pd  Pd27  1  0.250000  0.081323  0.737487  1
  Pd  Pd28  1  0.250000  0.414737  0.438964  1
  Pd  Pd29  1  0.750000  0.585263  0.561036  1
  Pd  Pd30  1  0.750000  0.914737  0.061036  1
  Pd  Pd31  1  0.250000  0.085263  0.938964  1
  Pd  Pd32  1  0.250000  0.422483  0.091818  1
  Pd  Pd33  1  0.750000  0.577517  0.908182  1
  Pd  Pd34  1  0.750000  0.922483  0.408182  1
  Pd  Pd35  1  0.250000  0.077517  0.591818  1
