# generated using pymatgen
data_Th3Al2SnIr3
_symmetry_space_group_name_H-M   'P 1'
_cell_length_a   7.43709800
_cell_length_b   7.33601680
_cell_length_c   4.12393900
_cell_angle_alpha   90.00000000
_cell_angle_beta   90.00000000
_cell_angle_gamma   120.45685406
_symmetry_Int_Tables_number   1
_chemical_formula_structural   Th3Al2SnIr3
_chemical_formula_sum   'Th3 Al2 Sn1 Ir3'
_cell_volume   193.94961353
_cell_formula_units_Z   1
loop_
 _symmetry_equiv_pos_site_id
 _symmetry_equiv_pos_as_xyz
  1  'x, y, z'
loop_
 _atom_site_type_symbol
 _atom_site_label
 _atom_site_symmetry_multiplicity
 _atom_site_fract_x
 _atom_site_fract_y
 _atom_site_fract_z
 _atom_site_occupancy
  Th  Th0  1  0.410104  0.000000  0.500000  1
  Th  Th1  1  0.003183  0.422412  0.500000  1
  Th  Th2  1  0.580771  0.577588  0.500000  1
  Al  Al3  1  0.002181  0.765873  0.000000  1
  Al  Al4  1  0.236308  0.234127  0.000000  1
  Sn  Sn5  1  0.761061  0.000000  0.000000  1
  Ir  Ir6  1  0.321175  0.657049  0.000000  1
  Ir  Ir7  1  0.664127  0.342951  0.000000  1
  Ir  Ir8  1  0.021091  0.000000  0.500000  1
