# generated using pymatgen
data_K6TmAgF12
_symmetry_space_group_name_H-M   'P 1'
_cell_length_a   6.54016624
_cell_length_b   6.31025058
_cell_length_c   10.98193900
_cell_angle_alpha   55.31012059
_cell_angle_beta   89.80406880
_cell_angle_gamma   90.03578970
_symmetry_Int_Tables_number   1
_chemical_formula_structural   K6TmAgF12
_chemical_formula_sum   'K6 Tm1 Ag1 F12'
_cell_volume   372.65828352
_cell_formula_units_Z   1
loop_
 _symmetry_equiv_pos_site_id
 _symmetry_equiv_pos_as_xyz
  1  'x, y, z'
loop_
 _atom_site_type_symbol
 _atom_site_label
 _atom_site_symmetry_multiplicity
 _atom_site_fract_x
 _atom_site_fract_y
 _atom_site_fract_z
 _atom_site_occupancy
  K  K0  1  0.500000  0.500000  0.000000  1
  K  K1  1  0.000000  0.500000  0.500000  1
  K  K2  1  0.052909  0.739138  0.747526  1
  K  K3  1  0.947091  0.260862  0.252474  1
  K  K4  1  0.550021  0.274319  0.740197  1
  K  K5  1  0.449979  0.725681  0.259803  1
  Tm  Tm6  1  0.000000  0.000000  0.000000  1
  Ag  Ag7  1  0.500000  0.000000  0.500000  1
  F  F8  1  0.767847  0.768203  0.563675  1
  F  F9  1  0.232153  0.231797  0.436325  1
  F  F10  1  0.272389  0.233983  0.931423  1
  F  F11  1  0.727611  0.766017  0.068577  1
  F  F12  1  0.449020  0.885432  0.720690  1
  F  F13  1  0.550980  0.114568  0.279310  1
  F  F14  1  0.947761  0.116120  0.776434  1
  F  F15  1  0.052239  0.883880  0.223566  1
  F  F16  1  0.322831  0.680029  0.546190  1
  F  F17  1  0.677169  0.319971  0.453810  1
  F  F18  1  0.826643  0.328124  0.950889  1
  F  F19  1  0.173357  0.671876  0.049111  1
