# generated using pymatgen
data_SrNpPdSe3
_symmetry_space_group_name_H-M   'P 1'
_cell_length_a   7.13350309
_cell_length_b   7.13350279
_cell_length_c   10.56128800
_cell_angle_alpha   90.00000000
_cell_angle_beta   90.00000000
_cell_angle_gamma   146.12586271
_symmetry_Int_Tables_number   1
_chemical_formula_structural   SrNpPdSe3
_chemical_formula_sum   'Sr2 Np2 Pd2 Se6'
_cell_volume   299.54803213
_cell_formula_units_Z   2
loop_
 _symmetry_equiv_pos_site_id
 _symmetry_equiv_pos_as_xyz
  1  'x, y, z'
loop_
 _atom_site_type_symbol
 _atom_site_label
 _atom_site_symmetry_multiplicity
 _atom_site_fract_x
 _atom_site_fract_y
 _atom_site_fract_z
 _atom_site_occupancy
  Sr  Sr0  1  0.754485  0.245517  0.250000  1
  Sr  Sr1  1  0.245517  0.754485  0.750000  1
  Np  Np2  1  0.000000  0.000000  0.000000  1
  Np  Np3  1  0.000000  0.000000  0.500000  1
  Pd  Pd4  1  0.470363  0.529638  0.250000  1
  Pd  Pd5  1  0.529638  0.470363  0.750000  1
  Se  Se6  1  0.358974  0.641028  0.056053  1
  Se  Se7  1  0.082836  0.917165  0.250000  1
  Se  Se8  1  0.358974  0.641028  0.443946  1
  Se  Se9  1  0.641028  0.358974  0.556053  1
  Se  Se10  1  0.917165  0.082836  0.750000  1
  Se  Se11  1  0.641028  0.358974  0.943946  1
