# generated using pymatgen
data_Er10TcAg3
_symmetry_space_group_name_H-M   'P 1'
_cell_length_a   9.36644700
_cell_length_b   9.36644721
_cell_length_c   9.66180200
_cell_angle_alpha   90.00000000
_cell_angle_beta   90.00000000
_cell_angle_gamma   120.00000279
_symmetry_Int_Tables_number   1
_chemical_formula_structural   Er10TcAg3
_chemical_formula_sum   'Er20 Tc2 Ag6'
_cell_volume   734.07176943
_cell_formula_units_Z   2
loop_
 _symmetry_equiv_pos_site_id
 _symmetry_equiv_pos_as_xyz
  1  'x, y, z'
loop_
 _atom_site_type_symbol
 _atom_site_label
 _atom_site_symmetry_multiplicity
 _atom_site_fract_x
 _atom_site_fract_y
 _atom_site_fract_z
 _atom_site_occupancy
  Er  Er0  1  0.000000  0.000000  0.500000  1
  Er  Er1  1  0.000000  0.000000  0.000000  1
  Er  Er2  1  0.541365  0.458635  0.250000  1
  Er  Er3  1  0.541365  0.082729  0.250000  1
  Er  Er4  1  0.917271  0.458635  0.250000  1
  Er  Er5  1  0.458635  0.541365  0.750000  1
  Er  Er6  1  0.458635  0.917271  0.750000  1
  Er  Er7  1  0.082729  0.541365  0.750000  1
  Er  Er8  1  0.208747  0.791253  0.441107  1
  Er  Er9  1  0.208747  0.417496  0.441107  1
  Er  Er10  1  0.582504  0.791253  0.441107  1
  Er  Er11  1  0.791253  0.208747  0.558893  1
  Er  Er12  1  0.791253  0.582504  0.558893  1
  Er  Er13  1  0.417496  0.208747  0.558893  1
  Er  Er14  1  0.791253  0.208747  0.941107  1
  Er  Er15  1  0.791253  0.582504  0.941107  1
  Er  Er16  1  0.417496  0.208747  0.941107  1
  Er  Er17  1  0.208747  0.791253  0.058893  1
  Er  Er18  1  0.208747  0.417496  0.058893  1
  Er  Er19  1  0.582504  0.791253  0.058893  1
  Tc  Tc20  1  0.333333  0.666667  0.250000  1
  Tc  Tc21  1  0.666667  0.333333  0.750000  1
  Ag  Ag22  1  0.884254  0.115746  0.250000  1
  Ag  Ag23  1  0.884254  0.768506  0.250000  1
  Ag  Ag24  1  0.231494  0.115746  0.250000  1
  Ag  Ag25  1  0.115746  0.884254  0.750000  1
  Ag  Ag26  1  0.115746  0.231494  0.750000  1
  Ag  Ag27  1  0.768506  0.884254  0.750000  1
