# generated using pymatgen
data_GdCl13
_symmetry_space_group_name_H-M   'P 1'
_cell_length_a   11.96431753
_cell_length_b   16.95149163
_cell_length_c   9.38946600
_cell_angle_alpha   93.61857617
_cell_angle_beta   110.52625929
_cell_angle_gamma   132.64656434
_symmetry_Int_Tables_number   1
_chemical_formula_structural   GdCl13
_chemical_formula_sum   'Gd2 Cl26'
_cell_volume   1180.23110089
_cell_formula_units_Z   2
loop_
 _symmetry_equiv_pos_site_id
 _symmetry_equiv_pos_as_xyz
  1  'x, y, z'
loop_
 _atom_site_type_symbol
 _atom_site_label
 _atom_site_symmetry_multiplicity
 _atom_site_fract_x
 _atom_site_fract_y
 _atom_site_fract_z
 _atom_site_occupancy
  Gd  Gd0  1  0.864631  0.036115  0.956327  1
  Gd  Gd1  1  0.385369  0.713885  0.543673  1
  Cl  Cl2  1  0.243477  0.417400  0.614048  1
  Cl  Cl3  1  0.740202  0.375286  0.037161  1
  Cl  Cl4  1  0.973284  0.109024  0.562388  1
  Cl  Cl5  1  0.006523  0.332600  0.885952  1
  Cl  Cl6  1  0.566991  0.155591  0.245995  1
  Cl  Cl7  1  0.683009  0.594409  0.254005  1
  Cl  Cl8  1  0.276716  0.640976  0.937612  1
  Cl  Cl9  1  0.509798  0.374714  0.462839  1
  Cl  Cl10  1  0.021271  0.787950  0.719201  1
  Cl  Cl11  1  0.426608  0.661240  0.320149  1
  Cl  Cl12  1  0.079895  0.129525  0.806935  1
  Cl  Cl13  1  0.726328  0.215907  0.493070  1
  Cl  Cl14  1  0.186838  0.143244  0.126601  1
  Cl  Cl15  1  0.715034  0.519602  0.686401  1
  Cl  Cl16  1  0.226855  0.940658  0.237316  1
  Cl  Cl17  1  0.322261  0.514690  0.477349  1
  Cl  Cl18  1  0.228729  0.962050  0.780799  1
  Cl  Cl19  1  0.823392  0.088760  0.179851  1
  Cl  Cl20  1  0.655838  0.805489  0.854774  1
  Cl  Cl21  1  0.594162  0.944511  0.645226  1
  Cl  Cl22  1  0.023145  0.809342  0.262684  1
  Cl  Cl23  1  0.927739  0.235310  0.022651  1
  Cl  Cl24  1  0.170105  0.620475  0.693065  1
  Cl  Cl25  1  0.534966  0.230398  0.813599  1
  Cl  Cl26  1  0.063162  0.606756  0.373399  1
  Cl  Cl27  1  0.523672  0.534093  0.006930  1
