# generated using pymatgen
data_Tb6NdSn23Rh6
_symmetry_space_group_name_H-M   'P 1'
_cell_length_a   9.88535600
_cell_length_b   9.88535527
_cell_length_c   10.13542600
_cell_angle_alpha   90.00000000
_cell_angle_beta   90.00000000
_cell_angle_gamma   120.00000914
_symmetry_Int_Tables_number   1
_chemical_formula_structural   Tb6NdSn23Rh6
_chemical_formula_sum   'Tb6 Nd1 Sn23 Rh6'
_cell_volume   857.74302468
_cell_formula_units_Z   1
loop_
 _symmetry_equiv_pos_site_id
 _symmetry_equiv_pos_as_xyz
  1  'x, y, z'
loop_
 _atom_site_type_symbol
 _atom_site_label
 _atom_site_symmetry_multiplicity
 _atom_site_fract_x
 _atom_site_fract_y
 _atom_site_fract_z
 _atom_site_occupancy
  Tb  Tb0  1  0.478714  0.521286  0.307318  1
  Tb  Tb1  1  0.521286  0.478714  0.692682  1
  Tb  Tb2  1  0.478714  0.957429  0.307318  1
  Tb  Tb3  1  0.521286  0.042571  0.692682  1
  Tb  Tb4  1  0.042571  0.521286  0.307318  1
  Tb  Tb5  1  0.957429  0.478714  0.692682  1
  Nd  Nd6  1  0.000000  0.000000  0.000000  1
  Sn  Sn7  1  0.351511  0.000000  0.000000  1
  Sn  Sn8  1  0.648489  0.000000  0.000000  1
  Sn  Sn9  1  0.000000  0.351511  0.000000  1
  Sn  Sn10  1  0.000000  0.648489  0.000000  1
  Sn  Sn11  1  0.648489  0.648489  0.000000  1
  Sn  Sn12  1  0.351511  0.351511  0.000000  1
  Sn  Sn13  1  0.333333  0.666667  0.819562  1
  Sn  Sn14  1  0.666667  0.333333  0.180438  1
  Sn  Sn15  1  0.000000  0.000000  0.500000  1
  Sn  Sn16  1  0.778711  0.221289  0.455762  1
  Sn  Sn17  1  0.221289  0.778711  0.544238  1
  Sn  Sn18  1  0.778711  0.557422  0.455762  1
  Sn  Sn19  1  0.221289  0.442578  0.544238  1
  Sn  Sn20  1  0.442578  0.221289  0.455762  1
  Sn  Sn21  1  0.557422  0.778711  0.544238  1
  Sn  Sn22  1  0.333333  0.666667  0.118053  1
  Sn  Sn23  1  0.666667  0.333333  0.881947  1
  Sn  Sn24  1  0.119233  0.880767  0.280322  1
  Sn  Sn25  1  0.880767  0.119233  0.719678  1
  Sn  Sn26  1  0.119233  0.238467  0.280322  1
  Sn  Sn27  1  0.880767  0.761533  0.719678  1
  Sn  Sn28  1  0.761533  0.880767  0.280322  1
  Sn  Sn29  1  0.238467  0.119233  0.719678  1
  Rh  Rh30  1  0.831143  0.168857  0.198539  1
  Rh  Rh31  1  0.168857  0.831143  0.801461  1
  Rh  Rh32  1  0.831143  0.662287  0.198539  1
  Rh  Rh33  1  0.168857  0.337713  0.801461  1
  Rh  Rh34  1  0.337713  0.168857  0.198539  1
  Rh  Rh35  1  0.662287  0.831143  0.801461  1
