# generated using pymatgen
data_Y12Th4Mg4Ir3Ru
_symmetry_space_group_name_H-M   'P 1'
_cell_length_a   9.85762045
_cell_length_b   9.85762103
_cell_length_c   9.85762160
_cell_angle_alpha   59.68003535
_cell_angle_beta   59.68003155
_cell_angle_gamma   59.68003671
_symmetry_Int_Tables_number   1
_chemical_formula_structural   Y12Th4Mg4Ir3Ru
_chemical_formula_sum   'Y12 Th4 Mg4 Ir3 Ru1'
_cell_volume   672.40818937
_cell_formula_units_Z   1
loop_
 _symmetry_equiv_pos_site_id
 _symmetry_equiv_pos_as_xyz
  1  'x, y, z'
loop_
 _atom_site_type_symbol
 _atom_site_label
 _atom_site_symmetry_multiplicity
 _atom_site_fract_x
 _atom_site_fract_y
 _atom_site_fract_z
 _atom_site_occupancy
  Y  Y0  1  0.062749  0.437571  0.437571  1
  Y  Y1  1  0.435918  0.063072  0.063072  1
  Y  Y2  1  0.437571  0.062749  0.437571  1
  Y  Y3  1  0.063072  0.435918  0.063072  1
  Y  Y4  1  0.437571  0.437571  0.062749  1
  Y  Y5  1  0.063072  0.063072  0.435918  1
  Y  Y6  1  0.185609  0.815041  0.815041  1
  Y  Y7  1  0.814010  0.185265  0.185265  1
  Y  Y8  1  0.815041  0.185609  0.815041  1
  Y  Y9  1  0.185265  0.814010  0.185265  1
  Y  Y10  1  0.815041  0.815041  0.185609  1
  Y  Y11  1  0.185265  0.185265  0.814010  1
  Th  Th12  1  0.597273  0.597273  0.597273  1
  Th  Th13  1  0.595911  0.595911  0.209488  1
  Th  Th14  1  0.595911  0.209488  0.595911  1
  Th  Th15  1  0.209488  0.595911  0.595911  1
  Mg  Mg16  1  0.829879  0.829879  0.829879  1
  Mg  Mg17  1  0.829175  0.829175  0.509660  1
  Mg  Mg18  1  0.829175  0.509660  0.829175  1
  Mg  Mg19  1  0.509660  0.829175  0.829175  1
  Ir  Ir20  1  0.394022  0.394022  0.819832  1
  Ir  Ir21  1  0.394022  0.819832  0.394022  1
  Ir  Ir22  1  0.819832  0.394022  0.394022  1
  Ru  Ru23  1  0.395463  0.395463  0.395463  1
