# generated using pymatgen
data_YbLu(Ni2B)12
_symmetry_space_group_name_H-M   'P 1'
_cell_length_a   6.01013227
_cell_length_b   6.01013088
_cell_length_c   10.96381674
_cell_angle_alpha   89.78609759
_cell_angle_beta   89.78609636
_cell_angle_gamma   104.72101091
_symmetry_Int_Tables_number   1
_chemical_formula_structural   YbLu(Ni2B)12
_chemical_formula_sum   'Yb1 Lu1 Ni24 B12'
_cell_volume   383.02445969
_cell_formula_units_Z   1
loop_
 _symmetry_equiv_pos_site_id
 _symmetry_equiv_pos_as_xyz
  1  'x, y, z'
loop_
 _atom_site_type_symbol
 _atom_site_label
 _atom_site_symmetry_multiplicity
 _atom_site_fract_x
 _atom_site_fract_y
 _atom_site_fract_z
 _atom_site_occupancy
  Yb  Yb0  1  0.832363  0.832363  0.999972  1
  Lu  Lu1  1  0.166458  0.166458  0.507202  1
  Ni  Ni2  1  0.997891  0.633822  0.562380  1
  Ni  Ni3  1  0.735306  0.342134  0.432340  1
  Ni  Ni4  1  0.342134  0.735306  0.432340  1
  Ni  Ni5  1  0.655907  0.269791  0.932650  1
  Ni  Ni6  1  0.001575  0.369287  0.063353  1
  Ni  Ni7  1  0.369287  0.001575  0.063353  1
  Ni  Ni8  1  0.633822  0.997891  0.562380  1
  Ni  Ni9  1  0.431420  0.431420  0.082815  1
  Ni  Ni10  1  0.211294  0.472803  0.721856  1
  Ni  Ni11  1  0.786345  0.525852  0.224295  1
  Ni  Ni12  1  0.525852  0.786345  0.224295  1
  Ni  Ni13  1  0.472803  0.211294  0.721856  1
  Ni  Ni14  1  0.563875  0.563875  0.579412  1
  Ni  Ni15  1  0.217563  0.217563  0.900996  1
  Ni  Ni16  1  0.144576  0.882201  0.744025  1
  Ni  Ni17  1  0.855511  0.116928  0.243514  1
  Ni  Ni18  1  0.116928  0.855511  0.243514  1
  Ni  Ni19  1  0.882201  0.144576  0.744025  1
  Ni  Ni20  1  0.543201  0.804917  0.765638  1
  Ni  Ni21  1  0.454226  0.194748  0.268953  1
  Ni  Ni22  1  0.194748  0.454226  0.268953  1
  Ni  Ni23  1  0.804917  0.543201  0.765638  1
  Ni  Ni24  1  0.786327  0.786327  0.400770  1
  Ni  Ni25  1  0.269791  0.655907  0.932650  1
  B  B26  1  0.399705  0.987027  0.877266  1
  B  B27  1  0.600376  0.012649  0.377426  1
  B  B28  1  0.012649  0.600376  0.377426  1
  B  B29  1  0.987027  0.399705  0.877266  1
  B  B30  1  0.328611  0.762197  0.615095  1
  B  B31  1  0.671408  0.242852  0.116218  1
  B  B32  1  0.242852  0.671408  0.116218  1
  B  B33  1  0.762197  0.328611  0.615095  1
  B  B34  1  0.512284  0.512284  0.348835  1
  B  B35  1  0.484570  0.484570  0.842102  1
  B  B36  1  0.165542  0.165542  0.160664  1
  B  B37  1  0.836455  0.836455  0.661217  1
