# generated using pymatgen
data_Eu23Mg4Cu7
_symmetry_space_group_name_H-M   'P 1'
_cell_length_a   10.33234400
_cell_length_b   10.33234453
_cell_length_c   23.74965400
_cell_angle_alpha   90.00000000
_cell_angle_beta   90.00000000
_cell_angle_gamma   119.99999829
_symmetry_Int_Tables_number   1
_chemical_formula_structural   Eu23Mg4Cu7
_chemical_formula_sum   'Eu46 Mg8 Cu14'
_cell_volume   2195.76400958
_cell_formula_units_Z   2
loop_
 _symmetry_equiv_pos_site_id
 _symmetry_equiv_pos_as_xyz
  1  'x, y, z'
loop_
 _atom_site_type_symbol
 _atom_site_label
 _atom_site_symmetry_multiplicity
 _atom_site_fract_x
 _atom_site_fract_y
 _atom_site_fract_z
 _atom_site_occupancy
  Eu  Eu0  1  0.791872  0.208128  0.969672  1
  Eu  Eu1  1  0.076499  0.538250  0.332174  1
  Eu  Eu2  1  0.871803  0.128197  0.383501  1
  Eu  Eu3  1  0.923501  0.461750  0.667826  1
  Eu  Eu4  1  0.666667  0.333333  0.383331  1
  Eu  Eu5  1  0.461750  0.538250  0.332174  1
  Eu  Eu6  1  0.666667  0.333333  0.116669  1
  Eu  Eu7  1  0.750758  0.875379  0.250000  1
  Eu  Eu8  1  0.124621  0.249242  0.250000  1
  Eu  Eu9  1  0.871803  0.743605  0.383501  1
  Eu  Eu10  1  0.538250  0.076499  0.832174  1
  Eu  Eu11  1  0.128197  0.256395  0.616499  1
  Eu  Eu12  1  0.208128  0.416258  0.030328  1
  Eu  Eu13  1  0.128197  0.871803  0.616499  1
  Eu  Eu14  1  0.875379  0.124621  0.750000  1
  Eu  Eu15  1  0.416258  0.208128  0.969672  1
  Eu  Eu16  1  0.743605  0.871803  0.883501  1
  Eu  Eu17  1  0.871803  0.743605  0.116499  1
  Eu  Eu18  1  0.208128  0.416258  0.469672  1
  Eu  Eu19  1  0.583742  0.791872  0.469672  1
  Eu  Eu20  1  0.249242  0.124621  0.750000  1
  Eu  Eu21  1  0.461750  0.923501  0.167826  1
  Eu  Eu22  1  0.208128  0.791872  0.469672  1
  Eu  Eu23  1  0.124621  0.875379  0.250000  1
  Eu  Eu24  1  0.461750  0.538250  0.167826  1
  Eu  Eu25  1  0.333333  0.666667  0.616669  1
  Eu  Eu26  1  0.743605  0.871803  0.616499  1
  Eu  Eu27  1  0.461750  0.923501  0.332174  1
  Eu  Eu28  1  0.416258  0.208128  0.530328  1
  Eu  Eu29  1  0.208128  0.791872  0.030328  1
  Eu  Eu30  1  0.256395  0.128197  0.116499  1
  Eu  Eu31  1  0.128197  0.871803  0.883501  1
  Eu  Eu32  1  0.583742  0.791872  0.030328  1
  Eu  Eu33  1  0.538250  0.076499  0.667826  1
  Eu  Eu34  1  0.256395  0.128197  0.383501  1
  Eu  Eu35  1  0.923501  0.461750  0.832174  1
  Eu  Eu36  1  0.875379  0.750758  0.750000  1
  Eu  Eu37  1  0.871803  0.128197  0.116499  1
  Eu  Eu38  1  0.076499  0.538250  0.167826  1
  Eu  Eu39  1  0.333333  0.666667  0.883331  1
  Eu  Eu40  1  0.538250  0.461750  0.832174  1
  Eu  Eu41  1  0.128197  0.256395  0.883501  1
  Eu  Eu42  1  0.538250  0.461750  0.667826  1
  Eu  Eu43  1  0.791872  0.208128  0.530328  1
  Eu  Eu44  1  0.791872  0.583742  0.969672  1
  Eu  Eu45  1  0.791872  0.583742  0.530328  1
  Mg  Mg46  1  0.000000  0.000000  0.500000  1
  Mg  Mg47  1  0.769992  0.230008  0.250000  1
  Mg  Mg48  1  0.539986  0.769992  0.750000  1
  Mg  Mg49  1  0.230008  0.769992  0.750000  1
  Mg  Mg50  1  0.769992  0.539986  0.250000  1
  Mg  Mg51  1  0.230008  0.460014  0.750000  1
  Mg  Mg52  1  0.460014  0.230008  0.250000  1
  Mg  Mg53  1  0.000000  0.000000  0.000000  1
  Cu  Cu54  1  0.524765  0.475235  0.050250  1
  Cu  Cu55  1  0.524765  0.475235  0.449750  1
  Cu  Cu56  1  0.524765  0.049529  0.449750  1
  Cu  Cu57  1  0.524765  0.049529  0.050250  1
  Cu  Cu58  1  0.475235  0.524765  0.949750  1
  Cu  Cu59  1  0.475235  0.950471  0.550250  1
  Cu  Cu60  1  0.950471  0.475235  0.449750  1
  Cu  Cu61  1  0.950471  0.475235  0.050250  1
  Cu  Cu62  1  0.666667  0.333333  0.750000  1
  Cu  Cu63  1  0.049529  0.524765  0.550250  1
  Cu  Cu64  1  0.475235  0.950471  0.949750  1
  Cu  Cu65  1  0.475235  0.524765  0.550250  1
  Cu  Cu66  1  0.049529  0.524765  0.949750  1
  Cu  Cu67  1  0.333333  0.666667  0.250000  1
