# generated using pymatgen
data_SrLi12Ca7TaV3N16
_symmetry_space_group_name_H-M   'P 1'
_cell_length_a   8.26003900
_cell_length_b   8.55743733
_cell_length_c   6.69627000
_cell_angle_alpha   90.00000000
_cell_angle_beta   90.00000000
_cell_angle_gamma   89.96804937
_symmetry_Int_Tables_number   1
_chemical_formula_structural   SrLi12Ca7TaV3N16
_chemical_formula_sum   'Sr1 Li12 Ca7 Ta1 V3 N16'
_cell_volume   473.32420503
_cell_formula_units_Z   1
loop_
 _symmetry_equiv_pos_site_id
 _symmetry_equiv_pos_as_xyz
  1  'x, y, z'
loop_
 _atom_site_type_symbol
 _atom_site_label
 _atom_site_symmetry_multiplicity
 _atom_site_fract_x
 _atom_site_fract_y
 _atom_site_fract_z
 _atom_site_occupancy
  Sr  Sr0  1  0.252286  0.257282  0.500001  1
  Li  Li1  1  0.004536  0.363556  0.243196  1
  Li  Li2  1  0.989840  0.640855  0.247902  1
  Li  Li3  1  0.520301  0.137061  0.264184  1
  Li  Li4  1  0.490116  0.858614  0.255582  1
  Li  Li5  1  0.989840  0.640855  0.752098  1
  Li  Li6  1  0.004536  0.363556  0.756804  1
  Li  Li7  1  0.490116  0.858614  0.744418  1
  Li  Li8  1  0.520301  0.137061  0.735816  1
  Li  Li9  1  0.205641  0.430209  0.000000  1
  Li  Li10  1  0.787395  0.583783  0.000000  1
  Li  Li11  1  0.719362  0.083703  0.500001  1
  Li  Li12  1  0.286228  0.910644  0.500001  1
  Ca  Ca13  1  0.995386  0.994836  0.259135  1
  Ca  Ca14  1  0.501772  0.501512  0.241970  1
  Ca  Ca15  1  0.995386  0.994836  0.740865  1
  Ca  Ca16  1  0.501772  0.501512  0.758030  1
  Ca  Ca17  1  0.245725  0.759277  0.000000  1
  Ca  Ca18  1  0.753643  0.237634  0.000000  1
  Ca  Ca19  1  0.745045  0.732755  0.500001  1
  Ta  Ta20  1  0.278843  0.137535  0.000000  1
  V  V21  1  0.722353  0.864963  0.000000  1
  V  V22  1  0.776663  0.367044  0.500001  1
  V  V23  1  0.223329  0.635499  0.500001  1
  N  N24  1  0.296246  0.008823  0.236191  1
  N  N25  1  0.704597  0.982310  0.225577  1
  N  N26  1  0.794964  0.487317  0.276096  1
  N  N27  1  0.203883  0.520343  0.272215  1
  N  N28  1  0.704597  0.982310  0.774423  1
  N  N29  1  0.296246  0.008823  0.763809  1
  N  N30  1  0.203883  0.520343  0.727785  1
  N  N31  1  0.794964  0.487317  0.723904  1
  N  N32  1  0.054067  0.219486  0.000000  1
  N  N33  1  0.934791  0.787866  0.000000  1
  N  N34  1  0.569700  0.286196  0.500001  1
  N  N35  1  0.435478  0.710243  0.500001  1
  N  N36  1  0.458042  0.290090  0.000000  1
  N  N37  1  0.557012  0.718938  0.000000  1
  N  N38  1  0.935675  0.216215  0.500001  1
  N  N39  1  0.055435  0.780186  0.500001  1
