# generated using pymatgen
data_PrNd7Cu3Si12Ge
_symmetry_space_group_name_H-M   'P 1'
_cell_length_a   8.15131000
_cell_length_b   8.15131040
_cell_length_c   8.52901800
_cell_angle_alpha   90.00000000
_cell_angle_beta   90.00000000
_cell_angle_gamma   119.99999836
_symmetry_Int_Tables_number   1
_chemical_formula_structural   PrNd7Cu3Si12Ge
_chemical_formula_sum   'Pr1 Nd7 Cu3 Si12 Ge1'
_cell_volume   490.77734999
_cell_formula_units_Z   1
loop_
 _symmetry_equiv_pos_site_id
 _symmetry_equiv_pos_as_xyz
  1  'x, y, z'
loop_
 _atom_site_type_symbol
 _atom_site_label
 _atom_site_symmetry_multiplicity
 _atom_site_fract_x
 _atom_site_fract_y
 _atom_site_fract_z
 _atom_site_occupancy
  Pr  Pr0  1  0.000000  0.000000  0.749123  1
  Nd  Nd1  1  0.000000  0.000000  0.250871  1
  Nd  Nd2  1  0.498613  0.501387  0.751842  1
  Nd  Nd3  1  0.498613  0.997228  0.751842  1
  Nd  Nd4  1  0.002772  0.501387  0.751842  1
  Nd  Nd5  1  0.498881  0.501119  0.248231  1
  Nd  Nd6  1  0.002240  0.501119  0.248231  1
  Nd  Nd7  1  0.498881  0.997760  0.248231  1
  Cu  Cu8  1  0.666667  0.333333  0.998834  1
  Cu  Cu9  1  0.666667  0.333333  0.500906  1
  Cu  Cu10  1  0.333333  0.666667  0.499237  1
  Si  Si11  1  0.828398  0.171602  0.000399  1
  Si  Si12  1  0.828398  0.656797  0.000399  1
  Si  Si13  1  0.343203  0.171602  0.000399  1
  Si  Si14  1  0.830775  0.169225  0.499570  1
  Si  Si15  1  0.830775  0.661549  0.499570  1
  Si  Si16  1  0.338451  0.169225  0.499570  1
  Si  Si17  1  0.169332  0.830668  0.499397  1
  Si  Si18  1  0.661335  0.830668  0.499397  1
  Si  Si19  1  0.169332  0.338665  0.499397  1
  Si  Si20  1  0.160647  0.839353  0.000756  1
  Si  Si21  1  0.678707  0.839353  0.000756  1
  Si  Si22  1  0.160647  0.321293  0.000756  1
  Ge  Ge23  1  0.333333  0.666667  0.000442  1
