# generated using pymatgen
data_NdLu2Th(ReB6)2
_symmetry_space_group_name_H-M   'P 1'
_cell_length_a   3.71837900
_cell_length_b   9.19551928
_cell_length_c   11.64913343
_cell_angle_alpha   89.88935750
_cell_angle_beta   90.00000000
_cell_angle_gamma   90.00000000
_symmetry_Int_Tables_number   1
_chemical_formula_structural   NdLu2Th(ReB6)2
_chemical_formula_sum   'Nd2 Lu4 Th2 Re4 B24'
_cell_volume   398.31138787
_cell_formula_units_Z   2
loop_
 _symmetry_equiv_pos_site_id
 _symmetry_equiv_pos_as_xyz
  1  'x, y, z'
loop_
 _atom_site_type_symbol
 _atom_site_label
 _atom_site_symmetry_multiplicity
 _atom_site_fract_x
 _atom_site_fract_y
 _atom_site_fract_z
 _atom_site_occupancy
  Nd  Nd0  1  0.000000  0.323549  0.414657  1
  Nd  Nd1  1  0.000000  0.676451  0.585343  1
  Lu  Lu2  1  0.000000  0.943733  0.371238  1
  Lu  Lu3  1  0.000000  0.056267  0.628762  1
  Lu  Lu4  1  0.000000  0.444139  0.129368  1
  Lu  Lu5  1  0.000000  0.555861  0.870632  1
  Th  Th6  1  0.000000  0.821320  0.086055  1
  Th  Th7  1  0.000000  0.178680  0.913945  1
  Re  Re8  1  0.000000  0.641374  0.317793  1
  Re  Re9  1  0.000000  0.358626  0.682207  1
  Re  Re10  1  0.000000  0.138950  0.180176  1
  Re  Re11  1  0.000000  0.861050  0.819824  1
  B  B12  1  0.500000  0.555869  0.430299  1
  B  B13  1  0.500000  0.444131  0.569701  1
  B  B14  1  0.500000  0.056290  0.070698  1
  B  B15  1  0.500000  0.943710  0.929302  1
  B  B16  1  0.500000  0.751236  0.416423  1
  B  B17  1  0.500000  0.248764  0.583577  1
  B  B18  1  0.500000  0.251600  0.084472  1
  B  B19  1  0.500000  0.748400  0.915528  1
  B  B20  1  0.500000  0.792193  0.266354  1
  B  B21  1  0.500000  0.207807  0.733646  1
  B  B22  1  0.500000  0.292424  0.233950  1
  B  B23  1  0.500000  0.707576  0.766050  1
  B  B24  1  0.500000  0.629848  0.185815  1
  B  B25  1  0.500000  0.370152  0.814185  1
  B  B26  1  0.500000  0.129728  0.314791  1
  B  B27  1  0.500000  0.870272  0.685209  1
  B  B28  1  0.500000  0.984630  0.214719  1
  B  B29  1  0.500000  0.015370  0.785281  1
  B  B30  1  0.500000  0.484434  0.286110  1
  B  B31  1  0.500000  0.515566  0.713890  1
  B  B32  1  0.500000  0.598686  0.026956  1
  B  B33  1  0.500000  0.401314  0.973044  1
  B  B34  1  0.500000  0.096645  0.473527  1
  B  B35  1  0.500000  0.903355  0.526473  1
