# generated using pymatgen
data_Y4ScIr3O14
_symmetry_space_group_name_H-M   'P 1'
_cell_length_a   7.26322667
_cell_length_b   7.26322673
_cell_length_c   7.33189805
_cell_angle_alpha   60.30935379
_cell_angle_beta   60.30935062
_cell_angle_gamma   60.00000232
_symmetry_Int_Tables_number   1
_chemical_formula_structural   Y4ScIr3O14
_chemical_formula_sum   'Y4 Sc1 Ir3 O14'
_cell_volume   274.77396340
_cell_formula_units_Z   1
loop_
 _symmetry_equiv_pos_site_id
 _symmetry_equiv_pos_as_xyz
  1  'x, y, z'
loop_
 _atom_site_type_symbol
 _atom_site_label
 _atom_site_symmetry_multiplicity
 _atom_site_fract_x
 _atom_site_fract_y
 _atom_site_fract_z
 _atom_site_occupancy
  Y  Y0  1  0.625000  0.125000  0.125000  1
  Y  Y1  1  0.125000  0.625000  0.125000  1
  Y  Y2  1  0.125000  0.125000  0.625000  1
  Y  Y3  1  0.125000  0.125000  0.125000  1
  Sc  Sc4  1  0.625000  0.625000  0.125000  1
  Ir  Ir5  1  0.125000  0.625000  0.625000  1
  Ir  Ir6  1  0.625000  0.125000  0.625000  1
  Ir  Ir7  1  0.625000  0.625000  0.625000  1
  O  O8  1  0.720090  0.720090  0.289422  1
  O  O9  1  0.296624  0.296624  0.687215  1
  O  O10  1  0.719537  0.296624  0.687215  1
  O  O11  1  0.270398  0.720090  0.289422  1
  O  O12  1  0.296624  0.719537  0.687215  1
  O  O13  1  0.720090  0.270398  0.289422  1
  O  O14  1  0.529910  0.529910  0.960578  1
  O  O15  1  0.953376  0.953376  0.562785  1
  O  O16  1  0.530463  0.953376  0.562785  1
  O  O17  1  0.979602  0.529910  0.960578  1
  O  O18  1  0.953376  0.530463  0.562785  1
  O  O19  1  0.529910  0.979602  0.960578  1
  O  O20  1  0.247219  0.247219  0.258342  1
  O  O21  1  0.002781  0.002781  0.991658  1
