# generated using pymatgen
data_Tb9Er(PPb3)2
_symmetry_space_group_name_H-M   'P 1'
_cell_length_a   9.19266600
_cell_length_b   9.19266525
_cell_length_c   6.84409600
_cell_angle_alpha   90.00000000
_cell_angle_beta   90.00000000
_cell_angle_gamma   119.99999549
_symmetry_Int_Tables_number   1
_chemical_formula_structural   Tb9Er(PPb3)2
_chemical_formula_sum   'Tb9 Er1 P2 Pb6'
_cell_volume   500.87536381
_cell_formula_units_Z   1
loop_
 _symmetry_equiv_pos_site_id
 _symmetry_equiv_pos_as_xyz
  1  'x, y, z'
loop_
 _atom_site_type_symbol
 _atom_site_label
 _atom_site_symmetry_multiplicity
 _atom_site_fract_x
 _atom_site_fract_y
 _atom_site_fract_z
 _atom_site_occupancy
  Tb  Tb0  1  0.762530  0.762343  0.249888  1
  Tb  Tb1  1  0.237657  0.000187  0.249888  1
  Tb  Tb2  1  0.999813  0.237470  0.249888  1
  Tb  Tb3  1  0.237657  0.237470  0.750112  1
  Tb  Tb4  1  0.762530  0.000187  0.750112  1
  Tb  Tb5  1  0.999813  0.762343  0.750112  1
  Tb  Tb6  1  0.666667  0.333333  0.500000  1
  Tb  Tb7  1  0.333333  0.666667  0.500000  1
  Tb  Tb8  1  0.333333  0.666667  0.000000  1
  Er  Er9  1  0.666667  0.333333  0.000000  1
  P  P10  1  0.000000  0.000000  0.500000  1
  P  P11  1  0.000000  0.000000  0.000000  1
  Pb  Pb12  1  0.401349  0.400914  0.249709  1
  Pb  Pb13  1  0.599086  0.000434  0.249709  1
  Pb  Pb14  1  0.999566  0.598651  0.249709  1
  Pb  Pb15  1  0.599086  0.598651  0.750291  1
  Pb  Pb16  1  0.401349  0.000434  0.750291  1
  Pb  Pb17  1  0.999566  0.400914  0.750291  1
