# generated using pymatgen
data_Nd2Dy3Bi3C
_symmetry_space_group_name_H-M   'P 1'
_cell_length_a   9.35181500
_cell_length_b   9.35181480
_cell_length_c   6.52723800
_cell_angle_alpha   90.00000000
_cell_angle_beta   90.00000000
_cell_angle_gamma   119.99999009
_symmetry_Int_Tables_number   1
_chemical_formula_structural   Nd2Dy3Bi3C
_chemical_formula_sum   'Nd4 Dy6 Bi6 C2'
_cell_volume   494.36979486
_cell_formula_units_Z   2
loop_
 _symmetry_equiv_pos_site_id
 _symmetry_equiv_pos_as_xyz
  1  'x, y, z'
loop_
 _atom_site_type_symbol
 _atom_site_label
 _atom_site_symmetry_multiplicity
 _atom_site_fract_x
 _atom_site_fract_y
 _atom_site_fract_z
 _atom_site_occupancy
  Nd  Nd0  1  0.666667  0.333333  0.000000  1
  Nd  Nd1  1  0.333333  0.666667  0.000000  1
  Nd  Nd2  1  0.333333  0.666667  0.500000  1
  Nd  Nd3  1  0.666667  0.333333  0.500000  1
  Dy  Dy4  1  0.796323  0.796323  0.750000  1
  Dy  Dy5  1  0.203677  0.000000  0.750000  1
  Dy  Dy6  1  0.000000  0.203677  0.750000  1
  Dy  Dy7  1  0.203677  0.203677  0.250000  1
  Dy  Dy8  1  0.796323  0.000000  0.250000  1
  Dy  Dy9  1  0.000000  0.796323  0.250000  1
  Bi  Bi10  1  0.394135  0.394135  0.750000  1
  Bi  Bi11  1  0.605865  0.000000  0.750000  1
  Bi  Bi12  1  0.000000  0.605865  0.750000  1
  Bi  Bi13  1  0.605865  0.605865  0.250000  1
  Bi  Bi14  1  0.394135  0.000000  0.250000  1
  Bi  Bi15  1  0.000000  0.394135  0.250000  1
  C  C16  1  0.000000  0.000000  0.000000  1
  C  C17  1  0.000000  0.000000  0.500000  1
