# generated using pymatgen
data_Y4HoZr(SnIr)6
_symmetry_space_group_name_H-M   'P 1'
_cell_length_a   7.53826301
_cell_length_b   7.46895642
_cell_length_c   7.80947000
_cell_angle_alpha   90.00000000
_cell_angle_beta   90.00000000
_cell_angle_gamma   120.36057414
_symmetry_Int_Tables_number   1
_chemical_formula_structural   Y4HoZr(SnIr)6
_chemical_formula_sum   'Y4 Ho1 Zr1 Sn6 Ir6'
_cell_volume   379.39705087
_cell_formula_units_Z   1
loop_
 _symmetry_equiv_pos_site_id
 _symmetry_equiv_pos_as_xyz
  1  'x, y, z'
loop_
 _atom_site_type_symbol
 _atom_site_label
 _atom_site_symmetry_multiplicity
 _atom_site_fract_x
 _atom_site_fract_y
 _atom_site_fract_z
 _atom_site_occupancy
  Y  Y0  1  0.408656  0.001057  0.250000  1
  Y  Y1  1  0.597106  0.595885  0.750000  1
  Y  Y2  1  0.592927  0.596614  0.250000  1
  Y  Y3  1  0.995385  0.403145  0.250000  1
  Ho  Ho4  1  0.004935  0.405742  0.750000  1
  Zr  Zr5  1  0.398474  0.998996  0.750000  1
  Sn  Sn6  1  0.261772  0.263916  0.498893  1
  Sn  Sn7  1  0.261772  0.263916  0.001107  1
  Sn  Sn8  1  0.743061  0.000287  0.991198  1
  Sn  Sn9  1  0.997077  0.736174  0.499637  1
  Sn  Sn10  1  0.743061  0.000287  0.508802  1
  Sn  Sn11  1  0.997077  0.736174  0.000363  1
  Ir  Ir12  1  0.657835  0.320320  0.516083  1
  Ir  Ir13  1  0.657835  0.320320  0.983917  1
  Ir  Ir14  1  0.334588  0.678214  0.988599  1
  Ir  Ir15  1  0.334588  0.678214  0.511401  1
  Ir  Ir16  1  0.014703  0.000949  0.750000  1
  Ir  Ir17  1  0.999150  0.999790  0.250000  1
