# generated using pymatgen
data_Er3Tm7Si5Pb
_symmetry_space_group_name_H-M   'P 1'
_cell_length_a   8.44452919
_cell_length_b   8.44609054
_cell_length_c   6.29990800
_cell_angle_alpha   90.00000000
_cell_angle_beta   90.00000000
_cell_angle_gamma   120.21692233
_symmetry_Int_Tables_number   1
_chemical_formula_structural   Er3Tm7Si5Pb
_chemical_formula_sum   'Er3 Tm7 Si5 Pb1'
_cell_volume   388.27779363
_cell_formula_units_Z   1
loop_
 _symmetry_equiv_pos_site_id
 _symmetry_equiv_pos_as_xyz
  1  'x, y, z'
loop_
 _atom_site_type_symbol
 _atom_site_label
 _atom_site_symmetry_multiplicity
 _atom_site_fract_x
 _atom_site_fract_y
 _atom_site_fract_z
 _atom_site_occupancy
  Er  Er0  1  0.767525  0.767482  0.250000  1
  Er  Er1  1  0.239564  0.239525  0.750000  1
  Er  Er2  1  0.756575  0.998587  0.750000  1
  Tm  Tm3  1  0.675125  0.331381  0.503880  1
  Tm  Tm4  1  0.331303  0.675108  0.503883  1
  Tm  Tm5  1  0.331303  0.675108  0.996117  1
  Tm  Tm6  1  0.675125  0.331381  0.996120  1
  Tm  Tm7  1  0.239507  0.987261  0.250000  1
  Tm  Tm8  1  0.987288  0.239604  0.250000  1
  Tm  Tm9  1  0.998625  0.756464  0.750000  1
  Si  Si10  1  0.603864  0.998537  0.250000  1
  Si  Si11  1  0.998543  0.603850  0.250000  1
  Si  Si12  1  0.606083  0.606013  0.750000  1
  Si  Si13  1  0.393771  0.001434  0.750000  1
  Si  Si14  1  0.001507  0.393972  0.750000  1
  Pb  Pb15  1  0.394293  0.394292  0.250000  1
