# generated using pymatgen
data_TbHo9(Sn3O)2
_symmetry_space_group_name_H-M   'P 1'
_cell_length_a   9.01557127
_cell_length_b   9.01553378
_cell_length_c   9.01556000
_cell_angle_alpha   125.90034685
_cell_angle_beta   125.90068434
_cell_angle_gamma   80.05159409
_symmetry_Int_Tables_number   1
_chemical_formula_structural   TbHo9(Sn3O)2
_chemical_formula_sum   'Tb1 Ho9 Sn6 O2'
_cell_volume   464.19356638
_cell_formula_units_Z   1
loop_
 _symmetry_equiv_pos_site_id
 _symmetry_equiv_pos_as_xyz
  1  'x, y, z'
loop_
 _atom_site_type_symbol
 _atom_site_label
 _atom_site_symmetry_multiplicity
 _atom_site_fract_x
 _atom_site_fract_y
 _atom_site_fract_z
 _atom_site_occupancy
  Tb  Tb0  1  0.002310  0.002310  0.000000  1
  Ho  Ho1  1  0.501354  0.302362  0.500857  1
  Ho  Ho2  1  0.801503  0.000496  0.499142  1
  Ho  Ho3  1  0.000479  0.501297  0.199005  1
  Ho  Ho4  1  0.302311  0.801492  0.801029  1
  Ho  Ho5  1  0.500959  0.700038  0.499273  1
  Ho  Ho6  1  0.200767  0.001690  0.500733  1
  Ho  Ho7  1  0.001716  0.501017  0.800931  1
  Ho  Ho8  1  0.700076  0.200770  0.199045  1
  Ho  Ho9  1  0.502106  0.502104  0.000001  1
  Sn  Sn10  1  0.146356  0.357131  0.501405  1
  Sn  Sn11  1  0.855727  0.644950  0.498595  1
  Sn  Sn12  1  0.644936  0.146320  0.789160  1
  Sn  Sn13  1  0.357158  0.855774  0.210842  1
  Sn  Sn14  1  0.750679  0.750678  0.000000  1
  Sn  Sn15  1  0.252556  0.252550  0.999985  1
  O  O16  1  0.751046  0.251048  0.499961  1
  O  O17  1  0.250802  0.750816  0.500039  1
