# generated using pymatgen
data_SmSi4(PdRh)3
_symmetry_space_group_name_H-M   'P 1'
_cell_length_a   7.14181100
_cell_length_b   7.14181146
_cell_length_c   3.81081900
_cell_angle_alpha   90.00000000
_cell_angle_beta   90.00000000
_cell_angle_gamma   120.00000249
_symmetry_Int_Tables_number   1
_chemical_formula_structural   SmSi4(PdRh)3
_chemical_formula_sum   'Sm1 Si4 Pd3 Rh3'
_cell_volume   168.33160973
_cell_formula_units_Z   1
loop_
 _symmetry_equiv_pos_site_id
 _symmetry_equiv_pos_as_xyz
  1  'x, y, z'
loop_
 _atom_site_type_symbol
 _atom_site_label
 _atom_site_symmetry_multiplicity
 _atom_site_fract_x
 _atom_site_fract_y
 _atom_site_fract_z
 _atom_site_occupancy
  Sm  Sm0  1  0.000000  0.000000  0.000000  1
  Si  Si1  1  0.333333  0.666666  0.000000  1
  Si  Si2  1  0.405561  0.202781  0.500000  1
  Si  Si3  1  0.797220  0.202781  0.500000  1
  Si  Si4  1  0.797220  0.594438  0.500000  1
  Pd  Pd5  1  0.197453  0.394905  0.500000  1
  Pd  Pd6  1  0.197453  0.802548  0.500000  1
  Pd  Pd7  1  0.605095  0.802548  0.500000  1
  Rh  Rh8  1  0.533995  0.067989  0.000000  1
  Rh  Rh9  1  0.932010  0.466006  0.000000  1
  Rh  Rh10  1  0.533994  0.466006  0.000000  1
