# generated using pymatgen
data_KSr(VS2)6
_symmetry_space_group_name_H-M   'P 1'
_cell_length_a   5.60030900
_cell_length_b   5.60030887
_cell_length_c   15.24651000
_cell_angle_alpha   90.00000000
_cell_angle_beta   90.00000000
_cell_angle_gamma   119.99999487
_symmetry_Int_Tables_number   1
_chemical_formula_structural   KSr(VS2)6
_chemical_formula_sum   'K1 Sr1 V6 S12'
_cell_volume   414.11891463
_cell_formula_units_Z   1
loop_
 _symmetry_equiv_pos_site_id
 _symmetry_equiv_pos_as_xyz
  1  'x, y, z'
loop_
 _atom_site_type_symbol
 _atom_site_label
 _atom_site_symmetry_multiplicity
 _atom_site_fract_x
 _atom_site_fract_y
 _atom_site_fract_z
 _atom_site_occupancy
  K  K0  1  0.000000  0.000000  0.500000  1
  Sr  Sr1  1  0.000000  0.000000  0.000000  1
  V  V2  1  0.000000  0.000000  0.242478  1
  V  V3  1  0.000000  0.000000  0.757522  1
  V  V4  1  0.333333  0.666667  0.242449  1
  V  V5  1  0.666667  0.333333  0.757551  1
  V  V6  1  0.666667  0.333333  0.242449  1
  V  V7  1  0.333333  0.666667  0.757551  1
  S  S8  1  0.337132  0.000000  0.146870  1
  S  S9  1  0.000000  0.337132  0.146870  1
  S  S10  1  0.662868  0.662868  0.146870  1
  S  S11  1  0.336438  0.336438  0.662739  1
  S  S12  1  0.663562  0.663562  0.337261  1
  S  S13  1  0.663562  0.000000  0.662739  1
  S  S14  1  0.000000  0.663562  0.662739  1
  S  S15  1  0.000000  0.662868  0.853130  1
  S  S16  1  0.337132  0.337132  0.853130  1
  S  S17  1  0.000000  0.336438  0.337261  1
  S  S18  1  0.336438  0.000000  0.337261  1
  S  S19  1  0.662868  0.000000  0.853130  1
