# generated using pymatgen
data_Pr4Y2PtBr10
_symmetry_space_group_name_H-M   'P 1'
_cell_length_a   7.52948251
_cell_length_b   9.62859040
_cell_length_c   9.64645427
_cell_angle_alpha   108.22055704
_cell_angle_beta   94.87111601
_cell_angle_gamma   105.22213967
_symmetry_Int_Tables_number   1
_chemical_formula_structural   Pr4Y2PtBr10
_chemical_formula_sum   'Pr4 Y2 Pt1 Br10'
_cell_volume   630.24813383
_cell_formula_units_Z   1
loop_
 _symmetry_equiv_pos_site_id
 _symmetry_equiv_pos_as_xyz
  1  'x, y, z'
loop_
 _atom_site_type_symbol
 _atom_site_label
 _atom_site_symmetry_multiplicity
 _atom_site_fract_x
 _atom_site_fract_y
 _atom_site_fract_z
 _atom_site_occupancy
  Pr  Pr0  1  0.467934  0.801989  0.598289  1
  Pr  Pr1  1  0.532066  0.198011  0.401711  1
  Pr  Pr2  1  0.363520  0.449900  0.750124  1
  Pr  Pr3  1  0.636480  0.550100  0.249876  1
  Y  Y4  1  0.854502  0.628816  0.671691  1
  Y  Y5  1  0.145498  0.371184  0.328309  1
  Pt  Pt6  1  0.500000  0.500000  0.500000  1
  Br  Br7  1  0.413103  0.132876  0.671857  1
  Br  Br8  1  0.586897  0.867124  0.328143  1
  Br  Br9  1  0.049711  0.672523  0.419904  1
  Br  Br10  1  0.950289  0.327477  0.580096  1
  Br  Br11  1  0.253966  0.745497  0.838988  1
  Br  Br12  1  0.746034  0.254503  0.161012  1
  Br  Br13  1  0.251618  0.418810  0.059396  1
  Br  Br14  1  0.748382  0.581190  0.940604  1
  Br  Br15  1  0.853485  0.936124  0.765197  1
  Br  Br16  1  0.146515  0.063876  0.234803  1
