# generated using pymatgen
data_Tm4Lu8Fe2TcPb2
_symmetry_space_group_name_H-M   'P 1'
_cell_length_a   8.27654233
_cell_length_b   8.27654340
_cell_length_c   8.27654238
_cell_angle_alpha   108.55609646
_cell_angle_beta   108.55608179
_cell_angle_gamma   111.31740157
_symmetry_Int_Tables_number   1
_chemical_formula_structural   Tm4Lu8Fe2TcPb2
_chemical_formula_sum   'Tm4 Lu8 Fe2 Tc1 Pb2'
_cell_volume   436.09939913
_cell_formula_units_Z   1
loop_
 _symmetry_equiv_pos_site_id
 _symmetry_equiv_pos_as_xyz
  1  'x, y, z'
loop_
 _atom_site_type_symbol
 _atom_site_label
 _atom_site_symmetry_multiplicity
 _atom_site_fract_x
 _atom_site_fract_y
 _atom_site_fract_z
 _atom_site_occupancy
  Tm  Tm0  1  0.308312  0.308312  0.616625  1
  Tm  Tm1  1  0.691688  0.691688  0.383375  1
  Tm  Tm2  1  0.691688  0.308312  0.000000  1
  Tm  Tm3  1  0.308312  0.691688  0.000000  1
  Lu  Lu4  1  0.193182  0.428010  0.234828  1
  Lu  Lu5  1  0.806818  0.571990  0.765172  1
  Lu  Lu6  1  0.193182  0.958353  0.765172  1
  Lu  Lu7  1  0.958353  0.193182  0.765172  1
  Lu  Lu8  1  0.806818  0.041647  0.234828  1
  Lu  Lu9  1  0.041647  0.806818  0.234828  1
  Lu  Lu10  1  0.428010  0.193182  0.234828  1
  Lu  Lu11  1  0.571990  0.806818  0.765172  1
  Fe  Fe12  1  0.384795  0.384795  0.000000  1
  Fe  Fe13  1  0.615205  0.615205  0.000000  1
  Tc  Tc14  1  0.000000  0.000000  0.000000  1
  Pb  Pb15  1  0.000000  0.500000  0.500000  1
  Pb  Pb16  1  0.500000  0.000000  0.500000  1
