# generated using pymatgen
data_Ho8P(PdPt5)4
_symmetry_space_group_name_H-M   'P 1'
_cell_length_a   8.32501878
_cell_length_b   8.29911600
_cell_length_c   8.34972900
_cell_angle_alpha   90.00000000
_cell_angle_beta   90.02481091
_cell_angle_gamma   90.00000000
_symmetry_Int_Tables_number   1
_chemical_formula_structural   Ho8P(PdPt5)4
_chemical_formula_sum   'Ho8 P1 Pd4 Pt20'
_cell_volume   576.88519873
_cell_formula_units_Z   1
loop_
 _symmetry_equiv_pos_site_id
 _symmetry_equiv_pos_as_xyz
  1  'x, y, z'
loop_
 _atom_site_type_symbol
 _atom_site_label
 _atom_site_symmetry_multiplicity
 _atom_site_fract_x
 _atom_site_fract_y
 _atom_site_fract_z
 _atom_site_occupancy
  Ho  Ho0  1  0.254614  0.254663  0.254847  1
  Ho  Ho1  1  0.745188  0.744706  0.744714  1
  Ho  Ho2  1  0.745358  0.745060  0.254916  1
  Ho  Ho3  1  0.745188  0.255294  0.744714  1
  Ho  Ho4  1  0.254782  0.254851  0.744608  1
  Ho  Ho5  1  0.254614  0.745337  0.254847  1
  Ho  Ho6  1  0.254782  0.745149  0.744608  1
  Ho  Ho7  1  0.745358  0.254940  0.254916  1
  P  P8  1  0.000367  0.000000  0.004677  1
  Pd  Pd9  1  0.743717  0.000000  0.499983  1
  Pd  Pd10  1  0.999903  0.500000  0.256185  1
  Pd  Pd11  1  0.999956  0.500000  0.742581  1
  Pd  Pd12  1  0.999651  0.000000  0.726576  1
  Pt  Pt13  1  0.255836  0.500000  0.999923  1
  Pt  Pt14  1  0.744324  0.500000  0.999971  1
  Pt  Pt15  1  0.000226  0.256638  0.499793  1
  Pt  Pt16  1  0.500026  0.256326  0.999917  1
  Pt  Pt17  1  0.000226  0.743362  0.499793  1
  Pt  Pt18  1  0.500026  0.743674  0.999917  1
  Pt  Pt19  1  0.500007  0.000000  0.255581  1
  Pt  Pt20  1  0.255850  0.000000  0.499857  1
  Pt  Pt21  1  0.500081  0.000000  0.743100  1
  Pt  Pt22  1  0.251260  0.500000  0.499832  1
  Pt  Pt23  1  0.748747  0.500000  0.499860  1
  Pt  Pt24  1  0.499835  0.251720  0.499822  1
  Pt  Pt25  1  0.499835  0.748280  0.499822  1
  Pt  Pt26  1  0.500066  0.500000  0.251873  1
  Pt  Pt27  1  0.500067  0.500000  0.748241  1
  Pt  Pt28  1  0.274986  0.000000  0.998759  1
  Pt  Pt29  1  0.725309  0.000000  0.998936  1
  Pt  Pt30  1  0.000065  0.276040  0.998890  1
  Pt  Pt31  1  0.000065  0.723960  0.998890  1
  Pt  Pt32  1  0.999686  0.000000  0.279051  1
