# generated using pymatgen
data_Li8Tb7DySn5Sb3
_symmetry_space_group_name_H-M   'P 1'
_cell_length_a   9.41692000
_cell_length_b   9.41691955
_cell_length_c   7.25225200
_cell_angle_alpha   90.00000000
_cell_angle_beta   90.00000000
_cell_angle_gamma   119.99999456
_symmetry_Int_Tables_number   1
_chemical_formula_structural   Li8Tb7DySn5Sb3
_chemical_formula_sum   'Li8 Tb7 Dy1 Sn5 Sb3'
_cell_volume   556.95650796
_cell_formula_units_Z   1
loop_
 _symmetry_equiv_pos_site_id
 _symmetry_equiv_pos_as_xyz
  1  'x, y, z'
loop_
 _atom_site_type_symbol
 _atom_site_label
 _atom_site_symmetry_multiplicity
 _atom_site_fract_x
 _atom_site_fract_y
 _atom_site_fract_z
 _atom_site_occupancy
  Li  Li0  1  0.166839  0.333678  0.283551  1
  Li  Li1  1  0.166839  0.833161  0.283551  1
  Li  Li2  1  0.666322  0.833161  0.283551  1
  Li  Li3  1  0.833090  0.666180  0.786056  1
  Li  Li4  1  0.833090  0.166910  0.786056  1
  Li  Li5  1  0.333820  0.166910  0.786056  1
  Li  Li6  1  0.333333  0.666667  0.678351  1
  Li  Li7  1  0.666667  0.333333  0.182671  1
  Tb  Tb8  1  0.511838  0.023673  0.490487  1
  Tb  Tb9  1  0.511838  0.488162  0.490487  1
  Tb  Tb10  1  0.976327  0.488162  0.490487  1
  Tb  Tb11  1  0.490416  0.980833  0.995247  1
  Tb  Tb12  1  0.490416  0.509584  0.995247  1
  Tb  Tb13  1  0.019167  0.509584  0.995247  1
  Tb  Tb14  1  0.000000  0.000000  0.497898  1
  Dy  Dy15  1  0.000000  0.000000  0.003821  1
  Sn  Sn16  1  0.833629  0.667258  0.232479  1
  Sn  Sn17  1  0.833629  0.166371  0.232479  1
  Sn  Sn18  1  0.332742  0.166371  0.232479  1
  Sn  Sn19  1  0.333333  0.666667  0.257115  1
  Sn  Sn20  1  0.666667  0.333333  0.757408  1
  Sb  Sb21  1  0.166596  0.333191  0.733758  1
  Sb  Sb22  1  0.166596  0.833404  0.733758  1
  Sb  Sb23  1  0.666809  0.833404  0.733758  1
