# generated using pymatgen
data_Ta6CN2
_symmetry_space_group_name_H-M   'P 1'
_cell_length_a   5.35010000
_cell_length_b   5.35010006
_cell_length_c   4.95041600
_cell_angle_alpha   90.00000000
_cell_angle_beta   90.00000000
_cell_angle_gamma   120.00001202
_symmetry_Int_Tables_number   1
_chemical_formula_structural   Ta6CN2
_chemical_formula_sum   'Ta6 C1 N2'
_cell_volume   122.71455547
_cell_formula_units_Z   1
loop_
 _symmetry_equiv_pos_site_id
 _symmetry_equiv_pos_as_xyz
  1  'x, y, z'
loop_
 _atom_site_type_symbol
 _atom_site_label
 _atom_site_symmetry_multiplicity
 _atom_site_fract_x
 _atom_site_fract_y
 _atom_site_fract_z
 _atom_site_occupancy
  Ta  Ta0  1  0.663274  0.663674  0.754265  1
  Ta  Ta1  1  0.000401  0.336726  0.754265  1
  Ta  Ta2  1  0.336326  0.999599  0.754265  1
  Ta  Ta3  1  0.336326  0.336726  0.245735  1
  Ta  Ta4  1  0.000401  0.663674  0.245735  1
  Ta  Ta5  1  0.663274  0.999599  0.245735  1
  C  C6  1  0.666667  0.333333  0.500000  1
  N  N7  1  0.333333  0.666667  0.500000  1
  N  N8  1  0.000000  0.000000  0.000000  1
