# generated using pymatgen
data_Nd5Si11AsIr19
_symmetry_space_group_name_H-M   'P 1'
_cell_length_a   12.95731327
_cell_length_b   12.98555481
_cell_length_c   4.02175600
_cell_angle_alpha   90.00000000
_cell_angle_beta   90.00000000
_cell_angle_gamma   120.07212846
_symmetry_Int_Tables_number   1
_chemical_formula_structural   Nd5Si11AsIr19
_chemical_formula_sum   'Nd5 Si11 As1 Ir19'
_cell_volume   585.60625640
_cell_formula_units_Z   1
loop_
 _symmetry_equiv_pos_site_id
 _symmetry_equiv_pos_as_xyz
  1  'x, y, z'
loop_
 _atom_site_type_symbol
 _atom_site_label
 _atom_site_symmetry_multiplicity
 _atom_site_fract_x
 _atom_site_fract_y
 _atom_site_fract_z
 _atom_site_occupancy
  Nd  Nd0  1  0.000000  0.813502  0.500000  1
  Nd  Nd1  1  0.189562  0.187197  0.500000  1
  Nd  Nd2  1  0.810438  0.997635  0.500000  1
  Nd  Nd3  1  0.334256  0.667776  0.000000  1
  Nd  Nd4  1  0.665744  0.333518  0.000000  1
  Si  Si5  1  0.816022  0.814435  0.000000  1
  Si  Si6  1  0.183978  0.998413  0.000000  1
  Si  Si7  1  0.520501  0.689063  0.500000  1
  Si  Si8  1  0.311288  0.831714  0.500000  1
  Si  Si9  1  0.170100  0.482386  0.500000  1
  Si  Si10  1  0.479499  0.168562  0.500000  1
  Si  Si11  1  0.688712  0.520426  0.500000  1
  Si  Si12  1  0.829900  0.312286  0.500000  1
  Si  Si13  1  0.000000  0.629817  0.000000  1
  Si  Si14  1  0.370866  0.370621  0.000000  1
  Si  Si15  1  0.629134  0.999756  0.000000  1
  As  As16  1  0.000000  0.179555  0.000000  1
  Ir  Ir17  1  0.000000  0.288167  0.500000  1
  Ir  Ir18  1  0.715229  0.715030  0.500000  1
  Ir  Ir19  1  0.284771  0.999801  0.500000  1
  Ir  Ir20  1  0.622515  0.804696  0.000000  1
  Ir  Ir21  1  0.196117  0.817109  0.000000  1
  Ir  Ir22  1  0.183954  0.380465  0.000000  1
  Ir  Ir23  1  0.377485  0.182181  0.000000  1
  Ir  Ir24  1  0.803883  0.620992  0.000000  1
  Ir  Ir25  1  0.816046  0.196511  0.000000  1
  Ir  Ir26  1  0.512438  0.874799  0.500000  1
  Ir  Ir27  1  0.124885  0.638149  0.500000  1
  Ir  Ir28  1  0.363106  0.488477  0.500000  1
  Ir  Ir29  1  0.487562  0.362360  0.500000  1
  Ir  Ir30  1  0.875115  0.513263  0.500000  1
  Ir  Ir31  1  0.636894  0.125370  0.500000  1
  Ir  Ir32  1  0.000000  0.994764  0.000000  1
  Ir  Ir33  1  0.000000  0.447266  0.000000  1
  Ir  Ir34  1  0.553048  0.553493  0.000000  1
  Ir  Ir35  1  0.446952  0.000445  0.000000  1
