# generated using pymatgen
data_Y2Co2Se
_symmetry_space_group_name_H-M   'P 1'
_cell_length_a   3.90083100
_cell_length_b   3.90083111
_cell_length_c   15.33855600
_cell_angle_alpha   90.00000000
_cell_angle_beta   90.00000000
_cell_angle_gamma   120.00002453
_symmetry_Int_Tables_number   1
_chemical_formula_structural   Y2Co2Se
_chemical_formula_sum   'Y4 Co4 Se2'
_cell_volume   202.12930521
_cell_formula_units_Z   2
loop_
 _symmetry_equiv_pos_site_id
 _symmetry_equiv_pos_as_xyz
  1  'x, y, z'
loop_
 _atom_site_type_symbol
 _atom_site_label
 _atom_site_symmetry_multiplicity
 _atom_site_fract_x
 _atom_site_fract_y
 _atom_site_fract_z
 _atom_site_occupancy
  Y  Y0  1  0.000000  0.000000  0.121863  1
  Y  Y1  1  0.000000  0.000000  0.878137  1
  Y  Y2  1  0.000000  0.000000  0.621863  1
  Y  Y3  1  0.000000  0.000000  0.378137  1
  Co  Co4  1  0.333333  0.666667  0.502274  1
  Co  Co5  1  0.666667  0.333333  0.497726  1
  Co  Co6  1  0.666667  0.333333  0.002274  1
  Co  Co7  1  0.333333  0.666667  0.997726  1
  Se  Se8  1  0.333333  0.666667  0.250000  1
  Se  Se9  1  0.666667  0.333333  0.750000  1
