# generated using pymatgen
data_HoHf(GaPt)2
_symmetry_space_group_name_H-M   'P 1'
_cell_length_a   7.26935400
_cell_length_b   7.26935343
_cell_length_c   7.33874500
_cell_angle_alpha   90.00000000
_cell_angle_beta   90.00000000
_cell_angle_gamma   120.00001169
_symmetry_Int_Tables_number   1
_chemical_formula_structural   HoHf(GaPt)2
_chemical_formula_sum   'Ho3 Hf3 Ga6 Pt6'
_cell_volume   335.84893933
_cell_formula_units_Z   3
loop_
 _symmetry_equiv_pos_site_id
 _symmetry_equiv_pos_as_xyz
  1  'x, y, z'
loop_
 _atom_site_type_symbol
 _atom_site_label
 _atom_site_symmetry_multiplicity
 _atom_site_fract_x
 _atom_site_fract_y
 _atom_site_fract_z
 _atom_site_occupancy
  Ho  Ho0  1  0.591819  0.999463  0.750000  1
  Ho  Ho1  1  0.407644  0.408181  0.750000  1
  Ho  Ho2  1  0.000537  0.592356  0.750000  1
  Hf  Hf3  1  0.390826  0.390309  0.250000  1
  Hf  Hf4  1  0.999482  0.609174  0.250000  1
  Hf  Hf5  1  0.609691  0.000518  0.250000  1
  Ga  Ga6  1  0.263459  0.999808  0.007330  1
  Ga  Ga7  1  0.263459  0.999808  0.492670  1
  Ga  Ga8  1  0.000192  0.263650  0.492670  1
  Ga  Ga9  1  0.000192  0.263650  0.007330  1
  Ga  Ga10  1  0.736350  0.736541  0.007330  1
  Ga  Ga11  1  0.736350  0.736541  0.492670  1
  Pt  Pt12  1  0.666667  0.333333  0.471977  1
  Pt  Pt13  1  0.000000  0.000000  0.750000  1
  Pt  Pt14  1  0.666667  0.333333  0.028023  1
  Pt  Pt15  1  0.333333  0.666667  0.029044  1
  Pt  Pt16  1  0.333333  0.666667  0.470956  1
  Pt  Pt17  1  0.000000  0.000000  0.250000  1
