# generated using pymatgen
data_TmZr2PdF15
_symmetry_space_group_name_H-M   'P 1'
_cell_length_a   8.09283411
_cell_length_b   8.09283410
_cell_length_c   8.11716660
_cell_angle_alpha   79.47174013
_cell_angle_beta   79.47174587
_cell_angle_gamma   99.44280796
_symmetry_Int_Tables_number   1
_chemical_formula_structural   TmZr2PdF15
_chemical_formula_sum   'Tm2 Zr4 Pd2 F30'
_cell_volume   503.04091218
_cell_formula_units_Z   2
loop_
 _symmetry_equiv_pos_site_id
 _symmetry_equiv_pos_as_xyz
  1  'x, y, z'
loop_
 _atom_site_type_symbol
 _atom_site_label
 _atom_site_symmetry_multiplicity
 _atom_site_fract_x
 _atom_site_fract_y
 _atom_site_fract_z
 _atom_site_occupancy
  Tm  Tm0  1  0.178300  0.821700  0.250000  1
  Tm  Tm1  1  0.821700  0.178300  0.750000  1
  Zr  Zr2  1  0.745673  0.679343  0.670940  1
  Zr  Zr3  1  0.320657  0.254327  0.829060  1
  Zr  Zr4  1  0.254327  0.320657  0.329060  1
  Zr  Zr5  1  0.679343  0.745673  0.170940  1
  Pd  Pd6  1  0.749914  0.250086  0.250000  1
  Pd  Pd7  1  0.250086  0.749914  0.750000  1
  F  F8  1  0.312929  0.351254  0.056692  1
  F  F9  1  0.938202  0.810342  0.154986  1
  F  F10  1  0.840783  0.457566  0.688454  1
  F  F11  1  0.457566  0.840783  0.188454  1
  F  F12  1  0.810342  0.938202  0.654986  1
  F  F13  1  0.351254  0.312929  0.556691  1
  F  F14  1  0.687071  0.648746  0.943308  1
  F  F15  1  0.061798  0.189658  0.845014  1
  F  F16  1  0.159217  0.542434  0.311546  1
  F  F17  1  0.542434  0.159217  0.811546  1
  F  F18  1  0.189658  0.061798  0.345014  1
  F  F19  1  0.648746  0.687071  0.443308  1
  F  F20  1  0.770421  0.284484  0.002105  1
  F  F21  1  0.998709  0.272467  0.209057  1
  F  F22  1  0.789111  0.502270  0.222628  1
  F  F23  1  0.502270  0.789111  0.722628  1
  F  F24  1  0.272467  0.998709  0.709057  1
  F  F25  1  0.284484  0.770421  0.502105  1
  F  F26  1  0.229579  0.715516  0.997895  1
  F  F27  1  0.001291  0.727533  0.790943  1
  F  F28  1  0.210889  0.497730  0.777372  1
  F  F29  1  0.497730  0.210889  0.277372  1
  F  F30  1  0.727533  0.001291  0.290943  1
  F  F31  1  0.715516  0.229579  0.497895  1
  F  F32  1  0.473190  0.526810  0.250000  1
  F  F33  1  0.747502  0.958122  0.971662  1
  F  F34  1  0.041878  0.252498  0.528338  1
  F  F35  1  0.252498  0.041878  0.028338  1
  F  F36  1  0.958122  0.747502  0.471662  1
  F  F37  1  0.526810  0.473190  0.750000  1
