# generated using pymatgen
data_Ba2Sm(CuO2)4
_symmetry_space_group_name_H-M   'P 1'
_cell_length_a   13.76665098
_cell_length_b   13.76665084
_cell_length_c   3.88596300
_cell_angle_alpha   90.00000000
_cell_angle_beta   90.00000000
_cell_angle_gamma   163.34169741
_symmetry_Int_Tables_number   1
_chemical_formula_structural   Ba2Sm(CuO2)4
_chemical_formula_sum   'Ba2 Sm1 Cu4 O8'
_cell_volume   211.11907794
_cell_formula_units_Z   1
loop_
 _symmetry_equiv_pos_site_id
 _symmetry_equiv_pos_as_xyz
  1  'x, y, z'
loop_
 _atom_site_type_symbol
 _atom_site_label
 _atom_site_symmetry_multiplicity
 _atom_site_fract_x
 _atom_site_fract_y
 _atom_site_fract_z
 _atom_site_occupancy
  Ba  Ba0  1  0.363158  0.636842  0.500000  1
  Ba  Ba1  1  0.636842  0.363158  0.500000  1
  Sm  Sm2  1  0.500000  0.500000  0.500000  1
  Cu  Cu3  1  0.061681  0.938319  0.000000  1
  Cu  Cu4  1  0.938319  0.061681  0.000000  1
  Cu  Cu5  1  0.213580  0.786420  0.000000  1
  Cu  Cu6  1  0.786420  0.213580  0.000000  1
  O  O7  1  0.145988  0.854012  0.000000  1
  O  O8  1  0.854012  0.145988  0.000000  1
  O  O9  1  0.555576  0.444424  0.000000  1
  O  O10  1  0.444424  0.555576  0.000000  1
  O  O11  1  0.053683  0.946317  0.500000  1
  O  O12  1  0.946317  0.053683  0.500000  1
  O  O13  1  0.717592  0.282408  0.000000  1
  O  O14  1  0.282408  0.717592  0.000000  1
