# generated using pymatgen
data_Ho12Th8Sn13Sb3
_symmetry_space_group_name_H-M   'P 1'
_cell_length_a   8.12884873
_cell_length_b   8.19512141
_cell_length_c   15.46131017
_cell_angle_alpha   90.03607459
_cell_angle_beta   89.95128722
_cell_angle_gamma   89.99959344
_symmetry_Int_Tables_number   1
_chemical_formula_structural   Ho12Th8Sn13Sb3
_chemical_formula_sum   'Ho12 Th8 Sn13 Sb3'
_cell_volume   1029.98401169
_cell_formula_units_Z   1
loop_
 _symmetry_equiv_pos_site_id
 _symmetry_equiv_pos_as_xyz
  1  'x, y, z'
loop_
 _atom_site_type_symbol
 _atom_site_label
 _atom_site_symmetry_multiplicity
 _atom_site_fract_x
 _atom_site_fract_y
 _atom_site_fract_z
 _atom_site_occupancy
  Ho  Ho0  1  0.362898  0.837259  0.876523  1
  Ho  Ho1  1  0.863611  0.662177  0.623399  1
  Ho  Ho2  1  0.636438  0.161650  0.376425  1
  Ho  Ho3  1  0.136813  0.337508  0.123929  1
  Ho  Ho4  1  0.637838  0.163318  0.123339  1
  Ho  Ho5  1  0.137607  0.337197  0.376724  1
  Ho  Ho6  1  0.362553  0.837326  0.623262  1
  Ho  Ho7  1  0.862781  0.663131  0.876147  1
  Ho  Ho8  1  0.191651  0.497045  0.749697  1
  Ho  Ho9  1  0.691530  0.003084  0.751023  1
  Ho  Ho10  1  0.808188  0.503507  0.249281  1
  Ho  Ho11  1  0.308437  0.996711  0.250963  1
  Th  Th12  1  0.518790  0.321845  0.904179  1
  Th  Th13  1  0.020164  0.178746  0.595836  1
  Th  Th14  1  0.479720  0.678900  0.404081  1
  Th  Th15  1  0.980132  0.820693  0.095952  1
  Th  Th16  1  0.481845  0.678649  0.095416  1
  Th  Th17  1  0.981887  0.820645  0.404557  1
  Th  Th18  1  0.518094  0.320918  0.595493  1
  Th  Th19  1  0.018156  0.179377  0.904061  1
  Sn  Sn20  1  0.201997  0.540100  0.958034  1
  Sn  Sn21  1  0.704065  0.960934  0.957269  1
  Sn  Sn22  1  0.203778  0.539272  0.542854  1
  Sn  Sn23  1  0.296543  0.039183  0.457051  1
  Sn  Sn24  1  0.798321  0.460730  0.042549  1
  Sn  Sn25  1  0.557974  0.621469  0.749523  1
  Sn  Sn26  1  0.057744  0.878459  0.749598  1
  Sn  Sn27  1  0.442353  0.378290  0.250208  1
  Sn  Sn28  1  0.942189  0.121597  0.250194  1
  Sn  Sn29  1  0.325777  0.142157  0.749923  1
  Sn  Sn30  1  0.825724  0.357770  0.749690  1
  Sn  Sn31  1  0.673926  0.857892  0.250107  1
  Sn  Sn32  1  0.174031  0.642449  0.249981  1
  Sb  Sb33  1  0.296748  0.039660  0.042787  1
  Sb  Sb34  1  0.796427  0.460081  0.457250  1
  Sb  Sb35  1  0.703269  0.960271  0.542698  1
