# generated using pymatgen
data_Tm16Al4TcPd3
_symmetry_space_group_name_H-M   'P 1'
_cell_length_a   9.40971363
_cell_length_b   9.40971393
_cell_length_c   9.40971400
_cell_angle_alpha   59.61316498
_cell_angle_beta   59.61317096
_cell_angle_gamma   59.61316133
_symmetry_Int_Tables_number   1
_chemical_formula_structural   Tm16Al4TcPd3
_chemical_formula_sum   'Tm16 Al4 Tc1 Pd3'
_cell_volume   583.95480058
_cell_formula_units_Z   1
loop_
 _symmetry_equiv_pos_site_id
 _symmetry_equiv_pos_as_xyz
  1  'x, y, z'
loop_
 _atom_site_type_symbol
 _atom_site_label
 _atom_site_symmetry_multiplicity
 _atom_site_fract_x
 _atom_site_fract_y
 _atom_site_fract_z
 _atom_site_occupancy
  Tm  Tm0  1  0.358939  0.358939  0.358939  1
  Tm  Tm1  1  0.356403  0.356403  0.928249  1
  Tm  Tm2  1  0.356403  0.928249  0.356403  1
  Tm  Tm3  1  0.928249  0.356403  0.356403  1
  Tm  Tm4  1  0.815295  0.189991  0.189991  1
  Tm  Tm5  1  0.190355  0.808183  0.808183  1
  Tm  Tm6  1  0.189991  0.815295  0.189991  1
  Tm  Tm7  1  0.808183  0.190355  0.808183  1
  Tm  Tm8  1  0.189991  0.189991  0.815295  1
  Tm  Tm9  1  0.808183  0.808183  0.190355  1
  Tm  Tm10  1  0.933698  0.565000  0.565000  1
  Tm  Tm11  1  0.556450  0.937880  0.937880  1
  Tm  Tm12  1  0.565000  0.933698  0.565000  1
  Tm  Tm13  1  0.937880  0.556450  0.937880  1
  Tm  Tm14  1  0.565000  0.565000  0.933698  1
  Tm  Tm15  1  0.937880  0.937880  0.556450  1
  Al  Al16  1  0.578806  0.578806  0.578806  1
  Al  Al17  1  0.578871  0.578871  0.261832  1
  Al  Al18  1  0.578871  0.261832  0.578871  1
  Al  Al19  1  0.261832  0.578871  0.578871  1
  Tc  Tc20  1  0.147688  0.147688  0.147688  1
  Pd  Pd21  1  0.147485  0.147485  0.561065  1
  Pd  Pd22  1  0.147485  0.561065  0.147485  1
  Pd  Pd23  1  0.561065  0.147485  0.147485  1
