# generated using pymatgen
data_Tb4ErReRuO12
_symmetry_space_group_name_H-M   'P 1'
_cell_length_a   6.86872858
_cell_length_b   6.86872917
_cell_length_c   7.52462745
_cell_angle_alpha   73.76648915
_cell_angle_beta   73.76648840
_cell_angle_gamma   48.93933811
_symmetry_Int_Tables_number   1
_chemical_formula_structural   Tb4ErReRuO12
_chemical_formula_sum   'Tb4 Er1 Re1 Ru1 O12'
_cell_volume   254.74244051
_cell_formula_units_Z   1
loop_
 _symmetry_equiv_pos_site_id
 _symmetry_equiv_pos_as_xyz
  1  'x, y, z'
loop_
 _atom_site_type_symbol
 _atom_site_label
 _atom_site_symmetry_multiplicity
 _atom_site_fract_x
 _atom_site_fract_y
 _atom_site_fract_z
 _atom_site_occupancy
  Tb  Tb0  1  0.711169  0.683139  0.642654  1
  Tb  Tb1  1  0.316861  0.288831  0.357346  1
  Tb  Tb2  1  0.689439  0.680405  0.174071  1
  Tb  Tb3  1  0.319595  0.310561  0.825929  1
  Er  Er4  1  0.008218  0.991782  0.500000  1
  Re  Re5  1  0.203389  0.796611  0.000000  1
  Ru  Ru6  1  0.769830  0.230170  0.000000  1
  O  O7  1  0.005231  0.998607  0.203202  1
  O  O8  1  0.001393  0.994769  0.796798  1
  O  O9  1  0.568013  0.085685  0.085516  1
  O  O10  1  0.404981  0.911399  0.915612  1
  O  O11  1  0.914315  0.431987  0.914484  1
  O  O12  1  0.088601  0.595019  0.084388  1
  O  O13  1  0.485724  0.512297  0.174187  1
  O  O14  1  0.487703  0.514276  0.825813  1
  O  O15  1  0.404988  0.892596  0.432593  1
  O  O16  1  0.602608  0.089462  0.575506  1
  O  O17  1  0.107404  0.595012  0.567407  1
  O  O18  1  0.910538  0.397392  0.424494  1
