# generated using pymatgen
data_Ca4ZrFe(MoO6)2
_symmetry_space_group_name_H-M   'P 1'
_cell_length_a   5.53927554
_cell_length_b   5.70727183
_cell_length_c   7.96676099
_cell_angle_alpha   90.04963705
_cell_angle_beta   89.32992565
_cell_angle_gamma   90.02489140
_symmetry_Int_Tables_number   1
_chemical_formula_structural   Ca4ZrFe(MoO6)2
_chemical_formula_sum   'Ca4 Zr1 Fe1 Mo2 O12'
_cell_volume   251.84504613
_cell_formula_units_Z   1
loop_
 _symmetry_equiv_pos_site_id
 _symmetry_equiv_pos_as_xyz
  1  'x, y, z'
loop_
 _atom_site_type_symbol
 _atom_site_label
 _atom_site_symmetry_multiplicity
 _atom_site_fract_x
 _atom_site_fract_y
 _atom_site_fract_z
 _atom_site_occupancy
  Ca  Ca0  1  0.485902  0.444809  0.734795  1
  Ca  Ca1  1  0.019949  0.947398  0.741663  1
  Ca  Ca2  1  0.514097  0.555192  0.265206  1
  Ca  Ca3  1  0.980050  0.052601  0.258336  1
  Zr  Zr4  1  0.000000  0.499999  0.000000  1
  Fe  Fe5  1  0.500000  0.000000  0.500001  1
  Mo  Mo6  1  0.499999  0.000000  0.000000  1
  Mo  Mo7  1  0.000000  0.499999  0.499999  1
  O  O8  1  0.202369  0.197525  0.941213  1
  O  O9  1  0.603114  0.032516  0.770321  1
  O  O10  1  0.896584  0.537907  0.747189  1
  O  O11  1  0.396887  0.967485  0.229679  1
  O  O12  1  0.103417  0.462092  0.252811  1
  O  O13  1  0.184157  0.223560  0.552556  1
  O  O14  1  0.305447  0.705177  0.939718  1
  O  O15  1  0.815844  0.776441  0.447443  1
  O  O16  1  0.694552  0.294822  0.060283  1
  O  O17  1  0.704117  0.296842  0.452679  1
  O  O18  1  0.797631  0.802476  0.058786  1
  O  O19  1  0.295884  0.703159  0.547320  1
