# generated using pymatgen
data_Pr3Sm(Lu4Bi3)4
_symmetry_space_group_name_H-M   'P 1'
_cell_length_a   8.23041569
_cell_length_b   9.40960700
_cell_length_c   11.96020600
_cell_angle_alpha   90.00000000
_cell_angle_beta   89.95366446
_cell_angle_gamma   90.00000000
_symmetry_Int_Tables_number   1
_chemical_formula_structural   Pr3Sm(Lu4Bi3)4
_chemical_formula_sum   'Pr3 Sm1 Lu16 Bi12'
_cell_volume   926.25757692
_cell_formula_units_Z   1
loop_
 _symmetry_equiv_pos_site_id
 _symmetry_equiv_pos_as_xyz
  1  'x, y, z'
loop_
 _atom_site_type_symbol
 _atom_site_label
 _atom_site_symmetry_multiplicity
 _atom_site_fract_x
 _atom_site_fract_y
 _atom_site_fract_z
 _atom_site_occupancy
  Pr  Pr0  1  0.184240  0.250000  0.781368  1
  Pr  Pr1  1  0.816299  0.750000  0.219135  1
  Pr  Pr2  1  0.315819  0.750000  0.280812  1
  Sm  Sm3  1  0.684971  0.250000  0.718173  1
  Lu  Lu4  1  0.022922  0.250000  0.512200  1
  Lu  Lu5  1  0.977287  0.750000  0.490043  1
  Lu  Lu6  1  0.478621  0.750000  0.010219  1
  Lu  Lu7  1  0.521450  0.250000  0.988486  1
  Lu  Lu8  1  0.353812  0.250000  0.281642  1
  Lu  Lu9  1  0.646776  0.750000  0.719693  1
  Lu  Lu10  1  0.145232  0.750000  0.779297  1
  Lu  Lu11  1  0.852707  0.250000  0.219207  1
  Lu  Lu12  1  0.190727  0.067992  0.061934  1
  Lu  Lu13  1  0.808976  0.932504  0.937595  1
  Lu  Lu14  1  0.307479  0.932907  0.562207  1
  Lu  Lu15  1  0.808976  0.567496  0.937595  1
  Lu  Lu16  1  0.692448  0.067391  0.438192  1
  Lu  Lu17  1  0.190727  0.432008  0.061934  1
  Lu  Lu18  1  0.692448  0.432609  0.438192  1
  Lu  Lu19  1  0.307479  0.567093  0.562207  1
  Bi  Bi20  1  0.404323  0.250000  0.537504  1
  Bi  Bi21  1  0.597820  0.750000  0.464866  1
  Bi  Bi22  1  0.099499  0.750000  0.034691  1
  Bi  Bi23  1  0.899351  0.250000  0.963456  1
  Bi  Bi24  1  0.065941  0.010730  0.329381  1
  Bi  Bi25  1  0.931065  0.991136  0.671935  1
  Bi  Bi26  1  0.437164  0.991334  0.827074  1
  Bi  Bi27  1  0.931065  0.508864  0.671935  1
  Bi  Bi28  1  0.565637  0.010260  0.171286  1
  Bi  Bi29  1  0.065941  0.489270  0.329381  1
  Bi  Bi30  1  0.565637  0.489740  0.171286  1
  Bi  Bi31  1  0.437164  0.508666  0.827074  1
