# generated using pymatgen
data_Tb4Co16Si11PRu4
_symmetry_space_group_name_H-M   'P 1'
_cell_length_a   3.74504000
_cell_length_b   10.55345390
_cell_length_c   11.96528701
_cell_angle_alpha   89.95288080
_cell_angle_beta   90.00000000
_cell_angle_gamma   90.00000000
_symmetry_Int_Tables_number   1
_chemical_formula_structural   Tb4Co16Si11PRu4
_chemical_formula_sum   'Tb4 Co16 Si11 P1 Ru4'
_cell_volume   472.90515850
_cell_formula_units_Z   1
loop_
 _symmetry_equiv_pos_site_id
 _symmetry_equiv_pos_as_xyz
  1  'x, y, z'
loop_
 _atom_site_type_symbol
 _atom_site_label
 _atom_site_symmetry_multiplicity
 _atom_site_fract_x
 _atom_site_fract_y
 _atom_site_fract_z
 _atom_site_occupancy
  Tb  Tb0  1  0.250000  0.583073  0.703642  1
  Tb  Tb1  1  0.250000  0.917566  0.202433  1
  Tb  Tb2  1  0.750000  0.417647  0.297122  1
  Tb  Tb3  1  0.750000  0.083442  0.795356  1
  Co  Co4  1  0.250000  0.406843  0.489753  1
  Co  Co5  1  0.250000  0.093081  0.992789  1
  Co  Co6  1  0.750000  0.593322  0.510369  1
  Co  Co7  1  0.750000  0.911017  0.012029  1
  Co  Co8  1  0.250000  0.213044  0.174082  1
  Co  Co9  1  0.250000  0.284974  0.674598  1
  Co  Co10  1  0.750000  0.786322  0.826088  1
  Co  Co11  1  0.750000  0.714811  0.325083  1
  Co  Co12  1  0.250000  0.886261  0.699774  1
  Co  Co13  1  0.250000  0.614327  0.200200  1
  Co  Co14  1  0.750000  0.113282  0.295952  1
  Co  Co15  1  0.750000  0.385430  0.800648  1
  Co  Co16  1  0.250000  0.467986  0.932407  1
  Co  Co17  1  0.250000  0.031067  0.429815  1
  Co  Co18  1  0.750000  0.530209  0.068792  1
  Co  Co19  1  0.750000  0.969364  0.567672  1
  Si  Si20  1  0.250000  0.415894  0.112389  1
  Si  Si21  1  0.250000  0.084178  0.610243  1
  Si  Si22  1  0.750000  0.584350  0.889080  1
  Si  Si23  1  0.750000  0.915424  0.388095  1
  Si  Si24  1  0.250000  0.272297  0.867412  1
  Si  Si25  1  0.250000  0.227838  0.367154  1
  Si  Si26  1  0.750000  0.727034  0.132461  1
  Si  Si27  1  0.750000  0.773074  0.632652  1
  Si  Si28  1  0.250000  0.600774  0.393199  1
  Si  Si29  1  0.250000  0.900506  0.892836  1
  Si  Si30  1  0.750000  0.399151  0.606954  1
  P  P31  1  0.750000  0.099343  0.107851  1
  Ru  Ru32  1  0.250000  0.705402  0.990575  1
  Ru  Ru33  1  0.250000  0.795623  0.490360  1
  Ru  Ru34  1  0.750000  0.291395  0.012046  1
  Ru  Ru35  1  0.750000  0.204649  0.508088  1
