# generated using pymatgen
data_Ti3ZnGaO
_symmetry_space_group_name_H-M   'P 1'
_cell_length_a   6.85989200
_cell_length_b   6.85989200
_cell_length_c   6.85989200
_cell_angle_alpha   90.00000000
_cell_angle_beta   90.00000000
_cell_angle_gamma   90.00000000
_symmetry_Int_Tables_number   1
_chemical_formula_structural   Ti3ZnGaO
_chemical_formula_sum   'Ti12 Zn4 Ga4 O4'
_cell_volume   322.81360893
_cell_formula_units_Z   4
loop_
 _symmetry_equiv_pos_site_id
 _symmetry_equiv_pos_as_xyz
  1  'x, y, z'
loop_
 _atom_site_type_symbol
 _atom_site_label
 _atom_site_symmetry_multiplicity
 _atom_site_fract_x
 _atom_site_fract_y
 _atom_site_fract_z
 _atom_site_occupancy
  Ti  Ti0  1  0.790565  0.960325  0.375175  1
  Ti  Ti1  1  0.709435  0.039675  0.875175  1
  Ti  Ti2  1  0.209435  0.460325  0.124825  1
  Ti  Ti3  1  0.290565  0.539675  0.624825  1
  Ti  Ti4  1  0.960325  0.375175  0.790565  1
  Ti  Ti5  1  0.039675  0.875175  0.709435  1
  Ti  Ti6  1  0.460325  0.124825  0.209435  1
  Ti  Ti7  1  0.539675  0.624825  0.290565  1
  Ti  Ti8  1  0.375175  0.790565  0.960325  1
  Ti  Ti9  1  0.875175  0.709435  0.039675  1
  Ti  Ti10  1  0.124825  0.209435  0.460325  1
  Ti  Ti11  1  0.624825  0.290565  0.539675  1
  Zn  Zn12  1  0.570770  0.429230  0.929230  1
  Zn  Zn13  1  0.429230  0.929230  0.570770  1
  Zn  Zn14  1  0.929230  0.570770  0.429230  1
  Zn  Zn15  1  0.070770  0.070770  0.070770  1
  Ga  Ga16  1  0.177433  0.822567  0.322567  1
  Ga  Ga17  1  0.322567  0.177433  0.822567  1
  Ga  Ga18  1  0.822567  0.322567  0.177433  1
  Ga  Ga19  1  0.677433  0.677433  0.677433  1
  O  O20  1  0.874247  0.125753  0.625753  1
  O  O21  1  0.625753  0.874247  0.125753  1
  O  O22  1  0.125753  0.625753  0.874247  1
  O  O23  1  0.374247  0.374247  0.374247  1
