# generated using pymatgen
data_HfTh3(NiAs)4
_symmetry_space_group_name_H-M   'P 1'
_cell_length_a   4.08668100
_cell_length_b   4.08668113
_cell_length_c   15.53771900
_cell_angle_alpha   90.00000000
_cell_angle_beta   90.00000000
_cell_angle_gamma   119.99999087
_symmetry_Int_Tables_number   1
_chemical_formula_structural   HfTh3(NiAs)4
_chemical_formula_sum   'Hf1 Th3 Ni4 As4'
_cell_volume   224.72915852
_cell_formula_units_Z   1
loop_
 _symmetry_equiv_pos_site_id
 _symmetry_equiv_pos_as_xyz
  1  'x, y, z'
loop_
 _atom_site_type_symbol
 _atom_site_label
 _atom_site_symmetry_multiplicity
 _atom_site_fract_x
 _atom_site_fract_y
 _atom_site_fract_z
 _atom_site_occupancy
  Hf  Hf0  1  0.000000  0.000000  0.250000  1
  Th  Th1  1  0.000000  0.000000  0.750000  1
  Th  Th2  1  0.000000  0.000000  0.009223  1
  Th  Th3  1  0.000000  0.000000  0.490777  1
  Ni  Ni4  1  0.333333  0.666667  0.164207  1
  Ni  Ni5  1  0.666667  0.333333  0.873730  1
  Ni  Ni6  1  0.666667  0.333333  0.626270  1
  Ni  Ni7  1  0.333333  0.666667  0.335793  1
  As  As8  1  0.333333  0.666667  0.617549  1
  As  As9  1  0.666667  0.333333  0.368618  1
  As  As10  1  0.666667  0.333333  0.131382  1
  As  As11  1  0.333333  0.666667  0.882451  1
