# generated using pymatgen
data_Yb5Sm2Tm(Cu2Sn5)2
_symmetry_space_group_name_H-M   'P 1'
_cell_length_a   4.46507500
_cell_length_b   8.76321400
_cell_length_c   14.10576700
_cell_angle_alpha   90.00000000
_cell_angle_beta   90.00000000
_cell_angle_gamma   90.00000000
_symmetry_Int_Tables_number   1
_chemical_formula_structural   Yb5Sm2Tm(Cu2Sn5)2
_chemical_formula_sum   'Yb5 Sm2 Tm1 Cu4 Sn10'
_cell_volume   551.93620282
_cell_formula_units_Z   1
loop_
 _symmetry_equiv_pos_site_id
 _symmetry_equiv_pos_as_xyz
  1  'x, y, z'
loop_
 _atom_site_type_symbol
 _atom_site_label
 _atom_site_symmetry_multiplicity
 _atom_site_fract_x
 _atom_site_fract_y
 _atom_site_fract_z
 _atom_site_occupancy
  Yb  Yb0  1  0.500000  0.791762  0.741342  1
  Yb  Yb1  1  0.000000  0.204571  0.752736  1
  Yb  Yb2  1  0.000000  0.204571  0.247264  1
  Yb  Yb3  1  0.000000  0.866869  0.500000  1
  Yb  Yb4  1  0.500000  0.791762  0.258658  1
  Sm  Sm5  1  0.500000  0.696138  0.000000  1
  Sm  Sm6  1  0.500000  0.141104  0.000000  1
  Tm  Tm7  1  0.000000  0.296822  0.500000  1
  Cu  Cu8  1  0.500000  0.378291  0.641617  1
  Cu  Cu9  1  0.000000  0.623650  0.851517  1
  Cu  Cu10  1  0.000000  0.623650  0.148483  1
  Cu  Cu11  1  0.500000  0.378291  0.358383  1
  Sn  Sn12  1  0.500000  0.084089  0.396482  1
  Sn  Sn13  1  0.000000  0.552387  0.661416  1
  Sn  Sn14  1  0.000000  0.411785  0.000000  1
  Sn  Sn15  1  0.500000  0.441995  0.165735  1
  Sn  Sn16  1  0.500000  0.595038  0.500000  1
  Sn  Sn17  1  0.500000  0.441995  0.834265  1
  Sn  Sn18  1  0.000000  0.919377  0.895764  1
  Sn  Sn19  1  0.000000  0.552387  0.338584  1
  Sn  Sn20  1  0.500000  0.084089  0.603518  1
  Sn  Sn21  1  0.000000  0.919377  0.104236  1
