# generated using pymatgen
data_Th2Sc3Sn4
_symmetry_space_group_name_H-M   'P 1'
_cell_length_a   7.91952400
_cell_length_b   7.97713400
_cell_length_c   15.01981300
_cell_angle_alpha   90.00000000
_cell_angle_beta   90.00000000
_cell_angle_gamma   90.00000000
_symmetry_Int_Tables_number   1
_chemical_formula_structural   Th2Sc3Sn4
_chemical_formula_sum   'Th8 Sc12 Sn16'
_cell_volume   948.87825080
_cell_formula_units_Z   4
loop_
 _symmetry_equiv_pos_site_id
 _symmetry_equiv_pos_as_xyz
  1  'x, y, z'
loop_
 _atom_site_type_symbol
 _atom_site_label
 _atom_site_symmetry_multiplicity
 _atom_site_fract_x
 _atom_site_fract_y
 _atom_site_fract_z
 _atom_site_occupancy
  Th  Th0  1  0.516008  0.325425  0.905576  1
  Th  Th1  1  0.016008  0.174575  0.594424  1
  Th  Th2  1  0.483992  0.674575  0.405576  1
  Th  Th3  1  0.983992  0.825425  0.094424  1
  Th  Th4  1  0.483992  0.674575  0.094424  1
  Th  Th5  1  0.983992  0.825425  0.405576  1
  Th  Th6  1  0.516008  0.325425  0.594424  1
  Th  Th7  1  0.016008  0.174575  0.905576  1
  Sc  Sc8  1  0.352494  0.839958  0.873953  1
  Sc  Sc9  1  0.852494  0.660042  0.626047  1
  Sc  Sc10  1  0.647506  0.160042  0.373953  1
  Sc  Sc11  1  0.147506  0.339958  0.126047  1
  Sc  Sc12  1  0.647506  0.160042  0.126047  1
  Sc  Sc13  1  0.147506  0.339958  0.373953  1
  Sc  Sc14  1  0.352494  0.839958  0.626047  1
  Sc  Sc15  1  0.852494  0.660042  0.873953  1
  Sc  Sc16  1  0.184057  0.500096  0.750000  1
  Sc  Sc17  1  0.684057  0.999904  0.750000  1
  Sc  Sc18  1  0.815943  0.499904  0.250000  1
  Sc  Sc19  1  0.315943  0.000096  0.250000  1
  Sn  Sn20  1  0.310714  0.045987  0.044045  1
  Sn  Sn21  1  0.810714  0.454013  0.455955  1
  Sn  Sn22  1  0.689286  0.954013  0.544045  1
  Sn  Sn23  1  0.189286  0.545987  0.955955  1
  Sn  Sn24  1  0.689286  0.954013  0.955955  1
  Sn  Sn25  1  0.189286  0.545987  0.544045  1
  Sn  Sn26  1  0.310714  0.045987  0.455955  1
  Sn  Sn27  1  0.810714  0.454013  0.044045  1
  Sn  Sn28  1  0.547782  0.632934  0.750000  1
  Sn  Sn29  1  0.047782  0.867066  0.750000  1
  Sn  Sn30  1  0.452218  0.367066  0.250000  1
  Sn  Sn31  1  0.952218  0.132934  0.250000  1
  Sn  Sn32  1  0.323488  0.141551  0.750000  1
  Sn  Sn33  1  0.823488  0.358449  0.750000  1
  Sn  Sn34  1  0.676512  0.858449  0.250000  1
  Sn  Sn35  1  0.176512  0.641551  0.250000  1
