# generated using pymatgen
data_TbNd9(SiSb2)2
_symmetry_space_group_name_H-M   'P 1'
_cell_length_a   8.24406300
_cell_length_b   9.37052500
_cell_length_c   12.45728200
_cell_angle_alpha   90.00000000
_cell_angle_beta   90.00000000
_cell_angle_gamma   90.00000000
_symmetry_Int_Tables_number   1
_chemical_formula_structural   TbNd9(SiSb2)2
_chemical_formula_sum   'Tb2 Nd18 Si4 Sb8'
_cell_volume   962.33996384
_cell_formula_units_Z   2
loop_
 _symmetry_equiv_pos_site_id
 _symmetry_equiv_pos_as_xyz
  1  'x, y, z'
loop_
 _atom_site_type_symbol
 _atom_site_label
 _atom_site_symmetry_multiplicity
 _atom_site_fract_x
 _atom_site_fract_y
 _atom_site_fract_z
 _atom_site_occupancy
  Tb  Tb0  1  0.457825  0.250000  0.499804  1
  Tb  Tb1  1  0.957825  0.750000  0.000196  1
  Nd  Nd2  1  0.313402  0.953870  0.065404  1
  Nd  Nd3  1  0.813402  0.046130  0.434596  1
  Nd  Nd4  1  0.687711  0.454520  0.933695  1
  Nd  Nd5  1  0.187711  0.545480  0.566305  1
  Nd  Nd6  1  0.687711  0.045480  0.933695  1
  Nd  Nd7  1  0.187711  0.954520  0.566305  1
  Nd  Nd8  1  0.313402  0.546130  0.065404  1
  Nd  Nd9  1  0.813402  0.453870  0.434596  1
  Nd  Nd10  1  0.659727  0.750000  0.213665  1
  Nd  Nd11  1  0.159727  0.250000  0.286335  1
  Nd  Nd12  1  0.336124  0.250000  0.786117  1
  Nd  Nd13  1  0.836124  0.750000  0.713883  1
  Nd  Nd14  1  0.136531  0.750000  0.293705  1
  Nd  Nd15  1  0.636531  0.250000  0.206295  1
  Nd  Nd16  1  0.864945  0.250000  0.705614  1
  Nd  Nd17  1  0.364945  0.750000  0.794386  1
  Nd  Nd18  1  0.539861  0.750000  0.500049  1
  Nd  Nd19  1  0.039861  0.250000  0.999951  1
  Si  Si20  1  0.582481  0.750000  0.981645  1
  Si  Si21  1  0.082481  0.250000  0.518355  1
  Si  Si22  1  0.424311  0.250000  0.017050  1
  Si  Si23  1  0.924311  0.750000  0.482950  1
  Sb  Sb24  1  0.928044  0.006860  0.171357  1
  Sb  Sb25  1  0.428044  0.993140  0.328643  1
  Sb  Sb26  1  0.069941  0.513065  0.828951  1
  Sb  Sb27  1  0.569941  0.486935  0.671049  1
  Sb  Sb28  1  0.069941  0.986935  0.828951  1
  Sb  Sb29  1  0.569941  0.013065  0.671049  1
  Sb  Sb30  1  0.928044  0.493140  0.171357  1
  Sb  Sb31  1  0.428044  0.506860  0.328643  1
