# generated using pymatgen
data_Er6Si5GeRh2
_symmetry_space_group_name_H-M   'P 1'
_cell_length_a   5.65990481
_cell_length_b   5.65990470
_cell_length_c   13.46570194
_cell_angle_alpha   71.11221510
_cell_angle_beta   71.11221453
_cell_angle_gamma   43.69389932
_symmetry_Int_Tables_number   1
_chemical_formula_structural   Er6Si5GeRh2
_chemical_formula_sum   'Er6 Si5 Ge1 Rh2'
_cell_volume   279.28026985
_cell_formula_units_Z   1
loop_
 _symmetry_equiv_pos_site_id
 _symmetry_equiv_pos_as_xyz
  1  'x, y, z'
loop_
 _atom_site_type_symbol
 _atom_site_label
 _atom_site_symmetry_multiplicity
 _atom_site_fract_x
 _atom_site_fract_y
 _atom_site_fract_z
 _atom_site_occupancy
  Er  Er0  1  0.741670  0.741670  0.773075  1
  Er  Er1  1  0.397743  0.397743  0.923325  1
  Er  Er2  1  0.600796  0.600796  0.080528  1
  Er  Er3  1  0.478034  0.478034  0.375564  1
  Er  Er4  1  0.256194  0.256194  0.226859  1
  Er  Er5  1  0.524008  0.524008  0.620976  1
  Si  Si6  1  0.130772  0.130772  0.454068  1
  Si  Si7  1  0.871611  0.871611  0.544236  1
  Si  Si8  1  0.951315  0.951315  0.237806  1
  Si  Si9  1  0.885073  0.885073  0.076388  1
  Si  Si10  1  0.116995  0.116995  0.927750  1
  Ge  Ge11  1  0.041214  0.041214  0.763360  1
  Rh  Rh12  1  0.753355  0.753355  0.414344  1
  Rh  Rh13  1  0.251220  0.251220  0.581720  1
