# generated using pymatgen
data_Sm6As(P3Rh5)4
_symmetry_space_group_name_H-M   'P 1'
_cell_length_a   13.45348100
_cell_length_b   13.45347911
_cell_length_c   3.94424800
_cell_angle_alpha   90.00000000
_cell_angle_beta   90.00000000
_cell_angle_gamma   119.99999727
_symmetry_Int_Tables_number   1
_chemical_formula_structural   Sm6As(P3Rh5)4
_chemical_formula_sum   'Sm6 As1 P12 Rh20'
_cell_volume   618.25001577
_cell_formula_units_Z   1
loop_
 _symmetry_equiv_pos_site_id
 _symmetry_equiv_pos_as_xyz
  1  'x, y, z'
loop_
 _atom_site_type_symbol
 _atom_site_label
 _atom_site_symmetry_multiplicity
 _atom_site_fract_x
 _atom_site_fract_y
 _atom_site_fract_z
 _atom_site_occupancy
  Sm  Sm0  1  0.529905  0.716954  0.247552  1
  Sm  Sm1  1  0.283046  0.812951  0.247552  1
  Sm  Sm2  1  0.187049  0.470095  0.247552  1
  Sm  Sm3  1  0.470095  0.283046  0.752448  1
  Sm  Sm4  1  0.716954  0.187049  0.752448  1
  Sm  Sm5  1  0.812951  0.529905  0.752448  1
  As  As6  1  0.000000  0.000000  0.000000  1
  P  P7  1  0.524531  0.137904  0.251091  1
  P  P8  1  0.862096  0.386627  0.251091  1
  P  P9  1  0.613373  0.475469  0.251091  1
  P  P10  1  0.946912  0.716588  0.253654  1
  P  P11  1  0.283412  0.230325  0.253654  1
  P  P12  1  0.769675  0.053088  0.253654  1
  P  P13  1  0.386627  0.524531  0.748909  1
  P  P14  1  0.475469  0.862096  0.748909  1
  P  P15  1  0.137904  0.613373  0.748909  1
  P  P16  1  0.716588  0.769675  0.746346  1
  P  P17  1  0.230325  0.946912  0.746346  1
  P  P18  1  0.053088  0.283412  0.746346  1
  Rh  Rh19  1  0.333333  0.666667  0.751477  1
  Rh  Rh20  1  0.921405  0.250700  0.251936  1
  Rh  Rh21  1  0.749300  0.670705  0.251936  1
  Rh  Rh22  1  0.329295  0.078595  0.251936  1
  Rh  Rh23  1  0.440072  0.024422  0.751178  1
  Rh  Rh24  1  0.975578  0.415650  0.751178  1
  Rh  Rh25  1  0.584350  0.559928  0.751178  1
  Rh  Rh26  1  0.666667  0.333333  0.248523  1
  Rh  Rh27  1  0.096111  0.193601  0.253902  1
  Rh  Rh28  1  0.806399  0.902510  0.253902  1
  Rh  Rh29  1  0.097490  0.903889  0.253902  1
  Rh  Rh30  1  0.024422  0.584350  0.248822  1
  Rh  Rh31  1  0.415650  0.440072  0.248822  1
  Rh  Rh32  1  0.559928  0.975578  0.248822  1
  Rh  Rh33  1  0.670705  0.921405  0.748064  1
  Rh  Rh34  1  0.078595  0.749300  0.748064  1
  Rh  Rh35  1  0.250700  0.329295  0.748064  1
  Rh  Rh36  1  0.903889  0.806399  0.746098  1
  Rh  Rh37  1  0.193601  0.097490  0.746098  1
  Rh  Rh38  1  0.902510  0.096111  0.746098  1
