# generated using pymatgen
data_Np3InO12
_symmetry_space_group_name_H-M   'P 1'
_cell_length_a   7.01815803
_cell_length_b   7.15910451
_cell_length_c   7.01170510
_cell_angle_alpha   109.94884513
_cell_angle_beta   109.60267005
_cell_angle_gamma   109.61240772
_symmetry_Int_Tables_number   1
_chemical_formula_structural   Np3InO12
_chemical_formula_sum   'Np3 In1 O12'
_cell_volume   268.65342099
_cell_formula_units_Z   1
loop_
 _symmetry_equiv_pos_site_id
 _symmetry_equiv_pos_as_xyz
  1  'x, y, z'
loop_
 _atom_site_type_symbol
 _atom_site_label
 _atom_site_symmetry_multiplicity
 _atom_site_fract_x
 _atom_site_fract_y
 _atom_site_fract_z
 _atom_site_occupancy
  Np  Np0  1  0.500011  0.496600  0.496616  1
  Np  Np1  1  0.999830  0.496486  0.996396  1
  Np  Np2  1  0.000080  0.996504  0.496638  1
  In  In3  1  0.500035  0.996716  0.996930  1
  O  O4  1  0.232358  0.404294  0.216465  1
  O  O5  1  0.767447  0.589116  0.776769  1
  O  O6  1  0.195004  0.996578  0.765139  1
  O  O7  1  0.805255  0.996646  0.228279  1
  O  O8  1  0.277030  0.202738  0.523568  1
  O  O9  1  0.723136  0.790528  0.469720  1
  O  O10  1  0.735388  0.242990  0.942091  1
  O  O11  1  0.264783  0.750203  0.051027  1
  O  O12  1  0.016233  0.693296  0.272108  1
  O  O13  1  0.983817  0.299810  0.720662  1
  O  O14  1  0.562430  0.287492  0.305359  1
  O  O15  1  0.437162  0.705726  0.687953  1
