# generated using pymatgen
data_YEr3Al24CoPt8
_symmetry_space_group_name_H-M   'P 1'
_cell_length_a   7.49370610
_cell_length_b   7.49419694
_cell_length_c   13.12160602
_cell_angle_alpha   84.53290002
_cell_angle_beta   100.86898179
_cell_angle_gamma   119.69252375
_symmetry_Int_Tables_number   1
_chemical_formula_structural   YEr3Al24CoPt8
_chemical_formula_sum   'Y1 Er3 Al24 Co1 Pt8'
_cell_volume   628.65742078
_cell_formula_units_Z   1
loop_
 _symmetry_equiv_pos_site_id
 _symmetry_equiv_pos_as_xyz
  1  'x, y, z'
loop_
 _atom_site_type_symbol
 _atom_site_label
 _atom_site_symmetry_multiplicity
 _atom_site_fract_x
 _atom_site_fract_y
 _atom_site_fract_z
 _atom_site_occupancy
  Y  Y0  1  0.736032  0.000850  0.190496  1
  Er  Er1  1  0.268104  0.004088  0.809326  1
  Er  Er2  1  0.059310  0.668310  0.190742  1
  Er  Er3  1  0.935794  0.327576  0.809287  1
  Al  Al4  1  0.805183  0.866012  0.816970  1
  Al  Al5  1  0.195216  0.133614  0.183024  1
  Al  Al6  1  0.995649  0.666090  0.945505  1
  Al  Al7  1  0.025937  0.343489  0.053260  1
  Al  Al8  1  0.390646  0.662667  0.823521  1
  Al  Al9  1  0.600330  0.336643  0.181868  1
  Al  Al10  1  0.883420  0.665043  0.672955  1
  Al  Al11  1  0.118392  0.335716  0.326807  1
  Al  Al12  1  0.602916  0.459263  0.817865  1
  Al  Al13  1  0.395985  0.551264  0.176814  1
  Al  Al14  1  0.231328  0.341048  0.671166  1
  Al  Al15  1  0.768103  0.659425  0.328811  1
  Al  Al16  1  0.853628  0.333489  0.559158  1
  Al  Al17  1  0.186704  0.999862  0.559171  1
  Al  Al18  1  0.813833  0.999949  0.440892  1
  Al  Al19  1  0.351800  0.985758  0.054455  1
  Al  Al20  1  0.638907  0.992241  0.946638  1
  Al  Al21  1  0.556070  0.991837  0.673157  1
  Al  Al22  1  0.443335  0.006474  0.327101  1
  Al  Al23  1  0.521426  0.667949  0.561467  1
  Al  Al24  1  0.478804  0.331847  0.438266  1
  Al  Al25  1  0.675008  0.668618  0.041528  1
  Al  Al26  1  0.317114  0.338797  0.958379  1
  Al  Al27  1  0.146497  0.665990  0.441094  1
  Co  Co28  1  0.330291  0.669729  0.000022  1
  Pt  Pt29  1  0.546508  0.324819  0.638047  1
  Pt  Pt30  1  0.453357  0.674699  0.361369  1
  Pt  Pt31  1  0.888358  0.008302  0.639248  1
  Pt  Pt32  1  0.112075  0.991391  0.360859  1
  Pt  Pt33  1  0.672564  0.327726  0.000005  1
  Pt  Pt34  1  0.205165  0.667101  0.639937  1
  Pt  Pt35  1  0.795748  0.332865  0.360756  1
  Pt  Pt36  1  0.000461  0.999453  0.000033  1
