# generated using pymatgen
data_NbInPt5Rh
_symmetry_space_group_name_H-M   'P 1'
_cell_length_a   5.63398100
_cell_length_b   5.63398187
_cell_length_c   3.91411600
_cell_angle_alpha   90.00000000
_cell_angle_beta   90.00000000
_cell_angle_gamma   91.02462930
_symmetry_Int_Tables_number   1
_chemical_formula_structural   NbInPt5Rh
_chemical_formula_sum   'Nb1 In1 Pt5 Rh1'
_cell_volume   124.22101302
_cell_formula_units_Z   1
loop_
 _symmetry_equiv_pos_site_id
 _symmetry_equiv_pos_as_xyz
  1  'x, y, z'
loop_
 _atom_site_type_symbol
 _atom_site_label
 _atom_site_symmetry_multiplicity
 _atom_site_fract_x
 _atom_site_fract_y
 _atom_site_fract_z
 _atom_site_occupancy
  Nb  Nb0  1  0.993053  0.493053  0.500000  1
  In  In1  1  0.503171  0.003171  0.500000  1
  Pt  Pt2  1  0.244734  0.744734  0.000000  1
  Pt  Pt3  1  0.242886  0.257707  0.000000  1
  Pt  Pt4  1  0.757707  0.742886  0.000000  1
  Pt  Pt5  1  0.501254  0.498468  0.500000  1
  Pt  Pt6  1  0.998468  0.001254  0.500000  1
  Rh  Rh7  1  0.758727  0.258727  0.000000  1
