# generated using pymatgen
data_ThZn(SeO4)3
_symmetry_space_group_name_H-M   'P 1'
_cell_length_a   9.36346800
_cell_length_b   9.36347646
_cell_length_c   6.16898300
_cell_angle_alpha   90.00000000
_cell_angle_beta   90.00000000
_cell_angle_gamma   120.00015279
_symmetry_Int_Tables_number   1
_chemical_formula_structural   ThZn(SeO4)3
_chemical_formula_sum   'Th2 Zn2 Se6 O24'
_cell_volume   468.40054342
_cell_formula_units_Z   2
loop_
 _symmetry_equiv_pos_site_id
 _symmetry_equiv_pos_as_xyz
  1  'x, y, z'
loop_
 _atom_site_type_symbol
 _atom_site_label
 _atom_site_symmetry_multiplicity
 _atom_site_fract_x
 _atom_site_fract_y
 _atom_site_fract_z
 _atom_site_occupancy
  Th  Th0  1  0.333333  0.666667  0.250000  1
  Th  Th1  1  0.666667  0.333333  0.749999  1
  Zn  Zn2  1  0.000000  0.000000  0.000000  1
  Zn  Zn3  1  0.000000  0.000000  0.500001  1
  Se  Se4  1  0.717155  0.097542  0.250000  1
  Se  Se5  1  0.380387  0.282848  0.250000  1
  Se  Se6  1  0.902461  0.619613  0.250000  1
  Se  Se7  1  0.097539  0.380388  0.749999  1
  Se  Se8  1  0.619612  0.717152  0.749999  1
  Se  Se9  1  0.282845  0.902458  0.749999  1
  O  O10  1  0.786365  0.551294  0.028948  1
  O  O11  1  0.764931  0.213636  0.028948  1
  O  O12  1  0.448705  0.235069  0.028948  1
  O  O13  1  0.842177  0.012248  0.250000  1
  O  O14  1  0.170069  0.157822  0.250000  1
  O  O15  1  0.444515  0.483348  0.250000  1
  O  O16  1  0.038830  0.555486  0.250000  1
  O  O17  1  0.987752  0.829928  0.250000  1
  O  O18  1  0.516652  0.961167  0.250000  1
  O  O19  1  0.448705  0.235069  0.471051  1
  O  O20  1  0.764931  0.213636  0.471051  1
  O  O21  1  0.786365  0.551294  0.471052  1
  O  O22  1  0.213636  0.448705  0.528949  1
  O  O23  1  0.235069  0.786364  0.528949  1
  O  O24  1  0.551294  0.764930  0.528949  1
  O  O25  1  0.483348  0.038833  0.749999  1
  O  O26  1  0.012249  0.170071  0.749999  1
  O  O27  1  0.961170  0.444515  0.749999  1
  O  O28  1  0.555485  0.516652  0.749999  1
  O  O29  1  0.829931  0.842178  0.749999  1
  O  O30  1  0.157822  0.987751  0.749999  1
  O  O31  1  0.551294  0.764930  0.971052  1
  O  O32  1  0.235069  0.786364  0.971051  1
  O  O33  1  0.213636  0.448705  0.971052  1
