# generated using pymatgen
data_Sc6In6NiAu5
_symmetry_space_group_name_H-M   'P 1'
_cell_length_a   7.68438300
_cell_length_b   7.68438234
_cell_length_c   7.15324900
_cell_angle_alpha   90.00000000
_cell_angle_beta   90.00000000
_cell_angle_gamma   119.99998991
_symmetry_Int_Tables_number   1
_chemical_formula_structural   Sc6In6NiAu5
_chemical_formula_sum   'Sc6 In6 Ni1 Au5'
_cell_volume   365.80697893
_cell_formula_units_Z   1
loop_
 _symmetry_equiv_pos_site_id
 _symmetry_equiv_pos_as_xyz
  1  'x, y, z'
loop_
 _atom_site_type_symbol
 _atom_site_label
 _atom_site_symmetry_multiplicity
 _atom_site_fract_x
 _atom_site_fract_y
 _atom_site_fract_z
 _atom_site_occupancy
  Sc  Sc0  1  0.602143  0.986875  0.750000  1
  Sc  Sc1  1  0.013125  0.615267  0.750000  1
  Sc  Sc2  1  0.384733  0.397857  0.750000  1
  Sc  Sc3  1  0.985772  0.592068  0.250000  1
  Sc  Sc4  1  0.606296  0.014228  0.250000  1
  Sc  Sc5  1  0.407932  0.393704  0.250000  1
  In  In6  1  0.733409  0.733215  0.985907  1
  In  In7  1  0.266785  0.000194  0.985907  1
  In  In8  1  0.999806  0.266591  0.985907  1
  In  In9  1  0.733409  0.733215  0.514093  1
  In  In10  1  0.266785  0.000194  0.514093  1
  In  In11  1  0.999806  0.266591  0.514093  1
  Ni  Ni12  1  0.000000  0.000000  0.750000  1
  Au  Au13  1  0.000000  0.000000  0.250000  1
  Au  Au14  1  0.666667  0.333333  0.974292  1
  Au  Au15  1  0.666667  0.333333  0.525708  1
  Au  Au16  1  0.333333  0.666667  0.472233  1
  Au  Au17  1  0.333333  0.666667  0.027767  1
