# generated using pymatgen
data_ZrHg3(SeF3)2
_symmetry_space_group_name_H-M   'P 1'
_cell_length_a   7.37992000
_cell_length_b   5.41437997
_cell_length_c   12.77094148
_cell_angle_alpha   90.00576208
_cell_angle_beta   90.00000000
_cell_angle_gamma   90.00000000
_symmetry_Int_Tables_number   1
_chemical_formula_structural   ZrHg3(SeF3)2
_chemical_formula_sum   'Zr2 Hg6 Se4 F12'
_cell_volume   510.29733117
_cell_formula_units_Z   2
loop_
 _symmetry_equiv_pos_site_id
 _symmetry_equiv_pos_as_xyz
  1  'x, y, z'
loop_
 _atom_site_type_symbol
 _atom_site_label
 _atom_site_symmetry_multiplicity
 _atom_site_fract_x
 _atom_site_fract_y
 _atom_site_fract_z
 _atom_site_occupancy
  Zr  Zr0  1  0.000000  0.500000  0.000000  1
  Zr  Zr1  1  0.500000  0.500000  0.500000  1
  Hg  Hg2  1  0.256206  0.001928  0.748873  1
  Hg  Hg3  1  0.000000  0.000000  0.500000  1
  Hg  Hg4  1  0.756206  0.998072  0.751127  1
  Hg  Hg5  1  0.743794  0.998072  0.251127  1
  Hg  Hg6  1  0.243794  0.001928  0.248873  1
  Hg  Hg7  1  0.500000  0.000000  0.000000  1
  Se  Se8  1  0.994294  0.250982  0.333101  1
  Se  Se9  1  0.005706  0.749018  0.666899  1
  Se  Se10  1  0.505706  0.250982  0.833101  1
  Se  Se11  1  0.494294  0.749018  0.166899  1
  F  F12  1  0.195319  0.726035  0.938285  1
  F  F13  1  0.695319  0.273965  0.561715  1
  F  F14  1  0.202957  0.294831  0.067740  1
  F  F15  1  0.297043  0.294831  0.567740  1
  F  F16  1  0.512469  0.706207  0.634812  1
  F  F17  1  0.987531  0.706207  0.134812  1
  F  F18  1  0.487531  0.293793  0.365188  1
  F  F19  1  0.797043  0.705169  0.932260  1
  F  F20  1  0.304681  0.726035  0.438285  1
  F  F21  1  0.012469  0.293793  0.865188  1
  F  F22  1  0.804681  0.273965  0.061715  1
  F  F23  1  0.702957  0.705169  0.432260  1
