# generated using pymatgen
data_Ti8ReTc4Ir3
_symmetry_space_group_name_H-M   'P 1'
_cell_length_a   6.18853900
_cell_length_b   4.39995500
_cell_length_c   8.80072700
_cell_angle_alpha   90.00000000
_cell_angle_beta   90.00000000
_cell_angle_gamma   90.00000000
_symmetry_Int_Tables_number   1
_chemical_formula_structural   Ti8ReTc4Ir3
_chemical_formula_sum   'Ti8 Re1 Tc4 Ir3'
_cell_volume   239.63757511
_cell_formula_units_Z   1
loop_
 _symmetry_equiv_pos_site_id
 _symmetry_equiv_pos_as_xyz
  1  'x, y, z'
loop_
 _atom_site_type_symbol
 _atom_site_label
 _atom_site_symmetry_multiplicity
 _atom_site_fract_x
 _atom_site_fract_y
 _atom_site_fract_z
 _atom_site_occupancy
  Ti  Ti0  1  0.002670  0.749999  0.125001  1
  Ti  Ti1  1  0.497396  0.749999  0.125011  1
  Ti  Ti2  1  0.001534  0.249999  0.373116  1
  Ti  Ti3  1  0.498541  0.249999  0.373127  1
  Ti  Ti4  1  0.499524  0.749999  0.624998  1
  Ti  Ti5  1  0.000404  0.749999  0.625007  1
  Ti  Ti6  1  0.498462  0.249999  0.876871  1
  Ti  Ti7  1  0.001479  0.249999  0.876879  1
  Re  Re8  1  0.250036  0.249999  0.124996  1
  Tc  Tc9  1  0.750030  0.249999  0.125003  1
  Tc  Tc10  1  0.250030  0.749999  0.377133  1
  Tc  Tc11  1  0.749966  0.249999  0.625006  1
  Tc  Tc12  1  0.249960  0.749999  0.872854  1
  Ir  Ir13  1  0.750035  0.749999  0.375846  1
  Ir  Ir14  1  0.249965  0.249999  0.624998  1
  Ir  Ir15  1  0.749967  0.749999  0.874155  1
