# generated using pymatgen
data_La3Nd13Mg4(OsPt)2
_symmetry_space_group_name_H-M   'P 1'
_cell_length_a   10.09025510
_cell_length_b   10.09758878
_cell_length_c   10.18746200
_cell_angle_alpha   59.70513569
_cell_angle_beta   59.68080343
_cell_angle_gamma   59.71874397
_symmetry_Int_Tables_number   1
_chemical_formula_structural   La3Nd13Mg4(OsPt)2
_chemical_formula_sum   'La3 Nd13 Mg4 Os2 Pt2'
_cell_volume   728.98173891
_cell_formula_units_Z   1
loop_
 _symmetry_equiv_pos_site_id
 _symmetry_equiv_pos_as_xyz
  1  'x, y, z'
loop_
 _atom_site_type_symbol
 _atom_site_label
 _atom_site_symmetry_multiplicity
 _atom_site_fract_x
 _atom_site_fract_y
 _atom_site_fract_z
 _atom_site_occupancy
  La  La0  1  0.344488  0.345169  0.353000  1
  La  La1  1  0.344488  0.345169  0.957342  1
  La  La2  1  0.340128  0.964680  0.347597  1
  Nd  Nd3  1  0.960465  0.343891  0.347822  1
  Nd  Nd4  1  0.818013  0.187099  0.188799  1
  Nd  Nd5  1  0.187019  0.816840  0.807433  1
  Nd  Nd6  1  0.187019  0.816840  0.188709  1
  Nd  Nd7  1  0.818013  0.187099  0.806089  1
  Nd  Nd8  1  0.187000  0.186912  0.813044  1
  Nd  Nd9  1  0.809234  0.809241  0.190762  1
  Nd  Nd10  1  0.936228  0.557521  0.567314  1
  Nd  Nd11  1  0.558053  0.935913  0.938052  1
  Nd  Nd12  1  0.558053  0.935913  0.567982  1
  Nd  Nd13  1  0.936228  0.557521  0.938937  1
  Nd  Nd14  1  0.563979  0.563596  0.936212  1
  Nd  Nd15  1  0.936848  0.937656  0.562748  1
  Mg  Mg16  1  0.579992  0.577930  0.578784  1
  Mg  Mg17  1  0.579992  0.577930  0.263295  1
  Mg  Mg18  1  0.580579  0.261637  0.578893  1
  Mg  Mg19  1  0.261098  0.579309  0.579798  1
  Os  Os20  1  0.145605  0.144803  0.135706  1
  Os  Os21  1  0.145605  0.144803  0.573888  1
  Pt  Pt22  1  0.144717  0.576436  0.139424  1
  Pt  Pt23  1  0.577160  0.146094  0.138374  1
