# generated using pymatgen
data_TaVCr(Co10B3)2
_symmetry_space_group_name_H-M   'P 1'
_cell_length_a   7.41663807
_cell_length_b   7.41663783
_cell_length_c   7.41663800
_cell_angle_alpha   59.99999925
_cell_angle_beta   60.00000031
_cell_angle_gamma   59.99999142
_symmetry_Int_Tables_number   1
_chemical_formula_structural   TaVCr(Co10B3)2
_chemical_formula_sum   'Ta1 V1 Cr1 Co20 B6'
_cell_volume   288.47369196
_cell_formula_units_Z   1
loop_
 _symmetry_equiv_pos_site_id
 _symmetry_equiv_pos_as_xyz
  1  'x, y, z'
loop_
 _atom_site_type_symbol
 _atom_site_label
 _atom_site_symmetry_multiplicity
 _atom_site_fract_x
 _atom_site_fract_y
 _atom_site_fract_z
 _atom_site_occupancy
  Ta  Ta0  1  0.250000  0.250000  0.250000  1
  V  V1  1  0.750000  0.750000  0.750000  1
  Cr  Cr2  1  0.000000  0.000000  0.000000  1
  Co  Co3  1  0.843471  0.385510  0.385510  1
  Co  Co4  1  0.385510  0.843471  0.385510  1
  Co  Co5  1  0.385510  0.385510  0.843471  1
  Co  Co6  1  0.385510  0.385510  0.385510  1
  Co  Co7  1  0.134158  0.621947  0.621947  1
  Co  Co8  1  0.621947  0.134158  0.621947  1
  Co  Co9  1  0.621947  0.621947  0.134158  1
  Co  Co10  1  0.621947  0.621947  0.621947  1
  Co  Co11  1  0.662087  0.999408  0.999408  1
  Co  Co12  1  0.662087  0.999408  0.339095  1
  Co  Co13  1  0.662087  0.339095  0.999408  1
  Co  Co14  1  0.999408  0.662087  0.339095  1
  Co  Co15  1  0.999408  0.662087  0.999408  1
  Co  Co16  1  0.339095  0.662087  0.999408  1
  Co  Co17  1  0.999408  0.339095  0.662087  1
  Co  Co18  1  0.339095  0.999408  0.662087  1
  Co  Co19  1  0.999408  0.999408  0.662087  1
  Co  Co20  1  0.339095  0.999408  0.999408  1
  Co  Co21  1  0.999408  0.339095  0.999408  1
  Co  Co22  1  0.999408  0.999408  0.339095  1
  B  B23  1  0.726210  0.273790  0.273790  1
  B  B24  1  0.726210  0.273790  0.726210  1
  B  B25  1  0.726210  0.726210  0.273790  1
  B  B26  1  0.273790  0.726210  0.726210  1
  B  B27  1  0.273790  0.726210  0.273790  1
  B  B28  1  0.273790  0.273790  0.726210  1
