# generated using pymatgen
data_Tb6Al16Os7
_symmetry_space_group_name_H-M   'P 1'
_cell_length_a   8.97342301
_cell_length_b   8.95907785
_cell_length_c   8.95907733
_cell_angle_alpha   60.10597195
_cell_angle_beta   59.94701921
_cell_angle_gamma   59.94701410
_symmetry_Int_Tables_number   1
_chemical_formula_structural   Tb6Al16Os7
_chemical_formula_sum   'Tb6 Al16 Os7'
_cell_volume   509.29278677
_cell_formula_units_Z   1
loop_
 _symmetry_equiv_pos_site_id
 _symmetry_equiv_pos_as_xyz
  1  'x, y, z'
loop_
 _atom_site_type_symbol
 _atom_site_label
 _atom_site_symmetry_multiplicity
 _atom_site_fract_x
 _atom_site_fract_y
 _atom_site_fract_z
 _atom_site_occupancy
  Tb  Tb0  1  0.712167  0.711462  0.287833  1
  Tb  Tb1  1  0.288538  0.711462  0.287833  1
  Tb  Tb2  1  0.712529  0.287471  0.287471  1
  Tb  Tb3  1  0.288538  0.287833  0.711462  1
  Tb  Tb4  1  0.712167  0.287833  0.711462  1
  Tb  Tb5  1  0.288313  0.711687  0.711687  1
  Al  Al6  1  0.879115  0.878273  0.363496  1
  Al  Al7  1  0.879115  0.363496  0.878273  1
  Al  Al8  1  0.361959  0.879528  0.879528  1
  Al  Al9  1  0.878984  0.879528  0.879528  1
  Al  Al10  1  0.120472  0.121016  0.638041  1
  Al  Al11  1  0.120472  0.638041  0.121016  1
  Al  Al12  1  0.636504  0.120885  0.120885  1
  Al  Al13  1  0.121727  0.120885  0.120885  1
  Al  Al14  1  0.667877  0.668605  0.995643  1
  Al  Al15  1  0.667877  0.995643  0.668605  1
  Al  Al16  1  0.996817  0.667661  0.667661  1
  Al  Al17  1  0.667864  0.667661  0.667661  1
  Al  Al18  1  0.332339  0.332136  0.003183  1
  Al  Al19  1  0.332339  0.003183  0.332136  1
  Al  Al20  1  0.004357  0.332123  0.332123  1
  Al  Al21  1  0.331395  0.332123  0.332123  1
  Os  Os22  1  0.999255  0.000745  0.000745  1
  Os  Os23  1  0.999733  0.000267  0.500067  1
  Os  Os24  1  0.499933  0.000267  0.500067  1
  Os  Os25  1  0.999973  0.500027  0.500027  1
  Os  Os26  1  0.499933  0.500067  0.000267  1
  Os  Os27  1  0.999733  0.500067  0.000267  1
  Os  Os28  1  0.499973  0.000027  0.000027  1
