# generated using pymatgen
data_La3ZnIn3CuRh
_symmetry_space_group_name_H-M   'P 1'
_cell_length_a   7.81528100
_cell_length_b   7.81527998
_cell_length_c   4.10803600
_cell_angle_alpha   90.00000000
_cell_angle_beta   90.00000000
_cell_angle_gamma   120.00000006
_symmetry_Int_Tables_number   1
_chemical_formula_structural   La3ZnIn3CuRh
_chemical_formula_sum   'La3 Zn1 In3 Cu1 Rh1'
_cell_volume   217.29714053
_cell_formula_units_Z   1
loop_
 _symmetry_equiv_pos_site_id
 _symmetry_equiv_pos_as_xyz
  1  'x, y, z'
loop_
 _atom_site_type_symbol
 _atom_site_label
 _atom_site_symmetry_multiplicity
 _atom_site_fract_x
 _atom_site_fract_y
 _atom_site_fract_z
 _atom_site_occupancy
  La  La0  1  0.019069  0.595127  0.500000  1
  La  La1  1  0.576059  0.980931  0.500000  1
  La  La2  1  0.404873  0.423941  0.500000  1
  Zn  Zn3  1  0.666667  0.333333  0.000000  1
  In  In4  1  0.000330  0.242444  0.000000  1
  In  In5  1  0.242114  0.999670  0.000000  1
  In  In6  1  0.757556  0.757886  0.000000  1
  Cu  Cu7  1  0.000000  0.000000  0.500000  1
  Rh  Rh8  1  0.333333  0.666667  0.000000  1
