# generated using pymatgen
data_Y8Co3Si12Au
_symmetry_space_group_name_H-M   'P 1'
_cell_length_a   8.06972200
_cell_length_b   8.06972178
_cell_length_c   8.02456400
_cell_angle_alpha   90.00000000
_cell_angle_beta   90.00000000
_cell_angle_gamma   120.00000090
_symmetry_Int_Tables_number   1
_chemical_formula_structural   Y8Co3Si12Au
_chemical_formula_sum   'Y8 Co3 Si12 Au1'
_cell_volume   452.55275006
_cell_formula_units_Z   1
loop_
 _symmetry_equiv_pos_site_id
 _symmetry_equiv_pos_as_xyz
  1  'x, y, z'
loop_
 _atom_site_type_symbol
 _atom_site_label
 _atom_site_symmetry_multiplicity
 _atom_site_fract_x
 _atom_site_fract_y
 _atom_site_fract_z
 _atom_site_occupancy
  Y  Y0  1  0.000000  0.000000  0.247691  1
  Y  Y1  1  0.000000  0.000000  0.754612  1
  Y  Y2  1  0.017649  0.508824  0.243484  1
  Y  Y3  1  0.491176  0.508824  0.243484  1
  Y  Y4  1  0.502177  0.004356  0.754164  1
  Y  Y5  1  0.491176  0.982351  0.243484  1
  Y  Y6  1  0.502177  0.497823  0.754164  1
  Y  Y7  1  0.995644  0.497823  0.754164  1
  Co  Co8  1  0.333333  0.666667  0.969398  1
  Co  Co9  1  0.333333  0.666667  0.532372  1
  Co  Co10  1  0.666667  0.333333  0.023809  1
  Si  Si11  1  0.170893  0.341787  0.998630  1
  Si  Si12  1  0.658213  0.829107  0.998630  1
  Si  Si13  1  0.174292  0.348584  0.498510  1
  Si  Si14  1  0.344617  0.172308  0.001043  1
  Si  Si15  1  0.170893  0.829107  0.998630  1
  Si  Si16  1  0.651416  0.825708  0.498510  1
  Si  Si17  1  0.827692  0.655383  0.001043  1
  Si  Si18  1  0.319691  0.159846  0.503212  1
  Si  Si19  1  0.174292  0.825708  0.498510  1
  Si  Si20  1  0.840154  0.680309  0.503212  1
  Si  Si21  1  0.827692  0.172308  0.001043  1
  Si  Si22  1  0.840154  0.159846  0.503212  1
  Au  Au23  1  0.666667  0.333333  0.474985  1
