# generated using pymatgen
data_Sr3Te(BrO2)2
_symmetry_space_group_name_H-M   'P 1'
_cell_length_a   7.35123979
_cell_length_b   7.35123921
_cell_length_c   5.74584000
_cell_angle_alpha   90.00000000
_cell_angle_beta   90.00000000
_cell_angle_gamma   133.86937081
_symmetry_Int_Tables_number   1
_chemical_formula_structural   Sr3Te(BrO2)2
_chemical_formula_sum   'Sr3 Te1 Br2 O4'
_cell_volume   223.85291955
_cell_formula_units_Z   1
loop_
 _symmetry_equiv_pos_site_id
 _symmetry_equiv_pos_as_xyz
  1  'x, y, z'
loop_
 _atom_site_type_symbol
 _atom_site_label
 _atom_site_symmetry_multiplicity
 _atom_site_fract_x
 _atom_site_fract_y
 _atom_site_fract_z
 _atom_site_occupancy
  Sr  Sr0  1  0.145786  0.854214  0.000000  1
  Sr  Sr1  1  0.650222  0.349778  0.500000  1
  Sr  Sr2  1  0.336043  0.663957  0.500000  1
  Te  Te3  1  0.804427  0.195573  0.000000  1
  Br  Br4  1  0.506979  0.493021  0.000000  1
  Br  Br5  1  0.017268  0.982732  0.500000  1
  O  O6  1  0.979600  0.480098  0.770584  1
  O  O7  1  0.519902  0.020400  0.229416  1
  O  O8  1  0.519902  0.020400  0.770584  1
  O  O9  1  0.979600  0.480098  0.229416  1
