# generated using pymatgen
data_AcH2Br
_symmetry_space_group_name_H-M   'P 1'
_cell_length_a   11.59900195
_cell_length_b   11.59900186
_cell_length_c   11.59900201
_cell_angle_alpha   21.05990204
_cell_angle_beta   21.05990465
_cell_angle_gamma   21.05990621
_symmetry_Int_Tables_number   1
_chemical_formula_structural   AcH2Br
_chemical_formula_sum   'Ac2 H4 Br2'
_cell_volume   176.47105989
_cell_formula_units_Z   2
loop_
 _symmetry_equiv_pos_site_id
 _symmetry_equiv_pos_as_xyz
  1  'x, y, z'
loop_
 _atom_site_type_symbol
 _atom_site_label
 _atom_site_symmetry_multiplicity
 _atom_site_fract_x
 _atom_site_fract_y
 _atom_site_fract_z
 _atom_site_occupancy
  Ac  Ac0  1  0.886549  0.886549  0.886549  1
  Ac  Ac1  1  0.113451  0.113451  0.113451  1
  H  H2  1  0.812890  0.812890  0.812890  1
  H  H3  1  0.187110  0.187110  0.187110  1
  H  H4  1  0.546171  0.546171  0.546171  1
  H  H5  1  0.453829  0.453829  0.453829  1
  Br  Br6  1  0.720346  0.720346  0.720346  1
  Br  Br7  1  0.279654  0.279654  0.279654  1
