# generated using pymatgen
data_TbHo11Ga2(TcNi)2
_symmetry_space_group_name_H-M   'P 1'
_cell_length_a   8.33715113
_cell_length_b   8.33601889
_cell_length_c   8.33601867
_cell_angle_alpha   104.29387195
_cell_angle_beta   111.19229592
_cell_angle_gamma   113.04806131
_symmetry_Int_Tables_number   1
_chemical_formula_structural   TbHo11Ga2(TcNi)2
_chemical_formula_sum   'Tb1 Ho11 Ga2 Tc2 Ni2'
_cell_volume   443.18758820
_cell_formula_units_Z   1
loop_
 _symmetry_equiv_pos_site_id
 _symmetry_equiv_pos_as_xyz
  1  'x, y, z'
loop_
 _atom_site_type_symbol
 _atom_site_label
 _atom_site_symmetry_multiplicity
 _atom_site_fract_x
 _atom_site_fract_y
 _atom_site_fract_z
 _atom_site_occupancy
  Tb  Tb0  1  0.397811  0.218300  0.179512  1
  Ho  Ho1  1  0.691224  0.256171  0.946351  1
  Ho  Ho2  1  0.309951  0.742947  0.053811  1
  Ho  Ho3  1  0.691224  0.744872  0.435054  1
  Ho  Ho4  1  0.309951  0.256139  0.567003  1
  Ho  Ho5  1  0.816409  0.148122  0.333127  1
  Ho  Ho6  1  0.816409  0.483282  0.668287  1
  Ho  Ho7  1  0.184438  0.851494  0.667394  1
  Ho  Ho8  1  0.184438  0.517044  0.332943  1
  Ho  Ho9  1  0.601788  0.781094  0.820693  1
  Ho  Ho10  1  0.961154  0.781016  0.180139  1
  Ho  Ho11  1  0.039807  0.219819  0.819988  1
  Ga  Ga12  1  0.501665  0.501202  0.000463  1
  Ga  Ga13  1  0.499784  0.000073  0.499711  1
  Tc  Tc14  1  0.820087  0.500242  0.319845  1
  Tc  Tc15  1  0.180663  0.500262  0.680401  1
  Ni  Ni16  1  0.996599  0.116722  0.115400  1
  Ni  Ni17  1  0.996599  0.881199  0.879877  1
