# generated using pymatgen
data_NaDyGaPt3
_symmetry_space_group_name_H-M   'P 1'
_cell_length_a   5.56545938
_cell_length_b   5.56546065
_cell_length_c   5.20184753
_cell_angle_alpha   57.65945882
_cell_angle_beta   57.65945078
_cell_angle_gamma   59.99999675
_symmetry_Int_Tables_number   1
_chemical_formula_structural   NaDyGaPt3
_chemical_formula_sum   'Na1 Dy1 Ga1 Pt3'
_cell_volume   109.73325837
_cell_formula_units_Z   1
loop_
 _symmetry_equiv_pos_site_id
 _symmetry_equiv_pos_as_xyz
  1  'x, y, z'
loop_
 _atom_site_type_symbol
 _atom_site_label
 _atom_site_symmetry_multiplicity
 _atom_site_fract_x
 _atom_site_fract_y
 _atom_site_fract_z
 _atom_site_occupancy
  Na  Na0  1  0.251591  0.251591  0.245227  1
  Dy  Dy1  1  0.002213  0.002213  0.993361  1
  Ga  Ga2  1  0.623818  0.623818  0.128544  1
  Pt  Pt3  1  0.623287  0.125803  0.627622  1
  Pt  Pt4  1  0.125803  0.623287  0.627622  1
  Pt  Pt5  1  0.623287  0.623287  0.627622  1
