# generated using pymatgen
data_Ho3TmLu(ReO6)2
_symmetry_space_group_name_H-M   'P 1'
_cell_length_a   6.77758633
_cell_length_b   6.77758706
_cell_length_c   7.46028626
_cell_angle_alpha   73.80640871
_cell_angle_beta   73.80640310
_cell_angle_gamma   49.24141827
_symmetry_Int_Tables_number   1
_chemical_formula_structural   Ho3TmLu(ReO6)2
_chemical_formula_sum   'Ho3 Tm1 Lu1 Re2 O12'
_cell_volume   247.06269109
_cell_formula_units_Z   1
loop_
 _symmetry_equiv_pos_site_id
 _symmetry_equiv_pos_as_xyz
  1  'x, y, z'
loop_
 _atom_site_type_symbol
 _atom_site_label
 _atom_site_symmetry_multiplicity
 _atom_site_fract_x
 _atom_site_fract_y
 _atom_site_fract_z
 _atom_site_occupancy
  Ho  Ho0  1  0.802577  0.802577  0.359280  1
  Ho  Ho1  1  0.197382  0.197382  0.641553  1
  Ho  Ho2  1  0.184900  0.184900  0.177500  1
  Tm  Tm3  1  0.815124  0.815124  0.821825  1
  Lu  Lu4  1  0.499906  0.499906  0.500336  1
  Re  Re5  1  0.285798  0.714295  0.999700  1
  Re  Re6  1  0.714295  0.285798  0.999700  1
  O  O7  1  0.414952  0.919229  0.912614  1
  O  O8  1  0.078816  0.587918  0.085804  1
  O  O9  1  0.587918  0.078816  0.085804  1
  O  O10  1  0.919229  0.414952  0.912614  1
  O  O11  1  0.599871  0.097289  0.573000  1
  O  O12  1  0.901477  0.401279  0.428960  1
  O  O13  1  0.401279  0.901477  0.428960  1
  O  O14  1  0.000033  0.000033  0.820626  1
  O  O15  1  0.999127  0.999127  0.178800  1
  O  O16  1  0.497719  0.497719  0.791043  1
  O  O17  1  0.502308  0.502308  0.208879  1
  O  O18  1  0.097289  0.599871  0.573000  1
