# generated using pymatgen
data_Nd3DyHo12(CdIr)4
_symmetry_space_group_name_H-M   'P 1'
_cell_length_a   9.66388630
_cell_length_b   9.65644065
_cell_length_c   9.65550680
_cell_angle_alpha   60.05422740
_cell_angle_beta   59.91979962
_cell_angle_gamma   59.96810915
_symmetry_Int_Tables_number   1
_chemical_formula_structural   Nd3DyHo12(CdIr)4
_chemical_formula_sum   'Nd3 Dy1 Ho12 Cd4 Ir4'
_cell_volume   636.85087715
_cell_formula_units_Z   1
loop_
 _symmetry_equiv_pos_site_id
 _symmetry_equiv_pos_as_xyz
  1  'x, y, z'
loop_
 _atom_site_type_symbol
 _atom_site_label
 _atom_site_symmetry_multiplicity
 _atom_site_fract_x
 _atom_site_fract_y
 _atom_site_fract_z
 _atom_site_occupancy
  Nd  Nd0  1  0.938192  0.561808  0.938192  1
  Nd  Nd1  1  0.562213  0.564509  0.936234  1
  Nd  Nd2  1  0.936234  0.937044  0.562213  1
  Dy  Dy3  1  0.561018  0.938982  0.561018  1
  Ho  Ho4  1  0.350239  0.346200  0.348103  1
  Ho  Ho5  1  0.349108  0.349538  0.954855  1
  Ho  Ho6  1  0.348103  0.955459  0.350239  1
  Ho  Ho7  1  0.954855  0.346498  0.349108  1
  Ho  Ho8  1  0.811751  0.186965  0.187637  1
  Ho  Ho9  1  0.187637  0.813647  0.811751  1
  Ho  Ho10  1  0.188836  0.811164  0.188836  1
  Ho  Ho11  1  0.811412  0.188588  0.811412  1
  Ho  Ho12  1  0.189375  0.188795  0.810114  1
  Ho  Ho13  1  0.810114  0.811716  0.189375  1
  Ho  Ho14  1  0.942689  0.557795  0.555009  1
  Ho  Ho15  1  0.555009  0.944506  0.942689  1
  Cd  Cd16  1  0.582284  0.581002  0.578339  1
  Cd  Cd17  1  0.578804  0.582404  0.259827  1
  Cd  Cd18  1  0.578339  0.258374  0.582284  1
  Cd  Cd19  1  0.259827  0.578964  0.578804  1
  Ir  Ir20  1  0.145957  0.139048  0.139732  1
  Ir  Ir21  1  0.142838  0.143568  0.575432  1
  Ir  Ir22  1  0.139732  0.575262  0.145957  1
  Ir  Ir23  1  0.575432  0.138161  0.142838  1
