# generated using pymatgen
data_CeY3HoRu2
_symmetry_space_group_name_H-M   'P 1'
_cell_length_a   6.42596266
_cell_length_b   7.16804257
_cell_length_c   8.69789927
_cell_angle_alpha   96.13374044
_cell_angle_beta   111.67846390
_cell_angle_gamma   89.99999646
_symmetry_Int_Tables_number   1
_chemical_formula_structural   CeY3HoRu2
_chemical_formula_sum   'Ce2 Y6 Ho2 Ru4'
_cell_volume   369.83306212
_cell_formula_units_Z   2
loop_
 _symmetry_equiv_pos_site_id
 _symmetry_equiv_pos_as_xyz
  1  'x, y, z'
loop_
 _atom_site_type_symbol
 _atom_site_label
 _atom_site_symmetry_multiplicity
 _atom_site_fract_x
 _atom_site_fract_y
 _atom_site_fract_z
 _atom_site_occupancy
  Ce  Ce0  1  0.003709  0.099929  0.806400  1
  Ce  Ce1  1  0.197308  0.400071  0.193600  1
  Y  Y2  1  0.649048  0.813243  0.432538  1
  Y  Y3  1  0.216510  0.686757  0.567462  1
  Y  Y4  1  0.357572  0.181828  0.567801  1
  Y  Y5  1  0.789772  0.318172  0.432199  1
  Y  Y6  1  0.418017  0.750000  0.000000  1
  Y  Y7  1  0.572422  0.250000  0.000000  1
  Ho  Ho8  1  0.977010  0.914104  0.182943  1
  Ho  Ho9  1  0.794067  0.585896  0.817057  1
  Ru  Ru10  1  0.853607  0.567653  0.218996  1
  Ru  Ru11  1  0.634611  0.932347  0.781004  1
  Ru  Ru12  1  0.158028  0.401912  0.779709  1
  Ru  Ru13  1  0.378319  0.098088  0.220291  1
