# generated using pymatgen
data_Sc2Si3Ni14H3
_symmetry_space_group_name_H-M   'P 1'
_cell_length_a   6.18369808
_cell_length_b   6.18369723
_cell_length_c   6.18369900
_cell_angle_alpha   83.37543596
_cell_angle_beta   83.37543687
_cell_angle_gamma   83.37541964
_symmetry_Int_Tables_number   1
_chemical_formula_structural   Sc2Si3Ni14H3
_chemical_formula_sum   'Sc2 Si3 Ni14 H3'
_cell_volume   232.05482777
_cell_formula_units_Z   1
loop_
 _symmetry_equiv_pos_site_id
 _symmetry_equiv_pos_as_xyz
  1  'x, y, z'
loop_
 _atom_site_type_symbol
 _atom_site_label
 _atom_site_symmetry_multiplicity
 _atom_site_fract_x
 _atom_site_fract_y
 _atom_site_fract_z
 _atom_site_occupancy
  Sc  Sc0  1  0.650149  0.650149  0.650149  1
  Sc  Sc1  1  0.349851  0.349851  0.349851  1
  Si  Si2  1  0.000000  0.000000  0.500000  1
  Si  Si3  1  0.000000  0.500000  0.000000  1
  Si  Si4  1  0.500000  0.000000  0.000000  1
  Ni  Ni5  1  0.293482  0.706518  0.000000  1
  Ni  Ni6  1  0.706518  0.000000  0.293482  1
  Ni  Ni7  1  0.000000  0.293482  0.706518  1
  Ni  Ni8  1  0.293482  0.000000  0.706518  1
  Ni  Ni9  1  0.000000  0.706518  0.293482  1
  Ni  Ni10  1  0.706518  0.293482  0.000000  1
  Ni  Ni11  1  0.345304  0.345304  0.858321  1
  Ni  Ni12  1  0.345304  0.858321  0.345304  1
  Ni  Ni13  1  0.858321  0.345304  0.345304  1
  Ni  Ni14  1  0.654696  0.654696  0.141679  1
  Ni  Ni15  1  0.654696  0.141679  0.654696  1
  Ni  Ni16  1  0.141679  0.654696  0.654696  1
  Ni  Ni17  1  0.897956  0.897956  0.897956  1
  Ni  Ni18  1  0.102044  0.102044  0.102044  1
  H  H19  1  0.500000  0.500000  0.000000  1
  H  H20  1  0.500000  0.000000  0.500000  1
  H  H21  1  0.000000  0.500000  0.500000  1
