# generated using pymatgen
data_Nd3Th(Pt2Pb)2
_symmetry_space_group_name_H-M   'P 1'
_cell_length_a   3.72372300
_cell_length_b   8.16938962
_cell_length_c   8.16938997
_cell_angle_alpha   91.37437225
_cell_angle_beta   90.00000000
_cell_angle_gamma   90.00000000
_symmetry_Int_Tables_number   1
_chemical_formula_structural   Nd3Th(Pt2Pb)2
_chemical_formula_sum   'Nd3 Th1 Pt4 Pb2'
_cell_volume   248.44579346
_cell_formula_units_Z   1
loop_
 _symmetry_equiv_pos_site_id
 _symmetry_equiv_pos_as_xyz
  1  'x, y, z'
loop_
 _atom_site_type_symbol
 _atom_site_label
 _atom_site_symmetry_multiplicity
 _atom_site_fract_x
 _atom_site_fract_y
 _atom_site_fract_z
 _atom_site_occupancy
  Nd  Nd0  1  0.500000  0.827237  0.327237  1
  Nd  Nd1  1  0.500000  0.330133  0.170813  1
  Nd  Nd2  1  0.500000  0.670813  0.830133  1
  Th  Th3  1  0.500000  0.168889  0.668889  1
  Pt  Pt4  1  0.000000  0.621165  0.121165  1
  Pt  Pt5  1  0.000000  0.365820  0.865820  1
  Pt  Pt6  1  0.000000  0.882542  0.631168  1
  Pt  Pt7  1  0.000000  0.131168  0.382542  1
  Pb  Pb8  1  0.000000  0.997196  0.005036  1
  Pb  Pb9  1  0.000000  0.505036  0.497196  1
