# generated using pymatgen
data_LaTm11Tc4
_symmetry_space_group_name_H-M   'P 1'
_cell_length_a   7.37605729
_cell_length_b   9.00316000
_cell_length_c   6.17004800
_cell_angle_alpha   90.00000000
_cell_angle_beta   89.96616344
_cell_angle_gamma   90.00000000
_symmetry_Int_Tables_number   1
_chemical_formula_structural   LaTm11Tc4
_chemical_formula_sum   'La1 Tm11 Tc4'
_cell_volume   409.73938969
_cell_formula_units_Z   1
loop_
 _symmetry_equiv_pos_site_id
 _symmetry_equiv_pos_as_xyz
  1  'x, y, z'
loop_
 _atom_site_type_symbol
 _atom_site_label
 _atom_site_symmetry_multiplicity
 _atom_site_fract_x
 _atom_site_fract_y
 _atom_site_fract_z
 _atom_site_occupancy
  La  La0  1  0.955710  0.750000  0.373548  1
  Tm  Tm1  1  0.672551  0.065577  0.341128  1
  Tm  Tm2  1  0.177870  0.434562  0.157912  1
  Tm  Tm3  1  0.325069  0.561605  0.661245  1
  Tm  Tm4  1  0.823448  0.940132  0.842881  1
  Tm  Tm5  1  0.325069  0.938395  0.661245  1
  Tm  Tm6  1  0.823448  0.559868  0.842881  1
  Tm  Tm7  1  0.672551  0.434423  0.341128  1
  Tm  Tm8  1  0.177870  0.065438  0.157912  1
  Tm  Tm9  1  0.539793  0.250000  0.874839  1
  Tm  Tm10  1  0.038610  0.250000  0.624072  1
  Tm  Tm11  1  0.461104  0.750000  0.122662  1
  Tc  Tc12  1  0.884198  0.250000  0.040362  1
  Tc  Tc13  1  0.383192  0.250000  0.457923  1
  Tc  Tc14  1  0.116783  0.750000  0.966474  1
  Tc  Tc15  1  0.622734  0.750000  0.533786  1
