# generated using pymatgen
data_UNO
_symmetry_space_group_name_H-M   'P 1'
_cell_length_a   5.32522300
_cell_length_b   5.35504177
_cell_length_c   5.32477391
_cell_angle_alpha   89.98313308
_cell_angle_beta   90.00000000
_cell_angle_gamma   90.00000000
_symmetry_Int_Tables_number   1
_chemical_formula_structural   UNO
_chemical_formula_sum   'U4 N4 O4'
_cell_volume   151.84546134
_cell_formula_units_Z   4
loop_
 _symmetry_equiv_pos_site_id
 _symmetry_equiv_pos_as_xyz
  1  'x, y, z'
loop_
 _atom_site_type_symbol
 _atom_site_label
 _atom_site_symmetry_multiplicity
 _atom_site_fract_x
 _atom_site_fract_y
 _atom_site_fract_z
 _atom_site_occupancy
  U  U0  1  0.499878  0.737045  0.749408  1
  U  U1  1  0.999878  0.262955  0.750592  1
  U  U2  1  0.500122  0.262955  0.250592  1
  U  U3  1  0.000122  0.737045  0.249408  1
  N  N4  1  0.250097  0.500662  0.999721  1
  N  N5  1  0.750097  0.499338  0.500279  1
  N  N6  1  0.749903  0.499338  0.000279  1
  N  N7  1  0.249903  0.500662  0.499721  1
  O  O8  1  0.750056  0.999307  0.502572  1
  O  O9  1  0.250056  0.000693  0.997428  1
  O  O10  1  0.249944  0.000693  0.497428  1
  O  O11  1  0.749944  0.999307  0.002572  1
