# generated using pymatgen
data_Ba5SbAs2Au
_symmetry_space_group_name_H-M   'P 1'
_cell_length_a   8.67778500
_cell_length_b   9.21662800
_cell_length_c   17.02204100
_cell_angle_alpha   90.00000000
_cell_angle_beta   90.00000000
_cell_angle_gamma   90.00000000
_symmetry_Int_Tables_number   1
_chemical_formula_structural   Ba5SbAs2Au
_chemical_formula_sum   'Ba20 Sb4 As8 Au4'
_cell_volume   1361.42141289
_cell_formula_units_Z   4
loop_
 _symmetry_equiv_pos_site_id
 _symmetry_equiv_pos_as_xyz
  1  'x, y, z'
loop_
 _atom_site_type_symbol
 _atom_site_label
 _atom_site_symmetry_multiplicity
 _atom_site_fract_x
 _atom_site_fract_y
 _atom_site_fract_z
 _atom_site_occupancy
  Ba  Ba0  1  0.475516  0.687006  0.592021  1
  Ba  Ba1  1  0.975516  0.812994  0.907979  1
  Ba  Ba2  1  0.024484  0.187006  0.407979  1
  Ba  Ba3  1  0.524484  0.312994  0.092021  1
  Ba  Ba4  1  0.475516  0.687006  0.907979  1
  Ba  Ba5  1  0.975516  0.812994  0.592021  1
  Ba  Ba6  1  0.024484  0.187006  0.092021  1
  Ba  Ba7  1  0.524484  0.312994  0.407979  1
  Ba  Ba8  1  0.368646  0.859966  0.391790  1
  Ba  Ba9  1  0.868646  0.640034  0.108210  1
  Ba  Ba10  1  0.131354  0.359966  0.608210  1
  Ba  Ba11  1  0.631354  0.140034  0.891790  1
  Ba  Ba12  1  0.631354  0.140034  0.608210  1
  Ba  Ba13  1  0.131354  0.359966  0.891790  1
  Ba  Ba14  1  0.868646  0.640034  0.391790  1
  Ba  Ba15  1  0.368646  0.859966  0.108210  1
  Ba  Ba16  1  0.289487  0.006477  0.750000  1
  Ba  Ba17  1  0.789487  0.493523  0.750000  1
  Ba  Ba18  1  0.210513  0.506477  0.250000  1
  Ba  Ba19  1  0.710513  0.993523  0.250000  1
  Sb  Sb20  1  0.185311  0.635757  0.750000  1
  Sb  Sb21  1  0.685311  0.864243  0.750000  1
  Sb  Sb22  1  0.314689  0.135757  0.250000  1
  Sb  Sb23  1  0.814689  0.364243  0.250000  1
  As  As24  1  0.730011  0.959485  0.051660  1
  As  As25  1  0.230011  0.540515  0.448340  1
  As  As26  1  0.769989  0.459485  0.948340  1
  As  As27  1  0.269989  0.040515  0.551660  1
  As  As28  1  0.269989  0.040515  0.948340  1
  As  As29  1  0.769989  0.459485  0.551660  1
  As  As30  1  0.230011  0.540515  0.051660  1
  As  As31  1  0.730011  0.959485  0.448340  1
  Au  Au32  1  0.424678  0.363222  0.750000  1
  Au  Au33  1  0.924678  0.136778  0.750000  1
  Au  Au34  1  0.075322  0.863222  0.250000  1
  Au  Au35  1  0.575322  0.636778  0.250000  1
