# generated using pymatgen
data_LiDy12Y4Tl(CdPt2)2
_symmetry_space_group_name_H-M   'P 1'
_cell_length_a   9.69318899
_cell_length_b   9.69475316
_cell_length_c   9.69475400
_cell_angle_alpha   59.94408389
_cell_angle_beta   59.94414260
_cell_angle_gamma   59.94414062
_symmetry_Int_Tables_number   1
_chemical_formula_structural   LiDy12Y4Tl(CdPt2)2
_chemical_formula_sum   'Li1 Dy12 Y4 Tl1 Cd2 Pt4'
_cell_volume   643.39026960
_cell_formula_units_Z   1
loop_
 _symmetry_equiv_pos_site_id
 _symmetry_equiv_pos_as_xyz
  1  'x, y, z'
loop_
 _atom_site_type_symbol
 _atom_site_label
 _atom_site_symmetry_multiplicity
 _atom_site_fract_x
 _atom_site_fract_y
 _atom_site_fract_z
 _atom_site_occupancy
  Li  Li0  1  0.571308  0.571370  0.571536  1
  Dy  Dy1  1  0.350066  0.350144  0.350473  1
  Dy  Dy2  1  0.352386  0.352173  0.944505  1
  Dy  Dy3  1  0.352734  0.943742  0.352890  1
  Dy  Dy4  1  0.943686  0.352775  0.353148  1
  Dy  Dy5  1  0.809355  0.191786  0.192542  1
  Dy  Dy6  1  0.187570  0.813687  0.813435  1
  Dy  Dy7  1  0.191625  0.809700  0.192266  1
  Dy  Dy8  1  0.813629  0.187635  0.813122  1
  Dy  Dy9  1  0.191593  0.191505  0.810581  1
  Dy  Dy10  1  0.812826  0.812662  0.187887  1
  Dy  Dy11  1  0.936498  0.564783  0.564444  1
  Dy  Dy12  1  0.562422  0.940133  0.934503  1
  Y  Y13  1  0.565370  0.935414  0.564809  1
  Y  Y14  1  0.939414  0.563022  0.934301  1
  Y  Y15  1  0.565252  0.565016  0.934637  1
  Y  Y16  1  0.937266  0.937344  0.562566  1
  Tl  Tl17  1  0.583671  0.583588  0.251734  1
  Cd  Cd18  1  0.581366  0.252267  0.584491  1
  Cd  Cd19  1  0.252325  0.581276  0.584519  1
  Pt  Pt20  1  0.143566  0.143965  0.145639  1
  Pt  Pt21  1  0.142219  0.142224  0.571033  1
  Pt  Pt22  1  0.142531  0.571213  0.142532  1
  Pt  Pt23  1  0.571322  0.142577  0.142412  1
