# generated using pymatgen
data_Tm4Sn4Ge2Rh7
_symmetry_space_group_name_H-M   'P 1'
_cell_length_a   7.43889700
_cell_length_b   7.43889621
_cell_length_c   7.47155108
_cell_angle_alpha   109.31854775
_cell_angle_beta   109.31854576
_cell_angle_gamma   109.60027045
_symmetry_Int_Tables_number   1
_chemical_formula_structural   Tm4Sn4Ge2Rh7
_chemical_formula_sum   'Tm4 Sn4 Ge2 Rh7'
_cell_volume   318.96617265
_cell_formula_units_Z   1
loop_
 _symmetry_equiv_pos_site_id
 _symmetry_equiv_pos_as_xyz
  1  'x, y, z'
loop_
 _atom_site_type_symbol
 _atom_site_label
 _atom_site_symmetry_multiplicity
 _atom_site_fract_x
 _atom_site_fract_y
 _atom_site_fract_z
 _atom_site_occupancy
  Tm  Tm0  1  0.457470  0.457470  0.464006  1
  Tm  Tm1  1  0.008378  0.508378  0.016757  1
  Tm  Tm2  1  0.508378  0.008378  0.016757  1
  Tm  Tm3  1  0.006536  0.006536  0.464006  1
  Sn  Sn4  1  0.700570  0.992126  0.692696  1
  Sn  Sn5  1  0.676058  0.676058  0.981914  1
  Sn  Sn6  1  0.305856  0.305856  0.981914  1
  Sn  Sn7  1  0.992126  0.700570  0.692696  1
  Ge  Ge8  1  0.994219  0.333210  0.327429  1
  Ge  Ge9  1  0.333210  0.994219  0.327429  1
  Rh  Rh10  1  0.749753  0.500814  0.250567  1
  Rh  Rh11  1  0.501424  0.239287  0.740710  1
  Rh  Rh12  1  0.750746  0.250746  0.501492  1
  Rh  Rh13  1  0.250746  0.750746  0.501492  1
  Rh  Rh14  1  0.239287  0.501424  0.740710  1
  Rh  Rh15  1  0.500814  0.749753  0.250567  1
  Rh  Rh16  1  0.024429  0.024429  0.048859  1
