# generated using pymatgen
data_DyY4P12Ru16Pt3
_symmetry_space_group_name_H-M   'P 1'
_cell_length_a   12.62264801
_cell_length_b   12.62198060
_cell_length_c   3.97015600
_cell_angle_alpha   90.00000000
_cell_angle_beta   90.00000000
_cell_angle_gamma   119.99777442
_symmetry_Int_Tables_number   1
_chemical_formula_structural   DyY4P12Ru16Pt3
_chemical_formula_sum   'Dy1 Y4 P12 Ru16 Pt3'
_cell_volume   547.80491302
_cell_formula_units_Z   1
loop_
 _symmetry_equiv_pos_site_id
 _symmetry_equiv_pos_as_xyz
  1  'x, y, z'
loop_
 _atom_site_type_symbol
 _atom_site_label
 _atom_site_symmetry_multiplicity
 _atom_site_fract_x
 _atom_site_fract_y
 _atom_site_fract_z
 _atom_site_occupancy
  Dy  Dy0  1  0.000713  0.816901  0.500000  1
  Y  Y1  1  0.666684  0.333348  0.000000  1
  Y  Y2  1  0.333321  0.666657  0.000000  1
  Y  Y3  1  0.816049  0.999148  0.500000  1
  Y  Y4  1  0.183193  0.183878  0.500000  1
  P  P5  1  0.627716  0.987130  0.000000  1
  P  P6  1  0.359404  0.372288  0.000000  1
  P  P7  1  0.012903  0.640798  0.000000  1
  P  P8  1  0.695814  0.528635  0.500000  1
  P  P9  1  0.832778  0.304140  0.500000  1
  P  P10  1  0.308479  0.829602  0.500000  1
  P  P11  1  0.521064  0.691501  0.500000  1
  P  P12  1  0.183401  0.001004  0.000000  1
  P  P13  1  0.817685  0.816555  0.000000  1
  P  P14  1  0.998952  0.182432  0.000000  1
  P  P15  1  0.471335  0.167207  0.500000  1
  P  P16  1  0.170447  0.478894  0.500000  1
  Ru  Ru17  1  0.620918  0.799495  0.000000  1
  Ru  Ru18  1  0.178564  0.379073  0.000000  1
  Ru  Ru19  1  0.378429  0.187974  0.000000  1
  Ru  Ru20  1  0.200386  0.821440  0.000000  1
  Ru  Ru21  1  0.809746  0.621781  0.000000  1
  Ru  Ru22  1  0.126253  0.636054  0.500000  1
  Ru  Ru23  1  0.363857  0.490197  0.500000  1
  Ru  Ru24  1  0.509754  0.873683  0.500000  1
  Ru  Ru25  1  0.000018  0.999740  0.000000  1
  Ru  Ru26  1  0.717138  0.715727  0.500000  1
  Ru  Ru27  1  0.998654  0.282927  0.500000  1
  Ru  Ru28  1  0.453307  0.005686  0.000000  1
  Ru  Ru29  1  0.552418  0.546687  0.000000  1
  Ru  Ru30  1  0.994348  0.447674  0.000000  1
  Ru  Ru31  1  0.812046  0.190448  0.000000  1
  Ru  Ru32  1  0.284179  0.001269  0.500000  1
  Pt  Pt33  1  0.868291  0.502012  0.500000  1
  Pt  Pt34  1  0.498016  0.366293  0.500000  1
  Pt  Pt35  1  0.633742  0.131724  0.500000  1
