# generated using pymatgen
data_Dy3Y5(TmGa5)4
_symmetry_space_group_name_H-M   'P 1'
_cell_length_a   6.08388001
_cell_length_b   9.62840001
_cell_length_c   11.47841000
_cell_angle_alpha   90.00046171
_cell_angle_beta   89.99898229
_cell_angle_gamma   90.00465884
_symmetry_Int_Tables_number   1
_chemical_formula_structural   Dy3Y5(TmGa5)4
_chemical_formula_sum   'Dy3 Y5 Tm4 Ga20'
_cell_volume   672.38264636
_cell_formula_units_Z   1
loop_
 _symmetry_equiv_pos_site_id
 _symmetry_equiv_pos_as_xyz
  1  'x, y, z'
loop_
 _atom_site_type_symbol
 _atom_site_label
 _atom_site_symmetry_multiplicity
 _atom_site_fract_x
 _atom_site_fract_y
 _atom_site_fract_z
 _atom_site_occupancy
  Dy  Dy0  1  0.390876  0.009815  0.148494  1
  Dy  Dy1  1  0.890887  0.990180  0.351498  1
  Dy  Dy2  1  0.609119  0.509823  0.851519  1
  Y  Y3  1  0.890838  0.509807  0.351532  1
  Y  Y4  1  0.609124  0.990201  0.851564  1
  Y  Y5  1  0.109124  0.009819  0.648427  1
  Y  Y6  1  0.390859  0.490190  0.148424  1
  Y  Y7  1  0.109146  0.490152  0.648507  1
  Tm  Tm8  1  0.848294  0.750038  0.074272  1
  Tm  Tm9  1  0.651651  0.750017  0.574262  1
  Tm  Tm10  1  0.151664  0.250016  0.925737  1
  Tm  Tm11  1  0.348322  0.249936  0.425706  1
  Ga  Ga12  1  0.875767  0.052953  0.090006  1
  Ga  Ga13  1  0.624201  0.447021  0.589961  1
  Ga  Ga14  1  0.124251  0.552971  0.910114  1
  Ga  Ga15  1  0.375765  0.947053  0.410007  1
  Ga  Ga16  1  0.124254  0.947011  0.910233  1
  Ga  Ga17  1  0.375809  0.553006  0.410138  1
  Ga  Ga18  1  0.875746  0.447010  0.089780  1
  Ga  Ga19  1  0.624236  0.052996  0.589781  1
  Ga  Ga20  1  0.171644  0.750213  0.251461  1
  Ga  Ga21  1  0.328435  0.749889  0.751512  1
  Ga  Ga22  1  0.828213  0.250114  0.748586  1
  Ga  Ga23  1  0.671665  0.249781  0.248543  1
  Ga  Ga24  1  0.373204  0.750064  0.004567  1
  Ga  Ga25  1  0.126804  0.750068  0.504500  1
  Ga  Ga26  1  0.626824  0.250057  0.995428  1
  Ga  Ga27  1  0.873120  0.249881  0.495365  1
  Ga  Ga28  1  0.601982  0.750203  0.298997  1
  Ga  Ga29  1  0.897987  0.749863  0.799033  1
  Ga  Ga30  1  0.398231  0.250054  0.701041  1
  Ga  Ga31  1  0.101962  0.249797  0.201004  1
