# generated using pymatgen
data_Al8TcRu3Pt4
_symmetry_space_group_name_H-M   'P 1'
_cell_length_a   5.95965300
_cell_length_b   5.96067300
_cell_length_c   6.32281700
_cell_angle_alpha   90.00001867
_cell_angle_beta   90.00088682
_cell_angle_gamma   90.00000000
_symmetry_Int_Tables_number   1
_chemical_formula_structural   Al8TcRu3Pt4
_chemical_formula_sum   'Al8 Tc1 Ru3 Pt4'
_cell_volume   224.60885984
_cell_formula_units_Z   1
loop_
 _symmetry_equiv_pos_site_id
 _symmetry_equiv_pos_as_xyz
  1  'x, y, z'
loop_
 _atom_site_type_symbol
 _atom_site_label
 _atom_site_symmetry_multiplicity
 _atom_site_fract_x
 _atom_site_fract_y
 _atom_site_fract_z
 _atom_site_occupancy
  Al  Al0  1  0.998422  0.001649  0.248342  1
  Al  Al1  1  0.998422  0.498376  0.248341  1
  Al  Al2  1  0.501709  0.001643  0.249231  1
  Al  Al3  1  0.501708  0.498328  0.249232  1
  Al  Al4  1  0.501581  0.001650  0.750770  1
  Al  Al5  1  0.501581  0.498379  0.750771  1
  Al  Al6  1  0.998305  0.001637  0.751656  1
  Al  Al7  1  0.998306  0.498338  0.751655  1
  Tc  Tc8  1  0.749761  0.250000  0.000004  1
  Ru  Ru9  1  0.250215  0.750000  0.999995  1
  Ru  Ru10  1  0.249811  0.750000  0.499991  1
  Ru  Ru11  1  0.750217  0.250000  0.500008  1
  Pt  Pt12  1  0.250345  0.250000  0.000056  1
  Pt  Pt13  1  0.750391  0.750000  0.499948  1
  Pt  Pt14  1  0.249623  0.250000  0.500053  1
  Pt  Pt15  1  0.749603  0.750000  0.999945  1
