# generated using pymatgen
data_Tb2Nd2Y2OsI10
_symmetry_space_group_name_H-M   'P 1'
_cell_length_a   7.83791826
_cell_length_b   9.77500873
_cell_length_c   9.93975614
_cell_angle_alpha   107.55829195
_cell_angle_beta   96.68634923
_cell_angle_gamma   103.95449586
_symmetry_Int_Tables_number   1
_chemical_formula_structural   Tb2Nd2Y2OsI10
_chemical_formula_sum   'Tb2 Nd2 Y2 Os1 I10'
_cell_volume   689.74807250
_cell_formula_units_Z   1
loop_
 _symmetry_equiv_pos_site_id
 _symmetry_equiv_pos_as_xyz
  1  'x, y, z'
loop_
 _atom_site_type_symbol
 _atom_site_label
 _atom_site_symmetry_multiplicity
 _atom_site_fract_x
 _atom_site_fract_y
 _atom_site_fract_z
 _atom_site_occupancy
  Tb  Tb0  1  0.115678  0.041478  0.755268  1
  Tb  Tb1  1  0.884322  0.958522  0.244732  1
  Nd  Nd2  1  0.967256  0.274945  0.081476  1
  Nd  Nd3  1  0.032744  0.725055  0.918524  1
  Y  Y4  1  0.352705  0.125811  0.167746  1
  Y  Y5  1  0.647295  0.874189  0.832254  1
  Os  Os6  1  0.000000  0.000000  0.000000  1
  I  I7  1  0.355128  0.448123  0.272557  1
  I  I8  1  0.644872  0.551877  0.727443  1
  I  I9  1  0.256463  0.085608  0.456284  1
  I  I10  1  0.743537  0.914392  0.543716  1
  I  I11  1  0.088465  0.365702  0.815450  1
  I  I12  1  0.911535  0.634298  0.184550  1
  I  I13  1  0.457237  0.818633  0.090967  1
  I  I14  1  0.542763  0.181367  0.909033  1
  I  I15  1  0.772396  0.253046  0.347872  1
  I  I16  1  0.227604  0.746954  0.652128  1
