# generated using pymatgen
data_Sm5Er3Si12PtRh3
_symmetry_space_group_name_H-M   'P 1'
_cell_length_a   8.20078700
_cell_length_b   8.20078686
_cell_length_c   8.06997800
_cell_angle_alpha   90.00000000
_cell_angle_beta   90.00000000
_cell_angle_gamma   119.99999653
_symmetry_Int_Tables_number   1
_chemical_formula_structural   Sm5Er3Si12PtRh3
_chemical_formula_sum   'Sm5 Er3 Si12 Pt1 Rh3'
_cell_volume   470.01752833
_cell_formula_units_Z   1
loop_
 _symmetry_equiv_pos_site_id
 _symmetry_equiv_pos_as_xyz
  1  'x, y, z'
loop_
 _atom_site_type_symbol
 _atom_site_label
 _atom_site_symmetry_multiplicity
 _atom_site_fract_x
 _atom_site_fract_y
 _atom_site_fract_z
 _atom_site_occupancy
  Sm  Sm0  1  0.000000  0.000000  0.249014  1
  Sm  Sm1  1  0.000000  0.000000  0.751283  1
  Sm  Sm2  1  0.493880  0.506120  0.247562  1
  Sm  Sm3  1  0.493880  0.987761  0.247562  1
  Sm  Sm4  1  0.012239  0.506120  0.247562  1
  Er  Er5  1  0.506477  0.493523  0.752592  1
  Er  Er6  1  0.987048  0.493523  0.752592  1
  Er  Er7  1  0.506477  0.012952  0.752592  1
  Si  Si8  1  0.835451  0.164549  0.504800  1
  Si  Si9  1  0.835451  0.670904  0.504800  1
  Si  Si10  1  0.329096  0.164549  0.504800  1
  Si  Si11  1  0.833327  0.166673  0.995120  1
  Si  Si12  1  0.833327  0.666654  0.995120  1
  Si  Si13  1  0.333346  0.166673  0.995120  1
  Si  Si14  1  0.167780  0.832220  0.997574  1
  Si  Si15  1  0.664440  0.832220  0.997574  1
  Si  Si16  1  0.167780  0.335560  0.997574  1
  Si  Si17  1  0.169068  0.830932  0.501963  1
  Si  Si18  1  0.661864  0.830932  0.501963  1
  Si  Si19  1  0.169068  0.338136  0.501963  1
  Pt  Pt20  1  0.666667  0.333333  0.491120  1
  Rh  Rh21  1  0.666667  0.333333  0.009876  1
  Rh  Rh22  1  0.333333  0.666667  0.956101  1
  Rh  Rh23  1  0.333333  0.666667  0.543771  1
