# generated using pymatgen
data_Dy3Ho2Er3(CdNi)2
_symmetry_space_group_name_H-M   'P 1'
_cell_length_a   9.50492208
_cell_length_b   9.50492185
_cell_length_c   9.50492100
_cell_angle_alpha   59.99999947
_cell_angle_beta   60.00000026
_cell_angle_gamma   59.99999737
_symmetry_Int_Tables_number   1
_chemical_formula_structural   Dy3Ho2Er3(CdNi)2
_chemical_formula_sum   'Dy6 Ho4 Er6 Cd4 Ni4'
_cell_volume   607.19839548
_cell_formula_units_Z   2
loop_
 _symmetry_equiv_pos_site_id
 _symmetry_equiv_pos_as_xyz
  1  'x, y, z'
loop_
 _atom_site_type_symbol
 _atom_site_label
 _atom_site_symmetry_multiplicity
 _atom_site_fract_x
 _atom_site_fract_y
 _atom_site_fract_z
 _atom_site_occupancy
  Dy  Dy0  1  0.186813  0.813187  0.813187  1
  Dy  Dy1  1  0.813187  0.186813  0.186813  1
  Dy  Dy2  1  0.813187  0.186813  0.813187  1
  Dy  Dy3  1  0.186813  0.813187  0.186813  1
  Dy  Dy4  1  0.813187  0.813187  0.186813  1
  Dy  Dy5  1  0.186813  0.186813  0.813187  1
  Ho  Ho6  1  0.598767  0.598767  0.598767  1
  Ho  Ho7  1  0.598767  0.598767  0.203700  1
  Ho  Ho8  1  0.598767  0.203700  0.598767  1
  Ho  Ho9  1  0.203700  0.598767  0.598767  1
  Er  Er10  1  0.061904  0.438096  0.438096  1
  Er  Er11  1  0.438096  0.061904  0.061904  1
  Er  Er12  1  0.438096  0.061904  0.438096  1
  Er  Er13  1  0.061904  0.438096  0.061904  1
  Er  Er14  1  0.438096  0.438096  0.061904  1
  Er  Er15  1  0.061904  0.061904  0.438096  1
  Cd  Cd16  1  0.830970  0.830970  0.830970  1
  Cd  Cd17  1  0.830970  0.830970  0.507088  1
  Cd  Cd18  1  0.830970  0.507088  0.830970  1
  Cd  Cd19  1  0.507088  0.830970  0.830970  1
  Ni  Ni20  1  0.392835  0.392835  0.392835  1
  Ni  Ni21  1  0.392835  0.392835  0.821496  1
  Ni  Ni22  1  0.392835  0.821496  0.392835  1
  Ni  Ni23  1  0.821496  0.392835  0.392835  1
