# generated using pymatgen
data_Cs2BO3
_symmetry_space_group_name_H-M   'P 1'
_cell_length_a   6.45990700
_cell_length_b   8.11303800
_cell_length_c   10.83552600
_cell_angle_alpha   90.00000000
_cell_angle_beta   90.00000000
_cell_angle_gamma   90.00000000
_symmetry_Int_Tables_number   1
_chemical_formula_structural   Cs2BO3
_chemical_formula_sum   'Cs8 B4 O12'
_cell_volume   567.88418531
_cell_formula_units_Z   4
loop_
 _symmetry_equiv_pos_site_id
 _symmetry_equiv_pos_as_xyz
  1  'x, y, z'
loop_
 _atom_site_type_symbol
 _atom_site_label
 _atom_site_symmetry_multiplicity
 _atom_site_fract_x
 _atom_site_fract_y
 _atom_site_fract_z
 _atom_site_occupancy
  Cs  Cs0  1  0.750000  0.307361  0.419149  1
  Cs  Cs1  1  0.250000  0.192639  0.919149  1
  Cs  Cs2  1  0.250000  0.036355  0.271818  1
  Cs  Cs3  1  0.750000  0.807361  0.080851  1
  Cs  Cs4  1  0.750000  0.463645  0.771818  1
  Cs  Cs5  1  0.250000  0.536355  0.228182  1
  Cs  Cs6  1  0.250000  0.692639  0.580851  1
  Cs  Cs7  1  0.750000  0.963645  0.728182  1
  B  B8  1  0.750000  0.247661  0.084375  1
  B  B9  1  0.250000  0.752339  0.915625  1
  B  B10  1  0.250000  0.252339  0.584375  1
  B  B11  1  0.750000  0.747661  0.415625  1
  O  O12  1  0.565684  0.781379  0.357759  1
  O  O13  1  0.434316  0.718621  0.857759  1
  O  O14  1  0.434316  0.218621  0.642241  1
  O  O15  1  0.934316  0.281379  0.142241  1
  O  O16  1  0.750000  0.676882  0.531254  1
  O  O17  1  0.250000  0.323118  0.468746  1
  O  O18  1  0.565684  0.281379  0.142241  1
  O  O19  1  0.750000  0.176882  0.968746  1
  O  O20  1  0.934316  0.781379  0.357759  1
  O  O21  1  0.250000  0.823118  0.031254  1
  O  O22  1  0.065684  0.218621  0.642241  1
  O  O23  1  0.065684  0.718621  0.857759  1
