# generated using pymatgen
data_Nb6FeSi2Os3C2
_symmetry_space_group_name_H-M   'P 1'
_cell_length_a   8.23420755
_cell_length_b   8.23420771
_cell_length_c   8.23420737
_cell_angle_alpha   119.90268055
_cell_angle_beta   120.05508512
_cell_angle_gamma   90.03663064
_symmetry_Int_Tables_number   1
_chemical_formula_structural   Nb6FeSi2Os3C2
_chemical_formula_sum   'Nb12 Fe2 Si4 Os6 C4'
_cell_volume   394.90076228
_cell_formula_units_Z   2
loop_
 _symmetry_equiv_pos_site_id
 _symmetry_equiv_pos_as_xyz
  1  'x, y, z'
loop_
 _atom_site_type_symbol
 _atom_site_label
 _atom_site_symmetry_multiplicity
 _atom_site_fract_x
 _atom_site_fract_y
 _atom_site_fract_z
 _atom_site_occupancy
  Nb  Nb0  1  0.574549  0.074549  0.500000  1
  Nb  Nb1  1  0.177824  0.677824  0.500000  1
  Nb  Nb2  1  0.177056  0.073580  0.498638  1
  Nb  Nb3  1  0.574942  0.678419  0.501362  1
  Nb  Nb4  1  0.574942  0.073580  0.896524  1
  Nb  Nb5  1  0.177056  0.678419  0.103476  1
  Nb  Nb6  1  0.926969  0.926969  0.000000  1
  Nb  Nb7  1  0.322080  0.322080  0.000000  1
  Nb  Nb8  1  0.325408  0.930541  0.002077  1
  Nb  Nb9  1  0.928465  0.323333  0.997923  1
  Nb  Nb10  1  0.928465  0.930541  0.605132  1
  Nb  Nb11  1  0.325408  0.323333  0.394868  1
  Fe  Fe12  1  0.953433  0.292603  0.660829  1
  Fe  Fe13  1  0.631774  0.292603  0.339171  1
  Si  Si14  1  0.746095  0.494671  0.251424  1
  Si  Si15  1  0.243247  0.494671  0.748576  1
  Si  Si16  1  0.750147  0.489841  0.739694  1
  Si  Si17  1  0.750147  0.010454  0.260306  1
  Os  Os18  1  0.954762  0.290692  0.335929  1
  Os  Os19  1  0.954762  0.618832  0.664071  1
  Os  Os20  1  0.542329  0.707526  0.834803  1
  Os  Os21  1  0.872723  0.707526  0.165197  1
  Os  Os22  1  0.542088  0.708181  0.166093  1
  Os  Os23  1  0.542088  0.375993  0.833907  1
  C  C24  1  0.251892  0.000461  0.251431  1
  C  C25  1  0.749031  0.000461  0.748569  1
  C  C26  1  0.251157  0.001093  0.749937  1
  C  C27  1  0.251157  0.501222  0.250063  1
