# generated using pymatgen
data_Be8V12FeNi3C4
_symmetry_space_group_name_H-M   'P 1'
_cell_length_a   7.44191443
_cell_length_b   7.41994722
_cell_length_c   7.41994800
_cell_angle_alpha   60.00000543
_cell_angle_beta   60.09760299
_cell_angle_gamma   60.09760071
_symmetry_Int_Tables_number   1
_chemical_formula_structural   Be8V12FeNi3C4
_chemical_formula_sum   'Be8 V12 Fe1 Ni3 C4'
_cell_volume   290.14192664
_cell_formula_units_Z   1
loop_
 _symmetry_equiv_pos_site_id
 _symmetry_equiv_pos_as_xyz
  1  'x, y, z'
loop_
 _atom_site_type_symbol
 _atom_site_label
 _atom_site_symmetry_multiplicity
 _atom_site_fract_x
 _atom_site_fract_y
 _atom_site_fract_z
 _atom_site_occupancy
  Be  Be0  1  0.740489  0.419837  0.419837  1
  Be  Be1  1  0.422941  0.736545  0.420257  1
  Be  Be2  1  0.422941  0.420257  0.736545  1
  Be  Be3  1  0.422941  0.420257  0.420257  1
  Be  Be4  1  0.509511  0.830163  0.830163  1
  Be  Be5  1  0.827059  0.513455  0.829743  1
  Be  Be6  1  0.827059  0.829743  0.513455  1
  Be  Be7  1  0.827059  0.829743  0.829743  1
  V  V8  1  0.806143  0.804163  0.194847  1
  V  V9  1  0.193384  0.209491  0.798562  1
  V  V10  1  0.806143  0.194847  0.804163  1
  V  V11  1  0.193384  0.798562  0.209491  1
  V  V12  1  0.193384  0.798562  0.798562  1
  V  V13  1  0.806143  0.194847  0.194847  1
  V  V14  1  0.443857  0.445837  0.055153  1
  V  V15  1  0.056616  0.040509  0.451438  1
  V  V16  1  0.443857  0.055153  0.445837  1
  V  V17  1  0.056616  0.451438  0.040509  1
  V  V18  1  0.056616  0.451438  0.451438  1
  V  V19  1  0.443857  0.055153  0.055153  1
  Fe  Fe20  1  0.125000  0.625000  0.625000  1
  Ni  Ni21  1  0.625000  0.125000  0.625000  1
  Ni  Ni22  1  0.625000  0.625000  0.125000  1
  Ni  Ni23  1  0.625000  0.625000  0.625000  1
  C  C24  1  0.625000  0.125000  0.125000  1
  C  C25  1  0.125000  0.625000  0.125000  1
  C  C26  1  0.125000  0.125000  0.625000  1
  C  C27  1  0.125000  0.125000  0.125000  1
