# generated using pymatgen
data_Y4ZrIr2Rh
_symmetry_space_group_name_H-M   'P 1'
_cell_length_a   10.90180800
_cell_length_b   10.90180800
_cell_length_c   6.28291000
_cell_angle_alpha   90.00000000
_cell_angle_beta   90.00000000
_cell_angle_gamma   90.00000000
_symmetry_Int_Tables_number   1
_chemical_formula_structural   Y4ZrIr2Rh
_chemical_formula_sum   'Y16 Zr4 Ir8 Rh4'
_cell_volume   746.72019477
_cell_formula_units_Z   4
loop_
 _symmetry_equiv_pos_site_id
 _symmetry_equiv_pos_as_xyz
  1  'x, y, z'
loop_
 _atom_site_type_symbol
 _atom_site_label
 _atom_site_symmetry_multiplicity
 _atom_site_fract_x
 _atom_site_fract_y
 _atom_site_fract_z
 _atom_site_occupancy
  Y  Y0  1  0.288595  0.087404  0.374812  1
  Y  Y1  1  0.288595  0.912596  0.874812  1
  Y  Y2  1  0.711405  0.087404  0.874812  1
  Y  Y3  1  0.711405  0.912596  0.374812  1
  Y  Y4  1  0.587404  0.788595  0.874812  1
  Y  Y5  1  0.587404  0.211405  0.374812  1
  Y  Y6  1  0.412596  0.788595  0.374812  1
  Y  Y7  1  0.412596  0.211405  0.874812  1
  Y  Y8  1  0.211405  0.412596  0.625188  1
  Y  Y9  1  0.211405  0.587404  0.125188  1
  Y  Y10  1  0.788595  0.412596  0.125188  1
  Y  Y11  1  0.788595  0.587404  0.625188  1
  Y  Y12  1  0.912596  0.711405  0.125188  1
  Y  Y13  1  0.912596  0.288595  0.625188  1
  Y  Y14  1  0.087404  0.711405  0.625188  1
  Y  Y15  1  0.087404  0.288595  0.125188  1
  Zr  Zr16  1  0.000000  0.000000  0.500000  1
  Zr  Zr17  1  0.000000  0.000000  0.000000  1
  Zr  Zr18  1  0.500000  0.500000  0.000000  1
  Zr  Zr19  1  0.500000  0.500000  0.500000  1
  Ir  Ir20  1  0.855258  0.144742  0.250000  1
  Ir  Ir21  1  0.855258  0.855258  0.750000  1
  Ir  Ir22  1  0.144742  0.144742  0.750000  1
  Ir  Ir23  1  0.144742  0.855258  0.250000  1
  Ir  Ir24  1  0.644742  0.355258  0.750000  1
  Ir  Ir25  1  0.644742  0.644742  0.250000  1
  Ir  Ir26  1  0.355258  0.355258  0.250000  1
  Ir  Ir27  1  0.355258  0.644742  0.750000  1
  Rh  Rh28  1  0.500000  0.000000  0.121230  1
  Rh  Rh29  1  0.500000  0.000000  0.621230  1
  Rh  Rh30  1  0.000000  0.500000  0.878770  1
  Rh  Rh31  1  0.000000  0.500000  0.378770  1
