# generated using pymatgen
data_Cs2KLuBi2
_symmetry_space_group_name_H-M   'P 1'
_cell_length_a   10.38881481
_cell_length_b   10.38881520
_cell_length_c   10.38881600
_cell_angle_alpha   129.30785552
_cell_angle_beta   135.02839440
_cell_angle_gamma   70.06559973
_symmetry_Int_Tables_number   1
_chemical_formula_structural   Cs2KLuBi2
_chemical_formula_sum   'Cs4 K2 Lu2 Bi4'
_cell_volume   601.25386965
_cell_formula_units_Z   2
loop_
 _symmetry_equiv_pos_site_id
 _symmetry_equiv_pos_as_xyz
  1  'x, y, z'
loop_
 _atom_site_type_symbol
 _atom_site_label
 _atom_site_symmetry_multiplicity
 _atom_site_fract_x
 _atom_site_fract_y
 _atom_site_fract_z
 _atom_site_occupancy
  Cs  Cs0  1  0.678331  0.458334  0.780005  1
  Cs  Cs1  1  0.821669  0.101674  0.280005  1
  Cs  Cs2  1  0.178331  0.898326  0.719995  1
  Cs  Cs3  1  0.321669  0.541666  0.219995  1
  K  K4  1  0.750000  0.000000  0.750000  1
  K  K5  1  0.250000  0.000000  0.250000  1
  Lu  Lu6  1  0.250000  0.500000  0.750000  1
  Lu  Lu7  1  0.750000  0.500000  0.250000  1
  Bi  Bi8  1  0.407585  0.206006  0.798420  1
  Bi  Bi9  1  0.592415  0.793994  0.201580  1
  Bi  Bi10  1  0.092415  0.390835  0.298420  1
  Bi  Bi11  1  0.907585  0.609165  0.701580  1
