# generated using pymatgen
data_YHoB24
_symmetry_space_group_name_H-M   'P 1'
_cell_length_a   5.29861800
_cell_length_b   5.29861822
_cell_length_c   9.17723600
_cell_angle_alpha   73.22090143
_cell_angle_beta   90.00000000
_cell_angle_gamma   119.99999866
_symmetry_Int_Tables_number   1
_chemical_formula_structural   YHoB24
_chemical_formula_sum   'Y1 Ho1 B24'
_cell_volume   210.37305883
_cell_formula_units_Z   1
loop_
 _symmetry_equiv_pos_site_id
 _symmetry_equiv_pos_as_xyz
  1  'x, y, z'
loop_
 _atom_site_type_symbol
 _atom_site_label
 _atom_site_symmetry_multiplicity
 _atom_site_fract_x
 _atom_site_fract_y
 _atom_site_fract_z
 _atom_site_occupancy
  Y  Y0  1  0.500000  0.000000  0.500000  1
  Ho  Ho1  1  0.000000  0.000000  0.000000  1
  B  B2  1  0.912168  0.500270  0.249784  1
  B  B3  1  0.411897  0.499730  0.750216  1
  B  B4  1  0.081098  0.500239  0.418663  1
  B  B5  1  0.581116  0.500053  0.918832  1
  B  B6  1  0.249946  0.838048  0.249784  1
  B  B7  1  0.750054  0.837886  0.750216  1
  B  B8  1  0.081098  0.162196  0.418663  1
  B  B9  1  0.581116  0.162231  0.918832  1
  B  B10  1  0.912168  0.162114  0.249784  1
  B  B11  1  0.411897  0.161952  0.750216  1
  B  B12  1  0.249946  0.162114  0.249784  1
  B  B13  1  0.750054  0.161952  0.750216  1
  B  B14  1  0.418884  0.837769  0.081168  1
  B  B15  1  0.918902  0.837804  0.581337  1
  B  B16  1  0.418884  0.499947  0.081168  1
  B  B17  1  0.918902  0.499761  0.581337  1
  B  B18  1  0.081063  0.499947  0.081168  1
  B  B19  1  0.580859  0.499761  0.581337  1
  B  B20  1  0.588103  0.500270  0.249784  1
  B  B21  1  0.087832  0.499730  0.750216  1
  B  B22  1  0.588103  0.838048  0.249784  1
  B  B23  1  0.087832  0.837886  0.750216  1
  B  B24  1  0.419141  0.500239  0.418663  1
  B  B25  1  0.918937  0.500053  0.918832  1
