# generated using pymatgen
data_Ho9Er11FeCo3Sb8
_symmetry_space_group_name_H-M   'P 1'
_cell_length_a   7.81665664
_cell_length_b   8.72719518
_cell_length_c   12.09289604
_cell_angle_alpha   90.00454494
_cell_angle_beta   90.12884900
_cell_angle_gamma   90.02276985
_symmetry_Int_Tables_number   1
_chemical_formula_structural   Ho9Er11FeCo3Sb8
_chemical_formula_sum   'Ho9 Er11 Fe1 Co3 Sb8'
_cell_volume   824.94483827
_cell_formula_units_Z   1
loop_
 _symmetry_equiv_pos_site_id
 _symmetry_equiv_pos_as_xyz
  1  'x, y, z'
loop_
 _atom_site_type_symbol
 _atom_site_label
 _atom_site_symmetry_multiplicity
 _atom_site_fract_x
 _atom_site_fract_y
 _atom_site_fract_z
 _atom_site_occupancy
  Ho  Ho0  1  0.157959  0.750032  0.205635  1
  Ho  Ho1  1  0.344625  0.750035  0.702836  1
  Ho  Ho2  1  0.453509  0.750009  0.997464  1
  Ho  Ho3  1  0.046634  0.750061  0.496943  1
  Ho  Ho4  1  0.622337  0.750079  0.306023  1
  Ho  Ho5  1  0.123331  0.249969  0.191908  1
  Ho  Ho6  1  0.377866  0.249930  0.692848  1
  Ho  Ho7  1  0.877625  0.750012  0.807479  1
  Ho  Ho8  1  0.324809  0.467742  0.436638  1
  Er  Er9  1  0.655107  0.249935  0.296338  1
  Er  Er10  1  0.844905  0.249974  0.797793  1
  Er  Er11  1  0.949556  0.249964  0.502947  1
  Er  Er12  1  0.545689  0.249985  0.002116  1
  Er  Er13  1  0.822219  0.963926  0.065437  1
  Er  Er14  1  0.324914  0.032405  0.436623  1
  Er  Er15  1  0.177115  0.464357  0.934873  1
  Er  Er16  1  0.678434  0.539344  0.564967  1
  Er  Er17  1  0.177076  0.035657  0.934871  1
  Er  Er18  1  0.678327  0.960551  0.564935  1
  Er  Er19  1  0.822192  0.536075  0.065449  1
  Fe  Fe20  1  0.427491  0.750025  0.487476  1
  Co  Co21  1  0.934669  0.250008  0.009590  1
  Co  Co22  1  0.567853  0.249917  0.509447  1
  Co  Co23  1  0.066416  0.749993  0.991374  1
  Sb  Sb24  1  0.929482  0.993159  0.326855  1
  Sb  Sb25  1  0.429631  0.008790  0.172255  1
  Sb  Sb26  1  0.069754  0.491240  0.672703  1
  Sb  Sb27  1  0.570856  0.507719  0.827227  1
  Sb  Sb28  1  0.069704  0.008782  0.672699  1
  Sb  Sb29  1  0.570871  0.992277  0.827214  1
  Sb  Sb30  1  0.929367  0.506829  0.326839  1
  Sb  Sb31  1  0.429678  0.491218  0.172196  1
