# generated using pymatgen
data_LaNdEr4(RuO7)2
_symmetry_space_group_name_H-M   'P 1'
_cell_length_a   6.43144215
_cell_length_b   6.43144114
_cell_length_c   7.50508707
_cell_angle_alpha   90.00903764
_cell_angle_beta   90.00904001
_cell_angle_gamma   109.85988091
_symmetry_Int_Tables_number   1
_chemical_formula_structural   LaNdEr4(RuO7)2
_chemical_formula_sum   'La1 Nd1 Er4 Ru2 O14'
_cell_volume   291.97340835
_cell_formula_units_Z   1
loop_
 _symmetry_equiv_pos_site_id
 _symmetry_equiv_pos_as_xyz
  1  'x, y, z'
loop_
 _atom_site_type_symbol
 _atom_site_label
 _atom_site_symmetry_multiplicity
 _atom_site_fract_x
 _atom_site_fract_y
 _atom_site_fract_z
 _atom_site_occupancy
  La  La0  1  0.000000  0.000000  0.500000  1
  Nd  Nd1  1  0.000000  0.000000  0.000000  1
  Er  Er2  1  0.483316  0.933160  0.750460  1
  Er  Er3  1  0.516684  0.066840  0.249540  1
  Er  Er4  1  0.933160  0.483316  0.750460  1
  Er  Er5  1  0.066840  0.516684  0.249540  1
  Ru  Ru6  1  0.500000  0.500000  0.500000  1
  Ru  Ru7  1  0.500000  0.500000  0.000000  1
  O  O8  1  0.590618  0.590618  0.749900  1
  O  O9  1  0.409382  0.409382  0.250100  1
  O  O10  1  0.836057  0.120204  0.752460  1
  O  O11  1  0.163943  0.879796  0.247540  1
  O  O12  1  0.120204  0.836057  0.752460  1
  O  O13  1  0.879796  0.163943  0.247540  1
  O  O14  1  0.440109  0.180774  0.963648  1
  O  O15  1  0.557106  0.818689  0.463368  1
  O  O16  1  0.180774  0.440109  0.963648  1
  O  O17  1  0.818689  0.557106  0.463368  1
  O  O18  1  0.442894  0.181311  0.536632  1
  O  O19  1  0.559891  0.819226  0.036352  1
  O  O20  1  0.819226  0.559891  0.036352  1
  O  O21  1  0.181311  0.442894  0.536632  1
