# generated using pymatgen
data_Ho2Er2Ga18NiIr5
_symmetry_space_group_name_H-M   'P 1'
_cell_length_a   7.56494176
_cell_length_b   7.56529139
_cell_length_c   9.44122117
_cell_angle_alpha   90.19702085
_cell_angle_beta   90.19848201
_cell_angle_gamma   119.96403133
_symmetry_Int_Tables_number   1
_chemical_formula_structural   Ho2Er2Ga18NiIr5
_chemical_formula_sum   'Ho2 Er2 Ga18 Ni1 Ir5'
_cell_volume   468.09824188
_cell_formula_units_Z   1
loop_
 _symmetry_equiv_pos_site_id
 _symmetry_equiv_pos_as_xyz
  1  'x, y, z'
loop_
 _atom_site_type_symbol
 _atom_site_label
 _atom_site_symmetry_multiplicity
 _atom_site_fract_x
 _atom_site_fract_y
 _atom_site_fract_z
 _atom_site_occupancy
  Ho  Ho0  1  0.996817  0.667500  0.750158  1
  Ho  Ho1  1  0.003183  0.332500  0.249842  1
  Er  Er2  1  0.667504  0.996837  0.750175  1
  Er  Er3  1  0.332496  0.003163  0.249825  1
  Ga  Ga4  1  0.122694  0.122735  0.745480  1
  Ga  Ga5  1  0.877306  0.877265  0.254520  1
  Ga  Ga6  1  0.998884  0.330229  0.580208  1
  Ga  Ga7  1  0.001116  0.669771  0.419792  1
  Ga  Ga8  1  0.001198  0.666542  0.080736  1
  Ga  Ga9  1  0.333634  0.998884  0.919328  1
  Ga  Ga10  1  0.998802  0.333458  0.919264  1
  Ga  Ga11  1  0.666366  0.001116  0.080672  1
  Ga  Ga12  1  0.669609  0.001033  0.419848  1
  Ga  Ga13  1  0.330391  0.998967  0.580152  1
  Ga  Ga14  1  0.332315  0.332230  0.065301  1
  Ga  Ga15  1  0.667685  0.667770  0.934699  1
  Ga  Ga16  1  0.672075  0.672160  0.565068  1
  Ga  Ga17  1  0.327925  0.327840  0.434932  1
  Ga  Ga18  1  0.338738  0.546114  0.749553  1
  Ga  Ga19  1  0.661262  0.453886  0.250447  1
  Ga  Ga20  1  0.546051  0.338641  0.749549  1
  Ga  Ga21  1  0.453949  0.661359  0.250451  1
  Ni  Ni22  1  0.000000  0.000000  0.500000  1
  Ir  Ir23  1  0.671900  0.328006  0.499995  1
  Ir  Ir24  1  0.328100  0.671994  0.500005  1
  Ir  Ir25  1  0.328223  0.671817  0.000001  1
  Ir  Ir26  1  0.671777  0.328183  0.999999  1
  Ir  Ir27  1  0.000000  0.000000  0.000000  1
