# generated using pymatgen
data_TaB3Ru
_symmetry_space_group_name_H-M   'P 1'
_cell_length_a   9.38069475
_cell_length_b   9.38069487
_cell_length_c   3.07145100
_cell_angle_alpha   90.00000000
_cell_angle_beta   90.00000000
_cell_angle_gamma   159.36849742
_symmetry_Int_Tables_number   1
_chemical_formula_structural   TaB3Ru
_chemical_formula_sum   'Ta2 B6 Ru2'
_cell_volume   95.23478379
_cell_formula_units_Z   2
loop_
 _symmetry_equiv_pos_site_id
 _symmetry_equiv_pos_as_xyz
  1  'x, y, z'
loop_
 _atom_site_type_symbol
 _atom_site_label
 _atom_site_symmetry_multiplicity
 _atom_site_fract_x
 _atom_site_fract_y
 _atom_site_fract_z
 _atom_site_occupancy
  Ta  Ta0  1  0.926572  0.073425  0.250001  1
  Ta  Ta1  1  0.073425  0.926572  0.749999  1
  B  B2  1  0.623978  0.376019  0.250001  1
  B  B3  1  0.524722  0.475275  0.250001  1
  B  B4  1  0.322227  0.677770  0.250001  1
  B  B5  1  0.677770  0.322227  0.749999  1
  B  B6  1  0.475275  0.524722  0.749999  1
  B  B7  1  0.376019  0.623978  0.749999  1
  Ru  Ru8  1  0.200502  0.799495  0.250001  1
  Ru  Ru9  1  0.799495  0.200502  0.749999  1
