# generated using pymatgen
data_Sm2Gd4OsCl10
_symmetry_space_group_name_H-M   'P 1'
_cell_length_a   7.29640503
_cell_length_b   9.11640134
_cell_length_c   8.98384500
_cell_angle_alpha   107.04254721
_cell_angle_beta   96.85176765
_cell_angle_gamma   106.10402282
_symmetry_Int_Tables_number   1
_chemical_formula_structural   Sm2Gd4OsCl10
_chemical_formula_sum   'Sm2 Gd4 Os1 Cl10'
_cell_volume   535.66868455
_cell_formula_units_Z   1
loop_
 _symmetry_equiv_pos_site_id
 _symmetry_equiv_pos_as_xyz
  1  'x, y, z'
loop_
 _atom_site_type_symbol
 _atom_site_label
 _atom_site_symmetry_multiplicity
 _atom_site_fract_x
 _atom_site_fract_y
 _atom_site_fract_z
 _atom_site_occupancy
  Sm  Sm0  1  0.465919  0.306246  0.596971  1
  Sm  Sm1  1  0.534081  0.693754  0.403029  1
  Gd  Gd2  1  0.866826  0.138459  0.686574  1
  Gd  Gd3  1  0.133174  0.861541  0.313426  1
  Gd  Gd4  1  0.364509  0.941529  0.749784  1
  Gd  Gd5  1  0.635491  0.058471  0.250216  1
  Os  Os6  1  0.500000  0.000000  0.500000  1
  Cl  Cl7  1  0.416276  0.631413  0.670967  1
  Cl  Cl8  1  0.583724  0.368587  0.329033  1
  Cl  Cl9  1  0.280753  0.239403  0.839552  1
  Cl  Cl10  1  0.719247  0.760597  0.160448  1
  Cl  Cl11  1  0.843181  0.442246  0.765806  1
  Cl  Cl12  1  0.156819  0.557754  0.234194  1
  Cl  Cl13  1  0.045098  0.169060  0.417877  1
  Cl  Cl14  1  0.261511  0.921711  0.050473  1
  Cl  Cl15  1  0.738489  0.078289  0.949527  1
  Cl  Cl16  1  0.954902  0.830940  0.582123  1
