# generated using pymatgen
data_CeNd5OsCl10
_symmetry_space_group_name_H-M   'P 1'
_cell_length_a   7.34132557
_cell_length_b   8.95468331
_cell_length_c   9.27782700
_cell_angle_alpha   108.47526894
_cell_angle_beta   97.20448341
_cell_angle_gamma   105.24731463
_symmetry_Int_Tables_number   1
_chemical_formula_structural   CeNd5OsCl10
_chemical_formula_sum   'Ce1 Nd5 Os1 Cl10'
_cell_volume   543.40336575
_cell_formula_units_Z   1
loop_
 _symmetry_equiv_pos_site_id
 _symmetry_equiv_pos_as_xyz
  1  'x, y, z'
loop_
 _atom_site_type_symbol
 _atom_site_label
 _atom_site_symmetry_multiplicity
 _atom_site_fract_x
 _atom_site_fract_y
 _atom_site_fract_z
 _atom_site_occupancy
  Ce  Ce0  1  0.535534  0.201383  0.406243  1
  Nd  Nd1  1  0.461651  0.794368  0.591732  1
  Nd  Nd2  1  0.119178  0.347146  0.300895  1
  Nd  Nd3  1  0.882301  0.654768  0.700499  1
  Nd  Nd4  1  0.642365  0.559314  0.245438  1
  Nd  Nd5  1  0.359912  0.438936  0.755395  1
  Os  Os6  1  0.503208  0.486753  0.496691  1
  Cl  Cl7  1  0.149537  0.038455  0.224026  1
  Cl  Cl8  1  0.842120  0.960470  0.770857  1
  Cl  Cl9  1  0.256093  0.430078  0.054665  1
  Cl  Cl10  1  0.745270  0.581598  0.950236  1
  Cl  Cl11  1  0.702846  0.249425  0.149075  1
  Cl  Cl12  1  0.299911  0.752408  0.847724  1
  Cl  Cl13  1  0.050734  0.674341  0.423490  1
  Cl  Cl14  1  0.953707  0.330778  0.578796  1
  Cl  Cl15  1  0.407580  0.127304  0.668752  1
  Cl  Cl16  1  0.588054  0.872473  0.335486  1
