# generated using pymatgen
data_Sc5Co18TcP12
_symmetry_space_group_name_H-M   'P 1'
_cell_length_a   11.79801301
_cell_length_b   11.79801301
_cell_length_c   3.59904600
_cell_angle_alpha   90.00000000
_cell_angle_beta   90.00000000
_cell_angle_gamma   119.80767149
_symmetry_Int_Tables_number   1
_chemical_formula_structural   Sc5Co18TcP12
_chemical_formula_sum   'Sc5 Co18 Tc1 P12'
_cell_volume   434.68453366
_cell_formula_units_Z   1
loop_
 _symmetry_equiv_pos_site_id
 _symmetry_equiv_pos_as_xyz
  1  'x, y, z'
loop_
 _atom_site_type_symbol
 _atom_site_label
 _atom_site_symmetry_multiplicity
 _atom_site_fract_x
 _atom_site_fract_y
 _atom_site_fract_z
 _atom_site_occupancy
  Sc  Sc0  1  0.665072  0.333772  0.000000  1
  Sc  Sc1  1  0.333772  0.665072  0.000000  1
  Sc  Sc2  1  0.181471  0.181471  0.500000  1
  Sc  Sc3  1  0.814619  0.999792  0.500000  1
  Sc  Sc4  1  0.999792  0.814619  0.500000  1
  Co  Co5  1  0.449467  0.998919  0.000000  1
  Co  Co6  1  0.998919  0.449467  0.000000  1
  Co  Co7  1  0.821540  0.198251  0.000000  1
  Co  Co8  1  0.805898  0.627657  0.000000  1
  Co  Co9  1  0.375925  0.176912  0.000000  1
  Co  Co10  1  0.198251  0.821540  0.000000  1
  Co  Co11  1  0.627657  0.805898  0.000000  1
  Co  Co12  1  0.176912  0.375925  0.000000  1
  Co  Co13  1  0.643698  0.126221  0.500000  1
  Co  Co14  1  0.871323  0.515667  0.500000  1
  Co  Co15  1  0.481657  0.354279  0.500000  1
  Co  Co16  1  0.126221  0.643698  0.500000  1
  Co  Co17  1  0.515667  0.871323  0.500000  1
  Co  Co18  1  0.354279  0.481657  0.500000  1
  Co  Co19  1  0.719758  0.719758  0.500000  1
  Co  Co20  1  0.285150  0.999484  0.500000  1
  Co  Co21  1  0.999484  0.285150  0.500000  1
  Co  Co22  1  0.002753  0.002753  0.000000  1
  Tc  Tc23  1  0.552122  0.552122  0.000000  1
  P  P24  1  0.356950  0.356950  0.000000  1
  P  P25  1  0.638044  0.001077  0.000000  1
  P  P26  1  0.001077  0.638044  0.000000  1
  P  P27  1  0.831472  0.315755  0.500000  1
  P  P28  1  0.684586  0.517295  0.500000  1
  P  P29  1  0.483400  0.166027  0.500000  1
  P  P30  1  0.315755  0.831472  0.500000  1
  P  P31  1  0.517295  0.684586  0.500000  1
  P  P32  1  0.166027  0.483400  0.500000  1
  P  P33  1  0.826015  0.826015  0.000000  1
  P  P34  1  0.178394  0.999580  0.000000  1
  P  P35  1  0.999580  0.178394  0.000000  1
