# generated using pymatgen
data_Cs4La3Ce(GeSe4)4
_symmetry_space_group_name_H-M   'P 1'
_cell_length_a   7.27087358
_cell_length_b   7.00233312
_cell_length_c   20.00046434
_cell_angle_alpha   71.44054391
_cell_angle_beta   89.95489104
_cell_angle_gamma   89.98451508
_symmetry_Int_Tables_number   1
_chemical_formula_structural   Cs4La3Ce(GeSe4)4
_chemical_formula_sum   'Cs4 La3 Ce1 Ge4 Se16'
_cell_volume   965.32785247
_cell_formula_units_Z   1
loop_
 _symmetry_equiv_pos_site_id
 _symmetry_equiv_pos_as_xyz
  1  'x, y, z'
loop_
 _atom_site_type_symbol
 _atom_site_label
 _atom_site_symmetry_multiplicity
 _atom_site_fract_x
 _atom_site_fract_y
 _atom_site_fract_z
 _atom_site_occupancy
  Cs  Cs0  1  0.752262  0.731774  0.032847  1
  Cs  Cs1  1  0.247445  0.268532  0.967335  1
  Cs  Cs2  1  0.747503  0.732429  0.532367  1
  Cs  Cs3  1  0.252438  0.268113  0.467259  1
  La  La4  1  0.732070  0.770115  0.273973  1
  La  La5  1  0.767267  0.769999  0.774052  1
  La  La6  1  0.267275  0.230164  0.725936  1
  Ce  Ce7  1  0.229830  0.231156  0.225653  1
  Ge  Ge8  1  0.732047  0.211928  0.835010  1
  Ge  Ge9  1  0.767312  0.212231  0.334346  1
  Ge  Ge10  1  0.232244  0.788065  0.665084  1
  Ge  Ge11  1  0.268053  0.787372  0.165841  1
  Se  Se12  1  0.505175  0.037239  0.143799  1
  Se  Se13  1  0.760656  0.410440  0.410432  1
  Se  Se14  1  0.004196  0.010533  0.848474  1
  Se  Se15  1  0.834832  0.422876  0.217274  1
  Se  Se16  1  0.993125  0.035469  0.642745  1
  Se  Se17  1  0.260581  0.586656  0.090577  1
  Se  Se18  1  0.738566  0.411109  0.910630  1
  Se  Se19  1  0.332420  0.571966  0.282263  1
  Se  Se20  1  0.238520  0.588913  0.589460  1
  Se  Se21  1  0.493052  0.964421  0.857326  1
  Se  Se22  1  0.670141  0.421763  0.717480  1
  Se  Se23  1  0.169904  0.578241  0.782574  1
  Se  Se24  1  0.007701  0.965894  0.356302  1
  Se  Se25  1  0.997066  0.991153  0.152280  1
  Se  Se26  1  0.494029  0.011954  0.347052  1
  Se  Se27  1  0.504289  0.989496  0.651631  1
