# generated using pymatgen
data_Tb3Lu7Si5As
_symmetry_space_group_name_H-M   'P 1'
_cell_length_a   8.31163366
_cell_length_b   8.35451076
_cell_length_c   6.18315200
_cell_angle_alpha   90.00000000
_cell_angle_beta   90.00000000
_cell_angle_gamma   119.96377380
_symmetry_Int_Tables_number   1
_chemical_formula_structural   Tb3Lu7Si5As
_chemical_formula_sum   'Tb3 Lu7 Si5 As1'
_cell_volume   371.96869358
_cell_formula_units_Z   1
loop_
 _symmetry_equiv_pos_site_id
 _symmetry_equiv_pos_as_xyz
  1  'x, y, z'
loop_
 _atom_site_type_symbol
 _atom_site_label
 _atom_site_symmetry_multiplicity
 _atom_site_fract_x
 _atom_site_fract_y
 _atom_site_fract_z
 _atom_site_occupancy
  Tb  Tb0  1  0.758492  0.999817  0.750000  1
  Tb  Tb1  1  0.243738  0.247641  0.750000  1
  Tb  Tb2  1  0.242698  0.999281  0.250000  1
  Lu  Lu3  1  0.995535  0.751001  0.750000  1
  Lu  Lu4  1  0.000013  0.246063  0.250000  1
  Lu  Lu5  1  0.755895  0.755297  0.250000  1
  Lu  Lu6  1  0.332600  0.663471  0.498423  1
  Lu  Lu7  1  0.670028  0.337151  0.001568  1
  Lu  Lu8  1  0.670028  0.337151  0.498432  1
  Lu  Lu9  1  0.332600  0.663471  0.001577  1
  Si  Si10  1  0.394792  0.395288  0.250000  1
  Si  Si11  1  0.999400  0.604279  0.250000  1
  Si  Si12  1  0.999363  0.397412  0.750000  1
  Si  Si13  1  0.606614  0.605322  0.750000  1
  Si  Si14  1  0.608985  0.999800  0.250000  1
  As  As15  1  0.389218  0.997554  0.750000  1
