# generated using pymatgen
data_Ca4DyY3(BO4)4
_symmetry_space_group_name_H-M   'P 1'
_cell_length_a   10.52465406
_cell_length_b   9.72955805
_cell_length_c   3.61442600
_cell_angle_alpha   90.00000000
_cell_angle_beta   90.00000000
_cell_angle_gamma   90.01177109
_symmetry_Int_Tables_number   1
_chemical_formula_structural   Ca4DyY3(BO4)4
_chemical_formula_sum   'Ca4 Dy1 Y3 B4 O16'
_cell_volume   370.11805532
_cell_formula_units_Z   1
loop_
 _symmetry_equiv_pos_site_id
 _symmetry_equiv_pos_as_xyz
  1  'x, y, z'
loop_
 _atom_site_type_symbol
 _atom_site_label
 _atom_site_symmetry_multiplicity
 _atom_site_fract_x
 _atom_site_fract_y
 _atom_site_fract_z
 _atom_site_occupancy
  Ca  Ca0  1  0.083248  0.673008  0.249999  1
  Ca  Ca1  1  0.582891  0.827923  0.249999  1
  Ca  Ca2  1  0.416937  0.171820  0.750000  1
  Ca  Ca3  1  0.916860  0.327518  0.750000  1
  Dy  Dy4  1  0.112828  0.087375  0.249999  1
  Y  Y5  1  0.613240  0.413380  0.249999  1
  Y  Y6  1  0.386488  0.586489  0.750000  1
  Y  Y7  1  0.887019  0.913476  0.750000  1
  B  B8  1  0.698461  0.131988  0.249999  1
  B  B9  1  0.198593  0.367225  0.249999  1
  B  B10  1  0.801708  0.632238  0.750000  1
  B  B11  1  0.301295  0.868261  0.750000  1
  O  O12  1  0.566600  0.150430  0.249999  1
  O  O13  1  0.276104  0.250522  0.249999  1
  O  O14  1  0.775460  0.249274  0.249999  1
  O  O15  1  0.066755  0.347435  0.249999  1
  O  O16  1  0.248344  0.499435  0.249999  1
  O  O17  1  0.505374  0.613558  0.249999  1
  O  O18  1  0.006142  0.887308  0.249999  1
  O  O19  1  0.749158  0.000209  0.249999  1
  O  O20  1  0.250278  0.999835  0.750000  1
  O  O21  1  0.994507  0.113571  0.750000  1
  O  O22  1  0.494375  0.386411  0.750000  1
  O  O23  1  0.751228  0.500364  0.750000  1
  O  O24  1  0.933653  0.650939  0.750000  1
  O  O25  1  0.224577  0.750734  0.750000  1
  O  O26  1  0.724616  0.749319  0.750000  1
  O  O27  1  0.433263  0.849953  0.750000  1
