# generated using pymatgen
data_Lu3In3CuNiHg
_symmetry_space_group_name_H-M   'P 1'
_cell_length_a   7.60956500
_cell_length_b   7.60956559
_cell_length_c   3.80220400
_cell_angle_alpha   90.00000000
_cell_angle_beta   90.00000000
_cell_angle_gamma   120.00000176
_symmetry_Int_Tables_number   1
_chemical_formula_structural   Lu3In3CuNiHg
_chemical_formula_sum   'Lu3 In3 Cu1 Ni1 Hg1'
_cell_volume   190.67147864
_cell_formula_units_Z   1
loop_
 _symmetry_equiv_pos_site_id
 _symmetry_equiv_pos_as_xyz
  1  'x, y, z'
loop_
 _atom_site_type_symbol
 _atom_site_label
 _atom_site_symmetry_multiplicity
 _atom_site_fract_x
 _atom_site_fract_y
 _atom_site_fract_z
 _atom_site_occupancy
  Lu  Lu0  1  0.605061  0.027435  0.000000  1
  Lu  Lu1  1  0.972565  0.577627  0.000000  1
  Lu  Lu2  1  0.422373  0.394939  0.000000  1
  In  In3  1  0.257665  0.010159  0.500000  1
  In  In4  1  0.989841  0.247506  0.500000  1
  In  In5  1  0.752494  0.742335  0.500000  1
  Cu  Cu6  1  0.000000  0.000000  0.000000  1
  Ni  Ni7  1  0.666667  0.333333  0.500000  1
  Hg  Hg8  1  0.333333  0.666667  0.500000  1
