# generated using pymatgen
data_Np2Co2Si5Pd
_symmetry_space_group_name_H-M   'P 1'
_cell_length_a   7.97344222
_cell_length_b   7.97344107
_cell_length_c   7.97344178
_cell_angle_alpha   137.82775946
_cell_angle_beta   104.36936067
_cell_angle_gamma   90.61297155
_symmetry_Int_Tables_number   1
_chemical_formula_structural   Np2Co2Si5Pd
_chemical_formula_sum   'Np4 Co4 Si10 Pd2'
_cell_volume   314.56981804
_cell_formula_units_Z   2
loop_
 _symmetry_equiv_pos_site_id
 _symmetry_equiv_pos_as_xyz
  1  'x, y, z'
loop_
 _atom_site_type_symbol
 _atom_site_label
 _atom_site_symmetry_multiplicity
 _atom_site_fract_x
 _atom_site_fract_y
 _atom_site_fract_z
 _atom_site_occupancy
  Np  Np0  1  0.866900  0.632410  0.234492  1
  Np  Np1  1  0.133100  0.367590  0.765508  1
  Np  Np2  1  0.397918  0.132410  0.265508  1
  Np  Np3  1  0.602082  0.867590  0.734492  1
  Co  Co4  1  0.253532  0.865408  0.388125  1
  Co  Co5  1  0.746468  0.134592  0.611875  1
  Co  Co6  1  0.477282  0.365408  0.111875  1
  Co  Co7  1  0.522718  0.634592  0.888125  1
  Si  Si8  1  0.500000  0.750000  0.250000  1
  Si  Si9  1  0.500000  0.250000  0.750000  1
  Si  Si10  1  0.240703  0.990703  0.750000  1
  Si  Si11  1  0.759297  0.509297  0.750000  1
  Si  Si12  1  0.759297  0.009297  0.250000  1
  Si  Si13  1  0.240703  0.490703  0.250000  1
  Si  Si14  1  0.048181  0.886959  0.161223  1
  Si  Si15  1  0.951819  0.113041  0.838777  1
  Si  Si16  1  0.725736  0.386959  0.338777  1
  Si  Si17  1  0.274264  0.613041  0.661223  1
  Pd  Pd18  1  0.000000  0.750000  0.750000  1
  Pd  Pd19  1  0.000000  0.250000  0.250000  1
