# generated using pymatgen
data_BaEu2(PN2)6
_symmetry_space_group_name_H-M   'P 1'
_cell_length_a   10.15848400
_cell_length_b   10.15848400
_cell_length_c   10.15848400
_cell_angle_alpha   90.00000000
_cell_angle_beta   90.00000000
_cell_angle_gamma   90.00000000
_symmetry_Int_Tables_number   1
_chemical_formula_structural   BaEu2(PN2)6
_chemical_formula_sum   'Ba4 Eu8 P24 N48'
_cell_volume   1048.30269602
_cell_formula_units_Z   4
loop_
 _symmetry_equiv_pos_site_id
 _symmetry_equiv_pos_as_xyz
  1  'x, y, z'
loop_
 _atom_site_type_symbol
 _atom_site_label
 _atom_site_symmetry_multiplicity
 _atom_site_fract_x
 _atom_site_fract_y
 _atom_site_fract_z
 _atom_site_occupancy
  Ba  Ba0  1  0.500000  0.000000  0.500000  1
  Ba  Ba1  1  0.000000  0.500000  0.500000  1
  Ba  Ba2  1  0.000000  0.000000  0.000000  1
  Ba  Ba3  1  0.500000  0.500000  0.000000  1
  Eu  Eu4  1  0.128525  0.871475  0.371475  1
  Eu  Eu5  1  0.371475  0.128525  0.871475  1
  Eu  Eu6  1  0.371475  0.371475  0.371475  1
  Eu  Eu7  1  0.128525  0.628525  0.871475  1
  Eu  Eu8  1  0.628525  0.628525  0.628525  1
  Eu  Eu9  1  0.871475  0.371475  0.128525  1
  Eu  Eu10  1  0.871475  0.128525  0.628525  1
  Eu  Eu11  1  0.628525  0.871475  0.128525  1
  P  P12  1  0.840235  0.386714  0.813128  1
  P  P13  1  0.813128  0.659765  0.886714  1
  P  P14  1  0.159765  0.886714  0.686872  1
  P  P15  1  0.886714  0.813128  0.659765  1
  P  P16  1  0.340235  0.386714  0.686872  1
  P  P17  1  0.186872  0.159765  0.613286  1
  P  P18  1  0.813128  0.840235  0.386714  1
  P  P19  1  0.386714  0.813128  0.840235  1
  P  P20  1  0.113286  0.186872  0.340235  1
  P  P21  1  0.613286  0.186872  0.159765  1
  P  P22  1  0.613286  0.313128  0.659765  1
  P  P23  1  0.386714  0.686872  0.340235  1
  P  P24  1  0.686872  0.340235  0.386714  1
  P  P25  1  0.186872  0.340235  0.113286  1
  P  P26  1  0.340235  0.113286  0.186872  1
  P  P27  1  0.659765  0.613286  0.313128  1
  P  P28  1  0.113286  0.313128  0.840235  1
  P  P29  1  0.159765  0.613286  0.186872  1
  P  P30  1  0.840235  0.113286  0.313128  1
  P  P31  1  0.659765  0.886714  0.813128  1
  P  P32  1  0.313128  0.659765  0.613286  1
  P  P33  1  0.686872  0.159765  0.886714  1
  P  P34  1  0.313128  0.840235  0.113286  1
  P  P35  1  0.886714  0.686872  0.159765  1
  N  N36  1  0.827241  0.240891  0.885035  1
  N  N37  1  0.114965  0.327241  0.259109  1
  N  N38  1  0.672759  0.759109  0.385035  1
  N  N39  1  0.001683  0.911535  0.717431  1
  N  N40  1  0.717431  0.001683  0.911535  1
  N  N41  1  0.259109  0.385035  0.827241  1
  N  N42  1  0.411535  0.782569  0.998317  1
  N  N43  1  0.998317  0.088465  0.282569  1
  N  N44  1  0.588465  0.217431  0.001683  1
  N  N45  1  0.614965  0.327241  0.240891  1
  N  N46  1  0.172759  0.740891  0.614965  1
  N  N47  1  0.088465  0.282569  0.998317  1
  N  N48  1  0.740891  0.614965  0.172759  1
  N  N49  1  0.259109  0.114965  0.327241  1
  N  N50  1  0.911535  0.782569  0.501683  1
  N  N51  1  0.327241  0.240891  0.614965  1
  N  N52  1  0.827241  0.259109  0.385035  1
  N  N53  1  0.001683  0.588465  0.217431  1
  N  N54  1  0.759109  0.385035  0.672759  1
  N  N55  1  0.740891  0.885035  0.672759  1
  N  N56  1  0.998317  0.411535  0.782569  1
  N  N57  1  0.282569  0.998317  0.088465  1
  N  N58  1  0.172759  0.759109  0.114965  1
  N  N59  1  0.498317  0.088465  0.217431  1
  N  N60  1  0.240891  0.614965  0.327241  1
  N  N61  1  0.717431  0.498317  0.411535  1
  N  N62  1  0.588465  0.282569  0.501683  1
  N  N63  1  0.282569  0.501683  0.588465  1
  N  N64  1  0.911535  0.717431  0.001683  1
  N  N65  1  0.885035  0.672759  0.740891  1
  N  N66  1  0.759109  0.114965  0.172759  1
  N  N67  1  0.217431  0.498317  0.088465  1
  N  N68  1  0.217431  0.001683  0.588465  1
  N  N69  1  0.672759  0.740891  0.885035  1
  N  N70  1  0.782569  0.998317  0.411535  1
  N  N71  1  0.501683  0.588465  0.282569  1
  N  N72  1  0.614965  0.172759  0.740891  1
  N  N73  1  0.327241  0.259109  0.114965  1
  N  N74  1  0.782569  0.501683  0.911535  1
  N  N75  1  0.498317  0.411535  0.717431  1
  N  N76  1  0.385035  0.827241  0.259109  1
  N  N77  1  0.885035  0.827241  0.240891  1
  N  N78  1  0.088465  0.217431  0.498317  1
  N  N79  1  0.114965  0.172759  0.759109  1
  N  N80  1  0.385035  0.672759  0.759109  1
  N  N81  1  0.240891  0.885035  0.827241  1
  N  N82  1  0.501683  0.911535  0.782569  1
  N  N83  1  0.411535  0.717431  0.498317  1
