# generated using pymatgen
data_Lu6U2Re3B24Mo
_symmetry_space_group_name_H-M   'P 1'
_cell_length_a   3.64959600
_cell_length_b   9.07112726
_cell_length_c   11.41999111
_cell_angle_alpha   90.32876959
_cell_angle_beta   90.00000000
_cell_angle_gamma   90.00000000
_symmetry_Int_Tables_number   1
_chemical_formula_structural   Lu6U2Re3B24Mo
_chemical_formula_sum   'Lu6 U2 Re3 B24 Mo1'
_cell_volume   378.06342790
_cell_formula_units_Z   1
loop_
 _symmetry_equiv_pos_site_id
 _symmetry_equiv_pos_as_xyz
  1  'x, y, z'
loop_
 _atom_site_type_symbol
 _atom_site_label
 _atom_site_symmetry_multiplicity
 _atom_site_fract_x
 _atom_site_fract_y
 _atom_site_fract_z
 _atom_site_occupancy
  Lu  Lu0  1  0.000000  0.822702  0.086178  1
  Lu  Lu1  1  0.000000  0.177111  0.914669  1
  Lu  Lu2  1  0.000000  0.945143  0.372225  1
  Lu  Lu3  1  0.000000  0.055084  0.627696  1
  Lu  Lu4  1  0.000000  0.444295  0.126321  1
  Lu  Lu5  1  0.000000  0.556080  0.873223  1
  U  U6  1  0.000000  0.322241  0.413138  1
  U  U7  1  0.000000  0.678411  0.585522  1
  Re  Re8  1  0.000000  0.363579  0.675917  1
  Re  Re9  1  0.000000  0.141497  0.181710  1
  Re  Re10  1  0.000000  0.858909  0.818103  1
  B  B11  1  0.500000  0.552129  0.435102  1
  B  B12  1  0.500000  0.446615  0.566200  1
  B  B13  1  0.500000  0.053326  0.066597  1
  B  B14  1  0.500000  0.946689  0.933566  1
  B  B15  1  0.500000  0.750535  0.421349  1
  B  B16  1  0.500000  0.250127  0.579674  1
  B  B17  1  0.500000  0.249564  0.079650  1
  B  B18  1  0.500000  0.750555  0.920353  1
  B  B19  1  0.500000  0.794281  0.263915  1
  B  B20  1  0.500000  0.206811  0.735334  1
  B  B21  1  0.500000  0.293328  0.234871  1
  B  B22  1  0.500000  0.706360  0.765093  1
  B  B23  1  0.500000  0.631267  0.183509  1
  B  B24  1  0.500000  0.368720  0.815688  1
  B  B25  1  0.500000  0.132115  0.315294  1
  B  B26  1  0.500000  0.867946  0.684652  1
  B  B27  1  0.500000  0.981327  0.211871  1
  B  B28  1  0.500000  0.018906  0.788146  1
  B  B29  1  0.500000  0.479799  0.286893  1
  B  B30  1  0.500000  0.518298  0.713229  1
  B  B31  1  0.500000  0.602475  0.028192  1
  B  B32  1  0.500000  0.397342  0.971083  1
  B  B33  1  0.500000  0.107328  0.470443  1
  B  B34  1  0.500000  0.893259  0.530131  1
  Mo  Mo35  1  0.000000  0.635848  0.324463  1
