# generated using pymatgen
data_Dy3Ho5(ReC2)4
_symmetry_space_group_name_H-M   'P 1'
_cell_length_a   5.10198900
_cell_length_b   6.56970051
_cell_length_c   9.84486976
_cell_angle_alpha   89.95487754
_cell_angle_beta   90.00000000
_cell_angle_gamma   90.00000000
_symmetry_Int_Tables_number   1
_chemical_formula_structural   Dy3Ho5(ReC2)4
_chemical_formula_sum   'Dy3 Ho5 Re4 C8'
_cell_volume   329.98555598
_cell_formula_units_Z   1
loop_
 _symmetry_equiv_pos_site_id
 _symmetry_equiv_pos_as_xyz
  1  'x, y, z'
loop_
 _atom_site_type_symbol
 _atom_site_label
 _atom_site_symmetry_multiplicity
 _atom_site_fract_x
 _atom_site_fract_y
 _atom_site_fract_z
 _atom_site_occupancy
  Dy  Dy0  1  0.250000  0.467166  0.783924  1
  Dy  Dy1  1  0.750000  0.032912  0.283900  1
  Dy  Dy2  1  0.250000  0.967155  0.716005  1
  Ho  Ho3  1  0.750000  0.533005  0.216247  1
  Ho  Ho4  1  0.250000  0.821062  0.056957  1
  Ho  Ho5  1  0.750000  0.678862  0.556792  1
  Ho  Ho6  1  0.250000  0.321216  0.443044  1
  Ho  Ho7  1  0.750000  0.178803  0.943207  1
  Re  Re8  1  0.250000  0.280107  0.133138  1
  Re  Re9  1  0.750000  0.220201  0.633049  1
  Re  Re10  1  0.250000  0.779839  0.366809  1
  Re  Re11  1  0.750000  0.719975  0.866952  1
  C  C12  1  0.250000  0.175670  0.950101  1
  C  C13  1  0.750000  0.823624  0.050271  1
  C  C14  1  0.250000  0.675571  0.549955  1
  C  C15  1  0.750000  0.324698  0.449797  1
  C  C16  1  0.250000  0.046980  0.258892  1
  C  C17  1  0.750000  0.453100  0.758891  1
  C  C18  1  0.250000  0.546935  0.240966  1
  C  C19  1  0.750000  0.953118  0.741101  1
