# generated using pymatgen
data_Ho16Sc4(IrPt3)3
_symmetry_space_group_name_H-M   'P 1'
_cell_length_a   10.90426000
_cell_length_b   10.90426000
_cell_length_c   6.22815400
_cell_angle_alpha   90.00000000
_cell_angle_beta   90.00000000
_cell_angle_gamma   90.00000000
_symmetry_Int_Tables_number   1
_chemical_formula_structural   Ho16Sc4(IrPt3)3
_chemical_formula_sum   'Ho16 Sc4 Ir3 Pt9'
_cell_volume   740.54548597
_cell_formula_units_Z   1
loop_
 _symmetry_equiv_pos_site_id
 _symmetry_equiv_pos_as_xyz
  1  'x, y, z'
loop_
 _atom_site_type_symbol
 _atom_site_label
 _atom_site_symmetry_multiplicity
 _atom_site_fract_x
 _atom_site_fract_y
 _atom_site_fract_z
 _atom_site_occupancy
  Ho  Ho0  1  0.289658  0.086572  0.379367  1
  Ho  Ho1  1  0.289256  0.913215  0.873577  1
  Ho  Ho2  1  0.710744  0.086785  0.873577  1
  Ho  Ho3  1  0.710342  0.913428  0.379367  1
  Ho  Ho4  1  0.586785  0.789256  0.873577  1
  Ho  Ho5  1  0.586572  0.210342  0.379367  1
  Ho  Ho6  1  0.413428  0.789658  0.379367  1
  Ho  Ho7  1  0.413215  0.210744  0.873577  1
  Ho  Ho8  1  0.208046  0.414388  0.623406  1
  Ho  Ho9  1  0.208210  0.585859  0.123918  1
  Ho  Ho10  1  0.791790  0.414141  0.123918  1
  Ho  Ho11  1  0.791954  0.585612  0.623406  1
  Ho  Ho12  1  0.914141  0.708210  0.123918  1
  Ho  Ho13  1  0.914388  0.291954  0.623406  1
  Ho  Ho14  1  0.085612  0.708046  0.623406  1
  Ho  Ho15  1  0.085859  0.291790  0.123918  1
  Sc  Sc16  1  0.000000  0.000000  0.500515  1
  Sc  Sc17  1  0.000000  0.000000  0.000535  1
  Sc  Sc18  1  0.500000  0.500000  0.000535  1
  Sc  Sc19  1  0.500000  0.500000  0.500515  1
  Ir  Ir20  1  0.500000  0.000000  0.619429  1
  Ir  Ir21  1  0.000000  0.500000  0.878573  1
  Ir  Ir22  1  0.000000  0.500000  0.378483  1
  Pt  Pt23  1  0.851275  0.147504  0.249918  1
  Pt  Pt24  1  0.851913  0.851997  0.750349  1
  Pt  Pt25  1  0.148087  0.148003  0.750349  1
  Pt  Pt26  1  0.148725  0.852496  0.249918  1
  Pt  Pt27  1  0.648003  0.351913  0.750349  1
  Pt  Pt28  1  0.647504  0.648725  0.249918  1
  Pt  Pt29  1  0.352496  0.351275  0.249918  1
  Pt  Pt30  1  0.351997  0.648087  0.750349  1
  Pt  Pt31  1  0.500000  0.000000  0.119273  1
