# generated using pymatgen
data_Cs4Rb2AlFeSe6
_symmetry_space_group_name_H-M   'P 1'
_cell_length_a   11.02394430
_cell_length_b   11.02394434
_cell_length_c   13.91324500
_cell_angle_alpha   90.00000000
_cell_angle_beta   90.00000000
_cell_angle_gamma   140.21482724
_symmetry_Int_Tables_number   1
_chemical_formula_structural   Cs4Rb2AlFeSe6
_chemical_formula_sum   'Cs8 Rb4 Al2 Fe2 Se12'
_cell_volume   1081.98673002
_cell_formula_units_Z   2
loop_
 _symmetry_equiv_pos_site_id
 _symmetry_equiv_pos_as_xyz
  1  'x, y, z'
loop_
 _atom_site_type_symbol
 _atom_site_label
 _atom_site_symmetry_multiplicity
 _atom_site_fract_x
 _atom_site_fract_y
 _atom_site_fract_z
 _atom_site_occupancy
  Cs  Cs0  1  0.168726  0.522931  0.127061  1
  Cs  Cs1  1  0.477069  0.831274  0.872939  1
  Cs  Cs2  1  0.977069  0.331274  0.627061  1
  Cs  Cs3  1  0.668726  0.022931  0.372939  1
  Cs  Cs4  1  0.834582  0.479426  0.873824  1
  Cs  Cs5  1  0.520574  0.165418  0.126176  1
  Cs  Cs6  1  0.020574  0.665418  0.373824  1
  Cs  Cs7  1  0.334582  0.979426  0.626176  1
  Rb  Rb8  1  0.856184  0.856191  0.671774  1
  Rb  Rb9  1  0.143809  0.143816  0.328226  1
  Rb  Rb10  1  0.643809  0.643816  0.171774  1
  Rb  Rb11  1  0.356184  0.356191  0.828226  1
  Al  Al12  1  0.921812  0.078188  0.000000  1
  Al  Al13  1  0.421812  0.578188  0.500000  1
  Fe  Fe14  1  0.077757  0.922243  0.000000  1
  Fe  Fe15  1  0.577757  0.422243  0.500000  1
  Se  Se16  1  0.292921  0.294058  0.574818  1
  Se  Se17  1  0.705942  0.707079  0.425182  1
  Se  Se18  1  0.205942  0.207079  0.074818  1
  Se  Se19  1  0.792921  0.794058  0.925182  1
  Se  Se20  1  0.707025  0.993209  0.117137  1
  Se  Se21  1  0.006791  0.292975  0.882863  1
  Se  Se22  1  0.506791  0.792975  0.617137  1
  Se  Se23  1  0.207025  0.493209  0.382863  1
  Se  Se24  1  0.292008  0.005198  0.883885  1
  Se  Se25  1  0.994802  0.707992  0.116115  1
  Se  Se26  1  0.494802  0.207992  0.383885  1
  Se  Se27  1  0.792008  0.505198  0.616115  1
