# generated using pymatgen
data_Y6Cd23Sb
_symmetry_space_group_name_H-M   'P 1'
_cell_length_a   10.00419027
_cell_length_b   10.00419119
_cell_length_c   10.00419100
_cell_angle_alpha   60.00000394
_cell_angle_beta   60.00000090
_cell_angle_gamma   59.99999792
_symmetry_Int_Tables_number   1
_chemical_formula_structural   Y6Cd23Sb
_chemical_formula_sum   'Y6 Cd23 Sb1'
_cell_volume   707.99617620
_cell_formula_units_Z   1
loop_
 _symmetry_equiv_pos_site_id
 _symmetry_equiv_pos_as_xyz
  1  'x, y, z'
loop_
 _atom_site_type_symbol
 _atom_site_label
 _atom_site_symmetry_multiplicity
 _atom_site_fract_x
 _atom_site_fract_y
 _atom_site_fract_z
 _atom_site_occupancy
  Y  Y0  1  0.784236  0.784236  0.215764  1
  Y  Y1  1  0.215764  0.784236  0.215764  1
  Y  Y2  1  0.784236  0.215764  0.215764  1
  Y  Y3  1  0.215764  0.215764  0.784236  1
  Y  Y4  1  0.784236  0.215764  0.784236  1
  Y  Y5  1  0.215764  0.784236  0.784236  1
  Cd  Cd6  1  0.839228  0.839228  0.482317  1
  Cd  Cd7  1  0.839228  0.482317  0.839228  1
  Cd  Cd8  1  0.482317  0.839228  0.839228  1
  Cd  Cd9  1  0.839228  0.839228  0.839228  1
  Cd  Cd10  1  0.160772  0.160772  0.517683  1
  Cd  Cd11  1  0.160772  0.517683  0.160772  1
  Cd  Cd12  1  0.517683  0.160772  0.160772  1
  Cd  Cd13  1  0.160772  0.160772  0.160772  1
  Cd  Cd14  1  0.622944  0.622944  0.131167  1
  Cd  Cd15  1  0.622944  0.131167  0.622944  1
  Cd  Cd16  1  0.131167  0.622944  0.622944  1
  Cd  Cd17  1  0.622944  0.622944  0.622944  1
  Cd  Cd18  1  0.377056  0.377056  0.868833  1
  Cd  Cd19  1  0.377056  0.868833  0.377056  1
  Cd  Cd20  1  0.868833  0.377056  0.377056  1
  Cd  Cd21  1  0.377056  0.377056  0.377056  1
  Cd  Cd22  1  0.000000  0.000000  0.500000  1
  Cd  Cd23  1  0.500000  0.000000  0.500000  1
  Cd  Cd24  1  0.000000  0.500000  0.500000  1
  Cd  Cd25  1  0.500000  0.500000  0.000000  1
  Cd  Cd26  1  0.000000  0.500000  0.000000  1
  Cd  Cd27  1  0.500000  0.000000  0.000000  1
  Cd  Cd28  1  0.500000  0.500000  0.500000  1
  Sb  Sb29  1  0.000000  0.000000  0.000000  1
