# generated using pymatgen
data_Pr4Nd4Re3TcC8
_symmetry_space_group_name_H-M   'P 1'
_cell_length_a   5.37434000
_cell_length_b   6.74887345
_cell_length_c   10.23813040
_cell_angle_alpha   89.92122689
_cell_angle_beta   90.00000000
_cell_angle_gamma   90.00000000
_symmetry_Int_Tables_number   1
_chemical_formula_structural   Pr4Nd4Re3TcC8
_chemical_formula_sum   'Pr4 Nd4 Re3 Tc1 C8'
_cell_volume   371.34422039
_cell_formula_units_Z   1
loop_
 _symmetry_equiv_pos_site_id
 _symmetry_equiv_pos_as_xyz
  1  'x, y, z'
loop_
 _atom_site_type_symbol
 _atom_site_label
 _atom_site_symmetry_multiplicity
 _atom_site_fract_x
 _atom_site_fract_y
 _atom_site_fract_z
 _atom_site_occupancy
  Pr  Pr0  1  0.250000  0.472055  0.788034  1
  Pr  Pr1  1  0.750000  0.027124  0.287531  1
  Pr  Pr2  1  0.250000  0.972435  0.711609  1
  Pr  Pr3  1  0.750000  0.526417  0.211142  1
  Nd  Nd4  1  0.250000  0.816008  0.051151  1
  Nd  Nd5  1  0.750000  0.685413  0.551033  1
  Nd  Nd6  1  0.250000  0.314072  0.448139  1
  Nd  Nd7  1  0.750000  0.184872  0.948230  1
  Re  Re8  1  0.750000  0.229968  0.643087  1
  Re  Re9  1  0.250000  0.770276  0.356958  1
  Re  Re10  1  0.750000  0.730197  0.856456  1
  Tc  Tc11  1  0.250000  0.269938  0.143444  1
  C  C12  1  0.250000  0.685444  0.536166  1
  C  C13  1  0.750000  0.814099  0.035762  1
  C  C14  1  0.250000  0.185688  0.965651  1
  C  C15  1  0.750000  0.314551  0.464009  1
  C  C16  1  0.250000  0.033848  0.259136  1
  C  C17  1  0.750000  0.466030  0.758300  1
  C  C18  1  0.250000  0.536078  0.242817  1
  C  C19  1  0.750000  0.965487  0.741346  1
