# generated using pymatgen
data_Ce3Cd3AgIr2
_symmetry_space_group_name_H-M   'P 1'
_cell_length_a   7.80896300
_cell_length_b   7.80896296
_cell_length_c   3.88630800
_cell_angle_alpha   90.00000000
_cell_angle_beta   90.00000000
_cell_angle_gamma   120.00000441
_symmetry_Int_Tables_number   1
_chemical_formula_structural   Ce3Cd3AgIr2
_chemical_formula_sum   'Ce3 Cd3 Ag1 Ir2'
_cell_volume   205.23647974
_cell_formula_units_Z   1
loop_
 _symmetry_equiv_pos_site_id
 _symmetry_equiv_pos_as_xyz
  1  'x, y, z'
loop_
 _atom_site_type_symbol
 _atom_site_label
 _atom_site_symmetry_multiplicity
 _atom_site_fract_x
 _atom_site_fract_y
 _atom_site_fract_z
 _atom_site_occupancy
  Ce  Ce0  1  0.423124  0.000000  0.500000  1
  Ce  Ce1  1  0.000000  0.423124  0.500000  1
  Ce  Ce2  1  0.576876  0.576876  0.500000  1
  Cd  Cd3  1  0.743571  0.000000  0.000000  1
  Cd  Cd4  1  0.000000  0.743571  0.000000  1
  Cd  Cd5  1  0.256429  0.256429  0.000000  1
  Ag  Ag6  1  0.000000  0.000000  0.500000  1
  Ir  Ir7  1  0.333333  0.666667  0.000000  1
  Ir  Ir8  1  0.666667  0.333333  0.000000  1
