# generated using pymatgen
data_Tb3Tc(Ni4As3)2
_symmetry_space_group_name_H-M   'P 1'
_cell_length_a   3.90604000
_cell_length_b   10.92989200
_cell_length_c   12.77244300
_cell_angle_alpha   90.00000000
_cell_angle_beta   90.00000000
_cell_angle_gamma   90.00000000
_symmetry_Int_Tables_number   1
_chemical_formula_structural   Tb3Tc(Ni4As3)2
_chemical_formula_sum   'Tb6 Tc2 Ni16 As12'
_cell_volume   545.28874060
_cell_formula_units_Z   2
loop_
 _symmetry_equiv_pos_site_id
 _symmetry_equiv_pos_as_xyz
  1  'x, y, z'
loop_
 _atom_site_type_symbol
 _atom_site_label
 _atom_site_symmetry_multiplicity
 _atom_site_fract_x
 _atom_site_fract_y
 _atom_site_fract_z
 _atom_site_occupancy
  Tb  Tb0  1  0.000000  0.500000  0.524168  1
  Tb  Tb1  1  0.500000  0.000000  0.475832  1
  Tb  Tb2  1  0.500000  0.816695  0.207762  1
  Tb  Tb3  1  0.500000  0.183305  0.207762  1
  Tb  Tb4  1  0.000000  0.683305  0.792238  1
  Tb  Tb5  1  0.000000  0.316695  0.792238  1
  Tc  Tc6  1  0.500000  0.500000  0.152972  1
  Tc  Tc7  1  0.000000  0.000000  0.847028  1
  Ni  Ni8  1  0.500000  0.500000  0.699148  1
  Ni  Ni9  1  0.000000  0.000000  0.300852  1
  Ni  Ni10  1  0.000000  0.500000  0.981785  1
  Ni  Ni11  1  0.500000  0.000000  0.018215  1
  Ni  Ni12  1  0.500000  0.332273  0.991467  1
  Ni  Ni13  1  0.500000  0.667727  0.991467  1
  Ni  Ni14  1  0.000000  0.167727  0.008533  1
  Ni  Ni15  1  0.000000  0.832273  0.008533  1
  Ni  Ni16  1  0.500000  0.303799  0.426620  1
  Ni  Ni17  1  0.500000  0.696201  0.426620  1
  Ni  Ni18  1  0.000000  0.196201  0.573380  1
  Ni  Ni19  1  0.000000  0.803799  0.573380  1
  Ni  Ni20  1  0.500000  0.880844  0.708489  1
  Ni  Ni21  1  0.500000  0.119156  0.708489  1
  Ni  Ni22  1  0.000000  0.619156  0.291511  1
  Ni  Ni23  1  0.000000  0.380844  0.291511  1
  As  As24  1  0.500000  0.500000  0.877265  1
  As  As25  1  0.000000  0.000000  0.122735  1
  As  As26  1  0.500000  0.500000  0.347802  1
  As  As27  1  0.000000  0.000000  0.652198  1
  As  As28  1  0.500000  0.313563  0.613670  1
  As  As29  1  0.500000  0.686437  0.613670  1
  As  As30  1  0.000000  0.186437  0.386330  1
  As  As31  1  0.000000  0.813563  0.386330  1
  As  As32  1  0.500000  0.847265  0.890992  1
  As  As33  1  0.500000  0.152735  0.890992  1
  As  As34  1  0.000000  0.652735  0.109008  1
  As  As35  1  0.000000  0.347265  0.109008  1
