# generated using pymatgen
data_Cs3Ta(SO)2
_symmetry_space_group_name_H-M   'P 1'
_cell_length_a   8.08432600
_cell_length_b   11.88540988
_cell_length_c   13.26656927
_cell_angle_alpha   57.33645830
_cell_angle_beta   90.00000000
_cell_angle_gamma   90.00000000
_symmetry_Int_Tables_number   1
_chemical_formula_structural   Cs3Ta(SO)2
_chemical_formula_sum   'Cs12 Ta4 S8 O8'
_cell_volume   1073.13308474
_cell_formula_units_Z   4
loop_
 _symmetry_equiv_pos_site_id
 _symmetry_equiv_pos_as_xyz
  1  'x, y, z'
loop_
 _atom_site_type_symbol
 _atom_site_label
 _atom_site_symmetry_multiplicity
 _atom_site_fract_x
 _atom_site_fract_y
 _atom_site_fract_z
 _atom_site_occupancy
  Cs  Cs0  1  0.743339  0.058827  0.884464  1
  Cs  Cs1  1  0.857886  0.514838  0.158019  1
  Cs  Cs2  1  0.256661  0.941173  0.115536  1
  Cs  Cs3  1  0.756661  0.058827  0.384464  1
  Cs  Cs4  1  0.142114  0.485162  0.841981  1
  Cs  Cs5  1  0.726218  0.762568  0.794350  1
  Cs  Cs6  1  0.357886  0.485162  0.341981  1
  Cs  Cs7  1  0.226218  0.237432  0.705650  1
  Cs  Cs8  1  0.273782  0.237432  0.205650  1
  Cs  Cs9  1  0.773782  0.762568  0.294350  1
  Cs  Cs10  1  0.243339  0.941173  0.615536  1
  Cs  Cs11  1  0.642114  0.514838  0.658019  1
  Ta  Ta12  1  0.702321  0.302661  0.026593  1
  Ta  Ta13  1  0.797679  0.302661  0.526593  1
  Ta  Ta14  1  0.297679  0.697339  0.973407  1
  Ta  Ta15  1  0.202321  0.697339  0.473407  1
  S  S16  1  0.475408  0.251635  0.946984  1
  S  S17  1  0.583061  0.145824  0.586622  1
  S  S18  1  0.975408  0.748365  0.553016  1
  S  S19  1  0.524592  0.748365  0.053016  1
  S  S20  1  0.024592  0.251635  0.446984  1
  S  S21  1  0.083061  0.854176  0.913378  1
  S  S22  1  0.416939  0.854176  0.413378  1
  S  S23  1  0.916939  0.145824  0.086622  1
  O  O24  1  0.283714  0.530613  0.582244  1
  O  O25  1  0.634859  0.300517  0.159082  1
  O  O26  1  0.783714  0.469387  0.917756  1
  O  O27  1  0.216286  0.530613  0.082244  1
  O  O28  1  0.865141  0.300517  0.659082  1
  O  O29  1  0.716286  0.469387  0.417756  1
  O  O30  1  0.134859  0.699483  0.340918  1
  O  O31  1  0.365141  0.699483  0.840918  1
