# generated using pymatgen
data_Pr5Pt19
_symmetry_space_group_name_H-M   'P 1'
_cell_length_a   5.47556662
_cell_length_b   5.47556599
_cell_length_c   18.10822997
_cell_angle_alpha   81.30410779
_cell_angle_beta   81.30410992
_cell_angle_gamma   59.99999939
_symmetry_Int_Tables_number   1
_chemical_formula_structural   Pr5Pt19
_chemical_formula_sum   'Pr5 Pt19'
_cell_volume   462.96011810
_cell_formula_units_Z   1
loop_
 _symmetry_equiv_pos_site_id
 _symmetry_equiv_pos_as_xyz
  1  'x, y, z'
loop_
 _atom_site_type_symbol
 _atom_site_label
 _atom_site_symmetry_multiplicity
 _atom_site_fract_x
 _atom_site_fract_y
 _atom_site_fract_z
 _atom_site_occupancy
  Pr  Pr0  1  0.000000  0.000000  0.000000  1
  Pr  Pr1  1  0.922785  0.922785  0.231647  1
  Pr  Pr2  1  0.077215  0.077215  0.768353  1
  Pr  Pr3  1  0.847968  0.847968  0.456096  1
  Pr  Pr4  1  0.152032  0.152032  0.543904  1
  Pt  Pt5  1  0.500000  0.500000  0.500000  1
  Pt  Pt6  1  0.749826  0.749827  0.750521  1
  Pt  Pt7  1  0.250173  0.250173  0.249480  1
  Pt  Pt8  1  0.666740  0.666740  0.999781  1
  Pt  Pt9  1  0.333260  0.333260  0.000219  1
  Pt  Pt10  1  0.583889  0.583889  0.248334  1
  Pt  Pt11  1  0.416111  0.416111  0.751666  1
  Pt  Pt12  1  0.373717  0.373717  0.374833  1
  Pt  Pt13  1  0.877732  0.373717  0.374833  1
  Pt  Pt14  1  0.373717  0.877732  0.374833  1
  Pt  Pt15  1  0.626283  0.626283  0.625167  1
  Pt  Pt16  1  0.122268  0.626283  0.625167  1
  Pt  Pt17  1  0.626283  0.122268  0.625167  1
  Pt  Pt18  1  0.458753  0.458753  0.123404  1
  Pt  Pt19  1  0.959089  0.458753  0.123404  1
  Pt  Pt20  1  0.458753  0.959089  0.123404  1
  Pt  Pt21  1  0.541247  0.541247  0.876596  1
  Pt  Pt22  1  0.040911  0.541247  0.876596  1
  Pt  Pt23  1  0.541247  0.040911  0.876596  1
