# generated using pymatgen
data_Ce2CoSnAu
_symmetry_space_group_name_H-M   'P 1'
_cell_length_a   7.79718662
_cell_length_b   7.79718765
_cell_length_c   3.66894800
_cell_angle_alpha   90.00000000
_cell_angle_beta   90.00000000
_cell_angle_gamma   91.70272642
_symmetry_Int_Tables_number   1
_chemical_formula_structural   Ce2CoSnAu
_chemical_formula_sum   'Ce4 Co2 Sn2 Au2'
_cell_volume   222.95933764
_cell_formula_units_Z   2
loop_
 _symmetry_equiv_pos_site_id
 _symmetry_equiv_pos_as_xyz
  1  'x, y, z'
loop_
 _atom_site_type_symbol
 _atom_site_label
 _atom_site_symmetry_multiplicity
 _atom_site_fract_x
 _atom_site_fract_y
 _atom_site_fract_z
 _atom_site_occupancy
  Ce  Ce0  1  0.696277  0.196277  0.500000  1
  Ce  Ce1  1  0.303723  0.803723  0.500000  1
  Ce  Ce2  1  0.156909  0.343091  0.500000  1
  Ce  Ce3  1  0.843091  0.656909  0.500000  1
  Co  Co4  1  0.130074  0.630074  0.000000  1
  Co  Co5  1  0.869926  0.369926  0.000000  1
  Sn  Sn6  1  0.000000  0.000000  0.000000  1
  Sn  Sn7  1  0.500000  0.500000  0.000000  1
  Au  Au8  1  0.626940  0.873060  0.000000  1
  Au  Au9  1  0.373060  0.126940  0.000000  1
