# generated using pymatgen
data_LiHo5Er11In3Rh4
_symmetry_space_group_name_H-M   'P 1'
_cell_length_a   9.58299329
_cell_length_b   9.60164160
_cell_length_c   9.58158638
_cell_angle_alpha   60.05304014
_cell_angle_beta   59.85741115
_cell_angle_gamma   60.10325512
_symmetry_Int_Tables_number   1
_chemical_formula_structural   LiHo5Er11In3Rh4
_chemical_formula_sum   'Li1 Ho5 Er11 In3 Rh4'
_cell_volume   623.46147352
_cell_formula_units_Z   1
loop_
 _symmetry_equiv_pos_site_id
 _symmetry_equiv_pos_as_xyz
  1  'x, y, z'
loop_
 _atom_site_type_symbol
 _atom_site_label
 _atom_site_symmetry_multiplicity
 _atom_site_fract_x
 _atom_site_fract_y
 _atom_site_fract_z
 _atom_site_occupancy
  Li  Li0  1  0.428267  0.715599  0.428660  1
  Ho  Ho1  1  0.189658  0.192272  0.809518  1
  Ho  Ho2  1  0.437968  0.060830  0.062288  1
  Ho  Ho3  1  0.435256  0.063097  0.435351  1
  Ho  Ho4  1  0.063377  0.438483  0.063434  1
  Ho  Ho5  1  0.648280  0.053246  0.648186  1
  Er  Er6  1  0.188256  0.812340  0.812928  1
  Er  Er7  1  0.061364  0.061330  0.438038  1
  Er  Er8  1  0.809477  0.192111  0.189755  1
  Er  Er9  1  0.813626  0.812300  0.188176  1
  Er  Er10  1  0.651230  0.647954  0.046526  1
  Er  Er11  1  0.654201  0.651920  0.653690  1
  Er  Er12  1  0.064235  0.434754  0.436121  1
  Er  Er13  1  0.046434  0.648420  0.650921  1
  Er  Er14  1  0.809839  0.190968  0.809897  1
  Er  Er15  1  0.436617  0.434900  0.063921  1
  Er  Er16  1  0.186534  0.814459  0.186730  1
  In  In17  1  0.416516  0.422621  0.745917  1
  In  In18  1  0.745714  0.422423  0.416618  1
  In  In19  1  0.415711  0.421351  0.415326  1
  Rh  Rh20  1  0.857418  0.426679  0.857226  1
  Rh  Rh21  1  0.857830  0.861253  0.426137  1
  Rh  Rh22  1  0.426004  0.859999  0.858419  1
  Rh  Rh23  1  0.856188  0.860696  0.856215  1
