# generated using pymatgen
data_Hf10CuSn5BiAs
_symmetry_space_group_name_H-M   'P 1'
_cell_length_a   8.64949678
_cell_length_b   8.63308158
_cell_length_c   5.83904018
_cell_angle_alpha   89.94153477
_cell_angle_beta   90.11669536
_cell_angle_gamma   120.06292262
_symmetry_Int_Tables_number   1
_chemical_formula_structural   Hf10CuSn5BiAs
_chemical_formula_sum   'Hf10 Cu1 Sn5 Bi1 As1'
_cell_volume   377.35678899
_cell_formula_units_Z   1
loop_
 _symmetry_equiv_pos_site_id
 _symmetry_equiv_pos_as_xyz
  1  'x, y, z'
loop_
 _atom_site_type_symbol
 _atom_site_label
 _atom_site_symmetry_multiplicity
 _atom_site_fract_x
 _atom_site_fract_y
 _atom_site_fract_z
 _atom_site_occupancy
  Hf  Hf0  1  0.330290  0.662928  0.998154  1
  Hf  Hf1  1  0.667536  0.337453  0.501592  1
  Hf  Hf2  1  0.667363  0.337072  0.998154  1
  Hf  Hf3  1  0.330081  0.662547  0.501592  1
  Hf  Hf4  1  0.258850  0.000000  0.252442  1
  Hf  Hf5  1  0.263350  0.264838  0.746428  1
  Hf  Hf6  1  0.998511  0.735162  0.746428  1
  Hf  Hf7  1  0.007681  0.266721  0.253010  1
  Hf  Hf8  1  0.740961  0.733279  0.253010  1
  Hf  Hf9  1  0.736739  0.000000  0.748041  1
  Cu  Cu10  1  0.999014  0.000000  0.504390  1
  Sn  Sn11  1  0.608988  0.610611  0.748247  1
  Sn  Sn12  1  0.998377  0.389389  0.748247  1
  Sn  Sn13  1  0.001187  0.608487  0.251231  1
  Sn  Sn14  1  0.392699  0.391513  0.251231  1
  Sn  Sn15  1  0.388791  0.000000  0.748148  1
  Bi  Bi16  1  0.610371  0.000000  0.252078  1
  As  As17  1  0.999212  0.000000  0.997578  1
