# generated using pymatgen
data_Ho7Tm9Cd4(RuPt)2
_symmetry_space_group_name_H-M   'P 1'
_cell_length_a   9.55388433
_cell_length_b   9.55388457
_cell_length_c   9.58529000
_cell_angle_alpha   59.89120788
_cell_angle_beta   59.89120705
_cell_angle_gamma   59.78643952
_symmetry_Int_Tables_number   1
_chemical_formula_structural   Ho7Tm9Cd4(RuPt)2
_chemical_formula_sum   'Ho7 Tm9 Cd4 Ru2 Pt2'
_cell_volume   616.63840580
_cell_formula_units_Z   1
loop_
 _symmetry_equiv_pos_site_id
 _symmetry_equiv_pos_as_xyz
  1  'x, y, z'
loop_
 _atom_site_type_symbol
 _atom_site_label
 _atom_site_symmetry_multiplicity
 _atom_site_fract_x
 _atom_site_fract_y
 _atom_site_fract_z
 _atom_site_occupancy
  Ho  Ho0  1  0.059393  0.059393  0.440607  1
  Ho  Ho1  1  0.187342  0.809388  0.816397  1
  Ho  Ho2  1  0.809388  0.187342  0.186875  1
  Ho  Ho3  1  0.809388  0.187342  0.816397  1
  Ho  Ho4  1  0.187342  0.809388  0.186875  1
  Ho  Ho5  1  0.813827  0.813827  0.186173  1
  Ho  Ho6  1  0.188605  0.188605  0.811395  1
  Tm  Tm7  1  0.598820  0.598820  0.602834  1
  Tm  Tm8  1  0.598820  0.598820  0.199527  1
  Tm  Tm9  1  0.596540  0.204047  0.599707  1
  Tm  Tm10  1  0.204047  0.596540  0.599707  1
  Tm  Tm11  1  0.065826  0.438219  0.438775  1
  Tm  Tm12  1  0.438219  0.065826  0.057181  1
  Tm  Tm13  1  0.438219  0.065826  0.438775  1
  Tm  Tm14  1  0.065826  0.438219  0.057181  1
  Tm  Tm15  1  0.437271  0.437271  0.062729  1
  Cd  Cd16  1  0.829963  0.829963  0.831420  1
  Cd  Cd17  1  0.829963  0.829963  0.508656  1
  Cd  Cd18  1  0.831027  0.505598  0.831687  1
  Cd  Cd19  1  0.505598  0.831027  0.831687  1
  Ru  Ru20  1  0.393405  0.393405  0.389713  1
  Ru  Ru21  1  0.393405  0.393405  0.823476  1
  Pt  Pt22  1  0.394847  0.822927  0.391113  1
  Pt  Pt23  1  0.822927  0.394847  0.391113  1
