# generated using pymatgen
data_Pr2Bi2Te3WO16
_symmetry_space_group_name_H-M   'P 1'
_cell_length_a   7.13283755
_cell_length_b   7.18595664
_cell_length_c   10.36788955
_cell_angle_alpha   66.52811747
_cell_angle_beta   66.85836774
_cell_angle_gamma   47.28298248
_symmetry_Int_Tables_number   1
_chemical_formula_structural   Pr2Bi2Te3WO16
_chemical_formula_sum   'Pr2 Bi2 Te3 W1 O16'
_cell_volume   352.13735352
_cell_formula_units_Z   1
loop_
 _symmetry_equiv_pos_site_id
 _symmetry_equiv_pos_as_xyz
  1  'x, y, z'
loop_
 _atom_site_type_symbol
 _atom_site_label
 _atom_site_symmetry_multiplicity
 _atom_site_fract_x
 _atom_site_fract_y
 _atom_site_fract_z
 _atom_site_occupancy
  Pr  Pr0  1  0.063173  0.937273  0.499657  1
  Pr  Pr1  1  0.946057  0.052977  0.999125  1
  Bi  Bi2  1  0.666435  0.789100  0.902322  1
  Bi  Bi3  1  0.221315  0.338915  0.093021  1
  Te  Te4  1  0.501668  0.493621  0.249495  1
  Te  Te5  1  0.367875  0.200357  0.621583  1
  Te  Te6  1  0.816457  0.624318  0.374187  1
  W  W7  1  0.512486  0.499778  0.749491  1
  O  O8  1  0.789067  0.343508  0.596624  1
  O  O9  1  0.646460  0.208437  0.409235  1
  O  O10  1  0.194378  0.651278  0.902239  1
  O  O11  1  0.349885  0.801925  0.097512  1
  O  O12  1  0.707796  0.492294  0.835623  1
  O  O13  1  0.513318  0.290057  0.161970  1
  O  O14  1  0.298911  0.487233  0.661517  1
  O  O15  1  0.512477  0.695803  0.339004  1
  O  O16  1  0.905830  0.721320  0.165513  1
  O  O17  1  0.281624  0.090894  0.834673  1
  O  O18  1  0.083355  0.278952  0.344133  1
  O  O19  1  0.716985  0.923936  0.655235  1
  O  O20  1  0.158623  0.643352  0.367862  1
  O  O21  1  0.358214  0.831750  0.632566  1
  O  O22  1  0.841220  0.362937  0.126480  1
  O  O23  1  0.626190  0.160189  0.880933  1
