# generated using pymatgen
data_Sc8Ti11Si16Au
_symmetry_space_group_name_H-M   'P 1'
_cell_length_a   6.89305525
_cell_length_b   6.89305515
_cell_length_c   12.54501326
_cell_angle_alpha   90.17119230
_cell_angle_beta   90.17119441
_cell_angle_gamma   90.19374124
_symmetry_Int_Tables_number   1
_chemical_formula_structural   Sc8Ti11Si16Au
_chemical_formula_sum   'Sc8 Ti11 Si16 Au1'
_cell_volume   596.05764721
_cell_formula_units_Z   1
loop_
 _symmetry_equiv_pos_site_id
 _symmetry_equiv_pos_as_xyz
  1  'x, y, z'
loop_
 _atom_site_type_symbol
 _atom_site_label
 _atom_site_symmetry_multiplicity
 _atom_site_fract_x
 _atom_site_fract_y
 _atom_site_fract_z
 _atom_site_occupancy
  Sc  Sc0  1  0.999498  0.658947  0.033102  1
  Sc  Sc1  1  0.000874  0.343776  0.534610  1
  Sc  Sc2  1  0.341053  0.000502  0.466898  1
  Sc  Sc3  1  0.157850  0.500200  0.780844  1
  Sc  Sc4  1  0.841936  0.498291  0.283239  1
  Sc  Sc5  1  0.501709  0.158064  0.216761  1
  Sc  Sc6  1  0.499800  0.842150  0.719156  1
  Sc  Sc7  1  0.656224  0.999126  0.965390  1
  Ti  Ti8  1  0.673423  0.672435  0.500835  1
  Ti  Ti9  1  0.172780  0.827220  0.250000  1
  Ti  Ti10  1  0.327565  0.326577  0.999165  1
  Ti  Ti11  1  0.994954  0.849296  0.627573  1
  Ti  Ti12  1  0.005137  0.146583  0.124607  1
  Ti  Ti13  1  0.853417  0.994863  0.375393  1
  Ti  Ti14  1  0.352586  0.506379  0.376139  1
  Ti  Ti15  1  0.645960  0.496290  0.875472  1
  Ti  Ti16  1  0.503710  0.354040  0.624528  1
  Ti  Ti17  1  0.493621  0.647414  0.123861  1
  Ti  Ti18  1  0.150704  0.005046  0.872427  1
  Si  Si19  1  0.045936  0.702463  0.435190  1
  Si  Si20  1  0.638263  0.295552  0.429949  1
  Si  Si21  1  0.361148  0.705098  0.928994  1
  Si  Si22  1  0.220114  0.128702  0.674204  1
  Si  Si23  1  0.294902  0.638852  0.571006  1
  Si  Si24  1  0.704448  0.361737  0.070051  1
  Si  Si25  1  0.792929  0.862804  0.178949  1
  Si  Si26  1  0.137196  0.207071  0.321051  1
  Si  Si27  1  0.954738  0.299246  0.938997  1
  Si  Si28  1  0.700754  0.045262  0.561003  1
  Si  Si29  1  0.202783  0.452577  0.185022  1
  Si  Si30  1  0.789314  0.558451  0.685410  1
  Si  Si31  1  0.441549  0.210686  0.814590  1
  Si  Si32  1  0.547423  0.797217  0.314978  1
  Si  Si33  1  0.297537  0.954064  0.064810  1
  Si  Si34  1  0.871298  0.779886  0.825796  1
  Au  Au35  1  0.826873  0.173127  0.750000  1
