# generated using pymatgen
data_K12Li8Ti2Sn2As11P
_symmetry_space_group_name_H-M   'P 1'
_cell_length_a   10.16361700
_cell_length_b   10.16361615
_cell_length_c   15.33696300
_cell_angle_alpha   90.00000000
_cell_angle_beta   90.00000000
_cell_angle_gamma   143.02484185
_symmetry_Int_Tables_number   1
_chemical_formula_structural   K12Li8Ti2Sn2As11P
_chemical_formula_sum   'K12 Li8 Ti2 Sn2 As11 P1'
_cell_volume   952.90355654
_cell_formula_units_Z   1
loop_
 _symmetry_equiv_pos_site_id
 _symmetry_equiv_pos_as_xyz
  1  'x, y, z'
loop_
 _atom_site_type_symbol
 _atom_site_label
 _atom_site_symmetry_multiplicity
 _atom_site_fract_x
 _atom_site_fract_y
 _atom_site_fract_z
 _atom_site_occupancy
  K  K0  1  0.105593  0.447368  0.668946  1
  K  K1  1  0.721585  0.719893  0.678070  1
  K  K2  1  0.220168  0.221918  0.821724  1
  K  K3  1  0.778240  0.780095  0.179641  1
  K  K4  1  0.948051  0.605936  0.830189  1
  K  K5  1  0.552535  0.892997  0.330766  1
  K  K6  1  0.394165  0.051845  0.169739  1
  K  K7  1  0.062021  0.401740  0.173273  1
  K  K8  1  0.901196  0.562057  0.327078  1
  K  K9  1  0.437237  0.097986  0.672472  1
  K  K10  1  0.598328  0.937927  0.826699  1
  K  K11  1  0.281706  0.280335  0.322589  1
  Li  Li12  1  0.915886  0.084026  0.000034  1
  Li  Li13  1  0.584625  0.418116  0.499456  1
  Li  Li14  1  0.082660  0.917278  0.000051  1
  Li  Li15  1  0.420668  0.584231  0.499034  1
  Li  Li16  1  0.751002  0.249037  0.000013  1
  Li  Li17  1  0.749249  0.250756  0.499990  1
  Li  Li18  1  0.247700  0.752353  0.000011  1
  Li  Li19  1  0.252153  0.747546  0.499925  1
  Ti  Ti20  1  0.913124  0.081361  0.498918  1
  Ti  Ti21  1  0.585275  0.414735  0.000072  1
  Sn  Sn22  1  0.081981  0.912036  0.498892  1
  Sn  Sn23  1  0.413711  0.586299  0.000029  1
  As  As24  1  0.884155  0.564721  0.091100  1
  As  As25  1  0.435528  0.115898  0.909017  1
  As  As26  1  0.615443  0.934312  0.590442  1
  As  As27  1  0.922219  0.595605  0.598547  1
  As  As28  1  0.095537  0.422989  0.900688  1
  As  As29  1  0.577187  0.904343  0.099398  1
  As  As30  1  0.402124  0.076235  0.400345  1
  As  As31  1  0.223114  0.233158  0.592434  1
  As  As32  1  0.732995  0.722890  0.906997  1
  As  As33  1  0.277183  0.267092  0.093197  1
  As  As34  1  0.063853  0.382605  0.408363  1
  P  P35  1  0.771799  0.782283  0.411866  1
