# generated using pymatgen
data_KPmSe2
_symmetry_space_group_name_H-M   'P 1'
_cell_length_a   8.43595334
_cell_length_b   8.55113600
_cell_length_c   7.54948022
_cell_angle_alpha   90.00000000
_cell_angle_beta   106.86578064
_cell_angle_gamma   90.00000000
_symmetry_Int_Tables_number   1
_chemical_formula_structural   KPmSe2
_chemical_formula_sum   'K4 Pm4 Se8'
_cell_volume   521.17201458
_cell_formula_units_Z   4
loop_
 _symmetry_equiv_pos_site_id
 _symmetry_equiv_pos_as_xyz
  1  'x, y, z'
loop_
 _atom_site_type_symbol
 _atom_site_label
 _atom_site_symmetry_multiplicity
 _atom_site_fract_x
 _atom_site_fract_y
 _atom_site_fract_z
 _atom_site_occupancy
  K  K0  1  0.002223  0.750288  0.002227  1
  K  K1  1  0.997776  0.250289  0.497772  1
  K  K2  1  0.002224  0.749710  0.502226  1
  K  K3  1  0.997777  0.249711  0.997774  1
  Pm  Pm4  1  0.501698  0.626556  0.250799  1
  Pm  Pm5  1  0.498301  0.126557  0.249201  1
  Pm  Pm6  1  0.501699  0.873442  0.750799  1
  Pm  Pm7  1  0.498302  0.373443  0.749201  1
  Se  Se8  1  0.699857  0.378882  0.145893  1
  Se  Se9  1  0.300142  0.878883  0.354106  1
  Se  Se10  1  0.699858  0.121117  0.645893  1
  Se  Se11  1  0.300142  0.621117  0.854106  1
  Se  Se12  1  0.702189  0.880380  0.147945  1
  Se  Se13  1  0.297811  0.380381  0.352055  1
  Se  Se14  1  0.702189  0.619620  0.647945  1
  Se  Se15  1  0.297811  0.119620  0.852055  1
