# generated using pymatgen
data_V5Ga3Tc4
_symmetry_space_group_name_H-M   'P 1'
_cell_length_a   4.80654619
_cell_length_b   4.81923818
_cell_length_c   14.34558907
_cell_angle_alpha   90.13758773
_cell_angle_beta   89.89042412
_cell_angle_gamma   90.18261641
_symmetry_Int_Tables_number   1
_chemical_formula_structural   V5Ga3Tc4
_chemical_formula_sum   'V10 Ga6 Tc8'
_cell_volume   332.29641141
_cell_formula_units_Z   2
loop_
 _symmetry_equiv_pos_site_id
 _symmetry_equiv_pos_as_xyz
  1  'x, y, z'
loop_
 _atom_site_type_symbol
 _atom_site_label
 _atom_site_symmetry_multiplicity
 _atom_site_fract_x
 _atom_site_fract_y
 _atom_site_fract_z
 _atom_site_occupancy
  V  V0  1  0.749959  0.002185  0.500409  1
  V  V1  1  0.998243  0.500039  0.750937  1
  V  V2  1  0.000364  0.500884  0.083258  1
  V  V3  1  0.002302  0.499726  0.416361  1
  V  V4  1  0.499298  0.751046  0.666336  1
  V  V5  1  0.498827  0.750719  0.000044  1
  V  V6  1  0.499266  0.751462  0.333454  1
  V  V7  1  0.251028  0.998464  0.832746  1
  V  V8  1  0.250616  0.998306  0.167235  1
  V  V9  1  0.251845  0.001847  0.500155  1
  Ga  Ga10  1  0.497172  0.501971  0.832117  1
  Ga  Ga11  1  0.497719  0.501937  0.165985  1
  Ga  Ga12  1  0.501013  0.506779  0.498840  1
  Ga  Ga13  1  0.001467  0.997080  0.666424  1
  Ga  Ga14  1  0.002326  0.998143  0.000865  1
  Ga  Ga15  1  0.001239  0.996893  0.336161  1
  Tc  Tc16  1  0.000657  0.500938  0.916674  1
  Tc  Tc17  1  0.000078  0.500623  0.249556  1
  Tc  Tc18  1  0.000997  0.499779  0.582659  1
  Tc  Tc19  1  0.499375  0.247737  0.665358  1
  Tc  Tc20  1  0.499577  0.248521  0.000051  1
  Tc  Tc21  1  0.500669  0.246274  0.334537  1
  Tc  Tc22  1  0.747414  0.999335  0.832625  1
  Tc  Tc23  1  0.748550  0.999311  0.167213  1
