# generated using pymatgen
data_Dy8Cu2Si12RhAu
_symmetry_space_group_name_H-M   'P 1'
_cell_length_a   8.09280700
_cell_length_b   8.09280809
_cell_length_c   8.14493900
_cell_angle_alpha   90.00000000
_cell_angle_beta   90.00000000
_cell_angle_gamma   119.99999145
_symmetry_Int_Tables_number   1
_chemical_formula_structural   Dy8Cu2Si12RhAu
_chemical_formula_sum   'Dy8 Cu2 Si12 Rh1 Au1'
_cell_volume   461.97335794
_cell_formula_units_Z   1
loop_
 _symmetry_equiv_pos_site_id
 _symmetry_equiv_pos_as_xyz
  1  'x, y, z'
loop_
 _atom_site_type_symbol
 _atom_site_label
 _atom_site_symmetry_multiplicity
 _atom_site_fract_x
 _atom_site_fract_y
 _atom_site_fract_z
 _atom_site_occupancy
  Dy  Dy0  1  0.000000  0.000000  0.247690  1
  Dy  Dy1  1  0.000000  0.000000  0.752187  1
  Dy  Dy2  1  0.996889  0.498444  0.249635  1
  Dy  Dy3  1  0.501556  0.498444  0.249635  1
  Dy  Dy4  1  0.502660  0.005320  0.750379  1
  Dy  Dy5  1  0.501556  0.003111  0.249635  1
  Dy  Dy6  1  0.502660  0.497340  0.750379  1
  Dy  Dy7  1  0.994680  0.497340  0.750379  1
  Cu  Cu8  1  0.333333  0.666667  0.998024  1
  Cu  Cu9  1  0.666667  0.333333  0.001849  1
  Si  Si10  1  0.169366  0.338730  0.000059  1
  Si  Si11  1  0.661270  0.830634  0.000059  1
  Si  Si12  1  0.161373  0.322746  0.500463  1
  Si  Si13  1  0.337565  0.168783  0.999967  1
  Si  Si14  1  0.169366  0.830634  0.000059  1
  Si  Si15  1  0.677254  0.838627  0.500463  1
  Si  Si16  1  0.831217  0.662435  0.999967  1
  Si  Si17  1  0.338129  0.169065  0.499261  1
  Si  Si18  1  0.161373  0.838627  0.500463  1
  Si  Si19  1  0.830935  0.661871  0.499261  1
  Si  Si20  1  0.831217  0.168783  0.999967  1
  Si  Si21  1  0.830935  0.169065  0.499261  1
  Rh  Rh22  1  0.666667  0.333333  0.499118  1
  Au  Au23  1  0.333333  0.666667  0.501836  1
