# generated using pymatgen
data_Tm3Pa(MoN2)4
_symmetry_space_group_name_H-M   'P 1'
_cell_length_a   3.18290700
_cell_length_b   5.64011363
_cell_length_c   10.70100803
_cell_angle_alpha   89.43502442
_cell_angle_beta   90.00000000
_cell_angle_gamma   90.00000000
_symmetry_Int_Tables_number   1
_chemical_formula_structural   Tm3Pa(MoN2)4
_chemical_formula_sum   'Tm3 Pa1 Mo4 N8'
_cell_volume   192.09469828
_cell_formula_units_Z   1
loop_
 _symmetry_equiv_pos_site_id
 _symmetry_equiv_pos_as_xyz
  1  'x, y, z'
loop_
 _atom_site_type_symbol
 _atom_site_label
 _atom_site_symmetry_multiplicity
 _atom_site_fract_x
 _atom_site_fract_y
 _atom_site_fract_z
 _atom_site_occupancy
  Tm  Tm0  1  0.250000  0.575274  0.642354  1
  Tm  Tm1  1  0.750000  0.922559  0.152542  1
  Tm  Tm2  1  0.750000  0.421971  0.352275  1
  Pa  Pa3  1  0.250000  0.075094  0.855536  1
  Mo  Mo4  1  0.250000  0.437441  0.098929  1
  Mo  Mo5  1  0.250000  0.931492  0.405718  1
  Mo  Mo6  1  0.750000  0.571869  0.899409  1
  Mo  Mo7  1  0.750000  0.065635  0.587919  1
  N  N8  1  0.250000  0.164187  0.247690  1
  N  N9  1  0.250000  0.664849  0.255739  1
  N  N10  1  0.750000  0.839730  0.751237  1
  N  N11  1  0.750000  0.326650  0.745870  1
  N  N12  1  0.250000  0.763206  0.999508  1
  N  N13  1  0.250000  0.262380  0.503179  1
  N  N14  1  0.750000  0.244221  0.006121  1
  N  N15  1  0.750000  0.733443  0.495973  1
