# generated using pymatgen
data_SmNpB6Mo
_symmetry_space_group_name_H-M   'P 1'
_cell_length_a   3.66330000
_cell_length_b   9.32022300
_cell_length_c   11.40376700
_cell_angle_alpha   90.00000000
_cell_angle_beta   90.00000000
_cell_angle_gamma   90.00000000
_symmetry_Int_Tables_number   1
_chemical_formula_structural   SmNpB6Mo
_chemical_formula_sum   'Sm4 Np4 B24 Mo4'
_cell_volume   389.35622707
_cell_formula_units_Z   4
loop_
 _symmetry_equiv_pos_site_id
 _symmetry_equiv_pos_as_xyz
  1  'x, y, z'
loop_
 _atom_site_type_symbol
 _atom_site_label
 _atom_site_symmetry_multiplicity
 _atom_site_fract_x
 _atom_site_fract_y
 _atom_site_fract_z
 _atom_site_occupancy
  Sm  Sm0  1  0.000000  0.338144  0.408329  1
  Sm  Sm1  1  0.000000  0.661856  0.591671  1
  Sm  Sm2  1  0.000000  0.838144  0.091671  1
  Sm  Sm3  1  0.000000  0.161856  0.908329  1
  Np  Np4  1  0.000000  0.959345  0.400317  1
  Np  Np5  1  0.000000  0.040655  0.599683  1
  Np  Np6  1  0.000000  0.459345  0.099683  1
  Np  Np7  1  0.000000  0.540655  0.900317  1
  B  B8  1  0.500000  0.554024  0.430632  1
  B  B9  1  0.500000  0.445976  0.569368  1
  B  B10  1  0.500000  0.054024  0.069368  1
  B  B11  1  0.500000  0.945976  0.930632  1
  B  B12  1  0.500000  0.747754  0.422267  1
  B  B13  1  0.500000  0.252246  0.577733  1
  B  B14  1  0.500000  0.247754  0.077733  1
  B  B15  1  0.500000  0.752246  0.922267  1
  B  B16  1  0.500000  0.806568  0.275207  1
  B  B17  1  0.500000  0.193432  0.724793  1
  B  B18  1  0.500000  0.306568  0.224793  1
  B  B19  1  0.500000  0.693432  0.775207  1
  B  B20  1  0.500000  0.643563  0.186724  1
  B  B21  1  0.500000  0.356437  0.813276  1
  B  B22  1  0.500000  0.143563  0.313276  1
  B  B23  1  0.500000  0.856437  0.686724  1
  B  B24  1  0.500000  0.989746  0.222282  1
  B  B25  1  0.500000  0.010254  0.777718  1
  B  B26  1  0.500000  0.489746  0.277718  1
  B  B27  1  0.500000  0.510254  0.722282  1
  B  B28  1  0.500000  0.635169  0.037153  1
  B  B29  1  0.500000  0.364831  0.962847  1
  B  B30  1  0.500000  0.135169  0.462847  1
  B  B31  1  0.500000  0.864831  0.537153  1
  Mo  Mo32  1  0.000000  0.648550  0.316990  1
  Mo  Mo33  1  0.000000  0.351450  0.683010  1
  Mo  Mo34  1  0.000000  0.148550  0.183010  1
  Mo  Mo35  1  0.000000  0.851450  0.816990  1
