# generated using pymatgen
data_Er5TmSi10
_symmetry_space_group_name_H-M   'P 1'
_cell_length_a   6.56658900
_cell_length_b   6.57040135
_cell_length_c   8.29041244
_cell_angle_alpha   89.96767274
_cell_angle_beta   90.00000000
_cell_angle_gamma   119.98081299
_symmetry_Int_Tables_number   1
_chemical_formula_structural   Er5TmSi10
_chemical_formula_sum   'Er5 Tm1 Si10'
_cell_volume   309.82919947
_cell_formula_units_Z   1
loop_
 _symmetry_equiv_pos_site_id
 _symmetry_equiv_pos_as_xyz
  1  'x, y, z'
loop_
 _atom_site_type_symbol
 _atom_site_label
 _atom_site_symmetry_multiplicity
 _atom_site_fract_x
 _atom_site_fract_y
 _atom_site_fract_z
 _atom_site_occupancy
  Er  Er0  1  0.329874  0.000000  0.500000  1
  Er  Er1  1  0.670085  0.670138  0.500002  1
  Er  Er2  1  0.999946  0.329862  0.499998  1
  Er  Er3  1  0.000040  0.329949  0.999983  1
  Er  Er4  1  0.670091  0.670051  0.000017  1
  Tm  Tm5  1  0.329997  0.000000  0.000000  1
  Si  Si6  1  0.000196  0.999939  0.750247  1
  Si  Si7  1  0.667913  0.063691  0.750339  1
  Si  Si8  1  0.395405  0.331285  0.750392  1
  Si  Si9  1  0.936314  0.604644  0.750079  1
  Si  Si10  1  0.333354  0.666838  0.750265  1
  Si  Si11  1  0.000258  0.000061  0.249753  1
  Si  Si12  1  0.666517  0.333162  0.249735  1
  Si  Si13  1  0.331671  0.395356  0.249921  1
  Si  Si14  1  0.064120  0.668715  0.249608  1
  Si  Si15  1  0.604221  0.936309  0.249661  1
