# generated using pymatgen
data_CaLaB4OsRh3
_symmetry_space_group_name_H-M   'P 1'
_cell_length_a   7.02798595
_cell_length_b   6.10402876
_cell_length_c   5.57163089
_cell_angle_alpha   73.85874130
_cell_angle_beta   56.54235556
_cell_angle_gamma   49.75493666
_symmetry_Int_Tables_number   1
_chemical_formula_structural   CaLaB4OsRh3
_chemical_formula_sum   'Ca1 La1 B4 Os1 Rh3'
_cell_volume   151.05654249
_cell_formula_units_Z   1
loop_
 _symmetry_equiv_pos_site_id
 _symmetry_equiv_pos_as_xyz
  1  'x, y, z'
loop_
 _atom_site_type_symbol
 _atom_site_label
 _atom_site_symmetry_multiplicity
 _atom_site_fract_x
 _atom_site_fract_y
 _atom_site_fract_z
 _atom_site_occupancy
  Ca  Ca0  1  0.753296  0.753296  0.746704  1
  La  La1  1  0.498870  0.498870  0.501130  1
  B  B2  1  0.819687  0.192075  0.838447  1
  B  B3  1  0.059827  0.432968  0.072285  1
  B  B4  1  0.192075  0.819687  0.149791  1
  B  B5  1  0.432968  0.059827  0.434921  1
  Os  Os6  1  0.133803  0.133803  0.866197  1
  Rh  Rh7  1  0.377267  0.377267  0.122733  1
  Rh  Rh8  1  0.116274  0.116274  0.383726  1
  Rh  Rh9  1  0.865934  0.865934  0.134066  1
