# generated using pymatgen
data_K7Ce(SO4)6
_symmetry_space_group_name_H-M   'P 1'
_cell_length_a   9.56919670
_cell_length_b   9.56919684
_cell_length_c   9.56919746
_cell_angle_alpha   109.31690194
_cell_angle_beta   109.31689893
_cell_angle_gamma   109.31691773
_symmetry_Int_Tables_number   1
_chemical_formula_structural   K7Ce(SO4)6
_chemical_formula_sum   'K7 Ce1 S6 O24'
_cell_volume   678.36164428
_cell_formula_units_Z   1
loop_
 _symmetry_equiv_pos_site_id
 _symmetry_equiv_pos_as_xyz
  1  'x, y, z'
loop_
 _atom_site_type_symbol
 _atom_site_label
 _atom_site_symmetry_multiplicity
 _atom_site_fract_x
 _atom_site_fract_y
 _atom_site_fract_z
 _atom_site_occupancy
  K  K0  1  0.500000  0.500000  0.500000  1
  K  K1  1  0.842521  0.342170  0.688915  1
  K  K2  1  0.342170  0.688915  0.842521  1
  K  K3  1  0.688915  0.842521  0.342170  1
  K  K4  1  0.157479  0.657830  0.311085  1
  K  K5  1  0.657830  0.311085  0.157479  1
  K  K6  1  0.311085  0.157479  0.657830  1
  Ce  Ce7  1  0.000000  0.000000  0.000000  1
  S  S8  1  0.963179  0.736115  0.601701  1
  S  S9  1  0.736115  0.601701  0.963179  1
  S  S10  1  0.601701  0.963179  0.736115  1
  S  S11  1  0.036821  0.263885  0.398299  1
  S  S12  1  0.263885  0.398299  0.036821  1
  S  S13  1  0.398299  0.036821  0.263885  1
  O  O14  1  0.453316  0.920507  0.185011  1
  O  O15  1  0.920507  0.185011  0.453316  1
  O  O16  1  0.185011  0.453316  0.920507  1
  O  O17  1  0.546684  0.079493  0.814989  1
  O  O18  1  0.079493  0.814989  0.546684  1
  O  O19  1  0.814989  0.546684  0.079493  1
  O  O20  1  0.321418  0.982919  0.360188  1
  O  O21  1  0.982919  0.360188  0.321418  1
  O  O22  1  0.360188  0.321418  0.982919  1
  O  O23  1  0.678582  0.017081  0.639812  1
  O  O24  1  0.017081  0.639812  0.678582  1
  O  O25  1  0.639812  0.678582  0.017081  1
  O  O26  1  0.736855  0.967599  0.882774  1
  O  O27  1  0.967599  0.882774  0.736855  1
  O  O28  1  0.628737  0.459248  0.784597  1
  O  O29  1  0.784597  0.628737  0.459248  1
  O  O30  1  0.459248  0.784597  0.628737  1
  O  O31  1  0.371263  0.540752  0.215403  1
  O  O32  1  0.215403  0.371263  0.540752  1
  O  O33  1  0.540752  0.215403  0.371263  1
  O  O34  1  0.117226  0.263145  0.032401  1
  O  O35  1  0.032401  0.117226  0.263145  1
  O  O36  1  0.263145  0.032401  0.117226  1
  O  O37  1  0.882774  0.736855  0.967599  1
