# generated using pymatgen
data_Li3V2Rh6W
_symmetry_space_group_name_H-M   'P 1'
_cell_length_a   4.23501700
_cell_length_b   5.98279600
_cell_length_c   12.65985001
_cell_angle_alpha   90.00000000
_cell_angle_beta   90.00448609
_cell_angle_gamma   90.00000000
_symmetry_Int_Tables_number   1
_chemical_formula_structural   Li3V2Rh6W
_chemical_formula_sum   'Li6 V4 Rh12 W2'
_cell_volume   320.76569236
_cell_formula_units_Z   2
loop_
 _symmetry_equiv_pos_site_id
 _symmetry_equiv_pos_as_xyz
  1  'x, y, z'
loop_
 _atom_site_type_symbol
 _atom_site_label
 _atom_site_symmetry_multiplicity
 _atom_site_fract_x
 _atom_site_fract_y
 _atom_site_fract_z
 _atom_site_occupancy
  Li  Li0  1  0.000000  0.000000  0.999912  1
  Li  Li1  1  0.499605  0.500000  0.166846  1
  Li  Li2  1  0.999664  0.000000  0.335778  1
  Li  Li3  1  0.499999  0.500000  0.502355  1
  Li  Li4  1  0.000362  0.000000  0.664262  1
  Li  Li5  1  0.500317  0.500000  0.830845  1
  V  V6  1  0.999599  0.500000  0.339163  1
  V  V7  1  0.500002  0.000000  0.501683  1
  V  V8  1  0.000395  0.500000  0.664957  1
  V  V9  1  0.500427  0.000000  0.827524  1
  Rh  Rh10  1  0.500017  0.246868  0.998061  1
  Rh  Rh11  1  0.500017  0.753130  0.998061  1
  Rh  Rh12  1  0.999580  0.253095  0.168622  1
  Rh  Rh13  1  0.999580  0.746905  0.168622  1
  Rh  Rh14  1  0.499620  0.254587  0.336355  1
  Rh  Rh15  1  0.499620  0.745413  0.336355  1
  Rh  Rh16  1  0.999998  0.248372  0.500731  1
  Rh  Rh17  1  0.999998  0.751626  0.500731  1
  Rh  Rh18  1  0.500420  0.251536  0.665907  1
  Rh  Rh19  1  0.500420  0.748464  0.665907  1
  Rh  Rh20  1  0.000398  0.245330  0.830322  1
  Rh  Rh21  1  0.000398  0.754670  0.830322  1
  W  W22  1  0.000023  0.500000  0.995842  1
  W  W23  1  0.499542  0.000000  0.170835  1
