# generated using pymatgen
data_Rb6SmLuF12
_symmetry_space_group_name_H-M   'P 1'
_cell_length_a   6.89536431
_cell_length_b   6.65737346
_cell_length_c   11.58245560
_cell_angle_alpha   55.29064722
_cell_angle_beta   90.14636749
_cell_angle_gamma   89.91618565
_symmetry_Int_Tables_number   1
_chemical_formula_structural   Rb6SmLuF12
_chemical_formula_sum   'Rb6 Sm1 Lu1 F12'
_cell_volume   437.07447543
_cell_formula_units_Z   1
loop_
 _symmetry_equiv_pos_site_id
 _symmetry_equiv_pos_as_xyz
  1  'x, y, z'
loop_
 _atom_site_type_symbol
 _atom_site_label
 _atom_site_symmetry_multiplicity
 _atom_site_fract_x
 _atom_site_fract_y
 _atom_site_fract_z
 _atom_site_occupancy
  Rb  Rb0  1  0.500000  0.500000  0.000000  1
  Rb  Rb1  1  0.000000  0.500000  0.500000  1
  Rb  Rb2  1  0.047559  0.726336  0.760534  1
  Rb  Rb3  1  0.952441  0.273664  0.239466  1
  Rb  Rb4  1  0.550052  0.260415  0.754040  1
  Rb  Rb5  1  0.449948  0.739585  0.245960  1
  Sm  Sm6  1  0.500000  0.000000  0.500000  1
  Lu  Lu7  1  0.000000  0.000000  0.000000  1
  F  F8  1  0.770261  0.765380  0.570703  1
  F  F9  1  0.229739  0.234620  0.429297  1
  F  F10  1  0.254706  0.222557  0.939071  1
  F  F11  1  0.745294  0.777443  0.060929  1
  F  F12  1  0.446106  0.886035  0.721845  1
  F  F13  1  0.553894  0.113965  0.278155  1
  F  F14  1  0.950662  0.108620  0.789346  1
  F  F15  1  0.049338  0.891380  0.210654  1
  F  F16  1  0.328160  0.672647  0.549879  1
  F  F17  1  0.671840  0.327353  0.450121  1
  F  F18  1  0.829161  0.304124  0.956638  1
  F  F19  1  0.170839  0.695876  0.043362  1
