# generated using pymatgen
data_Tb4Sc(GaTe)2
_symmetry_space_group_name_H-M   'P 1'
_cell_length_a   8.55727700
_cell_length_b   8.55727766
_cell_length_c   7.88049400
_cell_angle_alpha   90.00000000
_cell_angle_beta   90.00000000
_cell_angle_gamma   125.17499311
_symmetry_Int_Tables_number   1
_chemical_formula_structural   Tb4Sc(GaTe)2
_chemical_formula_sum   'Tb8 Sc2 Ga4 Te4'
_cell_volume   471.69077264
_cell_formula_units_Z   2
loop_
 _symmetry_equiv_pos_site_id
 _symmetry_equiv_pos_as_xyz
  1  'x, y, z'
loop_
 _atom_site_type_symbol
 _atom_site_label
 _atom_site_symmetry_multiplicity
 _atom_site_fract_x
 _atom_site_fract_y
 _atom_site_fract_z
 _atom_site_occupancy
  Tb  Tb0  1  0.041056  0.294728  0.332255  1
  Tb  Tb1  1  0.958944  0.705272  0.667745  1
  Tb  Tb2  1  0.458944  0.205272  0.832255  1
  Tb  Tb3  1  0.794728  0.541056  0.167745  1
  Tb  Tb4  1  0.541056  0.794728  0.167745  1
  Tb  Tb5  1  0.205272  0.458944  0.832255  1
  Tb  Tb6  1  0.705272  0.958944  0.667745  1
  Tb  Tb7  1  0.294728  0.041056  0.332255  1
  Sc  Sc8  1  0.000000  0.000000  0.000000  1
  Sc  Sc9  1  0.500000  0.500000  0.500000  1
  Ga  Ga10  1  0.370001  0.370001  0.128940  1
  Ga  Ga11  1  0.629999  0.629999  0.871060  1
  Ga  Ga12  1  0.129999  0.129999  0.628940  1
  Ga  Ga13  1  0.870001  0.870001  0.371060  1
  Te  Te14  1  0.797348  0.202652  0.000000  1
  Te  Te15  1  0.202652  0.797348  0.000000  1
  Te  Te16  1  0.702652  0.297348  0.500000  1
  Te  Te17  1  0.297348  0.702652  0.500000  1
