# generated using pymatgen
data_DyY7(Nb3Si4)4
_symmetry_space_group_name_H-M   'P 1'
_cell_length_a   7.08831505
_cell_length_b   7.08838504
_cell_length_c   13.04984001
_cell_angle_alpha   90.00018924
_cell_angle_beta   90.00121082
_cell_angle_gamma   90.01249646
_symmetry_Int_Tables_number   1
_chemical_formula_structural   DyY7(Nb3Si4)4
_chemical_formula_sum   'Dy1 Y7 Nb12 Si16'
_cell_volume   655.68536308
_cell_formula_units_Z   1
loop_
 _symmetry_equiv_pos_site_id
 _symmetry_equiv_pos_as_xyz
  1  'x, y, z'
loop_
 _atom_site_type_symbol
 _atom_site_label
 _atom_site_symmetry_multiplicity
 _atom_site_fract_x
 _atom_site_fract_y
 _atom_site_fract_z
 _atom_site_occupancy
  Dy  Dy0  1  0.342358  0.002162  0.467625  1
  Y  Y1  1  0.997685  0.657735  0.032459  1
  Y  Y2  1  0.002401  0.342201  0.532330  1
  Y  Y3  1  0.657713  0.997696  0.967593  1
  Y  Y4  1  0.157707  0.502212  0.782243  1
  Y  Y5  1  0.842258  0.497809  0.282390  1
  Y  Y6  1  0.502232  0.157720  0.217767  1
  Y  Y7  1  0.497802  0.842255  0.717677  1
  Nb  Nb8  1  0.347273  0.507455  0.375797  1
  Nb  Nb9  1  0.847260  0.992781  0.373779  1
  Nb  Nb10  1  0.007306  0.152825  0.126276  1
  Nb  Nb11  1  0.992886  0.847348  0.626185  1
  Nb  Nb12  1  0.507385  0.347197  0.624138  1
  Nb  Nb13  1  0.152788  0.007347  0.873772  1
  Nb  Nb14  1  0.671788  0.672006  0.499952  1
  Nb  Nb15  1  0.828192  0.171819  0.749953  1
  Nb  Nb16  1  0.171909  0.828201  0.250045  1
  Nb  Nb17  1  0.328042  0.328038  0.999993  1
  Nb  Nb18  1  0.492563  0.652688  0.124228  1
  Nb  Nb19  1  0.652703  0.492579  0.875830  1
  Si  Si20  1  0.046552  0.707493  0.436368  1
  Si  Si21  1  0.953556  0.292712  0.936331  1
  Si  Si22  1  0.707144  0.046279  0.563608  1
  Si  Si23  1  0.207357  0.453392  0.186393  1
  Si  Si24  1  0.792549  0.546635  0.686252  1
  Si  Si25  1  0.453400  0.207382  0.813615  1
  Si  Si26  1  0.546462  0.792808  0.313780  1
  Si  Si27  1  0.292698  0.953579  0.063693  1
  Si  Si28  1  0.796089  0.866539  0.182548  1
  Si  Si29  1  0.296422  0.633663  0.567438  1
  Si  Si30  1  0.703679  0.366480  0.067542  1
  Si  Si31  1  0.633248  0.296083  0.432459  1
  Si  Si32  1  0.366464  0.703661  0.932495  1
  Si  Si33  1  0.133604  0.203713  0.317670  1
  Si  Si34  1  0.203989  0.133374  0.682328  1
  Si  Si35  1  0.866535  0.796132  0.817450  1
