# generated using pymatgen
data_LiLa16Al(CdRu2)2
_symmetry_space_group_name_H-M   'P 1'
_cell_length_a   10.06630773
_cell_length_b   10.06246318
_cell_length_c   10.06970988
_cell_angle_alpha   60.02380800
_cell_angle_beta   59.66948967
_cell_angle_gamma   60.01264092
_symmetry_Int_Tables_number   1
_chemical_formula_structural   LiLa16Al(CdRu2)2
_chemical_formula_sum   'Li1 La16 Al1 Cd2 Ru4'
_cell_volume   719.61282473
_cell_formula_units_Z   1
loop_
 _symmetry_equiv_pos_site_id
 _symmetry_equiv_pos_as_xyz
  1  'x, y, z'
loop_
 _atom_site_type_symbol
 _atom_site_label
 _atom_site_symmetry_multiplicity
 _atom_site_fract_x
 _atom_site_fract_y
 _atom_site_fract_z
 _atom_site_occupancy
  Li  Li0  1  0.959950  0.679174  0.681700  1
  La  La1  1  0.903258  0.903257  0.905877  1
  La  La2  1  0.441310  0.441572  0.058614  1
  La  La3  1  0.062282  0.064223  0.436726  1
  La  La4  1  0.441310  0.058504  0.058614  1
  La  La5  1  0.317105  0.691269  0.300357  1
  La  La6  1  0.690233  0.691658  0.305721  1
  La  La7  1  0.690233  0.312388  0.305721  1
  La  La8  1  0.290903  0.901897  0.905303  1
  La  La9  1  0.903258  0.287609  0.905877  1
  La  La10  1  0.310596  0.691426  0.691310  1
  La  La11  1  0.905802  0.903124  0.287951  1
  La  La12  1  0.057845  0.440725  0.060706  1
  La  La13  1  0.310596  0.306668  0.691310  1
  La  La14  1  0.062282  0.436769  0.436726  1
  La  La15  1  0.438613  0.061276  0.438835  1
  La  La16  1  0.686775  0.311561  0.690102  1
  Al  Al17  1  0.668102  0.670357  0.991183  1
  Cd  Cd18  1  0.672576  0.983407  0.674350  1
  Cd  Cd19  1  0.672576  0.669666  0.674350  1
  Ru  Ru20  1  0.118000  0.111092  0.659815  1
  Ru  Ru21  1  0.115579  0.111475  0.112897  1
  Ru  Ru22  1  0.115579  0.660048  0.112897  1
  Ru  Ru23  1  0.665237  0.110853  0.113056  1
