# generated using pymatgen
data_Nb2SiAsRh2
_symmetry_space_group_name_H-M   'P 1'
_cell_length_a   3.82643400
_cell_length_b   6.47770000
_cell_length_c   7.43474100
_cell_angle_alpha   90.00000000
_cell_angle_beta   90.00000000
_cell_angle_gamma   90.00000000
_symmetry_Int_Tables_number   1
_chemical_formula_structural   Nb2SiAsRh2
_chemical_formula_sum   'Nb4 Si2 As2 Rh4'
_cell_volume   184.28114476
_cell_formula_units_Z   2
loop_
 _symmetry_equiv_pos_site_id
 _symmetry_equiv_pos_as_xyz
  1  'x, y, z'
loop_
 _atom_site_type_symbol
 _atom_site_label
 _atom_site_symmetry_multiplicity
 _atom_site_fract_x
 _atom_site_fract_y
 _atom_site_fract_z
 _atom_site_occupancy
  Nb  Nb0  1  0.750000  0.470592  0.329516  1
  Nb  Nb1  1  0.250000  0.026979  0.829696  1
  Nb  Nb2  1  0.750000  0.970592  0.170484  1
  Nb  Nb3  1  0.250000  0.526979  0.670304  1
  Si  Si4  1  0.750000  0.733678  0.875061  1
  Si  Si5  1  0.750000  0.233678  0.624939  1
  As  As6  1  0.250000  0.264170  0.128168  1
  As  As7  1  0.250000  0.764170  0.371832  1
  Rh  Rh8  1  0.250000  0.648139  0.051950  1
  Rh  Rh9  1  0.250000  0.148139  0.448050  1
  Rh  Rh10  1  0.750000  0.856442  0.571196  1
  Rh  Rh11  1  0.750000  0.356442  0.928804  1
