# generated using pymatgen
data_Cd3(SbO3)2
_symmetry_space_group_name_H-M   'P 1'
_cell_length_a   5.81696400
_cell_length_b   9.22993434
_cell_length_c   17.72066400
_cell_angle_alpha   82.65657129
_cell_angle_beta   90.00000000
_cell_angle_gamma   90.00000000
_symmetry_Int_Tables_number   1
_chemical_formula_structural   Cd3(SbO3)2
_chemical_formula_sum   'Cd12 Sb8 O24'
_cell_volume   943.62217786
_cell_formula_units_Z   4
loop_
 _symmetry_equiv_pos_site_id
 _symmetry_equiv_pos_as_xyz
  1  'x, y, z'
loop_
 _atom_site_type_symbol
 _atom_site_label
 _atom_site_symmetry_multiplicity
 _atom_site_fract_x
 _atom_site_fract_y
 _atom_site_fract_z
 _atom_site_occupancy
  Cd  Cd0  1  0.146722  0.867351  0.761195  1
  Cd  Cd1  1  0.646722  0.132649  0.738805  1
  Cd  Cd2  1  0.853278  0.132649  0.238805  1
  Cd  Cd3  1  0.353278  0.867351  0.261195  1
  Cd  Cd4  1  0.625160  0.398355  0.572149  1
  Cd  Cd5  1  0.125160  0.601645  0.927851  1
  Cd  Cd6  1  0.374840  0.601645  0.427851  1
  Cd  Cd7  1  0.874840  0.398355  0.072149  1
  Cd  Cd8  1  0.068282  0.502753  0.689041  1
  Cd  Cd9  1  0.568282  0.497247  0.810959  1
  Cd  Cd10  1  0.931718  0.497247  0.310959  1
  Cd  Cd11  1  0.431718  0.502753  0.189041  1
  Sb  Sb12  1  0.548100  0.739902  0.629617  1
  Sb  Sb13  1  0.048100  0.260098  0.870383  1
  Sb  Sb14  1  0.451900  0.260098  0.370383  1
  Sb  Sb15  1  0.951900  0.739902  0.129617  1
  Sb  Sb16  1  0.131703  0.161155  0.605968  1
  Sb  Sb17  1  0.631703  0.838845  0.894032  1
  Sb  Sb18  1  0.868297  0.838845  0.394032  1
  Sb  Sb19  1  0.368297  0.161155  0.105968  1
  O  O20  1  0.485160  0.622122  0.547360  1
  O  O21  1  0.985160  0.377878  0.952640  1
  O  O22  1  0.514840  0.377878  0.452640  1
  O  O23  1  0.014840  0.622122  0.047360  1
  O  O24  1  0.433203  0.221016  0.642618  1
  O  O25  1  0.933203  0.778984  0.857382  1
  O  O26  1  0.566797  0.778984  0.357382  1
  O  O27  1  0.066797  0.221016  0.142618  1
  O  O28  1  0.005480  0.074960  0.705245  1
  O  O29  1  0.505480  0.925040  0.794755  1
  O  O30  1  0.994520  0.925040  0.294755  1
  O  O31  1  0.494520  0.074960  0.205245  1
  O  O32  1  0.985090  0.353833  0.605747  1
  O  O33  1  0.485090  0.646167  0.894253  1
  O  O34  1  0.014910  0.646167  0.394253  1
  O  O35  1  0.514910  0.353833  0.105747  1
  O  O36  1  0.192678  0.428985  0.807064  1
  O  O37  1  0.692678  0.571015  0.692936  1
  O  O38  1  0.807322  0.571015  0.192936  1
  O  O39  1  0.307322  0.428985  0.307064  1
  O  O40  1  0.240935  0.717362  0.677810  1
  O  O41  1  0.740935  0.282638  0.822190  1
  O  O42  1  0.759065  0.282638  0.322190  1
  O  O43  1  0.259065  0.717362  0.177810  1
