# generated using pymatgen
data_Tm8Mn(B8Ru)3
_symmetry_space_group_name_H-M   'P 1'
_cell_length_a   3.59123300
_cell_length_b   9.04750758
_cell_length_c   11.41838911
_cell_angle_alpha   89.97167751
_cell_angle_beta   90.00000000
_cell_angle_gamma   90.00000000
_symmetry_Int_Tables_number   1
_chemical_formula_structural   Tm8Mn(B8Ru)3
_chemical_formula_sum   'Tm8 Mn1 B24 Ru3'
_cell_volume   371.00291697
_cell_formula_units_Z   1
loop_
 _symmetry_equiv_pos_site_id
 _symmetry_equiv_pos_as_xyz
  1  'x, y, z'
loop_
 _atom_site_type_symbol
 _atom_site_label
 _atom_site_symmetry_multiplicity
 _atom_site_fract_x
 _atom_site_fract_y
 _atom_site_fract_z
 _atom_site_occupancy
  Tm  Tm0  1  0.000000  0.325738  0.412778  1
  Tm  Tm1  1  0.000000  0.676459  0.581726  1
  Tm  Tm2  1  0.000000  0.820120  0.088619  1
  Tm  Tm3  1  0.000000  0.177497  0.915230  1
  Tm  Tm4  1  0.000000  0.940610  0.371701  1
  Tm  Tm5  1  0.000000  0.056664  0.627401  1
  Tm  Tm6  1  0.000000  0.446018  0.130196  1
  Tm  Tm7  1  0.000000  0.556624  0.872023  1
  Mn  Mn8  1  0.000000  0.638033  0.320852  1
  B  B9  1  0.500000  0.553982  0.432083  1
  B  B10  1  0.500000  0.446912  0.565986  1
  B  B11  1  0.500000  0.053453  0.066912  1
  B  B12  1  0.500000  0.946538  0.933701  1
  B  B13  1  0.500000  0.746746  0.418131  1
  B  B14  1  0.500000  0.251513  0.579546  1
  B  B15  1  0.500000  0.249337  0.080459  1
  B  B16  1  0.500000  0.751329  0.920331  1
  B  B17  1  0.500000  0.790273  0.266351  1
  B  B18  1  0.500000  0.208157  0.734221  1
  B  B19  1  0.500000  0.292508  0.234474  1
  B  B20  1  0.500000  0.708192  0.765538  1
  B  B21  1  0.500000  0.631923  0.186563  1
  B  B22  1  0.500000  0.368216  0.815366  1
  B  B23  1  0.500000  0.131447  0.315127  1
  B  B24  1  0.500000  0.868101  0.684407  1
  B  B25  1  0.500000  0.981888  0.212897  1
  B  B26  1  0.500000  0.017535  0.787486  1
  B  B27  1  0.500000  0.484869  0.288220  1
  B  B28  1  0.500000  0.517598  0.712369  1
  B  B29  1  0.500000  0.606862  0.029785  1
  B  B30  1  0.500000  0.393506  0.970967  1
  B  B31  1  0.500000  0.106693  0.470235  1
  B  B32  1  0.500000  0.892853  0.529116  1
  Ru  Ru33  1  0.000000  0.361619  0.679400  1
  Ru  Ru34  1  0.000000  0.138137  0.178777  1
  Ru  Ru35  1  0.000000  0.862047  0.821028  1
