# generated using pymatgen
data_KVSeO5
_symmetry_space_group_name_H-M   'P 1'
_cell_length_a   7.58539800
_cell_length_b   7.81766578
_cell_length_c   9.48920666
_cell_angle_alpha   85.01793384
_cell_angle_beta   90.00000000
_cell_angle_gamma   90.00000000
_symmetry_Int_Tables_number   1
_chemical_formula_structural   KVSeO5
_chemical_formula_sum   'K4 V4 Se4 O20'
_cell_volume   560.58500287
_cell_formula_units_Z   4
loop_
 _symmetry_equiv_pos_site_id
 _symmetry_equiv_pos_as_xyz
  1  'x, y, z'
loop_
 _atom_site_type_symbol
 _atom_site_label
 _atom_site_symmetry_multiplicity
 _atom_site_fract_x
 _atom_site_fract_y
 _atom_site_fract_z
 _atom_site_occupancy
  K  K0  1  0.979998  0.916429  0.142846  1
  K  K1  1  0.479998  0.083571  0.857154  1
  K  K2  1  0.771330  0.610360  0.609881  1
  K  K3  1  0.271330  0.389640  0.390119  1
  V  V4  1  0.827843  0.427709  0.243797  1
  V  V5  1  0.327843  0.572291  0.756203  1
  V  V6  1  0.445833  0.932111  0.257095  1
  V  V7  1  0.945833  0.067889  0.742905  1
  Se  Se8  1  0.531956  0.626572  0.065464  1
  Se  Se9  1  0.031956  0.373428  0.934536  1
  Se  Se10  1  0.245435  0.885025  0.544648  1
  Se  Se11  1  0.745435  0.114975  0.455352  1
  O  O12  1  0.845641  0.925014  0.854032  1
  O  O13  1  0.345641  0.074986  0.145968  1
  O  O14  1  0.623439  0.405748  0.314738  1
  O  O15  1  0.123439  0.594252  0.685262  1
  O  O16  1  0.690540  0.982109  0.324815  1
  O  O17  1  0.190540  0.017891  0.675185  1
  O  O18  1  0.315218  0.758504  0.288854  1
  O  O19  1  0.815218  0.241496  0.711146  1
  O  O20  1  0.872678  0.968944  0.561700  1
  O  O21  1  0.372678  0.031056  0.438300  1
  O  O22  1  0.928452  0.587737  0.314451  1
  O  O23  1  0.428452  0.412263  0.685549  1
  O  O24  1  0.918506  0.227427  0.365791  1
  O  O25  1  0.418506  0.772573  0.634209  1
  O  O26  1  0.740583  0.531697  0.058799  1
  O  O27  1  0.240583  0.468303  0.941201  1
  O  O28  1  0.595061  0.826968  0.115466  1
  O  O29  1  0.095061  0.173032  0.884534  1
  O  O30  1  0.998288  0.316994  0.112404  1
  O  O31  1  0.498288  0.683006  0.887596  1
