# generated using pymatgen
data_K2Th(SeO4)3
_symmetry_space_group_name_H-M   'P 1'
_cell_length_a   5.28145630
_cell_length_b   10.83777820
_cell_length_c   10.83777709
_cell_angle_alpha   72.47669742
_cell_angle_beta   103.58756263
_cell_angle_gamma   103.58755703
_symmetry_Int_Tables_number   1
_chemical_formula_structural   K2Th(SeO4)3
_chemical_formula_sum   'K4 Th2 Se6 O24'
_cell_volume   565.90869986
_cell_formula_units_Z   2
loop_
 _symmetry_equiv_pos_site_id
 _symmetry_equiv_pos_as_xyz
  1  'x, y, z'
loop_
 _atom_site_type_symbol
 _atom_site_label
 _atom_site_symmetry_multiplicity
 _atom_site_fract_x
 _atom_site_fract_y
 _atom_site_fract_z
 _atom_site_occupancy
  K  K0  1  0.936028  0.289366  0.051803  1
  K  K1  1  0.436029  0.051803  0.289366  1
  K  K2  1  0.563971  0.948197  0.710634  1
  K  K3  1  0.063972  0.710634  0.948197  1
  Th  Th4  1  0.250000  0.635919  0.364081  1
  Th  Th5  1  0.750000  0.364081  0.635919  1
  Se  Se6  1  0.750000  0.858453  0.141547  1
  Se  Se7  1  0.606469  0.458181  0.230382  1
  Se  Se8  1  0.106470  0.230383  0.458182  1
  Se  Se9  1  0.893530  0.769618  0.541819  1
  Se  Se10  1  0.393531  0.541819  0.769618  1
  Se  Se11  1  0.250000  0.141547  0.858453  1
  O  O12  1  0.416760  0.152845  0.004260  1
  O  O13  1  0.776179  0.507062  0.110422  1
  O  O14  1  0.916761  0.004261  0.152846  1
  O  O15  1  0.962969  0.748177  0.189613  1
  O  O16  1  0.392660  0.560587  0.215211  1
  O  O17  1  0.427897  0.311222  0.242813  1
  O  O18  1  0.537030  0.810387  0.251823  1
  O  O19  1  0.927898  0.242813  0.311222  1
  O  O20  1  0.830047  0.477670  0.374535  1
  O  O21  1  0.107339  0.784789  0.439412  1
  O  O22  1  0.330047  0.374535  0.477670  1
  O  O23  1  0.276178  0.110422  0.507062  1
  O  O24  1  0.723822  0.889578  0.492938  1
  O  O25  1  0.669953  0.625465  0.522330  1
  O  O26  1  0.892661  0.215211  0.560588  1
  O  O27  1  0.169953  0.522330  0.625465  1
  O  O28  1  0.072102  0.757187  0.688778  1
  O  O29  1  0.462968  0.189613  0.748177  1
  O  O30  1  0.572103  0.688778  0.757187  1
  O  O31  1  0.607340  0.439413  0.784789  1
  O  O32  1  0.037031  0.251823  0.810387  1
  O  O33  1  0.083239  0.995740  0.847155  1
  O  O34  1  0.223821  0.492938  0.889578  1
  O  O35  1  0.583238  0.847155  0.995740  1
