# generated using pymatgen
data_Na2LiGaP2
_symmetry_space_group_name_H-M   'P 1'
_cell_length_a   9.00940623
_cell_length_b   9.00940659
_cell_length_c   5.74897500
_cell_angle_alpha   90.00000000
_cell_angle_beta   90.00000000
_cell_angle_gamma   98.69526233
_symmetry_Int_Tables_number   1
_chemical_formula_structural   Na2LiGaP2
_chemical_formula_sum   'Na8 Li4 Ga4 P8'
_cell_volume   461.27748561
_cell_formula_units_Z   4
loop_
 _symmetry_equiv_pos_site_id
 _symmetry_equiv_pos_as_xyz
  1  'x, y, z'
loop_
 _atom_site_type_symbol
 _atom_site_label
 _atom_site_symmetry_multiplicity
 _atom_site_fract_x
 _atom_site_fract_y
 _atom_site_fract_z
 _atom_site_occupancy
  Na  Na0  1  0.428534  0.071466  0.250000  1
  Na  Na1  1  0.071466  0.428534  0.750000  1
  Na  Na2  1  0.571466  0.928534  0.750000  1
  Na  Na3  1  0.323525  0.676475  0.279794  1
  Na  Na4  1  0.823525  0.176475  0.220206  1
  Na  Na5  1  0.676475  0.323525  0.720206  1
  Na  Na6  1  0.176475  0.823525  0.779794  1
  Na  Na7  1  0.928534  0.571466  0.250000  1
  Li  Li8  1  0.380712  0.380712  0.500000  1
  Li  Li9  1  0.119288  0.119288  0.000000  1
  Li  Li10  1  0.619288  0.619288  0.500000  1
  Li  Li11  1  0.880712  0.880712  0.000000  1
  Ga  Ga12  1  0.868516  0.868516  0.500000  1
  Ga  Ga13  1  0.131484  0.131484  0.500000  1
  Ga  Ga14  1  0.631484  0.631484  0.000000  1
  Ga  Ga15  1  0.368516  0.368516  0.000000  1
  P  P16  1  0.104796  0.895204  0.282607  1
  P  P17  1  0.604796  0.395204  0.217393  1
  P  P18  1  0.895204  0.104796  0.717393  1
  P  P19  1  0.395204  0.604796  0.782607  1
  P  P20  1  0.144965  0.355035  0.250000  1
  P  P21  1  0.355035  0.144965  0.750000  1
  P  P22  1  0.855035  0.644965  0.750000  1
  P  P23  1  0.644965  0.855035  0.250000  1
