# generated using pymatgen
data_Rb3Na2TiP3
_symmetry_space_group_name_H-M   'P 1'
_cell_length_a   10.60994964
_cell_length_b   10.60994956
_cell_length_c   15.44617800
_cell_angle_alpha   90.00000000
_cell_angle_beta   90.00000000
_cell_angle_gamma   142.62228178
_symmetry_Int_Tables_number   1
_chemical_formula_structural   Rb3Na2TiP3
_chemical_formula_sum   'Rb12 Na8 Ti4 P12'
_cell_volume   1055.56309521
_cell_formula_units_Z   4
loop_
 _symmetry_equiv_pos_site_id
 _symmetry_equiv_pos_as_xyz
  1  'x, y, z'
loop_
 _atom_site_type_symbol
 _atom_site_label
 _atom_site_symmetry_multiplicity
 _atom_site_fract_x
 _atom_site_fract_y
 _atom_site_fract_z
 _atom_site_occupancy
  Rb  Rb0  1  0.942321  0.606329  0.824988  1
  Rb  Rb1  1  0.557679  0.893671  0.324988  1
  Rb  Rb2  1  0.393671  0.057679  0.175012  1
  Rb  Rb3  1  0.057679  0.393671  0.175012  1
  Rb  Rb4  1  0.893671  0.557679  0.324988  1
  Rb  Rb5  1  0.442321  0.106329  0.675012  1
  Rb  Rb6  1  0.606329  0.942321  0.824988  1
  Rb  Rb7  1  0.272034  0.272034  0.317345  1
  Rb  Rb8  1  0.772034  0.772034  0.182655  1
  Rb  Rb9  1  0.227966  0.227966  0.817345  1
  Rb  Rb10  1  0.727966  0.727966  0.682655  1
  Rb  Rb11  1  0.106329  0.442321  0.675012  1
  Na  Na12  1  0.920393  0.079607  0.000000  1
  Na  Na13  1  0.579607  0.420393  0.500000  1
  Na  Na14  1  0.079607  0.920393  0.000000  1
  Na  Na15  1  0.420393  0.579607  0.500000  1
  Na  Na16  1  0.754796  0.245204  0.000000  1
  Na  Na17  1  0.745204  0.254796  0.500000  1
  Na  Na18  1  0.245204  0.754796  0.000000  1
  Na  Na19  1  0.254796  0.745204  0.500000  1
  Ti  Ti20  1  0.584045  0.415955  0.000000  1
  Ti  Ti21  1  0.915955  0.084045  0.500000  1
  Ti  Ti22  1  0.415955  0.584045  0.000000  1
  Ti  Ti23  1  0.084045  0.915955  0.500000  1
  P  P24  1  0.857550  0.552380  0.091670  1
  P  P25  1  0.447620  0.142450  0.908330  1
  P  P26  1  0.642450  0.947620  0.591670  1
  P  P27  1  0.947620  0.642450  0.591670  1
  P  P28  1  0.142450  0.447620  0.908330  1
  P  P29  1  0.552380  0.857550  0.091670  1
  P  P30  1  0.357550  0.052380  0.408330  1
  P  P31  1  0.189799  0.189799  0.581629  1
  P  P32  1  0.689799  0.689799  0.918371  1
  P  P33  1  0.310201  0.310201  0.081629  1
  P  P34  1  0.052380  0.357550  0.408330  1
  P  P35  1  0.810201  0.810201  0.418371  1
