# generated using pymatgen
data_Ho2Tm3In2Bi
_symmetry_space_group_name_H-M   'P 1'
_cell_length_a   6.57139200
_cell_length_b   8.94756970
_cell_length_c   8.91975406
_cell_angle_alpha   119.69192977
_cell_angle_beta   90.00019162
_cell_angle_gamma   89.99956612
_symmetry_Int_Tables_number   1
_chemical_formula_structural   Ho2Tm3In2Bi
_chemical_formula_sum   'Ho4 Tm6 In4 Bi2'
_cell_volume   455.60219950
_cell_formula_units_Z   2
loop_
 _symmetry_equiv_pos_site_id
 _symmetry_equiv_pos_as_xyz
  1  'x, y, z'
loop_
 _atom_site_type_symbol
 _atom_site_label
 _atom_site_symmetry_multiplicity
 _atom_site_fract_x
 _atom_site_fract_y
 _atom_site_fract_z
 _atom_site_occupancy
  Ho  Ho0  1  0.750004  0.228451  0.991159  1
  Ho  Ho1  1  0.749999  0.770743  0.760793  1
  Ho  Ho2  1  0.750006  0.000100  0.238398  1
  Ho  Ho3  1  0.249983  0.765556  0.000753  1
  Tm  Tm4  1  0.492371  0.328498  0.667255  1
  Tm  Tm5  1  0.492525  0.671266  0.338950  1
  Tm  Tm6  1  0.007471  0.671257  0.338939  1
  Tm  Tm7  1  0.007645  0.328503  0.667263  1
  Tm  Tm8  1  0.249993  0.234582  0.235002  1
  Tm  Tm9  1  0.250004  0.000514  0.763431  1
  In  In10  1  0.750004  0.000384  0.595120  1
  In  In11  1  0.250000  0.398071  0.003730  1
  In  In12  1  0.249994  0.600690  0.603581  1
  In  In13  1  0.249999  0.000641  0.398776  1
  Bi  Bi14  1  0.750002  0.603559  0.999948  1
  Bi  Bi15  1  0.749999  0.397185  0.396904  1
