# generated using pymatgen
data_Pr17Dy3Si15Rh
_symmetry_space_group_name_H-M   'P 1'
_cell_length_a   7.90393594
_cell_length_b   7.86590021
_cell_length_c   15.19778690
_cell_angle_alpha   90.09384359
_cell_angle_beta   89.73049523
_cell_angle_gamma   90.24969636
_symmetry_Int_Tables_number   1
_chemical_formula_structural   Pr17Dy3Si15Rh
_chemical_formula_sum   'Pr17 Dy3 Si15 Rh1'
_cell_volume   944.84963256
_cell_formula_units_Z   1
loop_
 _symmetry_equiv_pos_site_id
 _symmetry_equiv_pos_as_xyz
  1  'x, y, z'
loop_
 _atom_site_type_symbol
 _atom_site_label
 _atom_site_symmetry_multiplicity
 _atom_site_fract_x
 _atom_site_fract_y
 _atom_site_fract_z
 _atom_site_occupancy
  Pr  Pr0  1  0.694652  0.687753  0.500258  1
  Pr  Pr1  1  0.374093  0.010273  0.447989  1
  Pr  Pr2  1  0.489574  0.875614  0.699301  1
  Pr  Pr3  1  0.510489  0.124572  0.197261  1
  Pr  Pr4  1  0.875324  0.487272  0.299794  1
  Pr  Pr5  1  0.125173  0.505423  0.799653  1
  Pr  Pr6  1  0.626768  0.988771  0.948960  1
  Pr  Pr7  1  0.003157  0.375272  0.552160  1
  Pr  Pr8  1  0.988892  0.626328  0.051823  1
  Pr  Pr9  1  0.134856  0.985955  0.873428  1
  Pr  Pr10  1  0.517729  0.631475  0.125578  1
  Pr  Pr11  1  0.472387  0.362640  0.630096  1
  Pr  Pr12  1  0.628732  0.517138  0.874369  1
  Pr  Pr13  1  0.372490  0.481440  0.372522  1
  Pr  Pr14  1  0.873135  0.021037  0.376885  1
  Pr  Pr15  1  0.981347  0.127112  0.123412  1
  Pr  Pr16  1  0.026025  0.881614  0.625012  1
  Dy  Dy17  1  0.307643  0.308149  0.999024  1
  Dy  Dy18  1  0.188558  0.809485  0.250215  1
  Dy  Dy19  1  0.816870  0.188344  0.750323  1
  Si  Si20  1  0.330512  0.691757  0.952121  1
  Si  Si21  1  0.663702  0.303525  0.452858  1
  Si  Si22  1  0.694046  0.332554  0.048100  1
  Si  Si23  1  0.305483  0.668722  0.547186  1
  Si  Si24  1  0.809002  0.831010  0.203802  1
  Si  Si25  1  0.169540  0.192831  0.295771  1
  Si  Si26  1  0.832502  0.807094  0.797778  1
  Si  Si27  1  0.287203  0.924196  0.061176  1
  Si  Si28  1  0.574661  0.788068  0.309060  1
  Si  Si29  1  0.430851  0.208522  0.815334  1
  Si  Si30  1  0.784777  0.577397  0.691088  1
  Si  Si31  1  0.212952  0.424440  0.187207  1
  Si  Si32  1  0.706671  0.076244  0.562007  1
  Si  Si33  1  0.922236  0.286420  0.939388  1
  Si  Si34  1  0.082568  0.716794  0.437676  1
  Rh  Rh35  1  0.185396  0.174757  0.701387  1
