# generated using pymatgen
data_CeNd2SnRh3Pb2
_symmetry_space_group_name_H-M   'P 1'
_cell_length_a   7.80531600
_cell_length_b   7.74963215
_cell_length_c   3.98996700
_cell_angle_alpha   90.00000000
_cell_angle_beta   90.00000000
_cell_angle_gamma   120.23798417
_symmetry_Int_Tables_number   1
_chemical_formula_structural   CeNd2SnRh3Pb2
_chemical_formula_sum   'Ce1 Nd2 Sn1 Rh3 Pb2'
_cell_volume   208.50911041
_cell_formula_units_Z   1
loop_
 _symmetry_equiv_pos_site_id
 _symmetry_equiv_pos_as_xyz
  1  'x, y, z'
loop_
 _atom_site_type_symbol
 _atom_site_label
 _atom_site_symmetry_multiplicity
 _atom_site_fract_x
 _atom_site_fract_y
 _atom_site_fract_z
 _atom_site_occupancy
  Ce  Ce0  1  0.417150  0.000000  0.000000  1
  Nd  Nd1  1  0.993240  0.402698  0.000000  1
  Nd  Nd2  1  0.590542  0.597302  0.000000  1
  Sn  Sn3  1  0.750260  0.000000  0.500000  1
  Rh  Rh4  1  0.651091  0.302751  0.500000  1
  Rh  Rh5  1  0.348338  0.697249  0.500000  1
  Rh  Rh6  1  0.995522  0.000000  0.000000  1
  Pb  Pb7  1  0.258260  0.262660  0.500000  1
  Pb  Pb8  1  0.995599  0.737340  0.500000  1
