# generated using pymatgen
data_Y12CuNi4Pb
_symmetry_space_group_name_H-M   'P 1'
_cell_length_a   8.35071768
_cell_length_b   8.35071728
_cell_length_c   8.35071900
_cell_angle_alpha   112.40229333
_cell_angle_beta   109.42042113
_cell_angle_gamma   106.64228502
_symmetry_Int_Tables_number   1
_chemical_formula_structural   Y12CuNi4Pb
_chemical_formula_sum   'Y12 Cu1 Ni4 Pb1'
_cell_volume   447.14604509
_cell_formula_units_Z   1
loop_
 _symmetry_equiv_pos_site_id
 _symmetry_equiv_pos_as_xyz
  1  'x, y, z'
loop_
 _atom_site_type_symbol
 _atom_site_label
 _atom_site_symmetry_multiplicity
 _atom_site_fract_x
 _atom_site_fract_y
 _atom_site_fract_z
 _atom_site_occupancy
  Y  Y0  1  0.024207  0.718291  0.305916  1
  Y  Y1  1  0.975793  0.281709  0.694084  1
  Y  Y2  1  0.587625  0.281709  0.305916  1
  Y  Y3  1  0.412375  0.718291  0.694084  1
  Y  Y4  1  0.676728  0.868843  0.192115  1
  Y  Y5  1  0.323272  0.515386  0.192115  1
  Y  Y6  1  0.323272  0.131157  0.807885  1
  Y  Y7  1  0.676728  0.484614  0.807885  1
  Y  Y8  1  0.180190  0.207197  0.387387  1
  Y  Y9  1  0.819810  0.207197  0.027005  1
  Y  Y10  1  0.180190  0.792803  0.972995  1
  Y  Y11  1  0.819810  0.792803  0.612613  1
  Cu  Cu12  1  0.000000  0.500000  0.500000  1
  Ni  Ni13  1  0.641838  0.500000  0.141838  1
  Ni  Ni14  1  0.358162  0.500000  0.858162  1
  Ni  Ni15  1  0.875651  0.875651  0.000000  1
  Ni  Ni16  1  0.124349  0.124349  0.000000  1
  Pb  Pb17  1  0.500000  0.000000  0.500000  1
