# generated using pymatgen
data_Sc5Ta(SiTc)6
_symmetry_space_group_name_H-M   'P 1'
_cell_length_a   7.73262331
_cell_length_b   7.73127553
_cell_length_c   7.73262244
_cell_angle_alpha   126.49108610
_cell_angle_beta   127.97909837
_cell_angle_gamma   77.87737396
_symmetry_Int_Tables_number   1
_chemical_formula_structural   Sc5Ta(SiTc)6
_chemical_formula_sum   'Sc5 Ta1 Si6 Tc6'
_cell_volume   283.93713263
_cell_formula_units_Z   1
loop_
 _symmetry_equiv_pos_site_id
 _symmetry_equiv_pos_as_xyz
  1  'x, y, z'
loop_
 _atom_site_type_symbol
 _atom_site_label
 _atom_site_symmetry_multiplicity
 _atom_site_fract_x
 _atom_site_fract_y
 _atom_site_fract_z
 _atom_site_occupancy
  Sc  Sc0  1  0.944296  0.899139  0.454844  1
  Sc  Sc1  1  0.050883  0.497459  0.946575  1
  Sc  Sc2  1  0.554489  0.510502  0.456012  1
  Sc  Sc3  1  0.450117  0.897975  0.947858  1
  Sc  Sc4  1  0.749503  0.109094  0.859591  1
  Ta  Ta5  1  0.250678  0.109543  0.358865  1
  Si  Si6  1  0.749359  0.505657  0.256296  1
  Si  Si7  1  0.250506  0.501331  0.750824  1
  Si  Si8  1  0.656078  0.169214  0.493612  1
  Si  Si9  1  0.322168  0.837790  0.491431  1
  Si  Si10  1  0.175603  0.169214  0.013135  1
  Si  Si11  1  0.846359  0.837790  0.015623  1
  Tc  Tc12  1  0.492203  0.764430  0.256639  1
  Tc  Tc13  1  0.007791  0.764430  0.772227  1
  Tc  Tc14  1  0.874291  0.243146  0.373245  1
  Tc  Tc15  1  0.129030  0.498970  0.372224  1
  Tc  Tc16  1  0.369901  0.243146  0.868856  1
  Tc  Tc17  1  0.626745  0.498970  0.869940  1
