# generated using pymatgen
data_Zn22OsPt3
_symmetry_space_group_name_H-M   'P 1'
_cell_length_a   7.96162876
_cell_length_b   7.95377166
_cell_length_c   7.96162948
_cell_angle_alpha   109.45123985
_cell_angle_beta   109.49120773
_cell_angle_gamma   109.45123117
_symmetry_Int_Tables_number   1
_chemical_formula_structural   Zn22OsPt3
_chemical_formula_sum   'Zn22 Os1 Pt3'
_cell_volume   388.20588975
_cell_formula_units_Z   1
loop_
 _symmetry_equiv_pos_site_id
 _symmetry_equiv_pos_as_xyz
  1  'x, y, z'
loop_
 _atom_site_type_symbol
 _atom_site_label
 _atom_site_symmetry_multiplicity
 _atom_site_fract_x
 _atom_site_fract_y
 _atom_site_fract_z
 _atom_site_occupancy
  Zn  Zn0  1  0.732404  0.379160  0.732404  1
  Zn  Zn1  1  0.620536  0.348437  0.351161  1
  Zn  Zn2  1  0.351161  0.348437  0.620536  1
  Zn  Zn3  1  0.651331  0.269925  0.000000  1
  Zn  Zn4  1  0.209970  0.214580  0.209970  1
  Zn  Zn5  1  0.000000  0.004611  0.790030  1
  Zn  Zn6  1  0.790030  0.004611  0.000000  1
  Zn  Zn7  1  0.000000  0.776932  0.000000  1
  Zn  Zn8  1  0.357289  0.358485  0.000000  1
  Zn  Zn9  1  0.000000  0.648880  0.637772  1
  Zn  Zn10  1  0.000000  0.358485  0.357289  1
  Zn  Zn11  1  0.362228  0.011108  0.362228  1
  Zn  Zn12  1  0.642711  0.001197  0.642711  1
  Zn  Zn13  1  0.637772  0.648880  0.000000  1
  Zn  Zn14  1  0.348669  0.618595  0.348669  1
  Zn  Zn15  1  0.269374  0.997276  0.648839  1
  Zn  Zn16  1  0.648839  0.997276  0.269374  1
  Zn  Zn17  1  0.267596  0.646757  0.000000  1
  Zn  Zn18  1  0.730626  0.727902  0.379464  1
  Zn  Zn19  1  0.379464  0.727902  0.730626  1
  Zn  Zn20  1  0.000000  0.646757  0.267596  1
  Zn  Zn21  1  0.000000  0.269925  0.651331  1
  Os  Os22  1  0.000000  0.346853  0.000000  1
  Pt  Pt23  1  0.346374  0.997800  0.000000  1
  Pt  Pt24  1  0.000000  0.997800  0.346374  1
  Pt  Pt25  1  0.653626  0.651426  0.653626  1
