# generated using pymatgen
data_Ce12Mn3Al6IrRu2
_symmetry_space_group_name_H-M   'P 1'
_cell_length_a   7.79521548
_cell_length_b   7.81811654
_cell_length_c   9.65469185
_cell_angle_alpha   90.38753390
_cell_angle_beta   89.80565884
_cell_angle_gamma   120.09722455
_symmetry_Int_Tables_number   1
_chemical_formula_structural   Ce12Mn3Al6IrRu2
_chemical_formula_sum   'Ce12 Mn3 Al6 Ir1 Ru2'
_cell_volume   509.05307647
_cell_formula_units_Z   1
loop_
 _symmetry_equiv_pos_site_id
 _symmetry_equiv_pos_as_xyz
  1  'x, y, z'
loop_
 _atom_site_type_symbol
 _atom_site_label
 _atom_site_symmetry_multiplicity
 _atom_site_fract_x
 _atom_site_fract_y
 _atom_site_fract_z
 _atom_site_occupancy
  Ce  Ce0  1  0.000000  0.558561  0.492193  1
  Ce  Ce1  1  0.559218  0.001891  0.490641  1
  Ce  Ce2  1  0.440782  0.442673  0.490641  1
  Ce  Ce3  1  0.000000  0.402595  0.012832  1
  Ce  Ce4  1  0.414996  0.999643  0.006622  1
  Ce  Ce5  1  0.585004  0.584647  0.006622  1
  Ce  Ce6  1  0.000000  0.741376  0.180011  1
  Ce  Ce7  1  0.745667  0.998691  0.182255  1
  Ce  Ce8  1  0.254333  0.253024  0.182255  1
  Ce  Ce9  1  0.000000  0.260894  0.674877  1
  Ce  Ce10  1  0.267102  0.006099  0.672215  1
  Ce  Ce11  1  0.732898  0.738997  0.672215  1
  Mn  Mn12  1  0.000000  0.352597  0.343203  1
  Mn  Mn13  1  0.352419  0.999827  0.341208  1
  Mn  Mn14  1  0.647581  0.647408  0.341208  1
  Al  Al15  1  0.666587  0.332642  0.264313  1
  Al  Al16  1  0.333413  0.666056  0.264313  1
  Al  Al17  1  0.328940  0.666813  0.771402  1
  Al  Al18  1  0.671060  0.337872  0.771402  1
  Al  Al19  1  0.000000  0.998787  0.425511  1
  Al  Al20  1  0.000000  0.998614  0.923047  1
  Ir  Ir21  1  0.000000  0.666799  0.838336  1
  Ru  Ru22  1  0.658622  0.001058  0.840960  1
  Ru  Ru23  1  0.341378  0.342436  0.840960  1
