# generated using pymatgen
data_Er8Sc2Ga3Bi2Pt
_symmetry_space_group_name_H-M   'P 1'
_cell_length_a   8.62829849
_cell_length_b   8.62829865
_cell_length_c   8.49827583
_cell_angle_alpha   124.84111137
_cell_angle_beta   124.84112341
_cell_angle_gamma   82.79687743
_symmetry_Int_Tables_number   1
_chemical_formula_structural   Er8Sc2Ga3Bi2Pt
_chemical_formula_sum   'Er8 Sc2 Ga3 Bi2 Pt1'
_cell_volume   406.76372300
_cell_formula_units_Z   1
loop_
 _symmetry_equiv_pos_site_id
 _symmetry_equiv_pos_as_xyz
  1  'x, y, z'
loop_
 _atom_site_type_symbol
 _atom_site_label
 _atom_site_symmetry_multiplicity
 _atom_site_fract_x
 _atom_site_fract_y
 _atom_site_fract_z
 _atom_site_occupancy
  Er  Er0  1  0.794590  0.294590  0.809175  1
  Er  Er1  1  0.297040  0.496039  0.512006  1
  Er  Er2  1  0.996039  0.797040  0.512006  1
  Er  Er3  1  0.714966  0.515966  0.512006  1
  Er  Er4  1  0.015966  0.214966  0.512006  1
  Er  Er5  1  0.514585  0.014585  0.809175  1
  Er  Er6  1  0.199427  0.699427  0.167445  1
  Er  Er7  1  0.468018  0.968018  0.167445  1
  Sc  Sc8  1  0.997880  0.004600  0.002480  1
  Sc  Sc9  1  0.504600  0.497880  0.002480  1
  Ga  Ga10  1  0.858914  0.358914  0.217827  1
  Ga  Ga11  1  0.352512  0.147349  0.499862  1
  Ga  Ga12  1  0.647349  0.852512  0.499862  1
  Bi  Bi13  1  0.254048  0.254048  0.008095  1
  Bi  Bi14  1  0.754048  0.754048  0.008095  1
  Pt  Pt15  1  0.130018  0.630018  0.760035  1
