# generated using pymatgen
data_Tb12Y3Th(CdPt)4
_symmetry_space_group_name_H-M   'P 1'
_cell_length_a   9.74410259
_cell_length_b   9.73590089
_cell_length_c   9.74108739
_cell_angle_alpha   60.20131722
_cell_angle_beta   60.20369912
_cell_angle_gamma   60.22000025
_symmetry_Int_Tables_number   1
_chemical_formula_structural   Tb12Y3Th(CdPt)4
_chemical_formula_sum   'Tb12 Y3 Th1 Cd4 Pt4'
_cell_volume   656.52957627
_cell_formula_units_Z   1
loop_
 _symmetry_equiv_pos_site_id
 _symmetry_equiv_pos_as_xyz
  1  'x, y, z'
loop_
 _atom_site_type_symbol
 _atom_site_label
 _atom_site_symmetry_multiplicity
 _atom_site_fract_x
 _atom_site_fract_y
 _atom_site_fract_z
 _atom_site_occupancy
  Tb  Tb0  1  0.353462  0.352996  0.940113  1
  Tb  Tb1  1  0.353530  0.940248  0.352985  1
  Tb  Tb2  1  0.940229  0.353639  0.353511  1
  Tb  Tb3  1  0.812212  0.189582  0.189421  1
  Tb  Tb4  1  0.190610  0.810604  0.810487  1
  Tb  Tb5  1  0.189514  0.812281  0.189402  1
  Tb  Tb6  1  0.810500  0.190625  0.810497  1
  Tb  Tb7  1  0.189387  0.189482  0.812399  1
  Tb  Tb8  1  0.810591  0.810640  0.190606  1
  Tb  Tb9  1  0.936651  0.566089  0.566055  1
  Tb  Tb10  1  0.564308  0.936386  0.936598  1
  Tb  Tb11  1  0.566154  0.936199  0.566405  1
  Y  Y12  1  0.936283  0.564312  0.936347  1
  Y  Y13  1  0.565877  0.566115  0.936384  1
  Y  Y14  1  0.936301  0.936074  0.564468  1
  Th  Th15  1  0.348783  0.348955  0.349235  1
  Cd  Cd16  1  0.581457  0.581523  0.581674  1
  Cd  Cd17  1  0.582297  0.582108  0.252888  1
  Cd  Cd18  1  0.582367  0.253204  0.581994  1
  Cd  Cd19  1  0.253094  0.582396  0.582239  1
  Pt  Pt20  1  0.144130  0.144028  0.144105  1
  Pt  Pt21  1  0.141108  0.141275  0.569912  1
  Pt  Pt22  1  0.141368  0.569793  0.141187  1
  Pt  Pt23  1  0.569785  0.141446  0.141087  1
