# generated using pymatgen
data_Ca5Si3As9Rh19
_symmetry_space_group_name_H-M   'P 1'
_cell_length_a   13.14401900
_cell_length_b   13.14401880
_cell_length_c   3.99256400
_cell_angle_alpha   90.00000000
_cell_angle_beta   90.00000000
_cell_angle_gamma   119.99999295
_symmetry_Int_Tables_number   1
_chemical_formula_structural   Ca5Si3As9Rh19
_chemical_formula_sum   'Ca5 Si3 As9 Rh19'
_cell_volume   597.36379723
_cell_formula_units_Z   1
loop_
 _symmetry_equiv_pos_site_id
 _symmetry_equiv_pos_as_xyz
  1  'x, y, z'
loop_
 _atom_site_type_symbol
 _atom_site_label
 _atom_site_symmetry_multiplicity
 _atom_site_fract_x
 _atom_site_fract_y
 _atom_site_fract_z
 _atom_site_occupancy
  Ca  Ca0  1  0.997247  0.184009  0.500000  1
  Ca  Ca1  1  0.815991  0.813237  0.500000  1
  Ca  Ca2  1  0.186763  0.002753  0.500000  1
  Ca  Ca3  1  0.666667  0.333333  0.000000  1
  Ca  Ca4  1  0.333333  0.666667  0.000000  1
  Si  Si5  1  0.481330  0.320486  0.500000  1
  Si  Si6  1  0.679514  0.160844  0.500000  1
  Si  Si7  1  0.839156  0.518670  0.500000  1
  As  As8  1  0.818171  0.999027  0.000000  1
  As  As9  1  0.180855  0.181829  0.000000  1
  As  As10  1  0.000973  0.819145  0.000000  1
  As  As11  1  0.368127  0.004144  0.000000  1
  As  As12  1  0.515603  0.830160  0.500000  1
  As  As13  1  0.169840  0.685443  0.500000  1
  As  As14  1  0.314557  0.484397  0.500000  1
  As  As15  1  0.995856  0.363982  0.000000  1
  As  As16  1  0.636018  0.631873  0.000000  1
  Rh  Rh17  1  0.801246  0.179349  0.000000  1
  Rh  Rh18  1  0.378103  0.198754  0.000000  1
  Rh  Rh19  1  0.648934  0.511495  0.500000  1
  Rh  Rh20  1  0.862560  0.351066  0.500000  1
  Rh  Rh21  1  0.361117  0.879097  0.500000  1
  Rh  Rh22  1  0.517980  0.638883  0.500000  1
  Rh  Rh23  1  0.120903  0.482020  0.500000  1
  Rh  Rh24  1  0.820651  0.621897  0.000000  1
  Rh  Rh25  1  0.620872  0.818822  0.000000  1
  Rh  Rh26  1  0.181178  0.802050  0.000000  1
  Rh  Rh27  1  0.197950  0.379128  0.000000  1
  Rh  Rh28  1  0.000345  0.713610  0.500000  1
  Rh  Rh29  1  0.286390  0.286735  0.500000  1
  Rh  Rh30  1  0.713265  0.999655  0.500000  1
  Rh  Rh31  1  0.979894  0.539343  0.000000  1
  Rh  Rh32  1  0.460657  0.440551  0.000000  1
  Rh  Rh33  1  0.559449  0.020106  0.000000  1
  Rh  Rh34  1  0.000000  0.000000  0.000000  1
  Rh  Rh35  1  0.488505  0.137440  0.500000  1
