# generated using pymatgen
data_Pr6Nd10Cd4IrPt3
_symmetry_space_group_name_H-M   'P 1'
_cell_length_a   10.06030502
_cell_length_b   10.04553482
_cell_length_c   10.04556000
_cell_angle_alpha   60.00001626
_cell_angle_beta   60.04846619
_cell_angle_gamma   60.04849176
_symmetry_Int_Tables_number   1
_chemical_formula_structural   Pr6Nd10Cd4IrPt3
_chemical_formula_sum   'Pr6 Nd10 Cd4 Ir1 Pt3'
_cell_volume   718.39163097
_cell_formula_units_Z   1
loop_
 _symmetry_equiv_pos_site_id
 _symmetry_equiv_pos_as_xyz
  1  'x, y, z'
loop_
 _atom_site_type_symbol
 _atom_site_label
 _atom_site_symmetry_multiplicity
 _atom_site_fract_x
 _atom_site_fract_y
 _atom_site_fract_z
 _atom_site_occupancy
  Pr  Pr0  1  0.937181  0.563677  0.563677  1
  Pr  Pr1  1  0.564298  0.936973  0.936974  1
  Pr  Pr2  1  0.564298  0.936974  0.561754  1
  Pr  Pr3  1  0.937180  0.563677  0.935465  1
  Pr  Pr4  1  0.564297  0.561754  0.936974  1
  Pr  Pr5  1  0.937181  0.935464  0.563678  1
  Nd  Nd6  1  0.351424  0.347020  0.347019  1
  Nd  Nd7  1  0.351424  0.347020  0.954536  1
  Nd  Nd8  1  0.351424  0.954536  0.347020  1
  Nd  Nd9  1  0.950017  0.349994  0.349993  1
  Nd  Nd10  1  0.806108  0.190213  0.190213  1
  Nd  Nd11  1  0.192212  0.808773  0.808773  1
  Nd  Nd12  1  0.192212  0.808773  0.190243  1
  Nd  Nd13  1  0.806108  0.190213  0.813467  1
  Nd  Nd14  1  0.192212  0.190243  0.808773  1
  Nd  Nd15  1  0.806108  0.813466  0.190212  1
  Cd  Cd16  1  0.579375  0.579603  0.579603  1
  Cd  Cd17  1  0.579375  0.579603  0.261417  1
  Cd  Cd18  1  0.579374  0.261418  0.579603  1
  Cd  Cd19  1  0.261402  0.579532  0.579532  1
  Ir  Ir20  1  0.573216  0.142261  0.142261  1
  Pt  Pt21  1  0.141190  0.143031  0.143031  1
  Pt  Pt22  1  0.141190  0.143031  0.572747  1
  Pt  Pt23  1  0.141190  0.572748  0.143032  1
