# generated using pymatgen
data_Tb8Ho8Cd4CoRuRh2
_symmetry_space_group_name_H-M   'P 1'
_cell_length_a   9.63066243
_cell_length_b   9.62539316
_cell_length_c   9.58528500
_cell_angle_alpha   59.53825373
_cell_angle_beta   59.55462618
_cell_angle_gamma   59.70708482
_symmetry_Int_Tables_number   1
_chemical_formula_structural   Tb8Ho8Cd4CoRuRh2
_chemical_formula_sum   'Tb8 Ho8 Cd4 Co1 Ru1 Rh2'
_cell_volume   622.58086373
_cell_formula_units_Z   1
loop_
 _symmetry_equiv_pos_site_id
 _symmetry_equiv_pos_as_xyz
  1  'x, y, z'
loop_
 _atom_site_type_symbol
 _atom_site_label
 _atom_site_symmetry_multiplicity
 _atom_site_fract_x
 _atom_site_fract_y
 _atom_site_fract_z
 _atom_site_occupancy
  Tb  Tb0  1  0.937362  0.937549  0.561858  1
  Tb  Tb1  1  0.810099  0.189911  0.187636  1
  Tb  Tb2  1  0.937590  0.565101  0.560369  1
  Tb  Tb3  1  0.939087  0.562477  0.939212  1
  Tb  Tb4  1  0.813373  0.809366  0.184871  1
  Tb  Tb5  1  0.342872  0.345641  0.353352  1
  Tb  Tb6  1  0.561345  0.938095  0.938592  1
  Tb  Tb7  1  0.564040  0.936969  0.563442  1
  Ho  Ho8  1  0.188191  0.815371  0.807193  1
  Ho  Ho9  1  0.188097  0.187227  0.805393  1
  Ho  Ho10  1  0.348317  0.350014  0.954387  1
  Ho  Ho11  1  0.344228  0.958808  0.355672  1
  Ho  Ho12  1  0.816692  0.188876  0.804349  1
  Ho  Ho13  1  0.559367  0.563291  0.939030  1
  Ho  Ho14  1  0.190181  0.808627  0.186885  1
  Ho  Ho15  1  0.959890  0.344773  0.354467  1
  Cd  Cd16  1  0.579989  0.580369  0.257467  1
  Cd  Cd17  1  0.257630  0.580852  0.580116  1
  Cd  Cd18  1  0.580013  0.579952  0.580308  1
  Cd  Cd19  1  0.580573  0.258046  0.580272  1
  Co  Co20  1  0.141278  0.140646  0.578487  1
  Ru  Ru21  1  0.142540  0.576098  0.142102  1
  Rh  Rh22  1  0.575482  0.142068  0.141939  1
  Rh  Rh23  1  0.141765  0.139879  0.142604  1
