# generated using pymatgen
data_Tm4Mg3Co6P12Rh11
_symmetry_space_group_name_H-M   'P 1'
_cell_length_a   3.79017700
_cell_length_b   10.73457237
_cell_length_c   12.52240216
_cell_angle_alpha   90.40991083
_cell_angle_beta   90.00000000
_cell_angle_gamma   90.00000000
_symmetry_Int_Tables_number   1
_chemical_formula_structural   Tm4Mg3Co6P12Rh11
_chemical_formula_sum   'Tm4 Mg3 Co6 P12 Rh11'
_cell_volume   509.47253071
_cell_formula_units_Z   1
loop_
 _symmetry_equiv_pos_site_id
 _symmetry_equiv_pos_as_xyz
  1  'x, y, z'
loop_
 _atom_site_type_symbol
 _atom_site_label
 _atom_site_symmetry_multiplicity
 _atom_site_fract_x
 _atom_site_fract_y
 _atom_site_fract_z
 _atom_site_occupancy
  Tm  Tm0  1  0.250000  0.577902  0.711694  1
  Tm  Tm1  1  0.250000  0.921075  0.212578  1
  Tm  Tm2  1  0.750000  0.417393  0.291606  1
  Tm  Tm3  1  0.750000  0.083973  0.790861  1
  Mg  Mg4  1  0.250000  0.703760  0.986443  1
  Mg  Mg5  1  0.750000  0.291065  0.009618  1
  Mg  Mg6  1  0.750000  0.209748  0.508764  1
  Co  Co7  1  0.750000  0.114409  0.304999  1
  Co  Co8  1  0.750000  0.381293  0.805024  1
  Co  Co9  1  0.250000  0.463189  0.934918  1
  Co  Co10  1  0.250000  0.037137  0.434060  1
  Co  Co11  1  0.750000  0.534038  0.065960  1
  Co  Co12  1  0.750000  0.964857  0.562656  1
  P  P13  1  0.250000  0.425228  0.112248  1
  P  P14  1  0.250000  0.074754  0.609731  1
  P  P15  1  0.750000  0.565391  0.885601  1
  P  P16  1  0.750000  0.932992  0.388994  1
  P  P17  1  0.250000  0.273976  0.859516  1
  P  P18  1  0.250000  0.225704  0.359692  1
  P  P19  1  0.750000  0.733197  0.137915  1
  P  P20  1  0.750000  0.769999  0.630073  1
  P  P21  1  0.250000  0.597637  0.391970  1
  P  P22  1  0.250000  0.906775  0.884315  1
  P  P23  1  0.750000  0.409083  0.623264  1
  P  P24  1  0.750000  0.090743  0.122436  1
  Rh  Rh25  1  0.250000  0.790682  0.486670  1
  Rh  Rh26  1  0.250000  0.402568  0.475080  1
  Rh  Rh27  1  0.250000  0.098447  0.973963  1
  Rh  Rh28  1  0.750000  0.593605  0.522638  1
  Rh  Rh29  1  0.750000  0.903501  0.021951  1
  Rh  Rh30  1  0.250000  0.219199  0.175337  1
  Rh  Rh31  1  0.250000  0.278509  0.674418  1
  Rh  Rh32  1  0.750000  0.771311  0.822310  1
  Rh  Rh33  1  0.750000  0.732244  0.325930  1
  Rh  Rh34  1  0.250000  0.886956  0.696159  1
  Rh  Rh35  1  0.250000  0.617658  0.200610  1
