# generated using pymatgen
data_KCeHoSe6
_symmetry_space_group_name_H-M   'P 1'
_cell_length_a   11.78737163
_cell_length_b   11.78737197
_cell_length_c   11.78737100
_cell_angle_alpha   159.32254001
_cell_angle_beta   152.19536570
_cell_angle_gamma   34.90256450
_symmetry_Int_Tables_number   1
_chemical_formula_structural   KCeHoSe6
_chemical_formula_sum   'K1 Ce1 Ho1 Se6'
_cell_volume   269.47999971
_cell_formula_units_Z   1
loop_
 _symmetry_equiv_pos_site_id
 _symmetry_equiv_pos_as_xyz
  1  'x, y, z'
loop_
 _atom_site_type_symbol
 _atom_site_label
 _atom_site_symmetry_multiplicity
 _atom_site_fract_x
 _atom_site_fract_y
 _atom_site_fract_z
 _atom_site_occupancy
  K  K0  1  0.995671  0.995671  0.000000  1
  Ce  Ce1  1  0.688264  0.188264  0.500000  1
  Ho  Ho2  1  0.315805  0.815805  0.500000  1
  Se  Se3  1  0.178412  0.392328  0.786085  1
  Se  Se4  1  0.224936  0.224936  0.000000  1
  Se  Se5  1  0.396797  0.607879  0.788920  1
  Se  Se6  1  0.606244  0.392328  0.213915  1
  Se  Se7  1  0.818960  0.607879  0.211080  1
  Se  Se8  1  0.774911  0.774911  0.000000  1
