# generated using pymatgen
data_Ho2ThAs4Pd7
_symmetry_space_group_name_H-M   'P 1'
_cell_length_a   8.16278348
_cell_length_b   8.16278507
_cell_length_c   9.71731000
_cell_angle_alpha   55.51263751
_cell_angle_beta   55.51263134
_cell_angle_gamma   29.34120736
_symmetry_Int_Tables_number   1
_chemical_formula_structural   Ho2ThAs4Pd7
_chemical_formula_sum   'Ho2 Th1 As4 Pd7'
_cell_volume   257.24523809
_cell_formula_units_Z   1
loop_
 _symmetry_equiv_pos_site_id
 _symmetry_equiv_pos_as_xyz
  1  'x, y, z'
loop_
 _atom_site_type_symbol
 _atom_site_label
 _atom_site_symmetry_multiplicity
 _atom_site_fract_x
 _atom_site_fract_y
 _atom_site_fract_z
 _atom_site_occupancy
  Ho  Ho0  1  0.676439  0.676439  0.330818  1
  Ho  Ho1  1  0.323561  0.323561  0.669182  1
  Th  Th2  1  0.000000  0.000000  0.000000  1
  As  As3  1  0.338603  0.338603  0.253408  1
  As  As4  1  0.661397  0.661397  0.746592  1
  As  As5  1  0.892428  0.892428  0.820434  1
  As  As6  1  0.107572  0.107572  0.179566  1
  Pd  Pd7  1  0.307070  0.307070  0.024217  1
  Pd  Pd8  1  0.692930  0.692930  0.975783  1
  Pd  Pd9  1  0.512302  0.512302  0.705481  1
  Pd  Pd10  1  0.833920  0.833920  0.428922  1
  Pd  Pd11  1  0.487698  0.487698  0.294519  1
  Pd  Pd12  1  0.166080  0.166080  0.571078  1
  Pd  Pd13  1  0.000000  0.000000  0.500000  1
