# generated using pymatgen
data_SrEu(Si3Ni5)2
_symmetry_space_group_name_H-M   'P 1'
_cell_length_a   6.20010603
_cell_length_b   6.20010687
_cell_length_c   11.79228700
_cell_angle_alpha   90.00000000
_cell_angle_beta   90.00000000
_cell_angle_gamma   145.34854275
_symmetry_Int_Tables_number   1
_chemical_formula_structural   SrEu(Si3Ni5)2
_chemical_formula_sum   'Sr1 Eu1 Si6 Ni10'
_cell_volume   257.74487012
_cell_formula_units_Z   1
loop_
 _symmetry_equiv_pos_site_id
 _symmetry_equiv_pos_as_xyz
  1  'x, y, z'
loop_
 _atom_site_type_symbol
 _atom_site_label
 _atom_site_symmetry_multiplicity
 _atom_site_fract_x
 _atom_site_fract_y
 _atom_site_fract_z
 _atom_site_occupancy
  Sr  Sr0  1  0.835147  0.164853  0.750000  1
  Eu  Eu1  1  0.163420  0.836580  0.250000  1
  Si  Si2  1  0.891204  0.108796  0.250000  1
  Si  Si3  1  0.106731  0.893269  0.750000  1
  Si  Si4  1  0.383028  0.616972  0.964617  1
  Si  Si5  1  0.617291  0.382709  0.038423  1
  Si  Si6  1  0.617291  0.382709  0.461577  1
  Si  Si7  1  0.383028  0.616972  0.535383  1
  Ni  Ni8  1  0.449026  0.550974  0.354372  1
  Ni  Ni9  1  0.449026  0.550974  0.145628  1
  Ni  Ni10  1  0.804523  0.195477  0.066483  1
  Ni  Ni11  1  0.195408  0.804592  0.936326  1
  Ni  Ni12  1  0.195408  0.804592  0.563674  1
  Ni  Ni13  1  0.804523  0.195477  0.433517  1
  Ni  Ni14  1  0.000163  0.999837  0.499207  1
  Ni  Ni15  1  0.000163  0.999837  0.000793  1
  Ni  Ni16  1  0.552310  0.447690  0.855820  1
  Ni  Ni17  1  0.552310  0.447690  0.644180  1
