# generated using pymatgen
data_CsNdTa6Cl18
_symmetry_space_group_name_H-M   'P 1'
_cell_length_a   10.35208635
_cell_length_b   10.35208603
_cell_length_c   10.35208600
_cell_angle_alpha   55.36591145
_cell_angle_beta   55.36591265
_cell_angle_gamma   55.36591016
_symmetry_Int_Tables_number   1
_chemical_formula_structural   CsNdTa6Cl18
_chemical_formula_sum   'Cs1 Nd1 Ta6 Cl18'
_cell_volume   700.00395936
_cell_formula_units_Z   1
loop_
 _symmetry_equiv_pos_site_id
 _symmetry_equiv_pos_as_xyz
  1  'x, y, z'
loop_
 _atom_site_type_symbol
 _atom_site_label
 _atom_site_symmetry_multiplicity
 _atom_site_fract_x
 _atom_site_fract_y
 _atom_site_fract_z
 _atom_site_occupancy
  Cs  Cs0  1  0.223124  0.223124  0.223124  1
  Nd  Nd1  1  0.498288  0.498288  0.498288  1
  Ta  Ta2  1  0.805900  0.145321  0.913972  1
  Ta  Ta3  1  0.913972  0.805900  0.145321  1
  Ta  Ta4  1  0.145321  0.913972  0.805900  1
  Ta  Ta5  1  0.195256  0.855037  0.084666  1
  Ta  Ta6  1  0.084666  0.195256  0.855037  1
  Ta  Ta7  1  0.855037  0.084666  0.195256  1
  Cl  Cl8  1  0.866811  0.406598  0.728932  1
  Cl  Cl9  1  0.728932  0.866811  0.406598  1
  Cl  Cl10  1  0.406598  0.728932  0.866811  1
  Cl  Cl11  1  0.132226  0.593746  0.273173  1
  Cl  Cl12  1  0.273173  0.132226  0.593746  1
  Cl  Cl13  1  0.593746  0.273173  0.132226  1
  Cl  Cl14  1  0.547632  0.334192  0.802653  1
  Cl  Cl15  1  0.802653  0.547632  0.334192  1
  Cl  Cl16  1  0.334192  0.802653  0.547632  1
  Cl  Cl17  1  0.450203  0.668431  0.197858  1
  Cl  Cl18  1  0.197858  0.450203  0.668431  1
  Cl  Cl19  1  0.668431  0.197858  0.450203  1
  Cl  Cl20  1  0.666714  0.940092  0.069479  1
  Cl  Cl21  1  0.069479  0.666714  0.940092  1
  Cl  Cl22  1  0.940092  0.069479  0.666714  1
  Cl  Cl23  1  0.336406  0.058642  0.925783  1
  Cl  Cl24  1  0.925783  0.336406  0.058642  1
  Cl  Cl25  1  0.058642  0.925783  0.336406  1
