# generated using pymatgen
data_Mg2Ag4SnPtO8
_symmetry_space_group_name_H-M   'P 1'
_cell_length_a   5.45445728
_cell_length_b   7.30036777
_cell_length_c   6.35423900
_cell_angle_alpha   115.81466510
_cell_angle_beta   89.99953168
_cell_angle_gamma   104.55780896
_symmetry_Int_Tables_number   1
_chemical_formula_structural   Mg2Ag4SnPtO8
_chemical_formula_sum   'Mg2 Ag4 Sn1 Pt1 O8'
_cell_volume   218.71409256
_cell_formula_units_Z   1
loop_
 _symmetry_equiv_pos_site_id
 _symmetry_equiv_pos_as_xyz
  1  'x, y, z'
loop_
 _atom_site_type_symbol
 _atom_site_label
 _atom_site_symmetry_multiplicity
 _atom_site_fract_x
 _atom_site_fract_y
 _atom_site_fract_z
 _atom_site_occupancy
  Mg  Mg0  1  0.500004  0.500008  0.745685  1
  Mg  Mg1  1  0.500000  0.499997  0.254317  1
  Ag  Ag2  1  0.000031  0.999999  0.499948  1
  Ag  Ag3  1  0.999970  0.999999  0.000052  1
  Ag  Ag4  1  0.502566  0.001123  0.250614  1
  Ag  Ag5  1  0.497432  0.998874  0.749385  1
  Sn  Sn6  1  0.999996  0.499991  0.999994  1
  Pt  Pt7  1  0.000004  0.500009  0.500006  1
  O  O8  1  0.381306  0.664600  0.582347  1
  O  O9  1  0.383404  0.663765  0.081940  1
  O  O10  1  0.618699  0.335407  0.417654  1
  O  O11  1  0.616589  0.336227  0.918058  1
  O  O12  1  0.893496  0.664135  0.340361  1
  O  O13  1  0.893503  0.664136  0.823854  1
  O  O14  1  0.106506  0.335865  0.659625  1
  O  O15  1  0.106494  0.335865  0.176161  1
