# generated using pymatgen
data_SmHo4In4PdPt
_symmetry_space_group_name_H-M   'P 1'
_cell_length_a   3.61974400
_cell_length_b   8.17756574
_cell_length_c   18.32341600
_cell_angle_alpha   90.12018537
_cell_angle_beta   90.00000000
_cell_angle_gamma   90.00000000
_symmetry_Int_Tables_number   1
_chemical_formula_structural   SmHo4In4PdPt
_chemical_formula_sum   'Sm2 Ho8 In8 Pd2 Pt2'
_cell_volume   542.38464634
_cell_formula_units_Z   2
loop_
 _symmetry_equiv_pos_site_id
 _symmetry_equiv_pos_as_xyz
  1  'x, y, z'
loop_
 _atom_site_type_symbol
 _atom_site_label
 _atom_site_symmetry_multiplicity
 _atom_site_fract_x
 _atom_site_fract_y
 _atom_site_fract_z
 _atom_site_occupancy
  Sm  Sm0  1  0.000000  0.000000  0.000000  1
  Sm  Sm1  1  0.000000  0.500000  0.500000  1
  Ho  Ho2  1  0.000000  0.118696  0.415424  1
  Ho  Ho3  1  0.000000  0.881304  0.584576  1
  Ho  Ho4  1  0.000000  0.382293  0.914702  1
  Ho  Ho5  1  0.000000  0.617707  0.085298  1
  Ho  Ho6  1  0.000000  0.246518  0.219148  1
  Ho  Ho7  1  0.000000  0.753482  0.780852  1
  Ho  Ho8  1  0.000000  0.261342  0.720362  1
  Ho  Ho9  1  0.000000  0.738658  0.279638  1
  In  In10  1  0.500000  0.420848  0.349849  1
  In  In11  1  0.500000  0.579152  0.650151  1
  In  In12  1  0.500000  0.076327  0.848831  1
  In  In13  1  0.500000  0.923673  0.151169  1
  In  In14  1  0.500000  0.295500  0.067091  1
  In  In15  1  0.500000  0.704500  0.932909  1
  In  In16  1  0.500000  0.203484  0.567932  1
  In  In17  1  0.500000  0.796516  0.432068  1
  Pd  Pd18  1  0.500000  0.024299  0.303738  1
  Pd  Pd19  1  0.500000  0.975701  0.696262  1
  Pt  Pt20  1  0.500000  0.475335  0.803444  1
  Pt  Pt21  1  0.500000  0.524665  0.196556  1
