# generated using pymatgen
data_CaSm3RuRh3O14
_symmetry_space_group_name_H-M   'P 1'
_cell_length_a   7.31980983
_cell_length_b   7.25818341
_cell_length_c   7.35135522
_cell_angle_alpha   59.93683253
_cell_angle_beta   60.14185028
_cell_angle_gamma   59.71874389
_symmetry_Int_Tables_number   1
_chemical_formula_structural   CaSm3RuRh3O14
_chemical_formula_sum   'Ca1 Sm3 Ru1 Rh3 O14'
_cell_volume   275.74179946
_cell_formula_units_Z   1
loop_
 _symmetry_equiv_pos_site_id
 _symmetry_equiv_pos_as_xyz
  1  'x, y, z'
loop_
 _atom_site_type_symbol
 _atom_site_label
 _atom_site_symmetry_multiplicity
 _atom_site_fract_x
 _atom_site_fract_y
 _atom_site_fract_z
 _atom_site_occupancy
  Ca  Ca0  1  0.625000  0.125000  0.625000  1
  Sm  Sm1  1  0.625000  0.625000  0.125000  1
  Sm  Sm2  1  0.125000  0.625000  0.625000  1
  Sm  Sm3  1  0.625000  0.625000  0.625000  1
  Ru  Ru4  1  0.125000  0.125000  0.625000  1
  Rh  Rh5  1  0.625000  0.125000  0.125000  1
  Rh  Rh6  1  0.125000  0.625000  0.125000  1
  Rh  Rh7  1  0.125000  0.125000  0.125000  1
  O  O8  1  0.196271  0.203389  0.796633  1
  O  O9  1  0.206111  0.789189  0.213427  1
  O  O10  1  0.456075  0.045389  0.042462  1
  O  O11  1  0.204519  0.796769  0.794192  1
  O  O12  1  0.045481  0.453231  0.455808  1
  O  O13  1  0.791272  0.789189  0.213427  1
  O  O14  1  0.458728  0.460811  0.036573  1
  O  O15  1  0.499825  0.499863  0.500486  1
  O  O16  1  0.053729  0.046611  0.453367  1
  O  O17  1  0.446293  0.046611  0.453367  1
  O  O18  1  0.043889  0.460811  0.036573  1
  O  O19  1  0.750175  0.750137  0.749514  1
  O  O20  1  0.803707  0.203389  0.796633  1
  O  O21  1  0.793925  0.204611  0.207538  1
