# generated using pymatgen
data_CaYb3Al18GaIr5
_symmetry_space_group_name_H-M   'P 1'
_cell_length_a   7.59773968
_cell_length_b   7.59856134
_cell_length_c   9.59899536
_cell_angle_alpha   90.07236965
_cell_angle_beta   90.08457232
_cell_angle_gamma   119.65642153
_symmetry_Int_Tables_number   1
_chemical_formula_structural   CaYb3Al18GaIr5
_chemical_formula_sum   'Ca1 Yb3 Al18 Ga1 Ir5'
_cell_volume   481.57482442
_cell_formula_units_Z   1
loop_
 _symmetry_equiv_pos_site_id
 _symmetry_equiv_pos_as_xyz
  1  'x, y, z'
loop_
 _atom_site_type_symbol
 _atom_site_label
 _atom_site_symmetry_multiplicity
 _atom_site_fract_x
 _atom_site_fract_y
 _atom_site_fract_z
 _atom_site_occupancy
  Ca  Ca0  1  0.997193  0.674717  0.250662  1
  Yb  Yb1  1  0.002787  0.325218  0.749429  1
  Yb  Yb2  1  0.674834  0.997271  0.250575  1
  Yb  Yb3  1  0.325148  0.002757  0.749424  1
  Al  Al4  1  0.139244  0.139592  0.260581  1
  Al  Al5  1  0.860650  0.860599  0.739483  1
  Al  Al6  1  0.001900  0.346555  0.078412  1
  Al  Al7  1  0.998151  0.653207  0.921089  1
  Al  Al8  1  0.001391  0.664430  0.569437  1
  Al  Al9  1  0.335695  0.998807  0.431020  1
  Al  Al10  1  0.998631  0.335356  0.431047  1
  Al  Al11  1  0.664413  0.001327  0.569139  1
  Al  Al12  1  0.653248  0.998116  0.921382  1
  Al  Al13  1  0.346967  0.002061  0.078384  1
  Al  Al14  1  0.333546  0.333569  0.550079  1
  Al  Al15  1  0.666268  0.666448  0.450151  1
  Al  Al16  1  0.653778  0.653925  0.060034  1
  Al  Al17  1  0.345967  0.345959  0.939661  1
  Al  Al18  1  0.338732  0.550449  0.251696  1
  Al  Al19  1  0.661602  0.449709  0.748339  1
  Al  Al20  1  0.550134  0.338102  0.251669  1
  Al  Al21  1  0.449665  0.661602  0.748352  1
  Ga  Ga22  1  0.000044  0.000522  0.999520  1
  Ir  Ir23  1  0.670627  0.328597  0.999762  1
  Ir  Ir24  1  0.329359  0.670981  0.999721  1
  Ir  Ir25  1  0.329841  0.670558  0.500318  1
  Ir  Ir26  1  0.670152  0.329051  0.500247  1
  Ir  Ir27  1  0.000033  0.000516  0.500386  1
