# generated using pymatgen
data_Au3OF7
_symmetry_space_group_name_H-M   'P 1'
_cell_length_a   7.10534515
_cell_length_b   7.10534527
_cell_length_c   11.78188898
_cell_angle_alpha   68.37445994
_cell_angle_beta   68.37445830
_cell_angle_gamma   50.22587895
_symmetry_Int_Tables_number   1
_chemical_formula_structural   Au3OF7
_chemical_formula_sum   'Au6 O2 F14'
_cell_volume   417.58210407
_cell_formula_units_Z   2
loop_
 _symmetry_equiv_pos_site_id
 _symmetry_equiv_pos_as_xyz
  1  'x, y, z'
loop_
 _atom_site_type_symbol
 _atom_site_label
 _atom_site_symmetry_multiplicity
 _atom_site_fract_x
 _atom_site_fract_y
 _atom_site_fract_z
 _atom_site_occupancy
  Au  Au0  1  0.204792  0.453227  0.297636  1
  Au  Au1  1  0.375585  0.813722  0.064699  1
  Au  Au2  1  0.005652  0.005448  0.333611  1
  Au  Au3  1  0.005448  0.005652  0.833611  1
  Au  Au4  1  0.453227  0.204792  0.797636  1
  Au  Au5  1  0.813722  0.375585  0.564699  1
  O  O6  1  0.126392  0.795767  0.211762  1
  O  O7  1  0.795767  0.126392  0.711762  1
  F  F8  1  0.102571  0.716555  0.468664  1
  F  F9  1  0.531992  0.305452  0.194703  1
  F  F10  1  0.262836  0.130053  0.383016  1
  F  F11  1  0.761787  0.244008  0.460624  1
  F  F12  1  0.508454  0.843152  0.168104  1
  F  F13  1  0.305452  0.531992  0.694703  1
  F  F14  1  0.244008  0.761787  0.960624  1
  F  F15  1  0.716555  0.102571  0.968664  1
  F  F16  1  0.936057  0.289098  0.197110  1
  F  F17  1  0.852252  0.607006  0.404246  1
  F  F18  1  0.289098  0.936057  0.697110  1
  F  F19  1  0.130053  0.262836  0.883016  1
  F  F20  1  0.607006  0.852252  0.904246  1
  F  F21  1  0.843152  0.508454  0.668104  1
