# generated using pymatgen
data_Yb4Cu5PdRu2
_symmetry_space_group_name_H-M   'P 1'
_cell_length_a   5.25743875
_cell_length_b   5.13932347
_cell_length_c   8.60171500
_cell_angle_alpha   90.00000000
_cell_angle_beta   90.00000000
_cell_angle_gamma   120.06268768
_symmetry_Int_Tables_number   1
_chemical_formula_structural   Yb4Cu5PdRu2
_chemical_formula_sum   'Yb4 Cu5 Pd1 Ru2'
_cell_volume   201.15052603
_cell_formula_units_Z   1
loop_
 _symmetry_equiv_pos_site_id
 _symmetry_equiv_pos_as_xyz
  1  'x, y, z'
loop_
 _atom_site_type_symbol
 _atom_site_label
 _atom_site_symmetry_multiplicity
 _atom_site_fract_x
 _atom_site_fract_y
 _atom_site_fract_z
 _atom_site_occupancy
  Yb  Yb0  1  0.328898  0.664624  0.432703  1
  Yb  Yb1  1  0.670391  0.335815  0.564320  1
  Yb  Yb2  1  0.670391  0.335815  0.935680  1
  Yb  Yb3  1  0.328898  0.664624  0.067297  1
  Cu  Cu4  1  0.992870  0.000087  0.497350  1
  Cu  Cu5  1  0.992870  0.000087  0.002650  1
  Cu  Cu6  1  0.329578  0.165258  0.250000  1
  Cu  Cu7  1  0.170485  0.332028  0.750000  1
  Cu  Cu8  1  0.674755  0.835453  0.750000  1
  Pd  Pd9  1  0.174570  0.832421  0.750000  1
  Ru  Ru10  1  0.833383  0.177262  0.250000  1
  Ru  Ru11  1  0.832912  0.656527  0.250000  1
