# generated using pymatgen
data_Er3Zr7Pb6
_symmetry_space_group_name_H-M   'P 1'
_cell_length_a   8.80883500
_cell_length_b   8.80872103
_cell_length_c   5.98975500
_cell_angle_alpha   90.00000000
_cell_angle_beta   90.00000000
_cell_angle_gamma   120.00043174
_symmetry_Int_Tables_number   1
_chemical_formula_structural   Er3Zr7Pb6
_chemical_formula_sum   'Er3 Zr7 Pb6'
_cell_volume   402.50301005
_cell_formula_units_Z   1
loop_
 _symmetry_equiv_pos_site_id
 _symmetry_equiv_pos_as_xyz
  1  'x, y, z'
loop_
 _atom_site_type_symbol
 _atom_site_label
 _atom_site_symmetry_multiplicity
 _atom_site_fract_x
 _atom_site_fract_y
 _atom_site_fract_z
 _atom_site_occupancy
  Er  Er0  1  0.760532  0.757864  0.250000  1
  Er  Er1  1  0.002667  0.242136  0.250000  1
  Er  Er2  1  0.760442  0.000000  0.750000  1
  Zr  Zr3  1  0.330843  0.666691  0.500835  1
  Zr  Zr4  1  0.244535  0.000000  0.250000  1
  Zr  Zr5  1  0.664153  0.333309  0.500835  1
  Zr  Zr6  1  0.002394  0.755944  0.750000  1
  Zr  Zr7  1  0.330843  0.666691  0.999165  1
  Zr  Zr8  1  0.246450  0.244056  0.750000  1
  Zr  Zr9  1  0.664153  0.333309  0.999165  1
  Pb  Pb10  1  0.607698  0.606773  0.750000  1
  Pb  Pb11  1  0.387651  0.000000  0.750000  1
  Pb  Pb12  1  0.602685  0.000000  0.250000  1
  Pb  Pb13  1  0.000924  0.393227  0.750000  1
  Pb  Pb14  1  0.392478  0.390926  0.250000  1
  Pb  Pb15  1  0.001552  0.609074  0.250000  1
