# generated using pymatgen
data_Eu3Ho5(Sc3Sn4)4
_symmetry_space_group_name_H-M   'P 1'
_cell_length_a   7.78007415
_cell_length_b   7.99509864
_cell_length_c   14.96261500
_cell_angle_alpha   90.06880427
_cell_angle_beta   89.65732386
_cell_angle_gamma   90.10323986
_symmetry_Int_Tables_number   1
_chemical_formula_structural   Eu3Ho5(Sc3Sn4)4
_chemical_formula_sum   'Eu3 Ho5 Sc12 Sn16'
_cell_volume   930.69264883
_cell_formula_units_Z   1
loop_
 _symmetry_equiv_pos_site_id
 _symmetry_equiv_pos_as_xyz
  1  'x, y, z'
loop_
 _atom_site_type_symbol
 _atom_site_label
 _atom_site_symmetry_multiplicity
 _atom_site_fract_x
 _atom_site_fract_y
 _atom_site_fract_z
 _atom_site_occupancy
  Eu  Eu0  1  0.992794  0.172757  0.096341  1
  Eu  Eu1  1  0.003851  0.827515  0.906384  1
  Eu  Eu2  1  0.506542  0.673133  0.905515  1
  Ho  Ho3  1  0.008380  0.822720  0.591792  1
  Ho  Ho4  1  0.491533  0.323796  0.098828  1
  Ho  Ho5  1  0.991559  0.177864  0.405215  1
  Ho  Ho6  1  0.492552  0.322775  0.407965  1
  Ho  Ho7  1  0.508191  0.677806  0.591775  1
  Sc  Sc8  1  0.171748  0.496467  0.747106  1
  Sc  Sc9  1  0.829692  0.502512  0.252775  1
  Sc  Sc10  1  0.329420  0.995721  0.252503  1
  Sc  Sc11  1  0.670782  0.004521  0.746607  1
  Sc  Sc12  1  0.341118  0.159808  0.624261  1
  Sc  Sc13  1  0.658639  0.839210  0.373362  1
  Sc  Sc14  1  0.159235  0.659996  0.374959  1
  Sc  Sc15  1  0.663026  0.839781  0.130133  1
  Sc  Sc16  1  0.842492  0.338941  0.623916  1
  Sc  Sc17  1  0.337638  0.161648  0.870411  1
  Sc  Sc18  1  0.836942  0.340862  0.871207  1
  Sc  Sc19  1  0.164494  0.659256  0.128798  1
  Sn  Sn20  1  0.032591  0.128054  0.747518  1
  Sn  Sn21  1  0.968464  0.871074  0.252375  1
  Sn  Sn22  1  0.468029  0.624368  0.251474  1
  Sn  Sn23  1  0.533803  0.372689  0.746287  1
  Sn  Sn24  1  0.310726  0.853089  0.744030  1
  Sn  Sn25  1  0.685310  0.150101  0.254046  1
  Sn  Sn26  1  0.191836  0.351590  0.254402  1
  Sn  Sn27  1  0.811834  0.647243  0.743854  1
  Sn  Sn28  1  0.185342  0.456616  0.541799  1
  Sn  Sn29  1  0.815297  0.543832  0.457519  1
  Sn  Sn30  1  0.315142  0.957179  0.457187  1
  Sn  Sn31  1  0.822585  0.540695  0.046167  1
  Sn  Sn32  1  0.685348  0.042501  0.541093  1
  Sn  Sn33  1  0.174507  0.452919  0.958499  1
  Sn  Sn34  1  0.667362  0.050670  0.958468  1
  Sn  Sn35  1  0.331197  0.960294  0.045430  1
