# generated using pymatgen
data_Nd4PtPb2Au3
_symmetry_space_group_name_H-M   'P 1'
_cell_length_a   3.82318000
_cell_length_b   8.27507882
_cell_length_c   8.27507883
_cell_angle_alpha   90.11684768
_cell_angle_beta   90.00000000
_cell_angle_gamma   90.00000000
_symmetry_Int_Tables_number   1
_chemical_formula_structural   Nd4PtPb2Au3
_chemical_formula_sum   'Nd4 Pt1 Pb2 Au3'
_cell_volume   261.79908312
_cell_formula_units_Z   1
loop_
 _symmetry_equiv_pos_site_id
 _symmetry_equiv_pos_as_xyz
  1  'x, y, z'
loop_
 _atom_site_type_symbol
 _atom_site_label
 _atom_site_symmetry_multiplicity
 _atom_site_fract_x
 _atom_site_fract_y
 _atom_site_fract_z
 _atom_site_occupancy
  Nd  Nd0  1  0.500000  0.169561  0.669561  1
  Nd  Nd1  1  0.500000  0.817256  0.317256  1
  Nd  Nd2  1  0.500000  0.341709  0.177040  1
  Nd  Nd3  1  0.500000  0.677040  0.841709  1
  Pt  Pt4  1  0.000000  0.622545  0.122545  1
  Pb  Pb5  1  0.000000  0.002307  0.001900  1
  Pb  Pb6  1  0.000000  0.501900  0.502307  1
  Au  Au7  1  0.000000  0.374890  0.874890  1
  Au  Au8  1  0.000000  0.872112  0.620680  1
  Au  Au9  1  0.000000  0.120680  0.372112  1
