# generated using pymatgen
data_Er3Tm2Mn2O12
_symmetry_space_group_name_H-M   'P 1'
_cell_length_a   6.74524304
_cell_length_b   6.74524380
_cell_length_c   7.14858515
_cell_angle_alpha   74.46521139
_cell_angle_beta   74.46521361
_cell_angle_gamma   50.10742124
_symmetry_Int_Tables_number   1
_chemical_formula_structural   Er3Tm2Mn2O12
_chemical_formula_sum   'Er3 Tm2 Mn2 O12'
_cell_volume   238.39151236
_cell_formula_units_Z   1
loop_
 _symmetry_equiv_pos_site_id
 _symmetry_equiv_pos_as_xyz
  1  'x, y, z'
loop_
 _atom_site_type_symbol
 _atom_site_label
 _atom_site_symmetry_multiplicity
 _atom_site_fract_x
 _atom_site_fract_y
 _atom_site_fract_z
 _atom_site_occupancy
  Er  Er0  1  0.307627  0.307627  0.834366  1
  Er  Er1  1  0.692373  0.692373  0.165634  1
  Er  Er2  1  0.000000  0.000000  0.500000  1
  Tm  Tm3  1  0.304548  0.304548  0.357108  1
  Tm  Tm4  1  0.695452  0.695452  0.642892  1
  Mn  Mn5  1  0.754282  0.245718  0.000000  1
  Mn  Mn6  1  0.245718  0.754282  0.000000  1
  O  O7  1  0.901379  0.424320  0.916520  1
  O  O8  1  0.424320  0.901379  0.916520  1
  O  O9  1  0.098621  0.575680  0.083480  1
  O  O10  1  0.575680  0.098621  0.083480  1
  O  O11  1  0.096353  0.597711  0.573213  1
  O  O12  1  0.597711  0.096353  0.573213  1
  O  O13  1  0.903647  0.402289  0.426787  1
  O  O14  1  0.402289  0.903647  0.426787  1
  O  O15  1  0.999490  0.999490  0.819699  1
  O  O16  1  0.000510  0.000510  0.180301  1
  O  O17  1  0.500615  0.500615  0.816171  1
  O  O18  1  0.499385  0.499385  0.183829  1
