# generated using pymatgen
data_Y6LuP12Ir17
_symmetry_space_group_name_H-M   'P 1'
_cell_length_a   4.00475600
_cell_length_b   11.25389400
_cell_length_c   12.85400200
_cell_angle_alpha   90.00000000
_cell_angle_beta   90.00000000
_cell_angle_gamma   90.00000000
_symmetry_Int_Tables_number   1
_chemical_formula_structural   Y6LuP12Ir17
_chemical_formula_sum   'Y6 Lu1 P12 Ir17'
_cell_volume   579.31829537
_cell_formula_units_Z   1
loop_
 _symmetry_equiv_pos_site_id
 _symmetry_equiv_pos_as_xyz
  1  'x, y, z'
loop_
 _atom_site_type_symbol
 _atom_site_label
 _atom_site_symmetry_multiplicity
 _atom_site_fract_x
 _atom_site_fract_y
 _atom_site_fract_z
 _atom_site_occupancy
  Y  Y0  1  0.000000  0.500000  0.522881  1
  Y  Y1  1  0.500000  0.000000  0.476890  1
  Y  Y2  1  0.500000  0.817667  0.205804  1
  Y  Y3  1  0.500000  0.182333  0.205804  1
  Y  Y4  1  0.000000  0.682473  0.796360  1
  Y  Y5  1  0.000000  0.317527  0.796360  1
  Lu  Lu6  1  0.500000  0.500000  0.157220  1
  P  P7  1  0.500000  0.500000  0.876709  1
  P  P8  1  0.000000  0.000000  0.121801  1
  P  P9  1  0.500000  0.500000  0.364420  1
  P  P10  1  0.000000  0.000000  0.642897  1
  P  P11  1  0.500000  0.314688  0.619814  1
  P  P12  1  0.500000  0.685312  0.619814  1
  P  P13  1  0.000000  0.185594  0.384467  1
  P  P14  1  0.000000  0.814406  0.384467  1
  P  P15  1  0.500000  0.849577  0.890101  1
  P  P16  1  0.500000  0.150423  0.890101  1
  P  P17  1  0.000000  0.662548  0.106863  1
  P  P18  1  0.000000  0.337452  0.106863  1
  Ir  Ir19  1  0.000000  0.000000  0.821488  1
  Ir  Ir20  1  0.500000  0.500000  0.700029  1
  Ir  Ir21  1  0.000000  0.000000  0.299271  1
  Ir  Ir22  1  0.000000  0.500000  0.985632  1
  Ir  Ir23  1  0.500000  0.000000  0.024507  1
  Ir  Ir24  1  0.500000  0.329414  0.983026  1
  Ir  Ir25  1  0.500000  0.670586  0.983026  1
  Ir  Ir26  1  0.000000  0.163490  0.005006  1
  Ir  Ir27  1  0.000000  0.836510  0.005006  1
  Ir  Ir28  1  0.500000  0.287417  0.435395  1
  Ir  Ir29  1  0.500000  0.712583  0.435395  1
  Ir  Ir30  1  0.000000  0.200788  0.572538  1
  Ir  Ir31  1  0.000000  0.799212  0.572538  1
  Ir  Ir32  1  0.500000  0.872173  0.712432  1
  Ir  Ir33  1  0.500000  0.127827  0.712432  1
  Ir  Ir34  1  0.000000  0.629724  0.291322  1
  Ir  Ir35  1  0.000000  0.370276  0.291322  1
