# generated using pymatgen
data_Tm2LuIn4CoPt
_symmetry_space_group_name_H-M   'P 1'
_cell_length_a   7.86564151
_cell_length_b   7.88009126
_cell_length_c   3.66180400
_cell_angle_alpha   90.00000000
_cell_angle_beta   90.00000000
_cell_angle_gamma   120.11731137
_symmetry_Int_Tables_number   1
_chemical_formula_structural   Tm2LuIn4CoPt
_chemical_formula_sum   'Tm2 Lu1 In4 Co1 Pt1'
_cell_volume   196.32541537
_cell_formula_units_Z   1
loop_
 _symmetry_equiv_pos_site_id
 _symmetry_equiv_pos_as_xyz
  1  'x, y, z'
loop_
 _atom_site_type_symbol
 _atom_site_label
 _atom_site_symmetry_multiplicity
 _atom_site_fract_x
 _atom_site_fract_y
 _atom_site_fract_z
 _atom_site_occupancy
  Tm  Tm0  1  0.742174  0.042356  0.500000  1
  Tm  Tm1  1  0.957749  0.699629  0.500000  1
  Lu  Lu2  1  0.298531  0.257498  0.500000  1
  In  In3  1  0.081458  0.420526  0.000000  1
  In  In4  1  0.578557  0.659112  0.000000  1
  In  In5  1  0.340335  0.919374  0.000000  1
  In  In6  1  0.665782  0.333168  0.000000  1
  Co  Co7  1  0.333246  0.666420  0.500000  1
  Pt  Pt8  1  0.002172  0.001914  0.000000  1
