# generated using pymatgen
data_DyHo2Zr(Al3Rh)6
_symmetry_space_group_name_H-M   'P 1'
_cell_length_a   7.53406946
_cell_length_b   7.52154870
_cell_length_c   9.40774800
_cell_angle_alpha   90.00000000
_cell_angle_beta   90.00000000
_cell_angle_gamma   119.52227616
_symmetry_Int_Tables_number   1
_chemical_formula_structural   DyHo2Zr(Al3Rh)6
_chemical_formula_sum   'Dy1 Ho2 Zr1 Al18 Rh6'
_cell_volume   463.89935512
_cell_formula_units_Z   1
loop_
 _symmetry_equiv_pos_site_id
 _symmetry_equiv_pos_as_xyz
  1  'x, y, z'
loop_
 _atom_site_type_symbol
 _atom_site_label
 _atom_site_symmetry_multiplicity
 _atom_site_fract_x
 _atom_site_fract_y
 _atom_site_fract_z
 _atom_site_occupancy
  Dy  Dy0  1  0.329014  0.006443  0.250000  1
  Ho  Ho1  1  0.006124  0.327912  0.250000  1
  Ho  Ho2  1  0.671426  0.995580  0.750000  1
  Zr  Zr3  1  0.996136  0.671574  0.750000  1
  Al  Al4  1  0.123643  0.121493  0.750000  1
  Al  Al5  1  0.871996  0.870457  0.250000  1
  Al  Al6  1  0.999915  0.338208  0.579870  1
  Al  Al7  1  0.999666  0.664936  0.428875  1
  Al  Al8  1  0.999666  0.664936  0.071125  1
  Al  Al9  1  0.332309  0.997701  0.920000  1
  Al  Al10  1  0.999915  0.338208  0.920130  1
  Al  Al11  1  0.664588  0.998462  0.075118  1
  Al  Al12  1  0.664588  0.998462  0.424882  1
  Al  Al13  1  0.332309  0.997701  0.580000  1
  Al  Al14  1  0.333557  0.333585  0.048215  1
  Al  Al15  1  0.669407  0.667427  0.943786  1
  Al  Al16  1  0.669407  0.667427  0.556214  1
  Al  Al17  1  0.333557  0.333585  0.451785  1
  Al  Al18  1  0.336187  0.551302  0.750000  1
  Al  Al19  1  0.661336  0.451149  0.250000  1
  Al  Al20  1  0.556567  0.344478  0.750000  1
  Al  Al21  1  0.449527  0.659115  0.250000  1
  Rh  Rh22  1  0.672693  0.328098  0.501261  1
  Rh  Rh23  1  0.327763  0.672518  0.501889  1
  Rh  Rh24  1  0.327763  0.672518  0.998111  1
  Rh  Rh25  1  0.672693  0.328098  0.998739  1
  Rh  Rh26  1  0.999124  0.999315  0.501225  1
  Rh  Rh27  1  0.999124  0.999315  0.998775  1
