# generated using pymatgen
data_Y12Th4Mg4FeCo3
_symmetry_space_group_name_H-M   'P 1'
_cell_length_a   9.71141421
_cell_length_b   9.71141363
_cell_length_c   9.71141501
_cell_angle_alpha   59.68210859
_cell_angle_beta   59.68210842
_cell_angle_gamma   59.68211213
_symmetry_Int_Tables_number   1
_chemical_formula_structural   Y12Th4Mg4FeCo3
_chemical_formula_sum   'Y12 Th4 Mg4 Fe1 Co3'
_cell_volume   642.96117351
_cell_formula_units_Z   1
loop_
 _symmetry_equiv_pos_site_id
 _symmetry_equiv_pos_as_xyz
  1  'x, y, z'
loop_
 _atom_site_type_symbol
 _atom_site_label
 _atom_site_symmetry_multiplicity
 _atom_site_fract_x
 _atom_site_fract_y
 _atom_site_fract_z
 _atom_site_occupancy
  Y  Y0  1  0.813025  0.187214  0.187214  1
  Y  Y1  1  0.185817  0.813700  0.813700  1
  Y  Y2  1  0.187214  0.813025  0.187214  1
  Y  Y3  1  0.813700  0.185817  0.813700  1
  Y  Y4  1  0.187214  0.187214  0.813025  1
  Y  Y5  1  0.813700  0.813700  0.185817  1
  Y  Y6  1  0.936220  0.564292  0.564292  1
  Y  Y7  1  0.562673  0.936338  0.936338  1
  Y  Y8  1  0.564292  0.936220  0.564292  1
  Y  Y9  1  0.936338  0.562673  0.936338  1
  Y  Y10  1  0.564292  0.564292  0.936220  1
  Y  Y11  1  0.936338  0.936338  0.562673  1
  Th  Th12  1  0.343658  0.343658  0.343658  1
  Th  Th13  1  0.342195  0.342195  0.970381  1
  Th  Th14  1  0.342195  0.970381  0.342195  1
  Th  Th15  1  0.970381  0.342195  0.342195  1
  Mg  Mg16  1  0.579414  0.579414  0.579414  1
  Mg  Mg17  1  0.579051  0.579051  0.261028  1
  Mg  Mg18  1  0.579051  0.261028  0.579051  1
  Mg  Mg19  1  0.261028  0.579051  0.579051  1
  Fe  Fe20  1  0.146755  0.146755  0.146755  1
  Co  Co21  1  0.145906  0.145906  0.563636  1
  Co  Co22  1  0.145906  0.563636  0.145906  1
  Co  Co23  1  0.563636  0.145906  0.145906  1
