# generated using pymatgen
data_Rb2PtS15
_symmetry_space_group_name_H-M   'P 1'
_cell_length_a   9.37694722
_cell_length_b   9.37694730
_cell_length_c   13.18388954
_cell_angle_alpha   89.31985446
_cell_angle_beta   89.31985730
_cell_angle_gamma   66.22009128
_symmetry_Int_Tables_number   1
_chemical_formula_structural   Rb2PtS15
_chemical_formula_sum   'Rb4 Pt2 S30'
_cell_volume   1060.69854601
_cell_formula_units_Z   2
loop_
 _symmetry_equiv_pos_site_id
 _symmetry_equiv_pos_as_xyz
  1  'x, y, z'
loop_
 _atom_site_type_symbol
 _atom_site_label
 _atom_site_symmetry_multiplicity
 _atom_site_fract_x
 _atom_site_fract_y
 _atom_site_fract_z
 _atom_site_occupancy
  Rb  Rb0  1  0.770499  0.650633  0.137590  1
  Rb  Rb1  1  0.650633  0.770499  0.637590  1
  Rb  Rb2  1  0.941764  0.276775  0.397066  1
  Rb  Rb3  1  0.276775  0.941764  0.897066  1
  Pt  Pt4  1  0.202759  0.775741  0.251191  1
  Pt  Pt5  1  0.775741  0.202759  0.751191  1
  S  S6  1  0.553614  0.412340  0.277142  1
  S  S7  1  0.412340  0.553614  0.777142  1
  S  S8  1  0.584056  0.367683  0.120849  1
  S  S9  1  0.367683  0.584056  0.620849  1
  S  S10  1  0.347226  0.127867  0.374190  1
  S  S11  1  0.127867  0.347226  0.874190  1
  S  S12  1  0.349790  0.933541  0.454864  1
  S  S13  1  0.933541  0.349790  0.954864  1
  S  S14  1  0.157625  0.896261  0.418202  1
  S  S15  1  0.896261  0.157625  0.918202  1
  S  S16  1  0.477262  0.647183  0.293606  1
  S  S17  1  0.647183  0.477262  0.793606  1
  S  S18  1  0.352894  0.439761  0.077555  1
  S  S19  1  0.439761  0.352894  0.577555  1
  S  S20  1  0.254481  0.676416  0.078604  1
  S  S21  1  0.676416  0.254481  0.578604  1
  S  S22  1  0.216321  0.009918  0.177994  1
  S  S23  1  0.009918  0.216321  0.677994  1
  S  S24  1  0.406748  0.038601  0.228336  1
  S  S25  1  0.038601  0.406748  0.728336  1
  S  S26  1  0.149116  0.555997  0.310558  1
  S  S27  1  0.555997  0.149116  0.810558  1
  S  S28  1  0.798984  0.967704  0.332942  1
  S  S29  1  0.967704  0.798984  0.832942  1
  S  S30  1  0.014252  0.628186  0.436684  1
  S  S31  1  0.628186  0.014252  0.936684  1
  S  S32  1  0.929154  0.909187  0.204098  1
  S  S33  1  0.909187  0.929154  0.704098  1
  S  S34  1  0.785622  0.761840  0.387529  1
  S  S35  1  0.761840  0.785622  0.887529  1
