# generated using pymatgen
data_TmTh7(Nb3Si4)4
_symmetry_space_group_name_H-M   'P 1'
_cell_length_a   7.03097651
_cell_length_b   7.24235246
_cell_length_c   13.59948225
_cell_angle_alpha   90.11825373
_cell_angle_beta   89.87000107
_cell_angle_gamma   90.07636108
_symmetry_Int_Tables_number   1
_chemical_formula_structural   TmTh7(Nb3Si4)4
_chemical_formula_sum   'Tm1 Th7 Nb12 Si16'
_cell_volume   692.49278424
_cell_formula_units_Z   1
loop_
 _symmetry_equiv_pos_site_id
 _symmetry_equiv_pos_as_xyz
  1  'x, y, z'
loop_
 _atom_site_type_symbol
 _atom_site_label
 _atom_site_symmetry_multiplicity
 _atom_site_fract_x
 _atom_site_fract_y
 _atom_site_fract_z
 _atom_site_occupancy
  Tm  Tm0  1  0.999277  0.828291  0.597323  1
  Th  Th1  1  0.501503  0.669141  0.595145  1
  Th  Th2  1  0.000623  0.830514  0.903849  1
  Th  Th3  1  0.500516  0.330505  0.095800  1
  Th  Th4  1  0.998519  0.170586  0.406049  1
  Th  Th5  1  0.498243  0.330143  0.406646  1
  Th  Th6  1  0.000393  0.169784  0.095832  1
  Th  Th7  1  0.500612  0.670028  0.902214  1
  Nb  Nb8  1  0.662291  0.172561  0.623694  1
  Nb  Nb9  1  0.162561  0.327609  0.873466  1
  Nb  Nb10  1  0.337582  0.827809  0.125186  1
  Nb  Nb11  1  0.835940  0.673582  0.376066  1
  Nb  Nb12  1  0.336285  0.828077  0.375677  1
  Nb  Nb13  1  0.836778  0.671927  0.125278  1
  Nb  Nb14  1  0.666063  0.170162  0.873732  1
  Nb  Nb15  1  0.164339  0.327798  0.624365  1
  Nb  Nb16  1  0.836142  0.490983  0.750170  1
  Nb  Nb17  1  0.337147  0.005008  0.748413  1
  Nb  Nb18  1  0.163290  0.507869  0.250800  1
  Nb  Nb19  1  0.663177  0.993442  0.251134  1
  Si  Si20  1  0.661052  0.956981  0.458094  1
  Si  Si21  1  0.160393  0.543391  0.043232  1
  Si  Si22  1  0.341116  0.044201  0.955179  1
  Si  Si23  1  0.844415  0.463654  0.545517  1
  Si  Si24  1  0.331842  0.037556  0.545257  1
  Si  Si25  1  0.839544  0.455996  0.955899  1
  Si  Si26  1  0.660003  0.956197  0.043478  1
  Si  Si27  1  0.157154  0.547511  0.459025  1
  Si  Si28  1  0.459079  0.366980  0.749262  1
  Si  Si29  1  0.960944  0.127845  0.746813  1
  Si  Si30  1  0.540859  0.631395  0.251016  1
  Si  Si31  1  0.040839  0.869139  0.250721  1
  Si  Si32  1  0.704913  0.883639  0.746327  1
  Si  Si33  1  0.196125  0.618973  0.746980  1
  Si  Si34  1  0.300056  0.115424  0.250926  1
  Si  Si35  1  0.800385  0.385300  0.251434  1
