# generated using pymatgen
data_Tb3Pr10Nd7Sn16
_symmetry_space_group_name_H-M   'P 1'
_cell_length_a   8.29846509
_cell_length_b   8.45388025
_cell_length_c   16.02065712
_cell_angle_alpha   90.01413840
_cell_angle_beta   89.99778559
_cell_angle_gamma   89.97802610
_symmetry_Int_Tables_number   1
_chemical_formula_structural   Tb3Pr10Nd7Sn16
_chemical_formula_sum   'Tb3 Pr10 Nd7 Sn16'
_cell_volume   1123.91674940
_cell_formula_units_Z   1
loop_
 _symmetry_equiv_pos_site_id
 _symmetry_equiv_pos_as_xyz
  1  'x, y, z'
loop_
 _atom_site_type_symbol
 _atom_site_label
 _atom_site_symmetry_multiplicity
 _atom_site_fract_x
 _atom_site_fract_y
 _atom_site_fract_z
 _atom_site_occupancy
  Tb  Tb0  1  0.698672  0.998037  0.749976  1
  Tb  Tb1  1  0.800974  0.498104  0.250009  1
  Tb  Tb2  1  0.300808  0.001664  0.249994  1
  Pr  Pr3  1  0.368160  0.836627  0.620151  1
  Pr  Pr4  1  0.867273  0.663782  0.879559  1
  Pr  Pr5  1  0.519265  0.318514  0.901450  1
  Pr  Pr6  1  0.018670  0.180507  0.598618  1
  Pr  Pr7  1  0.480952  0.680995  0.400566  1
  Pr  Pr8  1  0.981136  0.818982  0.099040  1
  Pr  Pr9  1  0.480923  0.680956  0.099361  1
  Pr  Pr10  1  0.981095  0.819034  0.401041  1
  Pr  Pr11  1  0.519367  0.318608  0.598556  1
  Pr  Pr12  1  0.018749  0.180402  0.901369  1
  Nd  Nd13  1  0.367938  0.836738  0.879754  1
  Nd  Nd14  1  0.867004  0.663725  0.620525  1
  Nd  Nd15  1  0.632602  0.162978  0.379299  1
  Nd  Nd16  1  0.132677  0.336855  0.121549  1
  Nd  Nd17  1  0.632572  0.163072  0.120808  1
  Nd  Nd18  1  0.132655  0.336760  0.378348  1
  Nd  Nd19  1  0.197518  0.501778  0.750034  1
  Sn  Sn20  1  0.292565  0.034586  0.044193  1
  Sn  Sn21  1  0.792789  0.465698  0.455911  1
  Sn  Sn22  1  0.708021  0.965860  0.543856  1
  Sn  Sn23  1  0.207927  0.535487  0.958127  1
  Sn  Sn24  1  0.706942  0.966278  0.956178  1
  Sn  Sn25  1  0.206844  0.535030  0.541858  1
  Sn  Sn26  1  0.292369  0.034937  0.455467  1
  Sn  Sn27  1  0.792634  0.465367  0.044423  1
  Sn  Sn28  1  0.568264  0.617620  0.749959  1
  Sn  Sn29  1  0.064196  0.885514  0.750012  1
  Sn  Sn30  1  0.435267  0.382709  0.250006  1
  Sn  Sn31  1  0.934724  0.117095  0.249997  1
  Sn  Sn32  1  0.325659  0.141763  0.750155  1
  Sn  Sn33  1  0.822156  0.353223  0.749845  1
  Sn  Sn34  1  0.675709  0.855084  0.250002  1
  Sn  Sn35  1  0.174926  0.645626  0.249999  1
