# generated using pymatgen
data_Tb2HoNi2Rh7
_symmetry_space_group_name_H-M   'P 1'
_cell_length_a   5.26500212
_cell_length_b   5.26500063
_cell_length_c   9.01397749
_cell_angle_alpha   73.01948069
_cell_angle_beta   73.01948527
_cell_angle_gamma   60.00000225
_symmetry_Int_Tables_number   1
_chemical_formula_structural   Tb2HoNi2Rh7
_chemical_formula_sum   'Tb2 Ho1 Ni2 Rh7'
_cell_volume   203.71789679
_cell_formula_units_Z   1
loop_
 _symmetry_equiv_pos_site_id
 _symmetry_equiv_pos_as_xyz
  1  'x, y, z'
loop_
 _atom_site_type_symbol
 _atom_site_label
 _atom_site_symmetry_multiplicity
 _atom_site_fract_x
 _atom_site_fract_y
 _atom_site_fract_z
 _atom_site_occupancy
  Tb  Tb0  1  0.860495  0.860495  0.418515  1
  Tb  Tb1  1  0.000050  0.000050  0.999850  1
  Ho  Ho2  1  0.139365  0.139365  0.581904  1
  Ni  Ni3  1  0.333346  0.333346  0.999960  1
  Ni  Ni4  1  0.666657  0.666657  0.000032  1
  Rh  Rh5  1  0.078086  0.581078  0.759757  1
  Rh  Rh6  1  0.581078  0.581078  0.759757  1
  Rh  Rh7  1  0.581078  0.078086  0.759757  1
  Rh  Rh8  1  0.922010  0.418951  0.240088  1
  Rh  Rh9  1  0.418951  0.418951  0.240088  1
  Rh  Rh10  1  0.418951  0.922010  0.240088  1
  Rh  Rh11  1  0.499932  0.499932  0.500204  1
