# generated using pymatgen
data_LaPrNd(HgPd)3
_symmetry_space_group_name_H-M   'P 1'
_cell_length_a   7.76501683
_cell_length_b   7.78547985
_cell_length_c   4.09445800
_cell_angle_alpha   90.00000000
_cell_angle_beta   90.00000000
_cell_angle_gamma   120.16155513
_symmetry_Int_Tables_number   1
_chemical_formula_structural   LaPrNd(HgPd)3
_chemical_formula_sum   'La1 Pr1 Nd1 Hg3 Pd3'
_cell_volume   214.01564911
_cell_formula_units_Z   1
loop_
 _symmetry_equiv_pos_site_id
 _symmetry_equiv_pos_as_xyz
  1  'x, y, z'
loop_
 _atom_site_type_symbol
 _atom_site_label
 _atom_site_symmetry_multiplicity
 _atom_site_fract_x
 _atom_site_fract_y
 _atom_site_fract_z
 _atom_site_occupancy
  La  La0  1  0.999944  0.599342  0.500000  1
  Pr  Pr1  1  0.400600  0.401041  0.500000  1
  Nd  Nd2  1  0.599591  0.000316  0.500000  1
  Hg  Hg3  1  0.736885  0.741831  0.000000  1
  Hg  Hg4  1  0.263571  0.004248  0.000000  1
  Hg  Hg5  1  0.999274  0.254700  0.000000  1
  Pd  Pd6  1  0.670158  0.335115  0.000000  1
  Pd  Pd7  1  0.330833  0.667241  0.000000  1
  Pd  Pd8  1  0.999145  0.996165  0.500000  1
