# generated using pymatgen
data_Eu3ErSb6Rh7
_symmetry_space_group_name_H-M   'P 1'
_cell_length_a   7.67925588
_cell_length_b   7.75958871
_cell_length_c   7.67925659
_cell_angle_alpha   109.68326501
_cell_angle_beta   109.25834463
_cell_angle_gamma   109.68326997
_symmetry_Int_Tables_number   1
_chemical_formula_structural   Eu3ErSb6Rh7
_chemical_formula_sum   'Eu3 Er1 Sb6 Rh7'
_cell_volume   351.32730534
_cell_formula_units_Z   1
loop_
 _symmetry_equiv_pos_site_id
 _symmetry_equiv_pos_as_xyz
  1  'x, y, z'
loop_
 _atom_site_type_symbol
 _atom_site_label
 _atom_site_symmetry_multiplicity
 _atom_site_fract_x
 _atom_site_fract_y
 _atom_site_fract_z
 _atom_site_occupancy
  Eu  Eu0  1  0.500000  0.000000  0.000000  1
  Eu  Eu1  1  0.000000  0.000000  0.500000  1
  Eu  Eu2  1  0.500000  0.500000  0.500000  1
  Er  Er3  1  0.000000  0.500000  0.000000  1
  Sb  Sb4  1  0.000000  0.320541  0.319914  1
  Sb  Sb5  1  0.680086  0.000627  0.680086  1
  Sb  Sb6  1  0.680086  0.679459  0.000000  1
  Sb  Sb7  1  0.000000  0.679459  0.680086  1
  Sb  Sb8  1  0.319914  0.999373  0.319914  1
  Sb  Sb9  1  0.319914  0.320541  0.000000  1
  Rh  Rh10  1  0.000000  0.000000  0.000000  1
  Rh  Rh11  1  0.491381  0.745690  0.245690  1
  Rh  Rh12  1  0.754310  0.500000  0.245690  1
  Rh  Rh13  1  0.245690  0.745690  0.491381  1
  Rh  Rh14  1  0.245690  0.500000  0.754310  1
  Rh  Rh15  1  0.508619  0.254310  0.754310  1
  Rh  Rh16  1  0.754310  0.254310  0.508619  1
