# generated using pymatgen
data_LaPr2ThAl18(PdRh)3
_symmetry_space_group_name_H-M   'P 1'
_cell_length_a   7.65811100
_cell_length_b   7.65956750
_cell_length_c   9.60771200
_cell_angle_alpha   90.00000000
_cell_angle_beta   90.00000000
_cell_angle_gamma   119.28162902
_symmetry_Int_Tables_number   1
_chemical_formula_structural   LaPr2ThAl18(PdRh)3
_chemical_formula_sum   'La1 Pr2 Th1 Al18 Pd3 Rh3'
_cell_volume   491.55823849
_cell_formula_units_Z   1
loop_
 _symmetry_equiv_pos_site_id
 _symmetry_equiv_pos_as_xyz
  1  'x, y, z'
loop_
 _atom_site_type_symbol
 _atom_site_label
 _atom_site_symmetry_multiplicity
 _atom_site_fract_x
 _atom_site_fract_y
 _atom_site_fract_z
 _atom_site_occupancy
  La  La0  1  0.668498  0.992349  0.749674  1
  Pr  Pr1  1  0.006573  0.331840  0.250429  1
  Pr  Pr2  1  0.331324  0.004172  0.249944  1
  Th  Th3  1  0.994770  0.670311  0.750804  1
  Al  Al4  1  0.132581  0.132404  0.750764  1
  Al  Al5  1  0.871128  0.872115  0.248884  1
  Al  Al6  1  0.002937  0.330054  0.574476  1
  Al  Al7  1  0.996734  0.668814  0.423011  1
  Al  Al8  1  0.994759  0.664797  0.075716  1
  Al  Al9  1  0.336803  0.007587  0.927627  1
  Al  Al10  1  0.998373  0.329023  0.928067  1
  Al  Al11  1  0.670324  0.003345  0.073972  1
  Al  Al12  1  0.669583  0.997695  0.423653  1
  Al  Al13  1  0.332540  0.005547  0.574149  1
  Al  Al14  1  0.333113  0.329769  0.049149  1
  Al  Al15  1  0.666646  0.664979  0.956132  1
  Al  Al16  1  0.665934  0.665964  0.548037  1
  Al  Al17  1  0.331311  0.331027  0.447054  1
  Al  Al18  1  0.338559  0.542715  0.750665  1
  Al  Al19  1  0.657192  0.452576  0.245813  1
  Al  Al20  1  0.546340  0.345275  0.753525  1
  Al  Al21  1  0.454928  0.659004  0.249241  1
  Pd  Pd22  1  0.672122  0.329999  0.500625  1
  Pd  Pd23  1  0.327243  0.671333  0.500964  1
  Pd  Pd24  1  0.327342  0.671039  0.999097  1
  Rh  Rh25  1  0.672500  0.330408  0.998745  1
  Rh  Rh26  1  0.999668  0.998107  0.501625  1
  Rh  Rh27  1  0.000178  0.997755  0.998157  1
