# generated using pymatgen
data_Sr8Eu5Dy7Pt16
_symmetry_space_group_name_H-M   'P 1'
_cell_length_a   7.89519202
_cell_length_b   8.02346479
_cell_length_c   15.25713900
_cell_angle_alpha   90.03223460
_cell_angle_beta   89.99572560
_cell_angle_gamma   90.04544076
_symmetry_Int_Tables_number   1
_chemical_formula_structural   Sr8Eu5Dy7Pt16
_chemical_formula_sum   'Sr8 Eu5 Dy7 Pt16'
_cell_volume   966.49040032
_cell_formula_units_Z   1
loop_
 _symmetry_equiv_pos_site_id
 _symmetry_equiv_pos_as_xyz
  1  'x, y, z'
loop_
 _atom_site_type_symbol
 _atom_site_label
 _atom_site_symmetry_multiplicity
 _atom_site_fract_x
 _atom_site_fract_y
 _atom_site_fract_z
 _atom_site_occupancy
  Sr  Sr0  1  0.496227  0.322819  0.904433  1
  Sr  Sr1  1  0.995593  0.177039  0.595433  1
  Sr  Sr2  1  0.503668  0.677408  0.405002  1
  Sr  Sr3  1  0.004729  0.822222  0.095037  1
  Sr  Sr4  1  0.502606  0.677318  0.094855  1
  Sr  Sr5  1  0.003964  0.822529  0.405020  1
  Sr  Sr6  1  0.496781  0.322231  0.595716  1
  Sr  Sr7  1  0.996721  0.178497  0.904901  1
  Eu  Eu8  1  0.837298  0.666980  0.879145  1
  Eu  Eu9  1  0.177148  0.490647  0.750168  1
  Eu  Eu10  1  0.679333  0.009118  0.749898  1
  Eu  Eu11  1  0.821575  0.509543  0.250016  1
  Eu  Eu12  1  0.320998  0.989931  0.249877  1
  Dy  Dy13  1  0.339251  0.834186  0.876008  1
  Dy  Dy14  1  0.839421  0.666361  0.622685  1
  Dy  Dy15  1  0.659759  0.166811  0.376698  1
  Dy  Dy16  1  0.161353  0.332016  0.123684  1
  Dy  Dy17  1  0.660532  0.166759  0.123881  1
  Dy  Dy18  1  0.160622  0.332487  0.376771  1
  Dy  Dy19  1  0.338963  0.832171  0.623093  1
  Pt  Pt20  1  0.336563  0.047178  0.043842  1
  Pt  Pt21  1  0.839891  0.452636  0.456567  1
  Pt  Pt22  1  0.660014  0.952529  0.543562  1
  Pt  Pt23  1  0.171639  0.544082  0.959186  1
  Pt  Pt24  1  0.653319  0.966236  0.958223  1
  Pt  Pt25  1  0.159728  0.546504  0.543211  1
  Pt  Pt26  1  0.340349  0.047476  0.456529  1
  Pt  Pt27  1  0.842073  0.447765  0.047590  1
  Pt  Pt28  1  0.541927  0.639217  0.746417  1
  Pt  Pt29  1  0.051885  0.863712  0.744792  1
  Pt  Pt30  1  0.452941  0.359471  0.250461  1
  Pt  Pt31  1  0.953132  0.139492  0.250946  1
  Pt  Pt32  1  0.301761  0.110396  0.750490  1
  Pt  Pt33  1  0.794527  0.386348  0.745488  1
  Pt  Pt34  1  0.701482  0.892013  0.250117  1
  Pt  Pt35  1  0.202227  0.607872  0.250252  1
