# generated using pymatgen
data_Dy5Lu3(Sc3Sn4)4
_symmetry_space_group_name_H-M   'P 1'
_cell_length_a   7.67125256
_cell_length_b   7.94649716
_cell_length_c   14.81448881
_cell_angle_alpha   89.99044188
_cell_angle_beta   90.06999917
_cell_angle_gamma   89.97905486
_symmetry_Int_Tables_number   1
_chemical_formula_structural   Dy5Lu3(Sc3Sn4)4
_chemical_formula_sum   'Dy5 Lu3 Sc12 Sn16'
_cell_volume   903.08436815
_cell_formula_units_Z   1
loop_
 _symmetry_equiv_pos_site_id
 _symmetry_equiv_pos_as_xyz
  1  'x, y, z'
loop_
 _atom_site_type_symbol
 _atom_site_label
 _atom_site_symmetry_multiplicity
 _atom_site_fract_x
 _atom_site_fract_y
 _atom_site_fract_z
 _atom_site_occupancy
  Dy  Dy0  1  0.004000  0.823200  0.594235  1
  Dy  Dy1  1  0.495789  0.323293  0.093860  1
  Dy  Dy2  1  0.995974  0.176638  0.406028  1
  Dy  Dy3  1  0.495818  0.323295  0.405489  1
  Dy  Dy4  1  0.504098  0.676731  0.594234  1
  Lu  Lu5  1  0.995458  0.176997  0.094179  1
  Lu  Lu6  1  0.004643  0.822807  0.905653  1
  Lu  Lu7  1  0.504302  0.677329  0.905574  1
  Sc  Sc8  1  0.164144  0.496876  0.750414  1
  Sc  Sc9  1  0.835924  0.503430  0.249709  1
  Sc  Sc10  1  0.335618  0.996672  0.249753  1
  Sc  Sc11  1  0.664221  0.003146  0.750371  1
  Sc  Sc12  1  0.335304  0.161720  0.627512  1
  Sc  Sc13  1  0.664715  0.838227  0.372706  1
  Sc  Sc14  1  0.164597  0.661687  0.372645  1
  Sc  Sc15  1  0.664468  0.838172  0.126859  1
  Sc  Sc16  1  0.835301  0.338362  0.627507  1
  Sc  Sc17  1  0.335160  0.161427  0.872934  1
  Sc  Sc18  1  0.835516  0.338211  0.872998  1
  Sc  Sc19  1  0.164269  0.662146  0.126962  1
  Sn  Sn20  1  0.026699  0.123780  0.750239  1
  Sn  Sn21  1  0.973197  0.876260  0.249651  1
  Sn  Sn22  1  0.473012  0.624597  0.249802  1
  Sn  Sn23  1  0.526803  0.376063  0.750301  1
  Sn  Sn24  1  0.306767  0.848956  0.751342  1
  Sn  Sn25  1  0.694420  0.149965  0.249537  1
  Sn  Sn26  1  0.192485  0.349127  0.249180  1
  Sn  Sn27  1  0.806763  0.650993  0.751371  1
  Sn  Sn28  1  0.179703  0.457745  0.542361  1
  Sn  Sn29  1  0.820021  0.542194  0.457720  1
  Sn  Sn30  1  0.320302  0.957750  0.457777  1
  Sn  Sn31  1  0.819787  0.542289  0.041949  1
  Sn  Sn32  1  0.679748  0.042348  0.542308  1
  Sn  Sn33  1  0.181092  0.459128  0.957330  1
  Sn  Sn34  1  0.682542  0.040530  0.957584  1
  Sn  Sn35  1  0.317340  0.957910  0.041925  1
