# generated using pymatgen
data_TmLu11InCo5
_symmetry_space_group_name_H-M   'P 1'
_cell_length_a   8.08155079
_cell_length_b   8.08047353
_cell_length_c   8.08155010
_cell_angle_alpha   111.14645814
_cell_angle_beta   110.96429590
_cell_angle_gamma   106.35251869
_symmetry_Int_Tables_number   1
_chemical_formula_structural   TmLu11InCo5
_chemical_formula_sum   'Tm1 Lu11 In1 Co5'
_cell_volume   405.33554572
_cell_formula_units_Z   1
loop_
 _symmetry_equiv_pos_site_id
 _symmetry_equiv_pos_as_xyz
  1  'x, y, z'
loop_
 _atom_site_type_symbol
 _atom_site_label
 _atom_site_symmetry_multiplicity
 _atom_site_fract_x
 _atom_site_fract_y
 _atom_site_fract_z
 _atom_site_occupancy
  Tm  Tm0  1  0.785323  0.977976  0.192652  1
  Lu  Lu1  1  0.287727  0.185802  0.473129  1
  Lu  Lu2  1  0.713187  0.814468  0.527995  1
  Lu  Lu3  1  0.286474  0.814468  0.101282  1
  Lu  Lu4  1  0.712671  0.185802  0.898074  1
  Lu  Lu5  1  0.618498  0.314751  0.304673  1
  Lu  Lu6  1  0.381206  0.685207  0.695125  1
  Lu  Lu7  1  0.010078  0.314751  0.696253  1
  Lu  Lu8  1  0.990082  0.685207  0.304001  1
  Lu  Lu9  1  0.214708  0.406995  0.192287  1
  Lu  Lu10  1  0.785356  0.592380  0.807023  1
  Lu  Lu11  1  0.214622  0.021762  0.807139  1
  In  In12  1  0.499112  0.499734  0.000621  1
  Co  Co13  1  0.000464  0.376407  0.375943  1
  Co  Co14  1  0.999940  0.624515  0.624575  1
  Co  Co15  1  0.386346  0.886196  0.499850  1
  Co  Co16  1  0.613695  0.113993  0.500298  1
  Co  Co17  1  0.000508  0.999585  0.999077  1
