# generated using pymatgen
data_Hf16TiPt7O4
_symmetry_space_group_name_H-M   'P 1'
_cell_length_a   8.83707278
_cell_length_b   8.77932735
_cell_length_c   8.77932700
_cell_angle_alpha   60.00000508
_cell_angle_beta   60.21592857
_cell_angle_gamma   60.21592399
_symmetry_Int_Tables_number   1
_chemical_formula_structural   Hf16TiPt7O4
_chemical_formula_sum   'Hf16 Ti1 Pt7 O4'
_cell_volume   483.19858351
_cell_formula_units_Z   1
loop_
 _symmetry_equiv_pos_site_id
 _symmetry_equiv_pos_as_xyz
  1  'x, y, z'
loop_
 _atom_site_type_symbol
 _atom_site_label
 _atom_site_symmetry_multiplicity
 _atom_site_fract_x
 _atom_site_fract_y
 _atom_site_fract_z
 _atom_site_occupancy
  Hf  Hf0  1  0.132503  0.622499  0.622499  1
  Hf  Hf1  1  0.629510  0.103900  0.633295  1
  Hf  Hf2  1  0.629510  0.633295  0.103900  1
  Hf  Hf3  1  0.629510  0.633295  0.633295  1
  Hf  Hf4  1  0.812310  0.803672  0.192009  1
  Hf  Hf5  1  0.184824  0.189159  0.813008  1
  Hf  Hf6  1  0.812310  0.192009  0.803672  1
  Hf  Hf7  1  0.184824  0.813008  0.189159  1
  Hf  Hf8  1  0.184824  0.813008  0.813008  1
  Hf  Hf9  1  0.812310  0.192009  0.192009  1
  Hf  Hf10  1  0.431272  0.435011  0.066858  1
  Hf  Hf11  1  0.053626  0.077476  0.434449  1
  Hf  Hf12  1  0.431272  0.066858  0.435011  1
  Hf  Hf13  1  0.053626  0.434449  0.077476  1
  Hf  Hf14  1  0.053626  0.434449  0.434449  1
  Hf  Hf15  1  0.431272  0.066858  0.066858  1
  Ti  Ti16  1  0.746627  0.417791  0.417791  1
  Pt  Pt17  1  0.421389  0.773289  0.402661  1
  Pt  Pt18  1  0.421389  0.402661  0.773289  1
  Pt  Pt19  1  0.421389  0.402661  0.402661  1
  Pt  Pt20  1  0.447416  0.850861  0.850861  1
  Pt  Pt21  1  0.856153  0.459397  0.842225  1
  Pt  Pt22  1  0.856153  0.842225  0.459397  1
  Pt  Pt23  1  0.856153  0.842225  0.842225  1
  O  O24  1  0.619899  0.126700  0.126700  1
  O  O25  1  0.128767  0.624377  0.123428  1
  O  O26  1  0.128767  0.123428  0.624377  1
  O  O27  1  0.128767  0.123428  0.123428  1
