# generated using pymatgen
data_AgOs(OF)2
_symmetry_space_group_name_H-M   'P 1'
_cell_length_a   5.60868000
_cell_length_b   7.40036792
_cell_length_c   8.35677738
_cell_angle_alpha   78.68865239
_cell_angle_beta   90.00000000
_cell_angle_gamma   90.00000000
_symmetry_Int_Tables_number   1
_chemical_formula_structural   AgOs(OF)2
_chemical_formula_sum   'Ag4 Os4 O8 F8'
_cell_volume   340.12142682
_cell_formula_units_Z   4
loop_
 _symmetry_equiv_pos_site_id
 _symmetry_equiv_pos_as_xyz
  1  'x, y, z'
loop_
 _atom_site_type_symbol
 _atom_site_label
 _atom_site_symmetry_multiplicity
 _atom_site_fract_x
 _atom_site_fract_y
 _atom_site_fract_z
 _atom_site_occupancy
  Ag  Ag0  1  0.788338  0.103338  0.637230  1
  Ag  Ag1  1  0.211662  0.896662  0.362770  1
  Ag  Ag2  1  0.711662  0.603338  0.637230  1
  Ag  Ag3  1  0.288338  0.396662  0.362770  1
  Os  Os4  1  0.735004  0.711924  0.140052  1
  Os  Os5  1  0.235004  0.788076  0.859948  1
  Os  Os6  1  0.264996  0.288076  0.859948  1
  Os  Os7  1  0.764996  0.211924  0.140052  1
  O  O8  1  0.443154  0.797065  0.037212  1
  O  O9  1  0.943154  0.702935  0.962788  1
  O  O10  1  0.818876  0.954800  0.156338  1
  O  O11  1  0.681124  0.454800  0.156338  1
  O  O12  1  0.556846  0.202935  0.962788  1
  O  O13  1  0.056846  0.297065  0.037212  1
  O  O14  1  0.181124  0.045200  0.843662  1
  O  O15  1  0.318876  0.545200  0.843662  1
  F  F16  1  0.451506  0.318547  0.643240  1
  F  F17  1  0.513004  0.864081  0.702641  1
  F  F18  1  0.951506  0.181453  0.356760  1
  F  F19  1  0.486996  0.135919  0.297359  1
  F  F20  1  0.013004  0.635919  0.297359  1
  F  F21  1  0.986996  0.364081  0.702641  1
  F  F22  1  0.548494  0.681453  0.356760  1
  F  F23  1  0.048494  0.818547  0.643240  1
