# generated using pymatgen
data_ZrV(TcO4)6
_symmetry_space_group_name_H-M   'P 1'
_cell_length_a   10.48373421
_cell_length_b   10.48373256
_cell_length_c   10.48373200
_cell_angle_alpha   49.04577485
_cell_angle_beta   49.04578268
_cell_angle_gamma   49.04578402
_symmetry_Int_Tables_number   1
_chemical_formula_structural   ZrV(TcO4)6
_chemical_formula_sum   'Zr1 V1 Tc6 O24'
_cell_volume   603.50999231
_cell_formula_units_Z   1
loop_
 _symmetry_equiv_pos_site_id
 _symmetry_equiv_pos_as_xyz
  1  'x, y, z'
loop_
 _atom_site_type_symbol
 _atom_site_label
 _atom_site_symmetry_multiplicity
 _atom_site_fract_x
 _atom_site_fract_y
 _atom_site_fract_z
 _atom_site_occupancy
  Zr  Zr0  1  0.500000  0.500000  0.500000  1
  V  V1  1  0.000000  0.000000  0.000000  1
  Tc  Tc2  1  0.572026  0.936214  0.243922  1
  Tc  Tc3  1  0.243922  0.572026  0.936214  1
  Tc  Tc4  1  0.936214  0.243922  0.572026  1
  Tc  Tc5  1  0.756078  0.427974  0.063786  1
  Tc  Tc6  1  0.063786  0.756078  0.427974  1
  Tc  Tc7  1  0.427974  0.063786  0.756078  1
  O  O8  1  0.789035  0.921627  0.161008  1
  O  O9  1  0.161008  0.789035  0.921627  1
  O  O10  1  0.921627  0.161008  0.789035  1
  O  O11  1  0.669371  0.408126  0.289237  1
  O  O12  1  0.289237  0.669371  0.408126  1
  O  O13  1  0.408126  0.289237  0.669371  1
  O  O14  1  0.210965  0.078373  0.838992  1
  O  O15  1  0.838992  0.210965  0.078373  1
  O  O16  1  0.078373  0.838992  0.210965  1
  O  O17  1  0.330629  0.591874  0.710763  1
  O  O18  1  0.710763  0.330629  0.591874  1
  O  O19  1  0.591874  0.710763  0.330629  1
  O  O20  1  0.421593  0.014148  0.415806  1
  O  O21  1  0.415806  0.421593  0.014148  1
  O  O22  1  0.014148  0.415806  0.421593  1
  O  O23  1  0.929446  0.503305  0.917334  1
  O  O24  1  0.917334  0.929446  0.503305  1
  O  O25  1  0.503305  0.917334  0.929446  1
  O  O26  1  0.578407  0.985852  0.584194  1
  O  O27  1  0.584194  0.578407  0.985852  1
  O  O28  1  0.985852  0.584194  0.578407  1
  O  O29  1  0.070554  0.496695  0.082666  1
  O  O30  1  0.082666  0.070554  0.496695  1
  O  O31  1  0.496695  0.082666  0.070554  1
