# generated using pymatgen
data_CeNd19Rh16
_symmetry_space_group_name_H-M   'P 1'
_cell_length_a   7.53948503
_cell_length_b   7.72355904
_cell_length_c   15.15098800
_cell_angle_alpha   90.00000000
_cell_angle_beta   90.00000000
_cell_angle_gamma   89.98877886
_symmetry_Int_Tables_number   1
_chemical_formula_structural   CeNd19Rh16
_chemical_formula_sum   'Ce1 Nd19 Rh16'
_cell_volume   882.26713141
_cell_formula_units_Z   1
loop_
 _symmetry_equiv_pos_site_id
 _symmetry_equiv_pos_as_xyz
  1  'x, y, z'
loop_
 _atom_site_type_symbol
 _atom_site_label
 _atom_site_symmetry_multiplicity
 _atom_site_fract_x
 _atom_site_fract_y
 _atom_site_fract_z
 _atom_site_occupancy
  Ce  Ce0  1  0.315957  0.520391  0.250000  1
  Nd  Nd1  1  0.012939  0.680966  0.088494  1
  Nd  Nd2  1  0.836426  0.832256  0.622549  1
  Nd  Nd3  1  0.986223  0.318371  0.592931  1
  Nd  Nd4  1  0.175208  0.012835  0.750000  1
  Nd  Nd5  1  0.512131  0.818973  0.411117  1
  Nd  Nd6  1  0.486529  0.181064  0.592966  1
  Nd  Nd7  1  0.164323  0.169655  0.377466  1
  Nd  Nd8  1  0.336066  0.667835  0.877197  1
  Nd  Nd9  1  0.675093  0.488111  0.750000  1
  Nd  Nd10  1  0.336066  0.667835  0.622803  1
  Nd  Nd11  1  0.012939  0.680966  0.411506  1
  Nd  Nd12  1  0.486529  0.181064  0.907034  1
  Nd  Nd13  1  0.823468  0.977757  0.250000  1
  Nd  Nd14  1  0.512131  0.818973  0.088883  1
  Nd  Nd15  1  0.986223  0.318371  0.907069  1
  Nd  Nd16  1  0.836426  0.832256  0.877451  1
  Nd  Nd17  1  0.664027  0.332184  0.123064  1
  Nd  Nd18  1  0.164323  0.169655  0.122534  1
  Nd  Nd19  1  0.664027  0.332184  0.376936  1
  Rh  Rh20  1  0.040758  0.603438  0.750000  1
  Rh  Rh21  1  0.825131  0.029592  0.456883  1
  Rh  Rh22  1  0.460709  0.102015  0.250000  1
  Rh  Rh23  1  0.177221  0.969499  0.960214  1
  Rh  Rh24  1  0.674518  0.638363  0.250000  1
  Rh  Rh25  1  0.299009  0.356357  0.750000  1
  Rh  Rh26  1  0.973476  0.422391  0.250000  1
  Rh  Rh27  1  0.676893  0.529604  0.540535  1
  Rh  Rh28  1  0.323266  0.469323  0.041493  1
  Rh  Rh29  1  0.323266  0.469323  0.458507  1
  Rh  Rh30  1  0.540839  0.897402  0.750000  1
  Rh  Rh31  1  0.676893  0.529604  0.959465  1
  Rh  Rh32  1  0.825131  0.029592  0.043117  1
  Rh  Rh33  1  0.799406  0.143977  0.750000  1
  Rh  Rh34  1  0.177221  0.969499  0.539786  1
  Rh  Rh35  1  0.219210  0.838319  0.250000  1
