# generated using pymatgen
data_Rb4H11Os2
_symmetry_space_group_name_H-M   'P 1'
_cell_length_a   6.26576687
_cell_length_b   9.18193498
_cell_length_c   10.60540218
_cell_angle_alpha   68.84396188
_cell_angle_beta   89.48510200
_cell_angle_gamma   89.60733025
_symmetry_Int_Tables_number   1
_chemical_formula_structural   Rb4H11Os2
_chemical_formula_sum   'Rb8 H22 Os4'
_cell_volume   568.99790899
_cell_formula_units_Z   2
loop_
 _symmetry_equiv_pos_site_id
 _symmetry_equiv_pos_as_xyz
  1  'x, y, z'
loop_
 _atom_site_type_symbol
 _atom_site_label
 _atom_site_symmetry_multiplicity
 _atom_site_fract_x
 _atom_site_fract_y
 _atom_site_fract_z
 _atom_site_occupancy
  Rb  Rb0  1  0.742265  0.350151  0.510097  1
  Rb  Rb1  1  0.257656  0.649680  0.490104  1
  Rb  Rb2  1  0.754945  0.492291  0.117388  1
  Rb  Rb3  1  0.245102  0.507895  0.882459  1
  Rb  Rb4  1  0.760897  0.973722  0.386256  1
  Rb  Rb5  1  0.238990  0.026055  0.613951  1
  Rb  Rb6  1  0.737174  0.159542  0.951905  1
  Rb  Rb7  1  0.262788  0.840703  0.047934  1
  H  H8  1  0.589883  0.788835  0.664709  1
  H  H9  1  0.410392  0.211195  0.335251  1
  H  H10  1  0.573170  0.470525  0.711613  1
  H  H11  1  0.427184  0.529264  0.288386  1
  H  H12  1  0.721398  0.019827  0.631213  1
  H  H13  1  0.278507  0.979914  0.368563  1
  H  H14  1  0.636083  0.667789  0.848453  1
  H  H15  1  0.364254  0.332208  0.151524  1
  H  H16  1  0.949492  0.755956  0.720482  1
  H  H17  1  0.050467  0.244079  0.279505  1
  H  H18  1  0.741968  0.652081  0.543631  1
  H  H19  1  0.257957  0.348166  0.456322  1
  H  H20  1  0.904462  0.998515  0.794297  1
  H  H21  1  0.095106  0.001714  0.205763  1
  H  H22  1  0.783586  0.815118  0.946067  1
  H  H23  1  0.216302  0.184531  0.053960  1
  H  H24  1  0.805186  0.469156  0.865427  1
  H  H25  1  0.194800  0.531098  0.134736  1
  H  H26  1  0.929119  0.485950  0.685285  1
  H  H27  1  0.070633  0.513784  0.314777  1
  H  H28  1  0.543287  0.967480  0.819736  1
  H  H29  1  0.456952  0.032720  0.180213  1
  Os  Os30  1  0.737954  0.865638  0.778544  1
  Os  Os31  1  0.262051  0.134343  0.221437  1
  Os  Os32  1  0.751059  0.606464  0.714188  1
  Os  Os33  1  0.248932  0.393612  0.285820  1
