# generated using pymatgen
data_Nd4Ga24IrPt
_symmetry_space_group_name_H-M   'P 1'
_cell_length_a   6.16103200
_cell_length_b   6.16103200
_cell_length_c   15.59151300
_cell_angle_alpha   90.00000000
_cell_angle_beta   90.00000000
_cell_angle_gamma   90.00000000
_symmetry_Int_Tables_number   1
_chemical_formula_structural   Nd4Ga24IrPt
_chemical_formula_sum   'Nd4 Ga24 Ir1 Pt1'
_cell_volume   591.82756654
_cell_formula_units_Z   1
loop_
 _symmetry_equiv_pos_site_id
 _symmetry_equiv_pos_as_xyz
  1  'x, y, z'
loop_
 _atom_site_type_symbol
 _atom_site_label
 _atom_site_symmetry_multiplicity
 _atom_site_fract_x
 _atom_site_fract_y
 _atom_site_fract_z
 _atom_site_occupancy
  Nd  Nd0  1  0.750000  0.250000  0.244198  1
  Nd  Nd1  1  0.250000  0.750000  0.242855  1
  Nd  Nd2  1  0.250000  0.750000  0.757145  1
  Nd  Nd3  1  0.750000  0.250000  0.755802  1
  Ga  Ga4  1  0.250000  0.250000  0.188941  1
  Ga  Ga5  1  0.750000  0.750000  0.188941  1
  Ga  Ga6  1  0.750000  0.750000  0.811059  1
  Ga  Ga7  1  0.250000  0.250000  0.811059  1
  Ga  Ga8  1  0.250000  0.250000  0.347398  1
  Ga  Ga9  1  0.750000  0.750000  0.347398  1
  Ga  Ga10  1  0.750000  0.750000  0.652602  1
  Ga  Ga11  1  0.250000  0.250000  0.652602  1
  Ga  Ga12  1  0.502447  0.002447  0.911747  1
  Ga  Ga13  1  0.997690  0.002310  0.912054  1
  Ga  Ga14  1  0.502310  0.497690  0.912054  1
  Ga  Ga15  1  0.997553  0.497553  0.911747  1
  Ga  Ga16  1  0.502310  0.002310  0.087946  1
  Ga  Ga17  1  0.997553  0.002447  0.088253  1
  Ga  Ga18  1  0.502447  0.497553  0.088253  1
  Ga  Ga19  1  0.997690  0.497690  0.087946  1
  Ga  Ga20  1  0.583173  0.083173  0.432264  1
  Ga  Ga21  1  0.083521  0.916479  0.431697  1
  Ga  Ga22  1  0.416479  0.583521  0.431697  1
  Ga  Ga23  1  0.916827  0.416827  0.432264  1
  Ga  Ga24  1  0.416479  0.916479  0.568303  1
  Ga  Ga25  1  0.916827  0.083173  0.567736  1
  Ga  Ga26  1  0.583173  0.416827  0.567736  1
  Ga  Ga27  1  0.083521  0.583521  0.568303  1
  Ir  Ir28  1  0.750000  0.250000  0.000000  1
  Pt  Pt29  1  0.250000  0.750000  0.000000  1
