# generated using pymatgen
data_Tb19ErSn9Bi7
_symmetry_space_group_name_H-M   'P 1'
_cell_length_a   8.21179007
_cell_length_b   8.24286397
_cell_length_c   15.69490600
_cell_angle_alpha   90.06679175
_cell_angle_beta   89.60507010
_cell_angle_gamma   89.91408288
_symmetry_Int_Tables_number   1
_chemical_formula_structural   Tb19ErSn9Bi7
_chemical_formula_sum   'Tb19 Er1 Sn9 Bi7'
_cell_volume   1062.34012360
_cell_formula_units_Z   1
loop_
 _symmetry_equiv_pos_site_id
 _symmetry_equiv_pos_as_xyz
  1  'x, y, z'
loop_
 _atom_site_type_symbol
 _atom_site_label
 _atom_site_symmetry_multiplicity
 _atom_site_fract_x
 _atom_site_fract_y
 _atom_site_fract_z
 _atom_site_occupancy
  Tb  Tb0  1  0.394740  0.837813  0.877921  1
  Tb  Tb1  1  0.897923  0.663788  0.621304  1
  Tb  Tb2  1  0.602107  0.162178  0.378113  1
  Tb  Tb3  1  0.101727  0.338064  0.121256  1
  Tb  Tb4  1  0.607118  0.167107  0.121280  1
  Tb  Tb5  1  0.102401  0.336483  0.378186  1
  Tb  Tb6  1  0.396778  0.838271  0.622431  1
  Tb  Tb7  1  0.892055  0.660623  0.880324  1
  Tb  Tb8  1  0.565099  0.333441  0.890097  1
  Tb  Tb9  1  0.065569  0.169269  0.613997  1
  Tb  Tb10  1  0.434824  0.668313  0.386408  1
  Tb  Tb11  1  0.937624  0.823586  0.111455  1
  Tb  Tb12  1  0.445906  0.665862  0.110226  1
  Tb  Tb13  1  0.934575  0.830770  0.385876  1
  Tb  Tb14  1  0.565787  0.331839  0.613515  1
  Tb  Tb15  1  0.056599  0.173998  0.889672  1
  Tb  Tb16  1  0.228582  0.500161  0.750762  1
  Tb  Tb17  1  0.728549  0.002137  0.750778  1
  Tb  Tb18  1  0.771671  0.499720  0.246125  1
  Er  Er19  1  0.271132  0.998025  0.248664  1
  Sn  Sn20  1  0.768171  0.480734  0.044533  1
  Sn  Sn21  1  0.594338  0.629564  0.749665  1
  Sn  Sn22  1  0.093006  0.872136  0.751158  1
  Sn  Sn23  1  0.404542  0.369925  0.250344  1
  Sn  Sn24  1  0.906776  0.126916  0.250116  1
  Sn  Sn25  1  0.366204  0.143086  0.751562  1
  Sn  Sn26  1  0.866359  0.360131  0.750130  1
  Sn  Sn27  1  0.632609  0.859130  0.249399  1
  Sn  Sn28  1  0.135988  0.641047  0.249631  1
  Bi  Bi29  1  0.265123  0.015683  0.044998  1
  Bi  Bi30  1  0.763240  0.486694  0.454024  1
  Bi  Bi31  1  0.736938  0.987465  0.545210  1
  Bi  Bi32  1  0.233624  0.518424  0.955609  1
  Bi  Bi33  1  0.732198  0.982085  0.955715  1
  Bi  Bi34  1  0.237544  0.513297  0.545261  1
  Bi  Bi35  1  0.262571  0.012236  0.454248  1
