# generated using pymatgen
data_Tm4Al5SiTc2
_symmetry_space_group_name_H-M   'P 1'
_cell_length_a   5.42789087
_cell_length_b   5.43972347
_cell_length_c   8.79969100
_cell_angle_alpha   90.00000000
_cell_angle_beta   90.00000000
_cell_angle_gamma   120.07213904
_symmetry_Int_Tables_number   1
_chemical_formula_structural   Tm4Al5SiTc2
_chemical_formula_sum   'Tm4 Al5 Si1 Tc2'
_cell_volume   224.84841317
_cell_formula_units_Z   1
loop_
 _symmetry_equiv_pos_site_id
 _symmetry_equiv_pos_as_xyz
  1  'x, y, z'
loop_
 _atom_site_type_symbol
 _atom_site_label
 _atom_site_symmetry_multiplicity
 _atom_site_fract_x
 _atom_site_fract_y
 _atom_site_fract_z
 _atom_site_occupancy
  Tm  Tm0  1  0.332793  0.666397  0.449796  1
  Tm  Tm1  1  0.667393  0.333696  0.554025  1
  Tm  Tm2  1  0.667393  0.333696  0.945975  1
  Tm  Tm3  1  0.332793  0.666397  0.050204  1
  Al  Al4  1  0.835275  0.162743  0.250000  1
  Al  Al5  1  0.835275  0.672533  0.250000  1
  Al  Al6  1  0.323746  0.161873  0.250000  1
  Al  Al7  1  0.168771  0.839194  0.750000  1
  Al  Al8  1  0.168771  0.329578  0.750000  1
  Si  Si9  1  0.678483  0.839242  0.750000  1
  Tc  Tc10  1  0.994653  0.997326  0.504286  1
  Tc  Tc11  1  0.994653  0.997326  0.995714  1
