# generated using pymatgen
data_TbAlCo3C
_symmetry_space_group_name_H-M   'P 1'
_cell_length_a   5.14712400
_cell_length_b   5.14716002
_cell_length_c   6.58354200
_cell_angle_alpha   90.00000000
_cell_angle_beta   90.00000000
_cell_angle_gamma   119.99980707
_symmetry_Int_Tables_number   1
_chemical_formula_structural   TbAlCo3C
_chemical_formula_sum   'Tb2 Al2 Co6 C2'
_cell_volume   151.05092451
_cell_formula_units_Z   2
loop_
 _symmetry_equiv_pos_site_id
 _symmetry_equiv_pos_as_xyz
  1  'x, y, z'
loop_
 _atom_site_type_symbol
 _atom_site_label
 _atom_site_symmetry_multiplicity
 _atom_site_fract_x
 _atom_site_fract_y
 _atom_site_fract_z
 _atom_site_occupancy
  Tb  Tb0  1  0.999979  0.000000  0.000000  1
  Tb  Tb1  1  0.999992  0.000000  0.500000  1
  Al  Al2  1  0.333292  0.666641  0.000000  1
  Al  Al3  1  0.666651  0.333359  0.000000  1
  Co  Co4  1  0.499989  0.000000  0.305388  1
  Co  Co5  1  0.499987  0.500001  0.305412  1
  Co  Co6  1  0.999985  0.499999  0.305412  1
  Co  Co7  1  0.499989  0.000000  0.694612  1
  Co  Co8  1  0.499987  0.500001  0.694588  1
  Co  Co9  1  0.999985  0.499999  0.694588  1
  C  C10  1  0.333334  0.666705  0.500000  1
  C  C11  1  0.666629  0.333295  0.500000  1
