# generated using pymatgen
data_Yb3Dy17Ir12
_symmetry_space_group_name_H-M   'P 1'
_cell_length_a   10.90358200
_cell_length_b   10.90358200
_cell_length_c   6.32182600
_cell_angle_alpha   90.00000000
_cell_angle_beta   90.00000000
_cell_angle_gamma   90.00000000
_symmetry_Int_Tables_number   1
_chemical_formula_structural   Yb3Dy17Ir12
_chemical_formula_sum   'Yb3 Dy17 Ir12'
_cell_volume   751.58988439
_cell_formula_units_Z   1
loop_
 _symmetry_equiv_pos_site_id
 _symmetry_equiv_pos_as_xyz
  1  'x, y, z'
loop_
 _atom_site_type_symbol
 _atom_site_label
 _atom_site_symmetry_multiplicity
 _atom_site_fract_x
 _atom_site_fract_y
 _atom_site_fract_z
 _atom_site_occupancy
  Yb  Yb0  1  0.000000  0.000000  0.500000  1
  Yb  Yb1  1  0.000000  0.000000  0.000000  1
  Yb  Yb2  1  0.500000  0.500000  0.000000  1
  Dy  Dy3  1  0.289792  0.089021  0.381265  1
  Dy  Dy4  1  0.290254  0.911871  0.880795  1
  Dy  Dy5  1  0.709746  0.088129  0.880795  1
  Dy  Dy6  1  0.710208  0.910979  0.381265  1
  Dy  Dy7  1  0.588647  0.789737  0.880016  1
  Dy  Dy8  1  0.590110  0.208468  0.381021  1
  Dy  Dy9  1  0.409890  0.791532  0.381021  1
  Dy  Dy10  1  0.411353  0.210263  0.880016  1
  Dy  Dy11  1  0.208468  0.409890  0.618979  1
  Dy  Dy12  1  0.210263  0.588647  0.119984  1
  Dy  Dy13  1  0.789737  0.411353  0.119984  1
  Dy  Dy14  1  0.791532  0.590110  0.618979  1
  Dy  Dy15  1  0.911871  0.709746  0.119205  1
  Dy  Dy16  1  0.910979  0.289792  0.618735  1
  Dy  Dy17  1  0.089021  0.710208  0.618735  1
  Dy  Dy18  1  0.088129  0.290254  0.119205  1
  Dy  Dy19  1  0.500000  0.500000  0.500000  1
  Ir  Ir20  1  0.841901  0.158335  0.248892  1
  Ir  Ir21  1  0.841665  0.841901  0.751108  1
  Ir  Ir22  1  0.158335  0.158099  0.751108  1
  Ir  Ir23  1  0.158099  0.841665  0.248892  1
  Ir  Ir24  1  0.655770  0.344498  0.746507  1
  Ir  Ir25  1  0.655502  0.655770  0.253493  1
  Ir  Ir26  1  0.344498  0.344230  0.253493  1
  Ir  Ir27  1  0.344230  0.655502  0.746507  1
  Ir  Ir28  1  0.500000  0.000000  0.121806  1
  Ir  Ir29  1  0.500000  0.000000  0.622502  1
  Ir  Ir30  1  0.000000  0.500000  0.878194  1
  Ir  Ir31  1  0.000000  0.500000  0.377498  1
