# generated using pymatgen
data_Cr3Tc(PRu)4
_symmetry_space_group_name_H-M   'P 1'
_cell_length_a   3.69791500
_cell_length_b   6.00745922
_cell_length_c   6.88515700
_cell_angle_alpha   89.80104861
_cell_angle_beta   90.00000000
_cell_angle_gamma   90.00000000
_symmetry_Int_Tables_number   1
_chemical_formula_structural   Cr3Tc(PRu)4
_chemical_formula_sum   'Cr3 Tc1 P4 Ru4'
_cell_volume   152.95334705
_cell_formula_units_Z   1
loop_
 _symmetry_equiv_pos_site_id
 _symmetry_equiv_pos_as_xyz
  1  'x, y, z'
loop_
 _atom_site_type_symbol
 _atom_site_label
 _atom_site_symmetry_multiplicity
 _atom_site_fract_x
 _atom_site_fract_y
 _atom_site_fract_z
 _atom_site_occupancy
  Cr  Cr0  1  0.250000  0.028577  0.172087  1
  Cr  Cr1  1  0.250000  0.521084  0.333372  1
  Cr  Cr2  1  0.750000  0.968183  0.828392  1
  Tc  Tc3  1  0.750000  0.480164  0.662025  1
  P  P4  1  0.250000  0.758497  0.620390  1
  P  P5  1  0.250000  0.263870  0.877924  1
  P  P6  1  0.750000  0.245249  0.381953  1
  P  P7  1  0.750000  0.735560  0.122331  1
  Ru  Ru8  1  0.250000  0.144377  0.569093  1
  Ru  Ru9  1  0.250000  0.651534  0.939149  1
  Ru  Ru10  1  0.750000  0.853266  0.429617  1
  Ru  Ru11  1  0.750000  0.349640  0.063665  1
