# generated using pymatgen
data_K6AgPb8Au
_symmetry_space_group_name_H-M   'P 1'
_cell_length_a   6.99267600
_cell_length_b   6.95953000
_cell_length_c   12.99848400
_cell_angle_alpha   90.00000000
_cell_angle_beta   90.00000000
_cell_angle_gamma   90.00000000
_symmetry_Int_Tables_number   1
_chemical_formula_structural   K6AgPb8Au
_chemical_formula_sum   'K6 Ag1 Pb8 Au1'
_cell_volume   632.58082197
_cell_formula_units_Z   1
loop_
 _symmetry_equiv_pos_site_id
 _symmetry_equiv_pos_as_xyz
  1  'x, y, z'
loop_
 _atom_site_type_symbol
 _atom_site_label
 _atom_site_symmetry_multiplicity
 _atom_site_fract_x
 _atom_site_fract_y
 _atom_site_fract_z
 _atom_site_occupancy
  K  K0  1  0.556423  0.000000  0.000000  1
  K  K1  1  0.442645  0.500000  0.500000  1
  K  K2  1  0.828018  0.500000  0.749611  1
  K  K3  1  0.828018  0.500000  0.250389  1
  K  K4  1  0.172471  0.000000  0.750065  1
  K  K5  1  0.172471  0.000000  0.249935  1
  Ag  Ag6  1  0.686476  0.500000  0.000000  1
  Pb  Pb7  1  0.331573  0.500000  0.873487  1
  Pb  Pb8  1  0.331573  0.500000  0.126513  1
  Pb  Pb9  1  0.039520  0.256792  0.000000  1
  Pb  Pb10  1  0.039520  0.743208  0.000000  1
  Pb  Pb11  1  0.961447  0.757638  0.500000  1
  Pb  Pb12  1  0.961447  0.242362  0.500000  1
  Pb  Pb13  1  0.667277  0.000000  0.373276  1
  Pb  Pb14  1  0.667277  0.000000  0.626724  1
  Au  Au15  1  0.313842  0.000000  0.500000  1
