# generated using pymatgen
data_Ce2Si6(Pd6Pt)3
_symmetry_space_group_name_H-M   'P 1'
_cell_length_a   8.68213008
_cell_length_b   8.68213044
_cell_length_c   8.68213002
_cell_angle_alpha   60.08999059
_cell_angle_beta   60.08998772
_cell_angle_gamma   60.08998720
_symmetry_Int_Tables_number   1
_chemical_formula_structural   Ce2Si6(Pd6Pt)3
_chemical_formula_sum   'Ce2 Si6 Pd18 Pt3'
_cell_volume   463.71223197
_cell_formula_units_Z   1
loop_
 _symmetry_equiv_pos_site_id
 _symmetry_equiv_pos_as_xyz
  1  'x, y, z'
loop_
 _atom_site_type_symbol
 _atom_site_label
 _atom_site_symmetry_multiplicity
 _atom_site_fract_x
 _atom_site_fract_y
 _atom_site_fract_z
 _atom_site_occupancy
  Ce  Ce0  1  0.749936  0.749936  0.749936  1
  Ce  Ce1  1  0.249841  0.249841  0.249841  1
  Si  Si2  1  0.735933  0.735933  0.263362  1
  Si  Si3  1  0.264979  0.735356  0.264979  1
  Si  Si4  1  0.735356  0.264979  0.264979  1
  Si  Si5  1  0.264979  0.264979  0.735356  1
  Si  Si6  1  0.735933  0.263362  0.735933  1
  Si  Si7  1  0.263362  0.735933  0.735933  1
  Pd  Pd8  1  0.999852  0.999852  0.999852  1
  Pd  Pd9  1  0.615893  0.615893  0.615893  1
  Pd  Pd10  1  0.383871  0.383871  0.851264  1
  Pd  Pd11  1  0.383871  0.851264  0.383871  1
  Pd  Pd12  1  0.851264  0.383871  0.383871  1
  Pd  Pd13  1  0.382392  0.382392  0.382392  1
  Pd  Pd14  1  0.000174  0.000174  0.344267  1
  Pd  Pd15  1  0.654708  0.000179  0.344223  1
  Pd  Pd16  1  0.000179  0.654708  0.344223  1
  Pd  Pd17  1  0.654708  0.344223  0.000179  1
  Pd  Pd18  1  0.000174  0.344267  0.000174  1
  Pd  Pd19  1  0.000179  0.344223  0.654708  1
  Pd  Pd20  1  0.344223  0.654708  0.000179  1
  Pd  Pd21  1  0.344223  0.000179  0.654708  1
  Pd  Pd22  1  0.344267  0.000174  0.000174  1
  Pd  Pd23  1  0.000194  0.000194  0.654797  1
  Pd  Pd24  1  0.000194  0.654797  0.000194  1
  Pd  Pd25  1  0.654797  0.000194  0.000194  1
  Pt  Pt26  1  0.615148  0.615148  0.154221  1
  Pt  Pt27  1  0.615148  0.154221  0.615148  1
  Pt  Pt28  1  0.154221  0.615148  0.615148  1
