# generated using pymatgen
data_LiNd2ZnPd2
_symmetry_space_group_name_H-M   'P 1'
_cell_length_a   4.19695500
_cell_length_b   7.26864700
_cell_length_c   8.43174800
_cell_angle_alpha   90.00000000
_cell_angle_beta   90.00000000
_cell_angle_gamma   90.00000000
_symmetry_Int_Tables_number   1
_chemical_formula_structural   LiNd2ZnPd2
_chemical_formula_sum   'Li2 Nd4 Zn2 Pd4'
_cell_volume   257.22045905
_cell_formula_units_Z   2
loop_
 _symmetry_equiv_pos_site_id
 _symmetry_equiv_pos_as_xyz
  1  'x, y, z'
loop_
 _atom_site_type_symbol
 _atom_site_label
 _atom_site_symmetry_multiplicity
 _atom_site_fract_x
 _atom_site_fract_y
 _atom_site_fract_z
 _atom_site_occupancy
  Li  Li0  1  0.250000  0.125184  0.944035  1
  Li  Li1  1  0.750000  0.374816  0.444035  1
  Nd  Nd2  1  0.250000  0.549998  0.186743  1
  Nd  Nd3  1  0.750000  0.462268  0.808774  1
  Nd  Nd4  1  0.250000  0.037732  0.308774  1
  Nd  Nd5  1  0.750000  0.950002  0.686743  1
  Zn  Zn6  1  0.250000  0.633987  0.563038  1
  Zn  Zn7  1  0.750000  0.866013  0.063038  1
  Pd  Pd8  1  0.750000  0.248478  0.113479  1
  Pd  Pd9  1  0.250000  0.251522  0.613479  1
  Pd  Pd10  1  0.750000  0.743730  0.383931  1
  Pd  Pd11  1  0.250000  0.756270  0.883931  1
