# generated using pymatgen
data_Lu6P13PtRh19
_symmetry_space_group_name_H-M   'P 1'
_cell_length_a   13.30635400
_cell_length_b   13.30635248
_cell_length_c   3.89086700
_cell_angle_alpha   90.00000000
_cell_angle_beta   90.00000000
_cell_angle_gamma   119.99999382
_symmetry_Int_Tables_number   1
_chemical_formula_structural   Lu6P13PtRh19
_chemical_formula_sum   'Lu6 P13 Pt1 Rh19'
_cell_volume   596.61633691
_cell_formula_units_Z   1
loop_
 _symmetry_equiv_pos_site_id
 _symmetry_equiv_pos_as_xyz
  1  'x, y, z'
loop_
 _atom_site_type_symbol
 _atom_site_label
 _atom_site_symmetry_multiplicity
 _atom_site_fract_x
 _atom_site_fract_y
 _atom_site_fract_z
 _atom_site_occupancy
  Lu  Lu0  1  0.528843  0.717408  0.248663  1
  Lu  Lu1  1  0.282592  0.811435  0.248663  1
  Lu  Lu2  1  0.188565  0.471157  0.248663  1
  Lu  Lu3  1  0.471704  0.282525  0.751376  1
  Lu  Lu4  1  0.717475  0.189179  0.751376  1
  Lu  Lu5  1  0.810821  0.528296  0.751376  1
  P  P6  1  0.527749  0.140529  0.250247  1
  P  P7  1  0.859471  0.387220  0.250247  1
  P  P8  1  0.612780  0.472251  0.250247  1
  P  P9  1  0.943937  0.713203  0.254353  1
  P  P10  1  0.286797  0.230733  0.254353  1
  P  P11  1  0.769267  0.056063  0.254353  1
  P  P12  1  0.387971  0.526152  0.749845  1
  P  P13  1  0.473848  0.861819  0.749845  1
  P  P14  1  0.138181  0.612029  0.749845  1
  P  P15  1  0.713413  0.769255  0.745793  1
  P  P16  1  0.230745  0.944158  0.745793  1
  P  P17  1  0.055842  0.286587  0.745793  1
  P  P18  1  0.000000  0.000000  0.999571  1
  Pt  Pt19  1  0.333333  0.666667  0.751586  1
  Rh  Rh20  1  0.919487  0.249999  0.253689  1
  Rh  Rh21  1  0.750001  0.669488  0.253689  1
  Rh  Rh22  1  0.330512  0.080513  0.253689  1
  Rh  Rh23  1  0.436536  0.020056  0.751511  1
  Rh  Rh24  1  0.979944  0.416479  0.751511  1
  Rh  Rh25  1  0.583521  0.563464  0.751511  1
  Rh  Rh26  1  0.666667  0.333333  0.247736  1
  Rh  Rh27  1  0.094363  0.187598  0.247676  1
  Rh  Rh28  1  0.812402  0.906765  0.247676  1
  Rh  Rh29  1  0.093235  0.905637  0.247676  1
  Rh  Rh30  1  0.020420  0.583529  0.248535  1
  Rh  Rh31  1  0.416471  0.436891  0.248535  1
  Rh  Rh32  1  0.563109  0.979580  0.248535  1
  Rh  Rh33  1  0.669101  0.918775  0.746305  1
  Rh  Rh34  1  0.081225  0.750326  0.746305  1
  Rh  Rh35  1  0.249674  0.330899  0.746305  1
  Rh  Rh36  1  0.905552  0.811806  0.752376  1
  Rh  Rh37  1  0.188194  0.093746  0.752376  1
  Rh  Rh38  1  0.906254  0.094448  0.752376  1
