# generated using pymatgen
data_Li2Dy3Th3(Co4P3)4
_symmetry_space_group_name_H-M   'P 1'
_cell_length_a   3.77387600
_cell_length_b   10.64320703
_cell_length_c   12.34212914
_cell_angle_alpha   90.11066426
_cell_angle_beta   90.00000000
_cell_angle_gamma   90.00000000
_symmetry_Int_Tables_number   1
_chemical_formula_structural   Li2Dy3Th3(Co4P3)4
_chemical_formula_sum   'Li2 Dy3 Th3 Co16 P12'
_cell_volume   495.73480623
_cell_formula_units_Z   1
loop_
 _symmetry_equiv_pos_site_id
 _symmetry_equiv_pos_as_xyz
  1  'x, y, z'
loop_
 _atom_site_type_symbol
 _atom_site_label
 _atom_site_symmetry_multiplicity
 _atom_site_fract_x
 _atom_site_fract_y
 _atom_site_fract_z
 _atom_site_occupancy
  Li  Li0  1  0.500000  0.498560  0.148799  1
  Li  Li1  1  0.000000  0.999829  0.851097  1
  Dy  Dy2  1  0.500000  0.185389  0.203454  1
  Dy  Dy3  1  0.000000  0.681976  0.796727  1
  Dy  Dy4  1  0.000000  0.317000  0.794255  1
  Th  Th5  1  0.000000  0.499585  0.525374  1
  Th  Th6  1  0.500000  0.002211  0.477045  1
  Th  Th7  1  0.500000  0.819122  0.206946  1
  Co  Co8  1  0.500000  0.499028  0.703629  1
  Co  Co9  1  0.000000  0.998944  0.295014  1
  Co  Co10  1  0.000000  0.498247  0.983996  1
  Co  Co11  1  0.500000  0.002039  0.011883  1
  Co  Co12  1  0.500000  0.333111  0.995142  1
  Co  Co13  1  0.500000  0.665642  0.995005  1
  Co  Co14  1  0.000000  0.169273  0.001742  1
  Co  Co15  1  0.000000  0.832872  0.003122  1
  Co  Co16  1  0.500000  0.297639  0.430240  1
  Co  Co17  1  0.500000  0.701268  0.434407  1
  Co  Co18  1  0.000000  0.202288  0.569050  1
  Co  Co19  1  0.000000  0.797879  0.572993  1
  Co  Co20  1  0.500000  0.878546  0.711180  1
  Co  Co21  1  0.500000  0.121075  0.709139  1
  Co  Co22  1  0.000000  0.621590  0.291521  1
  Co  Co23  1  0.000000  0.378736  0.289764  1
  P  P24  1  0.500000  0.498679  0.882815  1
  P  P25  1  0.000000  0.004683  0.111904  1
  P  P26  1  0.500000  0.499232  0.340409  1
  P  P27  1  0.000000  0.999662  0.660962  1
  P  P28  1  0.500000  0.304857  0.616974  1
  P  P29  1  0.500000  0.693715  0.620263  1
  P  P30  1  0.000000  0.194970  0.382106  1
  P  P31  1  0.000000  0.803644  0.390307  1
  P  P32  1  0.500000  0.843597  0.894944  1
  P  P33  1  0.500000  0.157598  0.893406  1
  P  P34  1  0.000000  0.653240  0.100495  1
  P  P35  1  0.000000  0.344274  0.103889  1
