# generated using pymatgen
data_Mn6AlSi5Ru12
_symmetry_space_group_name_H-M   'P 1'
_cell_length_a   4.19556400
_cell_length_b   5.91727300
_cell_length_c   12.59247900
_cell_angle_alpha   89.99998577
_cell_angle_beta   89.99974969
_cell_angle_gamma   90.00000000
_symmetry_Int_Tables_number   1
_chemical_formula_structural   Mn6AlSi5Ru12
_chemical_formula_sum   'Mn6 Al1 Si5 Ru12'
_cell_volume   312.62463088
_cell_formula_units_Z   1
loop_
 _symmetry_equiv_pos_site_id
 _symmetry_equiv_pos_as_xyz
  1  'x, y, z'
loop_
 _atom_site_type_symbol
 _atom_site_label
 _atom_site_symmetry_multiplicity
 _atom_site_fract_x
 _atom_site_fract_y
 _atom_site_fract_z
 _atom_site_occupancy
  Mn  Mn0  1  0.000000  0.000000  0.000000  1
  Mn  Mn1  1  0.499690  0.500000  0.164602  1
  Mn  Mn2  1  0.999666  0.999999  0.334263  1
  Mn  Mn3  1  0.500001  0.500000  0.500000  1
  Mn  Mn4  1  0.000333  0.000001  0.665738  1
  Mn  Mn5  1  0.500309  0.500000  0.835398  1
  Al  Al6  1  0.000000  0.500000  0.000000  1
  Si  Si7  1  0.499704  0.000000  0.167196  1
  Si  Si8  1  0.999696  0.500000  0.333096  1
  Si  Si9  1  0.500001  0.000000  0.500000  1
  Si  Si10  1  0.000304  0.500000  0.666904  1
  Si  Si11  1  0.500295  0.000000  0.832804  1
  Ru  Ru12  1  0.500001  0.241673  0.000000  1
  Ru  Ru13  1  0.500001  0.758326  0.000000  1
  Ru  Ru14  1  0.999701  0.246909  0.169915  1
  Ru  Ru15  1  0.999702  0.753091  0.169915  1
  Ru  Ru16  1  0.499690  0.248238  0.333797  1
  Ru  Ru17  1  0.499690  0.751760  0.333797  1
  Ru  Ru18  1  0.000000  0.252095  0.500000  1
  Ru  Ru19  1  0.000000  0.747905  0.500000  1
  Ru  Ru20  1  0.500310  0.248239  0.666203  1
  Ru  Ru21  1  0.500310  0.751761  0.666203  1
  Ru  Ru22  1  0.000297  0.246910  0.830085  1
  Ru  Ru23  1  0.000298  0.753092  0.830085  1
