# generated using pymatgen
data_YHoEr(Si3Pd10)2
_symmetry_space_group_name_H-M   'P 1'
_cell_length_a   8.71118431
_cell_length_b   8.71118479
_cell_length_c   8.71118500
_cell_angle_alpha   60.00000302
_cell_angle_beta   60.00000118
_cell_angle_gamma   60.00000481
_symmetry_Int_Tables_number   1
_chemical_formula_structural   YHoEr(Si3Pd10)2
_chemical_formula_sum   'Y1 Ho1 Er1 Si6 Pd20'
_cell_volume   467.43012460
_cell_formula_units_Z   1
loop_
 _symmetry_equiv_pos_site_id
 _symmetry_equiv_pos_as_xyz
  1  'x, y, z'
loop_
 _atom_site_type_symbol
 _atom_site_label
 _atom_site_symmetry_multiplicity
 _atom_site_fract_x
 _atom_site_fract_y
 _atom_site_fract_z
 _atom_site_occupancy
  Y  Y0  1  0.750000  0.750000  0.750000  1
  Ho  Ho1  1  0.250000  0.250000  0.250000  1
  Er  Er2  1  0.000000  0.000000  0.000000  1
  Si  Si3  1  0.732841  0.267159  0.267159  1
  Si  Si4  1  0.267159  0.732841  0.732841  1
  Si  Si5  1  0.267159  0.732841  0.267159  1
  Si  Si6  1  0.732841  0.267159  0.732841  1
  Si  Si7  1  0.267159  0.267159  0.732841  1
  Si  Si8  1  0.732841  0.732841  0.267159  1
  Pd  Pd9  1  0.345135  0.000066  0.000066  1
  Pd  Pd10  1  0.654732  0.000066  0.000066  1
  Pd  Pd11  1  0.000066  0.345135  0.654732  1
  Pd  Pd12  1  0.000066  0.654732  0.345135  1
  Pd  Pd13  1  0.000066  0.345135  0.000066  1
  Pd  Pd14  1  0.654732  0.000066  0.345135  1
  Pd  Pd15  1  0.000066  0.654732  0.000066  1
  Pd  Pd16  1  0.345135  0.000066  0.654732  1
  Pd  Pd17  1  0.000066  0.000066  0.345135  1
  Pd  Pd18  1  0.000066  0.000066  0.654732  1
  Pd  Pd19  1  0.654732  0.345135  0.000066  1
  Pd  Pd20  1  0.345135  0.654732  0.000066  1
  Pd  Pd21  1  0.383551  0.383551  0.383551  1
  Pd  Pd22  1  0.616114  0.616114  0.616114  1
  Pd  Pd23  1  0.383551  0.383551  0.849349  1
  Pd  Pd24  1  0.383551  0.849349  0.383551  1
  Pd  Pd25  1  0.616114  0.616114  0.151656  1
  Pd  Pd26  1  0.616114  0.151656  0.616114  1
  Pd  Pd27  1  0.849349  0.383551  0.383551  1
  Pd  Pd28  1  0.151656  0.616114  0.616114  1
