# generated using pymatgen
data_Pr3Cd(Ir2O7)2
_symmetry_space_group_name_H-M   'P 1'
_cell_length_a   7.31467047
_cell_length_b   7.47211210
_cell_length_c   7.47211300
_cell_angle_alpha   60.00000044
_cell_angle_beta   59.28539790
_cell_angle_gamma   59.28539710
_symmetry_Int_Tables_number   1
_chemical_formula_structural   Pr3Cd(Ir2O7)2
_chemical_formula_sum   'Pr3 Cd1 Ir4 O14'
_cell_volume   285.62106532
_cell_formula_units_Z   1
loop_
 _symmetry_equiv_pos_site_id
 _symmetry_equiv_pos_as_xyz
  1  'x, y, z'
loop_
 _atom_site_type_symbol
 _atom_site_label
 _atom_site_symmetry_multiplicity
 _atom_site_fract_x
 _atom_site_fract_y
 _atom_site_fract_z
 _atom_site_occupancy
  Pr  Pr0  1  0.125000  0.125000  0.625000  1
  Pr  Pr1  1  0.125000  0.125000  0.125000  1
  Pr  Pr2  1  0.125000  0.625000  0.125000  1
  Cd  Cd3  1  0.625000  0.125000  0.125000  1
  Ir  Ir4  1  0.625000  0.625000  0.625000  1
  Ir  Ir5  1  0.125000  0.625000  0.625000  1
  Ir  Ir6  1  0.625000  0.125000  0.625000  1
  Ir  Ir7  1  0.625000  0.625000  0.125000  1
  O  O8  1  0.959274  0.542509  0.542509  1
  O  O9  1  0.290726  0.294291  0.707491  1
  O  O10  1  0.959274  0.542509  0.955709  1
  O  O11  1  0.699773  0.301298  0.301298  1
  O  O12  1  0.550227  0.552369  0.948702  1
  O  O13  1  0.550227  0.948702  0.552369  1
  O  O14  1  0.550227  0.948702  0.948702  1
  O  O15  1  0.261186  0.246271  0.246271  1
  O  O16  1  0.290726  0.707491  0.707491  1
  O  O17  1  0.699773  0.301298  0.697631  1
  O  O18  1  0.988814  0.003729  0.003729  1
  O  O19  1  0.959274  0.955709  0.542509  1
  O  O20  1  0.290726  0.707491  0.294291  1
  O  O21  1  0.699773  0.697631  0.301298  1
