# generated using pymatgen
data_Ta3Be3Fe2Ir
_symmetry_space_group_name_H-M   'P 1'
_cell_length_a   6.34267800
_cell_length_b   6.31207655
_cell_length_c   3.11112300
_cell_angle_alpha   90.00000000
_cell_angle_beta   90.00000000
_cell_angle_gamma   120.16052421
_symmetry_Int_Tables_number   1
_chemical_formula_structural   Ta3Be3Fe2Ir
_chemical_formula_sum   'Ta3 Be3 Fe2 Ir1'
_cell_volume   107.69312186
_cell_formula_units_Z   1
loop_
 _symmetry_equiv_pos_site_id
 _symmetry_equiv_pos_as_xyz
  1  'x, y, z'
loop_
 _atom_site_type_symbol
 _atom_site_label
 _atom_site_symmetry_multiplicity
 _atom_site_fract_x
 _atom_site_fract_y
 _atom_site_fract_z
 _atom_site_occupancy
  Ta  Ta0  1  0.395120  0.000000  0.500000  1
  Ta  Ta1  1  0.006740  0.421770  0.500000  1
  Ta  Ta2  1  0.584970  0.578230  0.500000  1
  Be  Be3  1  0.335435  0.668493  0.000000  1
  Be  Be4  1  0.666943  0.331507  0.000000  1
  Be  Be5  1  0.008689  0.000000  0.500000  1
  Fe  Fe6  1  0.000001  0.751200  0.000000  1
  Fe  Fe7  1  0.248801  0.248800  0.000000  1
  Ir  Ir8  1  0.753303  0.000000  0.000000  1
