# generated using pymatgen
data_Pr3Sm2(PtO6)2
_symmetry_space_group_name_H-M   'P 1'
_cell_length_a   7.14042358
_cell_length_b   7.14042352
_cell_length_c   7.54196201
_cell_angle_alpha   74.35187011
_cell_angle_beta   74.35188118
_cell_angle_gamma   50.90695089
_symmetry_Int_Tables_number   1
_chemical_formula_structural   Pr3Sm2(PtO6)2
_chemical_formula_sum   'Pr3 Sm2 Pt2 O12'
_cell_volume   284.81682215
_cell_formula_units_Z   1
loop_
 _symmetry_equiv_pos_site_id
 _symmetry_equiv_pos_as_xyz
  1  'x, y, z'
loop_
 _atom_site_type_symbol
 _atom_site_label
 _atom_site_symmetry_multiplicity
 _atom_site_fract_x
 _atom_site_fract_y
 _atom_site_fract_z
 _atom_site_occupancy
  Pr  Pr0  1  0.696328  0.696328  0.165494  1
  Pr  Pr1  1  0.303672  0.303672  0.834506  1
  Pr  Pr2  1  0.000000  0.000000  0.500000  1
  Sm  Sm3  1  0.300937  0.300937  0.360568  1
  Sm  Sm4  1  0.699063  0.699063  0.639432  1
  Pt  Pt5  1  0.751853  0.248147  0.000000  1
  Pt  Pt6  1  0.248147  0.751853  0.000000  1
  O  O7  1  0.093803  0.597532  0.571523  1
  O  O8  1  0.000343  0.000343  0.173306  1
  O  O9  1  0.402468  0.906197  0.428477  1
  O  O10  1  0.499023  0.499023  0.178813  1
  O  O11  1  0.102891  0.569984  0.085804  1
  O  O12  1  0.906197  0.402468  0.428477  1
  O  O13  1  0.999657  0.999657  0.826694  1
  O  O14  1  0.597532  0.093802  0.571523  1
  O  O15  1  0.500977  0.500977  0.821187  1
  O  O16  1  0.569984  0.102891  0.085804  1
  O  O17  1  0.430016  0.897109  0.914196  1
  O  O18  1  0.897109  0.430016  0.914196  1
