# generated using pymatgen
data_Na4MnAs2O9
_symmetry_space_group_name_H-M   'P 1'
_cell_length_a   8.75053664
_cell_length_b   8.75053682
_cell_length_c   7.79527885
_cell_angle_alpha   89.71696839
_cell_angle_beta   89.71696765
_cell_angle_gamma   48.76586555
_symmetry_Int_Tables_number   1
_chemical_formula_structural   Na4MnAs2O9
_chemical_formula_sum   'Na8 Mn2 As4 O18'
_cell_volume   448.87498417
_cell_formula_units_Z   2
loop_
 _symmetry_equiv_pos_site_id
 _symmetry_equiv_pos_as_xyz
  1  'x, y, z'
loop_
 _atom_site_type_symbol
 _atom_site_label
 _atom_site_symmetry_multiplicity
 _atom_site_fract_x
 _atom_site_fract_y
 _atom_site_fract_z
 _atom_site_occupancy
  Na  Na0  1  0.745682  0.254318  0.000000  1
  Na  Na1  1  0.627603  0.627603  0.272817  1
  Na  Na2  1  0.890211  0.890211  0.238297  1
  Na  Na3  1  0.109789  0.109789  0.761703  1
  Na  Na4  1  0.500000  0.000000  0.500000  1
  Na  Na5  1  0.254318  0.745682  0.000000  1
  Na  Na6  1  0.372397  0.372397  0.727183  1
  Na  Na7  1  0.000000  0.500000  0.500000  1
  Mn  Mn8  1  0.000000  0.500000  0.000000  1
  Mn  Mn9  1  0.500000  0.000000  0.000000  1
  As  As10  1  0.131814  0.131814  0.269732  1
  As  As11  1  0.384705  0.384705  0.235807  1
  As  As12  1  0.868186  0.868186  0.730268  1
  As  As13  1  0.615295  0.615295  0.764193  1
  O  O14  1  0.556293  0.155364  0.121640  1
  O  O15  1  0.509398  0.509398  0.785989  1
  O  O16  1  0.443707  0.844636  0.878360  1
  O  O17  1  0.141119  0.141119  0.485818  1
  O  O18  1  0.388967  0.983114  0.210349  1
  O  O19  1  0.983114  0.388967  0.210349  1
  O  O20  1  0.844636  0.443707  0.878360  1
  O  O21  1  0.964540  0.964540  0.821344  1
  O  O22  1  0.155364  0.556293  0.121640  1
  O  O23  1  0.240282  0.240282  0.922159  1
  O  O24  1  0.016886  0.611033  0.789651  1
  O  O25  1  0.759718  0.759718  0.077841  1
  O  O26  1  0.858881  0.858881  0.514182  1
  O  O27  1  0.490602  0.490602  0.214011  1
  O  O28  1  0.611033  0.016886  0.789651  1
  O  O29  1  0.657605  0.657605  0.564474  1
  O  O30  1  0.035460  0.035460  0.178656  1
  O  O31  1  0.342395  0.342395  0.435526  1
