# generated using pymatgen
data_HoPa3(GaTc)4
_symmetry_space_group_name_H-M   'P 1'
_cell_length_a   4.78022200
_cell_length_b   7.08938295
_cell_length_c   6.97913032
_cell_angle_alpha   92.72401008
_cell_angle_beta   90.00000000
_cell_angle_gamma   90.00000000
_symmetry_Int_Tables_number   1
_chemical_formula_structural   HoPa3(GaTc)4
_chemical_formula_sum   'Ho1 Pa3 Ga4 Tc4'
_cell_volume   236.24727123
_cell_formula_units_Z   1
loop_
 _symmetry_equiv_pos_site_id
 _symmetry_equiv_pos_as_xyz
  1  'x, y, z'
loop_
 _atom_site_type_symbol
 _atom_site_label
 _atom_site_symmetry_multiplicity
 _atom_site_fract_x
 _atom_site_fract_y
 _atom_site_fract_z
 _atom_site_occupancy
  Ho  Ho0  1  0.750000  0.806941  0.975516  1
  Pa  Pa1  1  0.250000  0.293341  0.529753  1
  Pa  Pa2  1  0.250000  0.206830  0.033154  1
  Pa  Pa3  1  0.750000  0.703314  0.470727  1
  Ga  Ga4  1  0.250000  0.883652  0.712248  1
  Ga  Ga5  1  0.250000  0.621694  0.201046  1
  Ga  Ga6  1  0.750000  0.117361  0.287681  1
  Ga  Ga7  1  0.750000  0.381749  0.800687  1
  Tc  Tc8  1  0.250000  0.977620  0.336125  1
  Tc  Tc9  1  0.250000  0.518749  0.830878  1
  Tc  Tc10  1  0.750000  0.025524  0.639519  1
  Tc  Tc11  1  0.750000  0.463226  0.182668  1
