# generated using pymatgen
data_ZrTa3NbN6
_symmetry_space_group_name_H-M   'P 1'
_cell_length_a   5.28394198
_cell_length_b   5.29646824
_cell_length_c   10.51348919
_cell_angle_alpha   90.02198403
_cell_angle_beta   89.98897437
_cell_angle_gamma   120.07845145
_symmetry_Int_Tables_number   1
_chemical_formula_structural   ZrTa3NbN6
_chemical_formula_sum   'Zr2 Ta6 Nb2 N12'
_cell_volume   254.61150218
_cell_formula_units_Z   2
loop_
 _symmetry_equiv_pos_site_id
 _symmetry_equiv_pos_as_xyz
  1  'x, y, z'
loop_
 _atom_site_type_symbol
 _atom_site_label
 _atom_site_symmetry_multiplicity
 _atom_site_fract_x
 _atom_site_fract_y
 _atom_site_fract_z
 _atom_site_occupancy
  Zr  Zr0  1  0.333012  0.666506  0.500000  1
  Zr  Zr1  1  0.663126  0.331563  0.000000  1
  Ta  Ta2  1  0.663584  0.331792  0.500000  1
  Ta  Ta3  1  0.333074  0.666538  0.000000  1
  Ta  Ta4  1  0.677112  0.000150  0.749992  1
  Ta  Ta5  1  0.677112  0.676962  0.250008  1
  Ta  Ta6  1  0.999910  0.323702  0.249889  1
  Ta  Ta7  1  0.999910  0.676208  0.750111  1
  Nb  Nb8  1  0.324852  0.324972  0.749895  1
  Nb  Nb9  1  0.324852  0.999880  0.250105  1
  N  N10  1  0.346336  0.340574  0.375871  1
  N  N11  1  0.667594  0.009567  0.376781  1
  N  N12  1  0.986386  0.647725  0.375795  1
  N  N13  1  0.005956  0.348028  0.875779  1
  N  N14  1  0.658312  0.990821  0.123336  1
  N  N15  1  0.658312  0.667492  0.876664  1
  N  N16  1  0.337143  0.986440  0.876022  1
  N  N17  1  0.667594  0.658027  0.623219  1
  N  N18  1  0.986386  0.338660  0.624205  1
  N  N19  1  0.005956  0.657928  0.124221  1
  N  N20  1  0.346336  0.005761  0.624129  1
  N  N21  1  0.337143  0.350704  0.123978  1
