# generated using pymatgen
data_Y7Co6Sn22Au
_symmetry_space_group_name_H-M   'P 1'
_cell_length_a   9.68392300
_cell_length_b   9.68392297
_cell_length_c   9.95593700
_cell_angle_alpha   90.00000000
_cell_angle_beta   90.00000000
_cell_angle_gamma   120.00000353
_symmetry_Int_Tables_number   1
_chemical_formula_structural   Y7Co6Sn22Au
_chemical_formula_sum   'Y7 Co6 Sn22 Au1'
_cell_volume   808.56587770
_cell_formula_units_Z   1
loop_
 _symmetry_equiv_pos_site_id
 _symmetry_equiv_pos_as_xyz
  1  'x, y, z'
loop_
 _atom_site_type_symbol
 _atom_site_label
 _atom_site_symmetry_multiplicity
 _atom_site_fract_x
 _atom_site_fract_y
 _atom_site_fract_z
 _atom_site_occupancy
  Y  Y0  1  0.000000  0.000000  0.000000  1
  Y  Y1  1  0.043790  0.521895  0.307059  1
  Y  Y2  1  0.478105  0.956210  0.307059  1
  Y  Y3  1  0.478105  0.521895  0.307059  1
  Y  Y4  1  0.956210  0.478105  0.692941  1
  Y  Y5  1  0.521895  0.043790  0.692941  1
  Y  Y6  1  0.521895  0.478105  0.692941  1
  Co  Co7  1  0.167662  0.832338  0.803842  1
  Co  Co8  1  0.664675  0.832338  0.803842  1
  Co  Co9  1  0.167662  0.335325  0.803842  1
  Co  Co10  1  0.832338  0.167662  0.196158  1
  Co  Co11  1  0.335325  0.167662  0.196158  1
  Co  Co12  1  0.832338  0.664675  0.196158  1
  Sn  Sn13  1  0.113216  0.886784  0.277763  1
  Sn  Sn14  1  0.773568  0.886784  0.277763  1
  Sn  Sn15  1  0.113216  0.226432  0.277763  1
  Sn  Sn16  1  0.886784  0.113216  0.722237  1
  Sn  Sn17  1  0.226432  0.113216  0.722237  1
  Sn  Sn18  1  0.886784  0.773568  0.722237  1
  Sn  Sn19  1  0.346169  0.000000  0.000000  1
  Sn  Sn20  1  0.653831  0.653831  0.000000  1
  Sn  Sn21  1  0.000000  0.346169  0.000000  1
  Sn  Sn22  1  0.346169  0.346169  0.000000  1
  Sn  Sn23  1  0.000000  0.653831  0.000000  1
  Sn  Sn24  1  0.653831  0.000000  0.000000  1
  Sn  Sn25  1  0.783231  0.566462  0.452032  1
  Sn  Sn26  1  0.783231  0.216769  0.452032  1
  Sn  Sn27  1  0.433538  0.216769  0.452032  1
  Sn  Sn28  1  0.216769  0.433538  0.547968  1
  Sn  Sn29  1  0.216769  0.783231  0.547968  1
  Sn  Sn30  1  0.566462  0.783231  0.547968  1
  Sn  Sn31  1  0.666667  0.333333  0.183596  1
  Sn  Sn32  1  0.333333  0.666667  0.816404  1
  Sn  Sn33  1  0.666667  0.333333  0.882597  1
  Sn  Sn34  1  0.333333  0.666667  0.117403  1
  Au  Au35  1  0.000000  0.000000  0.500000  1
