# generated using pymatgen
data_Ho4Al3ZnPd4
_symmetry_space_group_name_H-M   'P 1'
_cell_length_a   4.43285300
_cell_length_b   6.84886776
_cell_length_c   7.81052872
_cell_angle_alpha   89.72071526
_cell_angle_beta   90.00000000
_cell_angle_gamma   90.00000000
_symmetry_Int_Tables_number   1
_chemical_formula_structural   Ho4Al3ZnPd4
_chemical_formula_sum   'Ho4 Al3 Zn1 Pd4'
_cell_volume   237.12502242
_cell_formula_units_Z   1
loop_
 _symmetry_equiv_pos_site_id
 _symmetry_equiv_pos_as_xyz
  1  'x, y, z'
loop_
 _atom_site_type_symbol
 _atom_site_label
 _atom_site_symmetry_multiplicity
 _atom_site_fract_x
 _atom_site_fract_y
 _atom_site_fract_z
 _atom_site_occupancy
  Ho  Ho0  1  0.250000  0.031418  0.685392  1
  Ho  Ho1  1  0.250000  0.531131  0.819887  1
  Ho  Ho2  1  0.750000  0.968918  0.316405  1
  Ho  Ho3  1  0.750000  0.465343  0.179714  1
  Al  Al4  1  0.250000  0.647437  0.438179  1
  Al  Al5  1  0.750000  0.853281  0.937182  1
  Al  Al6  1  0.750000  0.355334  0.560946  1
  Zn  Zn7  1  0.250000  0.150887  0.063583  1
  Pd  Pd8  1  0.250000  0.272814  0.388779  1
  Pd  Pd9  1  0.250000  0.765040  0.117722  1
  Pd  Pd10  1  0.750000  0.728563  0.617142  1
  Pd  Pd11  1  0.750000  0.229835  0.875069  1
