# generated using pymatgen
data_Y5Er15Cd6FeNi
_symmetry_space_group_name_H-M   'P 1'
_cell_length_a   9.53269703
_cell_length_b   9.53269793
_cell_length_c   9.68080300
_cell_angle_alpha   90.00000000
_cell_angle_beta   90.00000000
_cell_angle_gamma   119.99049802
_symmetry_Int_Tables_number   1
_chemical_formula_structural   Y5Er15Cd6FeNi
_chemical_formula_sum   'Y5 Er15 Cd6 Fe1 Ni1'
_cell_volume   761.93024106
_cell_formula_units_Z   1
loop_
 _symmetry_equiv_pos_site_id
 _symmetry_equiv_pos_as_xyz
  1  'x, y, z'
loop_
 _atom_site_type_symbol
 _atom_site_label
 _atom_site_symmetry_multiplicity
 _atom_site_fract_x
 _atom_site_fract_y
 _atom_site_fract_z
 _atom_site_occupancy
  Y  Y0  1  0.541274  0.458726  0.250000  1
  Y  Y1  1  0.541255  0.082458  0.250000  1
  Y  Y2  1  0.917542  0.458745  0.250000  1
  Y  Y3  1  0.456860  0.913359  0.750000  1
  Y  Y4  1  0.086641  0.543140  0.750000  1
  Er  Er5  1  0.999990  0.000010  0.499793  1
  Er  Er6  1  0.999990  0.000010  0.000207  1
  Er  Er7  1  0.457047  0.542953  0.750000  1
  Er  Er8  1  0.212086  0.787914  0.435808  1
  Er  Er9  1  0.212379  0.424303  0.436031  1
  Er  Er10  1  0.575697  0.787621  0.436031  1
  Er  Er11  1  0.789061  0.210939  0.562650  1
  Er  Er12  1  0.788654  0.578133  0.562835  1
  Er  Er13  1  0.421867  0.211346  0.562835  1
  Er  Er14  1  0.789061  0.210939  0.937350  1
  Er  Er15  1  0.788654  0.578133  0.937165  1
  Er  Er16  1  0.421867  0.211346  0.937165  1
  Er  Er17  1  0.212086  0.787914  0.064192  1
  Er  Er18  1  0.212379  0.424303  0.063969  1
  Er  Er19  1  0.575697  0.787621  0.063969  1
  Cd  Cd20  1  0.885212  0.114788  0.250000  1
  Cd  Cd21  1  0.885134  0.770386  0.250000  1
  Cd  Cd22  1  0.229614  0.114866  0.250000  1
  Cd  Cd23  1  0.114745  0.885255  0.750000  1
  Cd  Cd24  1  0.115270  0.229947  0.750000  1
  Cd  Cd25  1  0.770053  0.884730  0.750000  1
  Fe  Fe26  1  0.333284  0.666716  0.250000  1
  Ni  Ni27  1  0.666601  0.333399  0.750000  1
