# generated using pymatgen
data_CeSc7(Si4Ru3)4
_symmetry_space_group_name_H-M   'P 1'
_cell_length_a   9.98913720
_cell_length_b   9.98746621
_cell_length_c   13.45573067
_cell_angle_alpha   53.78375605
_cell_angle_beta   53.81500027
_cell_angle_gamma   31.01233432
_symmetry_Int_Tables_number   1
_chemical_formula_structural   CeSc7(Si4Ru3)4
_chemical_formula_sum   'Ce1 Sc7 Si16 Ru12'
_cell_volume   546.50030320
_cell_formula_units_Z   1
loop_
 _symmetry_equiv_pos_site_id
 _symmetry_equiv_pos_as_xyz
  1  'x, y, z'
loop_
 _atom_site_type_symbol
 _atom_site_label
 _atom_site_symmetry_multiplicity
 _atom_site_fract_x
 _atom_site_fract_y
 _atom_site_fract_z
 _atom_site_occupancy
  Ce  Ce0  1  0.285700  0.041976  0.141557  1
  Sc  Sc1  1  0.294325  0.560130  0.644328  1
  Sc  Sc2  1  0.440392  0.705044  0.855012  1
  Sc  Sc3  1  0.702685  0.440036  0.357996  1
  Sc  Sc4  1  0.560942  0.293254  0.144560  1
  Sc  Sc5  1  0.036790  0.292642  0.638896  1
  Sc  Sc6  1  0.709350  0.962686  0.859478  1
  Sc  Sc7  1  0.961458  0.706880  0.362593  1
  Si  Si8  1  0.863762  0.127440  0.252774  1
  Si  Si9  1  0.128930  0.871594  0.749844  1
  Si  Si10  1  0.382672  0.610255  0.252175  1
  Si  Si11  1  0.617336  0.382719  0.750474  1
  Si  Si12  1  0.975869  0.252706  0.892169  1
  Si  Si13  1  0.747404  0.024546  0.608080  1
  Si  Si14  1  0.024865  0.748666  0.107666  1
  Si  Si15  1  0.256611  0.967407  0.401161  1
  Si  Si16  1  0.579953  0.083270  0.063949  1
  Si  Si17  1  0.919357  0.425700  0.433100  1
  Si  Si18  1  0.426941  0.919635  0.928293  1
  Si  Si19  1  0.077850  0.576676  0.566638  1
  Si  Si20  1  0.387339  0.140125  0.399688  1
  Si  Si21  1  0.855284  0.624100  0.099305  1
  Si  Si22  1  0.613378  0.856308  0.601834  1
  Si  Si23  1  0.144439  0.388734  0.892725  1
  Ru  Ru24  1  0.648947  0.831086  0.281943  1
  Ru  Ru25  1  0.171531  0.353175  0.217926  1
  Ru  Ru26  1  0.753108  0.490223  0.067585  1
  Ru  Ru27  1  0.831815  0.646827  0.781156  1
  Ru  Ru28  1  0.894840  0.142866  0.587225  1
  Ru  Ru29  1  0.862219  0.101665  0.912771  1
  Ru  Ru30  1  0.102099  0.859211  0.414384  1
  Ru  Ru31  1  0.143085  0.895602  0.085898  1
  Ru  Ru32  1  0.247328  0.509181  0.931015  1
  Ru  Ru33  1  0.492281  0.750300  0.568142  1
  Ru  Ru34  1  0.505447  0.247697  0.433016  1
  Ru  Ru35  1  0.353670  0.169642  0.714642  1
