# generated using pymatgen
data_Sc7NbV12Si15P
_symmetry_space_group_name_H-M   'P 1'
_cell_length_a   6.60425853
_cell_length_b   6.59113598
_cell_length_c   12.20737687
_cell_angle_alpha   90.08600690
_cell_angle_beta   89.95821350
_cell_angle_gamma   90.04871487
_symmetry_Int_Tables_number   1
_chemical_formula_structural   Sc7NbV12Si15P
_chemical_formula_sum   'Sc7 Nb1 V12 Si15 P1'
_cell_volume   531.38088509
_cell_formula_units_Z   1
loop_
 _symmetry_equiv_pos_site_id
 _symmetry_equiv_pos_as_xyz
  1  'x, y, z'
loop_
 _atom_site_type_symbol
 _atom_site_label
 _atom_site_symmetry_multiplicity
 _atom_site_fract_x
 _atom_site_fract_y
 _atom_site_fract_z
 _atom_site_occupancy
  Sc  Sc0  1  0.837727  0.500637  0.279415  1
  Sc  Sc1  1  0.161778  0.498506  0.779269  1
  Sc  Sc2  1  0.501382  0.837178  0.721137  1
  Sc  Sc3  1  0.496810  0.159391  0.217777  1
  Sc  Sc4  1  0.998534  0.337029  0.529715  1
  Sc  Sc5  1  0.660426  0.999586  0.972007  1
  Sc  Sc6  1  0.338006  0.998491  0.469796  1
  Nb  Nb7  1  0.009298  0.659747  0.031470  1
  V  V8  1  0.329972  0.333879  0.000551  1
  V  V9  1  0.169903  0.833140  0.246708  1
  V  V10  1  0.832691  0.168095  0.751361  1
  V  V11  1  0.667978  0.667872  0.499966  1
  V  V12  1  0.008720  0.153746  0.123433  1
  V  V13  1  0.342758  0.506567  0.375683  1
  V  V14  1  0.656299  0.495092  0.877809  1
  V  V15  1  0.505947  0.343755  0.624089  1
  V  V16  1  0.488131  0.663946  0.121242  1
  V  V17  1  0.992999  0.842910  0.627536  1
  V  V18  1  0.155859  0.005633  0.878399  1
  V  V19  1  0.842987  0.991676  0.372860  1
  Si  Si20  1  0.540638  0.793570  0.314533  1
  Si  Si21  1  0.460466  0.206535  0.814649  1
  Si  Si22  1  0.794276  0.539638  0.685625  1
  Si  Si23  1  0.206795  0.459139  0.186071  1
  Si  Si24  1  0.705677  0.039368  0.564977  1
  Si  Si25  1  0.958286  0.296831  0.934853  1
  Si  Si26  1  0.040140  0.706000  0.435112  1
  Si  Si27  1  0.706959  0.375173  0.071110  1
  Si  Si28  1  0.128929  0.203099  0.320171  1
  Si  Si29  1  0.870216  0.795117  0.823159  1
  Si  Si30  1  0.203592  0.128938  0.680254  1
  Si  Si31  1  0.797820  0.867892  0.178112  1
  Si  Si32  1  0.296445  0.630229  0.569999  1
  Si  Si33  1  0.369132  0.704110  0.927725  1
  Si  Si34  1  0.629619  0.295780  0.429447  1
  P  P35  1  0.292806  0.961708  0.063981  1
