# generated using pymatgen
data_Tm4Os7W
_symmetry_space_group_name_H-M   'P 1'
_cell_length_a   5.38169700
_cell_length_b   5.26533489
_cell_length_c   8.89564100
_cell_angle_alpha   90.00000000
_cell_angle_beta   90.00000000
_cell_angle_gamma   120.72732741
_symmetry_Int_Tables_number   1
_chemical_formula_structural   Tm4Os7W
_chemical_formula_sum   'Tm4 Os7 W1'
_cell_volume   216.68221983
_cell_formula_units_Z   1
loop_
 _symmetry_equiv_pos_site_id
 _symmetry_equiv_pos_as_xyz
  1  'x, y, z'
loop_
 _atom_site_type_symbol
 _atom_site_label
 _atom_site_symmetry_multiplicity
 _atom_site_fract_x
 _atom_site_fract_y
 _atom_site_fract_z
 _atom_site_occupancy
  Tm  Tm0  1  0.671186  0.342414  0.563188  1
  Tm  Tm1  1  0.334509  0.669263  0.433925  1
  Tm  Tm2  1  0.334509  0.669263  0.066075  1
  Tm  Tm3  1  0.671186  0.342414  0.936812  1
  Os  Os4  1  0.007822  0.015902  0.498918  1
  Os  Os5  1  0.007822  0.015902  0.001082  1
  Os  Os6  1  0.173145  0.821230  0.750000  1
  Os  Os7  1  0.648094  0.821244  0.750000  1
  Os  Os8  1  0.822723  0.645515  0.250000  1
  Os  Os9  1  0.828157  0.165044  0.250000  1
  Os  Os10  1  0.337622  0.165387  0.250000  1
  W  W11  1  0.163225  0.326423  0.750000  1
