# generated using pymatgen
data_Tm2(SeO4)3
_symmetry_space_group_name_H-M   'P 1'
_cell_length_a   9.84614744
_cell_length_b   9.84616691
_cell_length_c   9.84606601
_cell_angle_alpha   58.06304634
_cell_angle_beta   58.06311337
_cell_angle_gamma   58.06319668
_symmetry_Int_Tables_number   1
_chemical_formula_structural   Tm2(SeO4)3
_chemical_formula_sum   'Tm4 Se6 O24'
_cell_volume   644.98666765
_cell_formula_units_Z   2
loop_
 _symmetry_equiv_pos_site_id
 _symmetry_equiv_pos_as_xyz
  1  'x, y, z'
loop_
 _atom_site_type_symbol
 _atom_site_label
 _atom_site_symmetry_multiplicity
 _atom_site_fract_x
 _atom_site_fract_y
 _atom_site_fract_z
 _atom_site_occupancy
  Tm  Tm0  1  0.643926  0.643923  0.643922  1
  Tm  Tm1  1  0.356075  0.356078  0.356081  1
  Tm  Tm2  1  0.143928  0.143922  0.143921  1
  Tm  Tm3  1  0.856074  0.856079  0.856080  1
  Se  Se4  1  0.750004  0.037649  0.462350  1
  Se  Se5  1  0.962347  0.537649  0.250002  1
  Se  Se6  1  0.537650  0.250002  0.962354  1
  Se  Se7  1  0.462353  0.749995  0.037647  1
  Se  Se8  1  0.037646  0.462346  0.750002  1
  Se  Se9  1  0.249998  0.962352  0.537648  1
  O  O10  1  0.919676  0.064669  0.289288  1
  O  O11  1  0.775743  0.008092  0.630918  1
  O  O12  1  0.991909  0.369083  0.224260  1
  O  O13  1  0.710709  0.080333  0.935330  1
  O  O14  1  0.580332  0.210709  0.435334  1
  O  O15  1  0.869082  0.491907  0.724257  1
  O  O16  1  0.508092  0.275742  0.130921  1
  O  O17  1  0.789286  0.564666  0.419676  1
  O  O18  1  0.935331  0.710710  0.080330  1
  O  O19  1  0.564667  0.419674  0.789287  1
  O  O20  1  0.369084  0.224261  0.991910  1
  O  O21  1  0.275737  0.130919  0.508091  1
  O  O22  1  0.724263  0.869082  0.491911  1
  O  O23  1  0.630918  0.775740  0.008088  1
  O  O24  1  0.435333  0.580327  0.210713  1
  O  O25  1  0.064668  0.289287  0.919673  1
  O  O26  1  0.210710  0.435331  0.580330  1
  O  O27  1  0.491910  0.724263  0.869074  1
  O  O28  1  0.130914  0.508092  0.275741  1
  O  O29  1  0.419669  0.789293  0.564666  1
  O  O30  1  0.289298  0.919665  0.064667  1
  O  O31  1  0.008089  0.630912  0.775742  1
  O  O32  1  0.224255  0.991910  0.369081  1
  O  O33  1  0.080324  0.935335  0.710709  1
