# generated using pymatgen
data_ScZnCdNi3
_symmetry_space_group_name_H-M   'P 1'
_cell_length_a   4.99393648
_cell_length_b   4.99393704
_cell_length_c   4.90301746
_cell_angle_alpha   59.38467560
_cell_angle_beta   59.38466743
_cell_angle_gamma   60.00000967
_symmetry_Int_Tables_number   1
_chemical_formula_structural   ScZnCdNi3
_chemical_formula_sum   'Sc1 Zn1 Cd1 Ni3'
_cell_volume   85.65092744
_cell_formula_units_Z   1
loop_
 _symmetry_equiv_pos_site_id
 _symmetry_equiv_pos_as_xyz
  1  'x, y, z'
loop_
 _atom_site_type_symbol
 _atom_site_label
 _atom_site_symmetry_multiplicity
 _atom_site_fract_x
 _atom_site_fract_y
 _atom_site_fract_z
 _atom_site_occupancy
  Sc  Sc0  1  0.247099  0.247099  0.258704  1
  Zn  Zn1  1  0.625488  0.625488  0.123536  1
  Cd  Cd2  1  0.000788  0.000788  0.997635  1
  Ni  Ni3  1  0.625799  0.125026  0.623375  1
  Ni  Ni4  1  0.125026  0.625799  0.623375  1
  Ni  Ni5  1  0.625799  0.625799  0.623375  1
