# generated using pymatgen
data_KRb3(SbPt)4
_symmetry_space_group_name_H-M   'P 1'
_cell_length_a   7.23918488
_cell_length_b   7.23918408
_cell_length_c   7.23918480
_cell_angle_alpha   89.97349250
_cell_angle_beta   90.02650312
_cell_angle_gamma   89.97348881
_symmetry_Int_Tables_number   1
_chemical_formula_structural   KRb3(SbPt)4
_chemical_formula_sum   'K1 Rb3 Sb4 Pt4'
_cell_volume   379.37509062
_cell_formula_units_Z   1
loop_
 _symmetry_equiv_pos_site_id
 _symmetry_equiv_pos_as_xyz
  1  'x, y, z'
loop_
 _atom_site_type_symbol
 _atom_site_label
 _atom_site_symmetry_multiplicity
 _atom_site_fract_x
 _atom_site_fract_y
 _atom_site_fract_z
 _atom_site_occupancy
  K  K0  1  0.862067  0.637933  0.362067  1
  Rb  Rb1  1  0.636613  0.362084  0.862011  1
  Rb  Rb2  1  0.362011  0.863387  0.637916  1
  Rb  Rb3  1  0.137916  0.137989  0.136613  1
  Sb  Sb4  1  0.153069  0.346931  0.653069  1
  Sb  Sb5  1  0.657692  0.156869  0.343137  1
  Sb  Sb6  1  0.343131  0.656863  0.157692  1
  Sb  Sb7  1  0.843137  0.842308  0.843131  1
  Pt  Pt8  1  0.601279  0.898721  0.101279  1
  Pt  Pt9  1  0.099156  0.598210  0.902139  1
  Pt  Pt10  1  0.402139  0.400844  0.401790  1
  Pt  Pt11  1  0.901790  0.097861  0.599156  1
