# generated using pymatgen
data_Ac8UPd24
_symmetry_space_group_name_H-M   'P 1'
_cell_length_a   8.81060700
_cell_length_b   8.81060700
_cell_length_c   8.81060700
_cell_angle_alpha   90.00000000
_cell_angle_beta   90.00000000
_cell_angle_gamma   90.00000000
_symmetry_Int_Tables_number   1
_chemical_formula_structural   Ac8UPd24
_chemical_formula_sum   'Ac8 U1 Pd24'
_cell_volume   683.93918966
_cell_formula_units_Z   1
loop_
 _symmetry_equiv_pos_site_id
 _symmetry_equiv_pos_as_xyz
  1  'x, y, z'
loop_
 _atom_site_type_symbol
 _atom_site_label
 _atom_site_symmetry_multiplicity
 _atom_site_fract_x
 _atom_site_fract_y
 _atom_site_fract_z
 _atom_site_occupancy
  Ac  Ac0  1  0.253680  0.253680  0.253680  1
  Ac  Ac1  1  0.746320  0.746320  0.746320  1
  Ac  Ac2  1  0.746320  0.746320  0.253680  1
  Ac  Ac3  1  0.746320  0.253680  0.746320  1
  Ac  Ac4  1  0.253680  0.253680  0.746320  1
  Ac  Ac5  1  0.253680  0.746320  0.253680  1
  Ac  Ac6  1  0.253680  0.746320  0.746320  1
  Ac  Ac7  1  0.746320  0.253680  0.253680  1
  U  U8  1  0.000000  0.000000  0.000000  1
  Pd  Pd9  1  0.269329  0.500000  0.000000  1
  Pd  Pd10  1  0.730671  0.500000  0.000000  1
  Pd  Pd11  1  0.000000  0.269329  0.500000  1
  Pd  Pd12  1  0.500000  0.269329  0.000000  1
  Pd  Pd13  1  0.000000  0.730671  0.500000  1
  Pd  Pd14  1  0.500000  0.730671  0.000000  1
  Pd  Pd15  1  0.500000  0.000000  0.269329  1
  Pd  Pd16  1  0.269329  0.000000  0.500000  1
  Pd  Pd17  1  0.500000  0.000000  0.730671  1
  Pd  Pd18  1  0.730671  0.000000  0.500000  1
  Pd  Pd19  1  0.000000  0.500000  0.269329  1
  Pd  Pd20  1  0.000000  0.500000  0.730671  1
  Pd  Pd21  1  0.255851  0.500000  0.500000  1
  Pd  Pd22  1  0.744149  0.500000  0.500000  1
  Pd  Pd23  1  0.500000  0.255851  0.500000  1
  Pd  Pd24  1  0.500000  0.744149  0.500000  1
  Pd  Pd25  1  0.500000  0.500000  0.255851  1
  Pd  Pd26  1  0.500000  0.500000  0.744149  1
  Pd  Pd27  1  0.318242  0.000000  0.000000  1
  Pd  Pd28  1  0.681758  0.000000  0.000000  1
  Pd  Pd29  1  0.000000  0.318242  0.000000  1
  Pd  Pd30  1  0.000000  0.681758  0.000000  1
  Pd  Pd31  1  0.000000  0.000000  0.318242  1
  Pd  Pd32  1  0.000000  0.000000  0.681758  1
