# generated using pymatgen
data_TbY3Ir2(RhO7)2
_symmetry_space_group_name_H-M   'P 1'
_cell_length_a   7.24989429
_cell_length_b   7.24478852
_cell_length_c   7.24478827
_cell_angle_alpha   59.97952647
_cell_angle_beta   60.03655880
_cell_angle_gamma   60.03656115
_symmetry_Int_Tables_number   1
_chemical_formula_structural   TbY3Ir2(RhO7)2
_chemical_formula_sum   'Tb1 Y3 Ir2 Rh2 O14'
_cell_volume   269.17860717
_cell_formula_units_Z   1
loop_
 _symmetry_equiv_pos_site_id
 _symmetry_equiv_pos_as_xyz
  1  'x, y, z'
loop_
 _atom_site_type_symbol
 _atom_site_label
 _atom_site_symmetry_multiplicity
 _atom_site_fract_x
 _atom_site_fract_y
 _atom_site_fract_z
 _atom_site_occupancy
  Tb  Tb0  1  0.625000  0.125000  0.125000  1
  Y  Y1  1  0.125000  0.625000  0.125000  1
  Y  Y2  1  0.125000  0.125000  0.625000  1
  Y  Y3  1  0.125000  0.125000  0.125000  1
  Ir  Ir4  1  0.125000  0.625000  0.625000  1
  Ir  Ir5  1  0.625000  0.625000  0.625000  1
  Rh  Rh6  1  0.625000  0.125000  0.625000  1
  Rh  Rh7  1  0.625000  0.625000  0.125000  1
  O  O8  1  0.714777  0.708279  0.291127  1
  O  O9  1  0.285792  0.291157  0.708320  1
  O  O10  1  0.714777  0.291127  0.708279  1
  O  O11  1  0.285792  0.708320  0.291157  1
  O  O12  1  0.291536  0.708433  0.708433  1
  O  O13  1  0.715584  0.284524  0.284524  1
  O  O14  1  0.535223  0.541721  0.958873  1
  O  O15  1  0.964208  0.958843  0.541680  1
  O  O16  1  0.535223  0.958873  0.541721  1
  O  O17  1  0.964208  0.541680  0.958843  1
  O  O18  1  0.958464  0.541567  0.541567  1
  O  O19  1  0.534416  0.965476  0.965476  1
  O  O20  1  0.247872  0.251629  0.251629  1
  O  O21  1  0.002128  0.998371  0.998371  1
