# generated using pymatgen
data_Nd2SeS
_symmetry_space_group_name_H-M   'P 1'
_cell_length_a   7.21751721
_cell_length_b   7.21751755
_cell_length_c   7.21751737
_cell_angle_alpha   33.41671112
_cell_angle_beta   33.41670471
_cell_angle_gamma   33.41671554
_symmetry_Int_Tables_number   1
_chemical_formula_structural   Nd2SeS
_chemical_formula_sum   'Nd2 Se1 S1'
_cell_volume   101.54874217
_cell_formula_units_Z   1
loop_
 _symmetry_equiv_pos_site_id
 _symmetry_equiv_pos_as_xyz
  1  'x, y, z'
loop_
 _atom_site_type_symbol
 _atom_site_label
 _atom_site_symmetry_multiplicity
 _atom_site_fract_x
 _atom_site_fract_y
 _atom_site_fract_z
 _atom_site_occupancy
  Nd  Nd0  1  0.242189  0.242189  0.242189  1
  Nd  Nd1  1  0.757811  0.757811  0.757811  1
  Se  Se2  1  0.000000  0.000000  0.000000  1
  S  S3  1  0.500000  0.500000  0.500000  1
