# generated using pymatgen
data_Lu3Sc2Tl3
_symmetry_space_group_name_H-M   'P 1'
_cell_length_a   6.23863600
_cell_length_b   8.78535910
_cell_length_c   8.78605502
_cell_angle_alpha   119.99755014
_cell_angle_beta   90.00159213
_cell_angle_gamma   89.99646905
_symmetry_Int_Tables_number   1
_chemical_formula_structural   Lu3Sc2Tl3
_chemical_formula_sum   'Lu6 Sc4 Tl6'
_cell_volume   417.04645636
_cell_formula_units_Z   2
loop_
 _symmetry_equiv_pos_site_id
 _symmetry_equiv_pos_as_xyz
  1  'x, y, z'
loop_
 _atom_site_type_symbol
 _atom_site_label
 _atom_site_symmetry_multiplicity
 _atom_site_fract_x
 _atom_site_fract_y
 _atom_site_fract_z
 _atom_site_occupancy
  Lu  Lu0  1  0.750027  0.234744  0.000060  1
  Lu  Lu1  1  0.749996  0.765118  0.765069  1
  Lu  Lu2  1  0.749996  0.999934  0.234869  1
  Lu  Lu3  1  0.249991  0.765298  0.000044  1
  Lu  Lu4  1  0.250010  0.234936  0.234866  1
  Lu  Lu5  1  0.250012  0.999934  0.765067  1
  Sc  Sc6  1  0.500015  0.333352  0.666717  1
  Sc  Sc7  1  0.500002  0.666660  0.333314  1
  Sc  Sc8  1  0.999984  0.666715  0.333387  1
  Sc  Sc9  1  0.999975  0.333333  0.666646  1
  Tl  Tl10  1  0.750065  0.593780  0.999976  1
  Tl  Tl11  1  0.749978  0.406086  0.406067  1
  Tl  Tl12  1  0.749974  0.000124  0.593958  1
  Tl  Tl13  1  0.249935  0.406203  0.999962  1
  Tl  Tl14  1  0.250018  0.593804  0.593917  1
  Tl  Tl15  1  0.250023  0.999980  0.406081  1
