# generated using pymatgen
data_PIrO5
_symmetry_space_group_name_H-M   'P 1'
_cell_length_a   5.27951609
_cell_length_b   5.27951623
_cell_length_c   7.09737770
_cell_angle_alpha   73.47828102
_cell_angle_beta   73.47828285
_cell_angle_gamma   100.09235682
_symmetry_Int_Tables_number   1
_chemical_formula_structural   PIrO5
_chemical_formula_sum   'P2 Ir2 O10'
_cell_volume   174.62747672
_cell_formula_units_Z   2
loop_
 _symmetry_equiv_pos_site_id
 _symmetry_equiv_pos_as_xyz
  1  'x, y, z'
loop_
 _atom_site_type_symbol
 _atom_site_label
 _atom_site_symmetry_multiplicity
 _atom_site_fract_x
 _atom_site_fract_y
 _atom_site_fract_z
 _atom_site_occupancy
  P  P0  1  0.330196  0.669804  0.250000  1
  P  P1  1  0.669804  0.330196  0.750000  1
  Ir  Ir2  1  0.000000  0.000000  0.500000  1
  Ir  Ir3  1  0.000000  0.000000  0.000000  1
  O  O4  1  0.627054  0.738319  0.095652  1
  O  O5  1  0.261681  0.372946  0.404348  1
  O  O6  1  0.372946  0.261681  0.904348  1
  O  O7  1  0.738319  0.627054  0.595652  1
  O  O8  1  0.078772  0.921228  0.750000  1
  O  O9  1  0.921228  0.078772  0.250000  1
  O  O10  1  0.322014  0.874190  0.370065  1
  O  O11  1  0.125810  0.677986  0.129935  1
  O  O12  1  0.677986  0.125810  0.629935  1
  O  O13  1  0.874190  0.322014  0.870065  1
