# generated using pymatgen
data_Cs8Hf3Zr9(BBr17)2
_symmetry_space_group_name_H-M   'P 1'
_cell_length_a   12.87681938
_cell_length_b   12.87681938
_cell_length_c   11.83871001
_cell_angle_alpha   89.99717518
_cell_angle_beta   89.99717518
_cell_angle_gamma   89.97220821
_symmetry_Int_Tables_number   1
_chemical_formula_structural   Cs8Hf3Zr9(BBr17)2
_chemical_formula_sum   'Cs8 Hf3 Zr9 B2 Br34'
_cell_volume   1963.00559996
_cell_formula_units_Z   1
loop_
 _symmetry_equiv_pos_site_id
 _symmetry_equiv_pos_as_xyz
  1  'x, y, z'
loop_
 _atom_site_type_symbol
 _atom_site_label
 _atom_site_symmetry_multiplicity
 _atom_site_fract_x
 _atom_site_fract_y
 _atom_site_fract_z
 _atom_site_occupancy
  Cs  Cs0  1  0.480166  0.719250  0.339560  1
  Cs  Cs1  1  0.019458  0.219366  0.660433  1
  Cs  Cs2  1  0.519028  0.280756  0.339456  1
  Cs  Cs3  1  0.980931  0.780601  0.660105  1
  Cs  Cs4  1  0.719366  0.519458  0.660433  1
  Cs  Cs5  1  0.780756  0.019028  0.339456  1
  Cs  Cs6  1  0.280601  0.480931  0.660105  1
  Cs  Cs7  1  0.219250  0.980166  0.339560  1
  Hf  Hf8  1  0.591484  0.908466  0.699833  1
  Hf  Hf9  1  0.908593  0.408593  0.300885  1
  Hf  Hf10  1  0.408466  0.091484  0.699833  1
  Zr  Zr11  1  0.091879  0.591879  0.300832  1
  Zr  Zr12  1  0.591026  0.908947  0.978540  1
  Zr  Zr13  1  0.908503  0.408503  0.020882  1
  Zr  Zr14  1  0.408947  0.091026  0.978540  1
  Zr  Zr15  1  0.091632  0.591632  0.021666  1
  Zr  Zr16  1  0.871603  0.629013  0.158051  1
  Zr  Zr17  1  0.628231  0.128231  0.842458  1
  Zr  Zr18  1  0.129013  0.371603  0.158051  1
  Zr  Zr19  1  0.371648  0.871648  0.842399  1
  B  B20  1  0.999047  0.499047  0.162531  1
  B  B21  1  0.499931  0.999931  0.835938  1
  Br  Br22  1  0.000085  0.500085  0.836298  1
  Br  Br23  1  0.500030  0.000030  0.164168  1
  Br  Br24  1  0.705849  0.793701  0.159321  1
  Br  Br25  1  0.794023  0.294023  0.840453  1
  Br  Br26  1  0.293701  0.205849  0.159321  1
  Br  Br27  1  0.205913  0.705913  0.840297  1
  Br  Br28  1  0.457727  0.750325  0.679371  1
  Br  Br29  1  0.042228  0.250078  0.320519  1
  Br  Br30  1  0.542323  0.249695  0.679394  1
  Br  Br31  1  0.955220  0.751780  0.320028  1
  Br  Br32  1  0.750078  0.542228  0.320519  1
  Br  Br33  1  0.749695  0.042323  0.679394  1
  Br  Br34  1  0.251780  0.455220  0.320028  1
  Br  Br35  1  0.250325  0.957727  0.679371  1
  Br  Br36  1  0.701978  0.797937  0.531567  1
  Br  Br37  1  0.797460  0.297460  0.468119  1
  Br  Br38  1  0.297937  0.201978  0.531567  1
  Br  Br39  1  0.204030  0.704030  0.471013  1
  Br  Br40  1  0.998189  0.498189  0.484328  1
  Br  Br41  1  0.500008  0.000008  0.517547  1
  Br  Br42  1  0.459700  0.746094  0.998740  1
  Br  Br43  1  0.040564  0.246140  0.001312  1
  Br  Br44  1  0.540424  0.253951  0.998905  1
  Br  Br45  1  0.959416  0.753910  0.000934  1
  Br  Br46  1  0.746140  0.540564  0.001312  1
  Br  Br47  1  0.753951  0.040424  0.998905  1
  Br  Br48  1  0.253910  0.459416  0.000934  1
  Br  Br49  1  0.246094  0.959700  0.998740  1
  Br  Br50  1  0.707660  0.792398  0.835757  1
  Br  Br51  1  0.792512  0.292512  0.164402  1
  Br  Br52  1  0.292398  0.207660  0.835757  1
  Br  Br53  1  0.208820  0.708820  0.161832  1
  Br  Br54  1  0.500315  0.499960  0.500150  1
  Br  Br55  1  0.999960  0.000315  0.500150  1
