# generated using pymatgen
data_Ba8Yb3Y9Sn16
_symmetry_space_group_name_H-M   'P 1'
_cell_length_a   8.26114666
_cell_length_b   8.73398403
_cell_length_c   16.61072500
_cell_angle_alpha   90.00000000
_cell_angle_beta   90.00000000
_cell_angle_gamma   89.85163769
_symmetry_Int_Tables_number   1
_chemical_formula_structural   Ba8Yb3Y9Sn16
_chemical_formula_sum   'Ba8 Yb3 Y9 Sn16'
_cell_volume   1198.50502153
_cell_formula_units_Z   1
loop_
 _symmetry_equiv_pos_site_id
 _symmetry_equiv_pos_as_xyz
  1  'x, y, z'
loop_
 _atom_site_type_symbol
 _atom_site_label
 _atom_site_symmetry_multiplicity
 _atom_site_fract_x
 _atom_site_fract_y
 _atom_site_fract_z
 _atom_site_occupancy
  Ba  Ba0  1  0.504165  0.677016  0.595508  1
  Ba  Ba1  1  0.006455  0.826650  0.906076  1
  Ba  Ba2  1  0.493476  0.322846  0.094856  1
  Ba  Ba3  1  0.993430  0.177741  0.405595  1
  Ba  Ba4  1  0.493476  0.322846  0.405144  1
  Ba  Ba5  1  0.993430  0.177741  0.094405  1
  Ba  Ba6  1  0.504165  0.677016  0.904492  1
  Ba  Ba7  1  0.006455  0.826650  0.593924  1
  Yb  Yb8  1  0.336366  0.995990  0.750000  1
  Yb  Yb9  1  0.163030  0.495595  0.250000  1
  Yb  Yb10  1  0.662952  0.003000  0.250000  1
  Y  Y11  1  0.671677  0.166486  0.623767  1
  Y  Y12  1  0.173625  0.330257  0.876149  1
  Y  Y13  1  0.328757  0.829322  0.123289  1
  Y  Y14  1  0.828978  0.669377  0.376980  1
  Y  Y15  1  0.328757  0.829322  0.376711  1
  Y  Y16  1  0.828978  0.669377  0.123020  1
  Y  Y17  1  0.671677  0.166486  0.876233  1
  Y  Y18  1  0.173625  0.330257  0.623851  1
  Y  Y19  1  0.838057  0.501095  0.750000  1
  Sn  Sn20  1  0.657180  0.956770  0.458867  1
  Sn  Sn21  1  0.156819  0.542722  0.040324  1
  Sn  Sn22  1  0.343693  0.043859  0.958792  1
  Sn  Sn23  1  0.842791  0.458773  0.544925  1
  Sn  Sn24  1  0.343693  0.043859  0.541208  1
  Sn  Sn25  1  0.842791  0.458773  0.955075  1
  Sn  Sn26  1  0.657180  0.956770  0.041133  1
  Sn  Sn27  1  0.156819  0.542722  0.459676  1
  Sn  Sn28  1  0.474605  0.371527  0.750000  1
  Sn  Sn29  1  0.967815  0.139691  0.750000  1
  Sn  Sn30  1  0.530908  0.632952  0.250000  1
  Sn  Sn31  1  0.030527  0.865621  0.250000  1
  Sn  Sn32  1  0.717987  0.882237  0.750000  1
  Sn  Sn33  1  0.206240  0.609781  0.750000  1
  Sn  Sn34  1  0.284229  0.107134  0.250000  1
  Sn  Sn35  1  0.785189  0.391742  0.250000  1
