# generated using pymatgen
data_BaRu2Cl11
_symmetry_space_group_name_H-M   'P 1'
_cell_length_a   7.27089706
_cell_length_b   7.33956780
_cell_length_c   16.98357781
_cell_angle_alpha   78.45355692
_cell_angle_beta   79.10022895
_cell_angle_gamma   89.60308301
_symmetry_Int_Tables_number   1
_chemical_formula_structural   BaRu2Cl11
_chemical_formula_sum   'Ba2 Ru4 Cl22'
_cell_volume   871.52076973
_cell_formula_units_Z   2
loop_
 _symmetry_equiv_pos_site_id
 _symmetry_equiv_pos_as_xyz
  1  'x, y, z'
loop_
 _atom_site_type_symbol
 _atom_site_label
 _atom_site_symmetry_multiplicity
 _atom_site_fract_x
 _atom_site_fract_y
 _atom_site_fract_z
 _atom_site_occupancy
  Ba  Ba0  1  0.755388  0.765141  0.501773  1
  Ba  Ba1  1  0.244612  0.234859  0.498227  1
  Ru  Ru2  1  0.309990  0.808730  0.364432  1
  Ru  Ru3  1  0.690010  0.191270  0.635568  1
  Ru  Ru4  1  0.841673  0.337326  0.084554  1
  Ru  Ru5  1  0.158327  0.662674  0.915446  1
  Cl  Cl6  1  0.234597  0.770489  0.510126  1
  Cl  Cl7  1  0.765403  0.229511  0.489874  1
  Cl  Cl8  1  0.538457  0.033653  0.368992  1
  Cl  Cl9  1  0.461543  0.966347  0.631008  1
  Cl  Cl10  1  0.531542  0.571953  0.383553  1
  Cl  Cl11  1  0.468458  0.428047  0.616447  1
  Cl  Cl12  1  0.376018  0.845857  0.229000  1
  Cl  Cl13  1  0.623982  0.154143  0.771000  1
  Cl  Cl14  1  0.072244  0.577282  0.378681  1
  Cl  Cl15  1  0.927756  0.422718  0.621319  1
  Cl  Cl16  1  0.082226  0.040499  0.362132  1
  Cl  Cl17  1  0.917774  0.959501  0.637868  1
  Cl  Cl18  1  0.887822  0.047362  0.150201  1
  Cl  Cl19  1  0.112178  0.952638  0.849799  1
  Cl  Cl20  1  0.548601  0.371337  0.150817  1
  Cl  Cl21  1  0.451399  0.628663  0.849183  1
  Cl  Cl22  1  0.730850  0.225833  0.985518  1
  Cl  Cl23  1  0.269150  0.774167  0.014482  1
  Cl  Cl24  1  0.967444  0.465677  0.175262  1
  Cl  Cl25  1  0.032556  0.534323  0.824738  1
  Cl  Cl26  1  0.158701  0.347716  0.999946  1
  Cl  Cl27  1  0.841299  0.652284  0.000054  1
