# generated using pymatgen
data_TiMn4(AlCo2)5
_symmetry_space_group_name_H-M   'P 1'
_cell_length_a   16.70253177
_cell_length_b   16.70253172
_cell_length_c   16.70253102
_cell_angle_alpha   13.93400648
_cell_angle_beta   13.93400700
_cell_angle_gamma   13.93400093
_symmetry_Int_Tables_number   1
_chemical_formula_structural   TiMn4(AlCo2)5
_chemical_formula_sum   'Ti1 Mn4 Al5 Co10'
_cell_volume   235.14753018
_cell_formula_units_Z   1
loop_
 _symmetry_equiv_pos_site_id
 _symmetry_equiv_pos_as_xyz
  1  'x, y, z'
loop_
 _atom_site_type_symbol
 _atom_site_label
 _atom_site_symmetry_multiplicity
 _atom_site_fract_x
 _atom_site_fract_y
 _atom_site_fract_z
 _atom_site_occupancy
  Ti  Ti0  1  0.000000  0.000000  0.000000  1
  Mn  Mn1  1  0.599360  0.599360  0.599360  1
  Mn  Mn2  1  0.199796  0.199796  0.199796  1
  Mn  Mn3  1  0.800204  0.800204  0.800204  1
  Mn  Mn4  1  0.400640  0.400640  0.400640  1
  Al  Al5  1  0.701206  0.701206  0.701206  1
  Al  Al6  1  0.500000  0.500000  0.500000  1
  Al  Al7  1  0.100358  0.100358  0.100358  1
  Al  Al8  1  0.298794  0.298794  0.298794  1
  Al  Al9  1  0.899642  0.899642  0.899642  1
  Co  Co10  1  0.050120  0.050120  0.050120  1
  Co  Co11  1  0.849880  0.849880  0.849880  1
  Co  Co12  1  0.450054  0.450054  0.450054  1
  Co  Co13  1  0.649806  0.649806  0.649806  1
  Co  Co14  1  0.249553  0.249553  0.249553  1
  Co  Co15  1  0.350194  0.350194  0.350194  1
  Co  Co16  1  0.150120  0.150120  0.150120  1
  Co  Co17  1  0.750447  0.750447  0.750447  1
  Co  Co18  1  0.949880  0.949880  0.949880  1
  Co  Co19  1  0.549946  0.549946  0.549946  1
