# generated using pymatgen
data_Cs6Na4NbGaP6
_symmetry_space_group_name_H-M   'P 1'
_cell_length_a   10.56709013
_cell_length_b   10.56709247
_cell_length_c   16.63694900
_cell_angle_alpha   90.00000000
_cell_angle_beta   90.00000000
_cell_angle_gamma   142.20908625
_symmetry_Int_Tables_number   1
_chemical_formula_structural   Cs6Na4NbGaP6
_chemical_formula_sum   'Cs12 Na8 Nb2 Ga2 P12'
_cell_volume   1138.38829010
_cell_formula_units_Z   2
loop_
 _symmetry_equiv_pos_site_id
 _symmetry_equiv_pos_as_xyz
  1  'x, y, z'
loop_
 _atom_site_type_symbol
 _atom_site_label
 _atom_site_symmetry_multiplicity
 _atom_site_fract_x
 _atom_site_fract_y
 _atom_site_fract_z
 _atom_site_occupancy
  Cs  Cs0  1  0.937491  0.606479  0.830723  1
  Cs  Cs1  1  0.562509  0.893521  0.330723  1
  Cs  Cs2  1  0.393521  0.062509  0.169277  1
  Cs  Cs3  1  0.049657  0.389649  0.173220  1
  Cs  Cs4  1  0.889649  0.549657  0.326780  1
  Cs  Cs5  1  0.450343  0.110351  0.673220  1
  Cs  Cs6  1  0.610351  0.950343  0.826780  1
  Cs  Cs7  1  0.274070  0.279859  0.317074  1
  Cs  Cs8  1  0.779859  0.774070  0.182926  1
  Cs  Cs9  1  0.225930  0.220141  0.817074  1
  Cs  Cs10  1  0.720141  0.725930  0.682926  1
  Cs  Cs11  1  0.106479  0.437491  0.669277  1
  Na  Na12  1  0.921187  0.078813  0.000000  1
  Na  Na13  1  0.578813  0.421187  0.500000  1
  Na  Na14  1  0.080061  0.919939  0.000000  1
  Na  Na15  1  0.419939  0.580061  0.500000  1
  Na  Na16  1  0.751542  0.248458  0.000000  1
  Na  Na17  1  0.748458  0.251542  0.500000  1
  Na  Na18  1  0.243794  0.756206  0.000000  1
  Na  Na19  1  0.256206  0.743794  0.500000  1
  Nb  Nb20  1  0.420440  0.579560  0.000000  1
  Nb  Nb21  1  0.079560  0.920440  0.500000  1
  Ga  Ga22  1  0.585930  0.414070  0.000000  1
  Ga  Ga23  1  0.914070  0.085930  0.500000  1
  P  P24  1  0.863777  0.556827  0.088903  1
  P  P25  1  0.443173  0.136223  0.911097  1
  P  P26  1  0.636223  0.943173  0.588903  1
  P  P27  1  0.948020  0.646557  0.584820  1
  P  P28  1  0.146557  0.448020  0.915180  1
  P  P29  1  0.551980  0.853443  0.084820  1
  P  P30  1  0.353443  0.051980  0.415180  1
  P  P31  1  0.196398  0.191957  0.581870  1
  P  P32  1  0.691957  0.696398  0.918130  1
  P  P33  1  0.303602  0.308043  0.081870  1
  P  P34  1  0.056827  0.363777  0.411097  1
  P  P35  1  0.808043  0.803602  0.418130  1
