# generated using pymatgen
data_K(Nb3S4)4
_symmetry_space_group_name_H-M   'P 1'
_cell_length_a   10.29950834
_cell_length_b   10.29950810
_cell_length_c   9.71976329
_cell_angle_alpha   61.77118894
_cell_angle_beta   61.77119074
_cell_angle_gamma   38.51850389
_symmetry_Int_Tables_number   1
_chemical_formula_structural   K(Nb3S4)4
_chemical_formula_sum   'K1 Nb12 S16'
_cell_volume   555.70626597
_cell_formula_units_Z   1
loop_
 _symmetry_equiv_pos_site_id
 _symmetry_equiv_pos_as_xyz
  1  'x, y, z'
loop_
 _atom_site_type_symbol
 _atom_site_label
 _atom_site_symmetry_multiplicity
 _atom_site_fract_x
 _atom_site_fract_y
 _atom_site_fract_z
 _atom_site_occupancy
  K  K0  1  0.374881  0.374881  0.999600  1
  Nb  Nb1  1  0.931618  0.931618  0.514727  1
  Nb  Nb2  1  0.431309  0.431309  0.515681  1
  Nb  Nb3  1  0.132428  0.132428  0.372662  1
  Nb  Nb4  1  0.633236  0.633236  0.370883  1
  Nb  Nb5  1  0.060352  0.060352  0.112958  1
  Nb  Nb6  1  0.561488  0.561488  0.112391  1
  Nb  Nb7  1  0.068256  0.568757  0.488575  1
  Nb  Nb8  1  0.568757  0.068256  0.488575  1
  Nb  Nb9  1  0.871395  0.366659  0.624625  1
  Nb  Nb10  1  0.366659  0.871395  0.624625  1
  Nb  Nb11  1  0.935278  0.439294  0.887262  1
  Nb  Nb12  1  0.439294  0.935278  0.887262  1
  S  S13  1  0.521322  0.521322  0.650004  1
  S  S14  1  0.019616  0.019616  0.653302  1
  S  S15  1  0.701821  0.701821  0.057220  1
  S  S16  1  0.199881  0.199881  0.057694  1
  S  S17  1  0.403831  0.403831  0.291759  1
  S  S18  1  0.903165  0.903165  0.290591  1
  S  S19  1  0.482054  0.981925  0.343708  1
  S  S20  1  0.981925  0.482054  0.343708  1
  S  S21  1  0.296551  0.797186  0.942291  1
  S  S22  1  0.797186  0.296551  0.942291  1
  S  S23  1  0.597438  0.095287  0.713763  1
  S  S24  1  0.095287  0.597438  0.713763  1
  S  S25  1  0.708071  0.708071  0.666355  1
  S  S26  1  0.208387  0.208387  0.667382  1
  S  S27  1  0.291844  0.791669  0.333172  1
  S  S28  1  0.791669  0.291844  0.333172  1
