# generated using pymatgen
data_CaLa(BIr)4
_symmetry_space_group_name_H-M   'P 1'
_cell_length_a   7.13876923
_cell_length_b   6.17131862
_cell_length_c   5.57219654
_cell_angle_alpha   74.67882605
_cell_angle_beta   56.48650671
_cell_angle_gamma   48.83466578
_symmetry_Int_Tables_number   1
_chemical_formula_structural   CaLa(BIr)4
_chemical_formula_sum   'Ca1 La1 B4 Ir4'
_cell_volume   152.14600039
_cell_formula_units_Z   1
loop_
 _symmetry_equiv_pos_site_id
 _symmetry_equiv_pos_as_xyz
  1  'x, y, z'
loop_
 _atom_site_type_symbol
 _atom_site_label
 _atom_site_symmetry_multiplicity
 _atom_site_fract_x
 _atom_site_fract_y
 _atom_site_fract_z
 _atom_site_occupancy
  Ca  Ca0  1  0.250000  0.250000  0.250000  1
  La  La1  1  0.000000  0.000000  0.000000  1
  B  B2  1  0.324745  0.675255  0.324745  1
  B  B3  1  0.569747  0.930253  0.569747  1
  B  B4  1  0.675255  0.324745  0.675255  1
  B  B5  1  0.930253  0.569747  0.930253  1
  Ir  Ir6  1  0.631649  0.631649  0.368351  1
  Ir  Ir7  1  0.878829  0.878829  0.621171  1
  Ir  Ir8  1  0.621171  0.621171  0.878829  1
  Ir  Ir9  1  0.368351  0.368351  0.631649  1
