# generated using pymatgen
data_La5Ta3(Ni4P3)4
_symmetry_space_group_name_H-M   'P 1'
_cell_length_a   12.42076100
_cell_length_b   12.42076126
_cell_length_c   3.86066200
_cell_angle_alpha   90.00000000
_cell_angle_beta   90.00000000
_cell_angle_gamma   120.00000728
_symmetry_Int_Tables_number   1
_chemical_formula_structural   La5Ta3(Ni4P3)4
_chemical_formula_sum   'La5 Ta3 Ni16 P12'
_cell_volume   515.80886314
_cell_formula_units_Z   1
loop_
 _symmetry_equiv_pos_site_id
 _symmetry_equiv_pos_as_xyz
  1  'x, y, z'
loop_
 _atom_site_type_symbol
 _atom_site_label
 _atom_site_symmetry_multiplicity
 _atom_site_fract_x
 _atom_site_fract_y
 _atom_site_fract_z
 _atom_site_occupancy
  La  La0  1  0.189008  0.189008  0.500000  1
  La  La1  1  0.810992  0.000000  0.500000  1
  La  La2  1  0.000000  0.810992  0.500000  1
  La  La3  1  0.333333  0.666667  0.000000  1
  La  La4  1  0.666667  0.333333  0.000000  1
  Ta  Ta5  1  0.566020  0.566020  0.000000  1
  Ta  Ta6  1  0.433980  0.000000  0.000000  1
  Ta  Ta7  1  0.000000  0.433980  0.000000  1
  Ni  Ni8  1  0.721897  0.721897  0.500000  1
  Ni  Ni9  1  0.278103  0.000000  0.500000  1
  Ni  Ni10  1  0.000000  0.278103  0.500000  1
  Ni  Ni11  1  0.185045  0.379122  0.000000  1
  Ni  Ni12  1  0.620878  0.805923  0.000000  1
  Ni  Ni13  1  0.194077  0.814955  0.000000  1
  Ni  Ni14  1  0.805923  0.620878  0.000000  1
  Ni  Ni15  1  0.814955  0.194077  0.000000  1
  Ni  Ni16  1  0.379122  0.185045  0.000000  1
  Ni  Ni17  1  0.366159  0.486648  0.500000  1
  Ni  Ni18  1  0.513352  0.879513  0.500000  1
  Ni  Ni19  1  0.120487  0.633841  0.500000  1
  Ni  Ni20  1  0.879513  0.513352  0.500000  1
  Ni  Ni21  1  0.633841  0.120487  0.500000  1
  Ni  Ni22  1  0.486648  0.366159  0.500000  1
  Ni  Ni23  1  0.000000  0.000000  0.000000  1
  P  P24  1  0.817534  0.817534  0.000000  1
  P  P25  1  0.182466  0.000000  0.000000  1
  P  P26  1  0.000000  0.182466  0.000000  1
  P  P27  1  0.165161  0.472728  0.500000  1
  P  P28  1  0.527272  0.692433  0.500000  1
  P  P29  1  0.307567  0.834839  0.500000  1
  P  P30  1  0.692433  0.527272  0.500000  1
  P  P31  1  0.834839  0.307567  0.500000  1
  P  P32  1  0.472728  0.165161  0.500000  1
  P  P33  1  0.369455  0.369455  0.000000  1
  P  P34  1  0.630545  0.000000  0.000000  1
  P  P35  1  0.000000  0.630545  0.000000  1
