# generated using pymatgen
data_TbTh(Si7Ir3)2
_symmetry_space_group_name_H-M   'P 1'
_cell_length_a   8.07914870
_cell_length_b   8.07915013
_cell_length_c   8.07914940
_cell_angle_alpha   56.81698629
_cell_angle_beta   56.81697930
_cell_angle_gamma   56.81698631
_symmetry_Int_Tables_number   1
_chemical_formula_structural   TbTh(Si7Ir3)2
_chemical_formula_sum   'Tb1 Th1 Si14 Ir6'
_cell_volume   345.49881501
_cell_formula_units_Z   1
loop_
 _symmetry_equiv_pos_site_id
 _symmetry_equiv_pos_as_xyz
  1  'x, y, z'
loop_
 _atom_site_type_symbol
 _atom_site_label
 _atom_site_symmetry_multiplicity
 _atom_site_fract_x
 _atom_site_fract_y
 _atom_site_fract_z
 _atom_site_occupancy
  Tb  Tb0  1  0.500000  0.500000  0.500000  1
  Th  Th1  1  0.000000  0.000000  0.000000  1
  Si  Si2  1  0.065076  0.850324  0.672141  1
  Si  Si3  1  0.672141  0.065076  0.850324  1
  Si  Si4  1  0.850324  0.672141  0.065076  1
  Si  Si5  1  0.172447  0.352780  0.564599  1
  Si  Si6  1  0.564599  0.172447  0.352780  1
  Si  Si7  1  0.352780  0.564599  0.172447  1
  Si  Si8  1  0.934924  0.149676  0.327859  1
  Si  Si9  1  0.327859  0.934924  0.149676  1
  Si  Si10  1  0.149676  0.327859  0.934924  1
  Si  Si11  1  0.827553  0.647220  0.435401  1
  Si  Si12  1  0.435401  0.827553  0.647220  1
  Si  Si13  1  0.647220  0.435401  0.827553  1
  Si  Si14  1  0.749975  0.749975  0.749975  1
  Si  Si15  1  0.250025  0.250025  0.250025  1
  Ir  Ir16  1  0.069605  0.749063  0.431853  1
  Ir  Ir17  1  0.431853  0.069605  0.749063  1
  Ir  Ir18  1  0.749063  0.431853  0.069605  1
  Ir  Ir19  1  0.930395  0.250937  0.568147  1
  Ir  Ir20  1  0.568147  0.930395  0.250937  1
  Ir  Ir21  1  0.250937  0.568147  0.930395  1
