# generated using pymatgen
data_Li8Nd8Sn7Bi
_symmetry_space_group_name_H-M   'P 1'
_cell_length_a   9.57680300
_cell_length_b   9.57318355
_cell_length_c   7.65956879
_cell_angle_alpha   90.12230092
_cell_angle_beta   90.00000000
_cell_angle_gamma   120.01250419
_symmetry_Int_Tables_number   1
_chemical_formula_structural   Li8Nd8Sn7Bi
_chemical_formula_sum   'Li8 Nd8 Sn7 Bi1'
_cell_volume   608.07316447
_cell_formula_units_Z   1
loop_
 _symmetry_equiv_pos_site_id
 _symmetry_equiv_pos_as_xyz
  1  'x, y, z'
loop_
 _atom_site_type_symbol
 _atom_site_label
 _atom_site_symmetry_multiplicity
 _atom_site_fract_x
 _atom_site_fract_y
 _atom_site_fract_z
 _atom_site_occupancy
  Li  Li0  1  0.166761  0.333522  0.285384  1
  Li  Li1  1  0.167725  0.833484  0.288040  1
  Li  Li2  1  0.665758  0.833484  0.288040  1
  Li  Li3  1  0.833136  0.666271  0.787242  1
  Li  Li4  1  0.829884  0.165074  0.789838  1
  Li  Li5  1  0.335190  0.165074  0.789838  1
  Li  Li6  1  0.334903  0.669807  0.665366  1
  Li  Li7  1  0.666335  0.332668  0.167088  1
  Nd  Nd8  1  0.512343  0.024687  0.494572  1
  Nd  Nd9  1  0.516974  0.490526  0.492334  1
  Nd  Nd10  1  0.973551  0.490526  0.492334  1
  Nd  Nd11  1  0.487661  0.975322  0.995638  1
  Nd  Nd12  1  0.492530  0.514226  0.996871  1
  Nd  Nd13  1  0.021697  0.514226  0.996871  1
  Nd  Nd14  1  0.997562  0.995123  0.497324  1
  Nd  Nd15  1  0.998091  0.996182  0.001156  1
  Sn  Sn16  1  0.166464  0.832829  0.729683  1
  Sn  Sn17  1  0.666364  0.832829  0.729683  1
  Sn  Sn18  1  0.833212  0.666423  0.230299  1
  Sn  Sn19  1  0.833746  0.167243  0.229829  1
  Sn  Sn20  1  0.333498  0.167243  0.229829  1
  Sn  Sn21  1  0.332963  0.665928  0.266596  1
  Sn  Sn22  1  0.666852  0.333702  0.766749  1
  Bi  Bi23  1  0.166799  0.333600  0.731368  1
