# generated using pymatgen
data_Ca6SiGe3Rh4
_symmetry_space_group_name_H-M   'P 1'
_cell_length_a   5.81306500
_cell_length_b   7.71125500
_cell_length_c   13.63435800
_cell_angle_alpha   90.00000000
_cell_angle_beta   90.00000000
_cell_angle_gamma   90.00000000
_symmetry_Int_Tables_number   1
_chemical_formula_structural   Ca6SiGe3Rh4
_chemical_formula_sum   'Ca12 Si2 Ge6 Rh8'
_cell_volume   611.17409365
_cell_formula_units_Z   2
loop_
 _symmetry_equiv_pos_site_id
 _symmetry_equiv_pos_as_xyz
  1  'x, y, z'
loop_
 _atom_site_type_symbol
 _atom_site_label
 _atom_site_symmetry_multiplicity
 _atom_site_fract_x
 _atom_site_fract_y
 _atom_site_fract_z
 _atom_site_occupancy
  Ca  Ca0  1  0.136468  0.605669  0.099522  1
  Ca  Ca1  1  0.136468  0.894331  0.900478  1
  Ca  Ca2  1  0.863532  0.105669  0.400478  1
  Ca  Ca3  1  0.863532  0.394331  0.599522  1
  Ca  Ca4  1  0.862678  0.395120  0.900702  1
  Ca  Ca5  1  0.862678  0.104880  0.099298  1
  Ca  Ca6  1  0.137322  0.895120  0.599298  1
  Ca  Ca7  1  0.137322  0.604880  0.400702  1
  Ca  Ca8  1  0.366966  0.265396  0.250328  1
  Ca  Ca9  1  0.366966  0.234604  0.749672  1
  Ca  Ca10  1  0.633034  0.765396  0.249672  1
  Ca  Ca11  1  0.633034  0.734604  0.750328  1
  Si  Si12  1  0.589356  0.750000  0.000000  1
  Si  Si13  1  0.410644  0.250000  0.500000  1
  Ge  Ge14  1  0.848057  0.412733  0.249732  1
  Ge  Ge15  1  0.848057  0.087267  0.750268  1
  Ge  Ge16  1  0.151943  0.912733  0.250268  1
  Ge  Ge17  1  0.151943  0.587267  0.749732  1
  Ge  Ge18  1  0.400356  0.250000  0.000000  1
  Ge  Ge19  1  0.599644  0.750000  0.500000  1
  Rh  Rh20  1  0.638299  0.480134  0.089320  1
  Rh  Rh21  1  0.638299  0.019866  0.910680  1
  Rh  Rh22  1  0.361701  0.980134  0.410680  1
  Rh  Rh23  1  0.361701  0.519866  0.589320  1
  Rh  Rh24  1  0.367110  0.533298  0.909753  1
  Rh  Rh25  1  0.367110  0.966702  0.090247  1
  Rh  Rh26  1  0.632890  0.033298  0.590247  1
  Rh  Rh27  1  0.632890  0.466702  0.409753  1
