# generated using pymatgen
data_Hf6MnI12
_symmetry_space_group_name_H-M   'P 1'
_cell_length_a   9.33654318
_cell_length_b   9.33654385
_cell_length_c   9.33654427
_cell_angle_alpha   106.96962068
_cell_angle_beta   106.96961657
_cell_angle_gamma   106.96961549
_symmetry_Int_Tables_number   1
_chemical_formula_structural   Hf6MnI12
_chemical_formula_sum   'Hf6 Mn1 I12'
_cell_volume   678.36496705
_cell_formula_units_Z   1
loop_
 _symmetry_equiv_pos_site_id
 _symmetry_equiv_pos_as_xyz
  1  'x, y, z'
loop_
 _atom_site_type_symbol
 _atom_site_label
 _atom_site_symmetry_multiplicity
 _atom_site_fract_x
 _atom_site_fract_y
 _atom_site_fract_z
 _atom_site_occupancy
  Hf  Hf0  1  0.970613  0.721100  0.907739  1
  Hf  Hf1  1  0.278900  0.092261  0.029387  1
  Hf  Hf2  1  0.092261  0.029387  0.278900  1
  Hf  Hf3  1  0.907739  0.970613  0.721100  1
  Hf  Hf4  1  0.721100  0.907739  0.970613  1
  Hf  Hf5  1  0.029387  0.278900  0.092261  1
  Mn  Mn6  1  0.000000  0.000000  0.000000  1
  I  I7  1  0.922111  0.309211  0.775719  1
  I  I8  1  0.690789  0.224281  0.077889  1
  I  I9  1  0.444497  0.144713  0.369991  1
  I  I10  1  0.855287  0.630009  0.555503  1
  I  I11  1  0.224281  0.077889  0.690789  1
  I  I12  1  0.630009  0.555503  0.855287  1
  I  I13  1  0.369991  0.444497  0.144713  1
  I  I14  1  0.775719  0.922111  0.309211  1
  I  I15  1  0.144713  0.369991  0.444497  1
  I  I16  1  0.555503  0.855287  0.630009  1
  I  I17  1  0.309211  0.775719  0.922111  1
  I  I18  1  0.077889  0.690789  0.224281  1
