# generated using pymatgen
data_Ho5Tm(Si3Pt2)4
_symmetry_space_group_name_H-M   'P 1'
_cell_length_a   4.23732200
_cell_length_b   8.54099699
_cell_length_c   12.90751100
_cell_angle_alpha   80.24650662
_cell_angle_beta   90.00000000
_cell_angle_gamma   90.00000000
_symmetry_Int_Tables_number   1
_chemical_formula_structural   Ho5Tm(Si3Pt2)4
_chemical_formula_sum   'Ho5 Tm1 Si12 Pt8'
_cell_volume   460.38304581
_cell_formula_units_Z   1
loop_
 _symmetry_equiv_pos_site_id
 _symmetry_equiv_pos_as_xyz
  1  'x, y, z'
loop_
 _atom_site_type_symbol
 _atom_site_label
 _atom_site_symmetry_multiplicity
 _atom_site_fract_x
 _atom_site_fract_y
 _atom_site_fract_z
 _atom_site_occupancy
  Ho  Ho0  1  0.250000  0.583680  0.186477  1
  Ho  Ho1  1  0.750000  0.233745  0.560717  1
  Ho  Ho2  1  0.750000  0.416393  0.813483  1
  Ho  Ho3  1  0.750000  0.926392  0.815697  1
  Ho  Ho4  1  0.250000  0.073540  0.184309  1
  Tm  Tm5  1  0.250000  0.766259  0.439241  1
  Si  Si6  1  0.750000  0.589055  0.571305  1
  Si  Si7  1  0.750000  0.126942  0.004636  1
  Si  Si8  1  0.750000  0.872558  0.573490  1
  Si  Si9  1  0.250000  0.696365  0.713734  1
  Si  Si10  1  0.750000  0.303637  0.286311  1
  Si  Si11  1  0.750000  0.805677  0.277236  1
  Si  Si12  1  0.250000  0.873036  0.995375  1
  Si  Si13  1  0.250000  0.194243  0.723057  1
  Si  Si14  1  0.250000  0.378497  0.001341  1
  Si  Si15  1  0.250000  0.126972  0.426323  1
  Si  Si16  1  0.750000  0.621521  0.998668  1
  Si  Si17  1  0.250000  0.411524  0.428489  1
  Pt  Pt18  1  0.750000  0.351861  0.099286  1
  Pt  Pt19  1  0.250000  0.971007  0.624030  1
  Pt  Pt20  1  0.750000  0.849363  0.089114  1
  Pt  Pt21  1  0.750000  0.028213  0.375966  1
  Pt  Pt22  1  0.250000  0.648125  0.900751  1
  Pt  Pt23  1  0.250000  0.150629  0.910959  1
  Pt  Pt24  1  0.750000  0.533753  0.376177  1
  Pt  Pt25  1  0.250000  0.467010  0.623827  1
