# generated using pymatgen
data_Np2CoNiH8
_symmetry_space_group_name_H-M   'P 1'
_cell_length_a   6.08382733
_cell_length_b   6.08382613
_cell_length_c   4.70384000
_cell_angle_alpha   90.00000000
_cell_angle_beta   90.00000000
_cell_angle_gamma   144.51857069
_symmetry_Int_Tables_number   1
_chemical_formula_structural   Np2CoNiH8
_chemical_formula_sum   'Np2 Co1 Ni1 H8'
_cell_volume   101.05617114
_cell_formula_units_Z   1
loop_
 _symmetry_equiv_pos_site_id
 _symmetry_equiv_pos_as_xyz
  1  'x, y, z'
loop_
 _atom_site_type_symbol
 _atom_site_label
 _atom_site_symmetry_multiplicity
 _atom_site_fract_x
 _atom_site_fract_y
 _atom_site_fract_z
 _atom_site_occupancy
  Np  Np0  1  0.873447  0.126553  0.750000  1
  Np  Np1  1  0.125949  0.874051  0.250000  1
  Co  Co2  1  0.400771  0.599229  0.250000  1
  Ni  Ni3  1  0.601795  0.398205  0.750000  1
  H  H4  1  0.085680  0.914320  0.750000  1
  H  H5  1  0.912481  0.087519  0.250000  1
  H  H6  1  0.697090  0.302910  0.493410  1
  H  H7  1  0.303000  0.697000  0.500468  1
  H  H8  1  0.697090  0.302910  0.006590  1
  H  H9  1  0.303000  0.697000  0.999532  1
  H  H10  1  0.499848  0.500152  0.000160  1
  H  H11  1  0.499848  0.500152  0.499840  1
