# generated using pymatgen
data_SmNi2As2Pd
_symmetry_space_group_name_H-M   'P 1'
_cell_length_a   8.15830853
_cell_length_b   8.15830900
_cell_length_c   9.91184984
_cell_angle_alpha   74.82960245
_cell_angle_beta   74.82960147
_cell_angle_gamma   27.62928912
_symmetry_Int_Tables_number   1
_chemical_formula_structural   SmNi2As2Pd
_chemical_formula_sum   'Sm3 Ni6 As6 Pd3'
_cell_volume   294.62270444
_cell_formula_units_Z   3
loop_
 _symmetry_equiv_pos_site_id
 _symmetry_equiv_pos_as_xyz
  1  'x, y, z'
loop_
 _atom_site_type_symbol
 _atom_site_label
 _atom_site_symmetry_multiplicity
 _atom_site_fract_x
 _atom_site_fract_y
 _atom_site_fract_z
 _atom_site_occupancy
  Sm  Sm0  1  0.849523  0.849523  0.691167  1
  Sm  Sm1  1  0.150477  0.150477  0.308833  1
  Sm  Sm2  1  0.000000  0.000000  0.000000  1
  Ni  Ni3  1  0.949000  0.949000  0.329858  1
  Ni  Ni4  1  0.051000  0.051000  0.670142  1
  Ni  Ni5  1  0.783260  0.783260  0.391760  1
  Ni  Ni6  1  0.216740  0.216740  0.608240  1
  Ni  Ni7  1  0.371842  0.371842  0.210196  1
  Ni  Ni8  1  0.628158  0.628158  0.789804  1
  As  As9  1  0.801577  0.801577  0.147240  1
  As  As10  1  0.198423  0.198423  0.852760  1
  As  As11  1  0.526683  0.526683  0.218166  1
  As  As12  1  0.473317  0.473317  0.781834  1
  As  As13  1  0.646338  0.646338  0.548687  1
  As  As14  1  0.353662  0.353662  0.451313  1
  Pd  Pd15  1  0.500000  0.500000  0.500000  1
  Pd  Pd16  1  0.672912  0.672912  0.036808  1
  Pd  Pd17  1  0.327088  0.327088  0.963192  1
