# generated using pymatgen
data_Y3Mg3TlRuAu
_symmetry_space_group_name_H-M   'P 1'
_cell_length_a   7.94609300
_cell_length_b   7.94609290
_cell_length_c   3.88375000
_cell_angle_alpha   90.00000000
_cell_angle_beta   90.00000000
_cell_angle_gamma   120.00000456
_symmetry_Int_Tables_number   1
_chemical_formula_structural   Y3Mg3TlRuAu
_chemical_formula_sum   'Y3 Mg3 Tl1 Ru1 Au1'
_cell_volume   212.36804063
_cell_formula_units_Z   1
loop_
 _symmetry_equiv_pos_site_id
 _symmetry_equiv_pos_as_xyz
  1  'x, y, z'
loop_
 _atom_site_type_symbol
 _atom_site_label
 _atom_site_symmetry_multiplicity
 _atom_site_fract_x
 _atom_site_fract_y
 _atom_site_fract_z
 _atom_site_occupancy
  Y  Y0  1  0.568918  0.958187  0.000000  1
  Y  Y1  1  0.041813  0.610729  0.000000  1
  Y  Y2  1  0.389271  0.431082  0.000000  1
  Mg  Mg3  1  0.249145  0.999948  0.500000  1
  Mg  Mg4  1  0.000052  0.249197  0.500000  1
  Mg  Mg5  1  0.750803  0.750855  0.500000  1
  Tl  Tl6  1  0.666667  0.333333  0.500000  1
  Ru  Ru7  1  0.333333  0.666667  0.500000  1
  Au  Au8  1  0.000000  0.000000  0.000000  1
