# generated using pymatgen
data_EuDy(Ni5Sn)2
_symmetry_space_group_name_H-M   'P 1'
_cell_length_a   4.88053300
_cell_length_b   4.88053326
_cell_length_c   19.67781300
_cell_angle_alpha   90.00000000
_cell_angle_beta   90.00000000
_cell_angle_gamma   120.00001855
_symmetry_Int_Tables_number   1
_chemical_formula_structural   EuDy(Ni5Sn)2
_chemical_formula_sum   'Eu2 Dy2 Ni20 Sn4'
_cell_volume   405.92136502
_cell_formula_units_Z   2
loop_
 _symmetry_equiv_pos_site_id
 _symmetry_equiv_pos_as_xyz
  1  'x, y, z'
loop_
 _atom_site_type_symbol
 _atom_site_label
 _atom_site_symmetry_multiplicity
 _atom_site_fract_x
 _atom_site_fract_y
 _atom_site_fract_z
 _atom_site_occupancy
  Eu  Eu0  1  0.000000  0.000000  0.500000  1
  Eu  Eu1  1  0.000000  0.000000  0.000000  1
  Dy  Dy2  1  0.333333  0.666667  0.250000  1
  Dy  Dy3  1  0.666667  0.333333  0.750000  1
  Ni  Ni4  1  0.000000  0.000000  0.250000  1
  Ni  Ni5  1  0.000000  0.000000  0.750000  1
  Ni  Ni6  1  0.333333  0.666667  0.750000  1
  Ni  Ni7  1  0.666667  0.333333  0.250000  1
  Ni  Ni8  1  0.333333  0.666667  0.955024  1
  Ni  Ni9  1  0.666667  0.333333  0.044976  1
  Ni  Ni10  1  0.666667  0.333333  0.455024  1
  Ni  Ni11  1  0.333333  0.666667  0.544976  1
  Ni  Ni12  1  0.833949  0.166051  0.351769  1
  Ni  Ni13  1  0.833949  0.667900  0.351769  1
  Ni  Ni14  1  0.332100  0.166051  0.351769  1
  Ni  Ni15  1  0.166051  0.833949  0.648231  1
  Ni  Ni16  1  0.166051  0.332100  0.648231  1
  Ni  Ni17  1  0.667900  0.833949  0.648231  1
  Ni  Ni18  1  0.166051  0.833949  0.851769  1
  Ni  Ni19  1  0.166051  0.332100  0.851769  1
  Ni  Ni20  1  0.667900  0.833949  0.851769  1
  Ni  Ni21  1  0.833949  0.166051  0.148231  1
  Ni  Ni22  1  0.833949  0.667900  0.148231  1
  Ni  Ni23  1  0.332100  0.166051  0.148231  1
  Sn  Sn24  1  0.333333  0.666667  0.413099  1
  Sn  Sn25  1  0.666667  0.333333  0.586901  1
  Sn  Sn26  1  0.666667  0.333333  0.913099  1
  Sn  Sn27  1  0.333333  0.666667  0.086901  1
