# generated using pymatgen
data_Ho4TiGa3Rh4
_symmetry_space_group_name_H-M   'P 1'
_cell_length_a   4.28803200
_cell_length_b   6.81318020
_cell_length_c   7.82987500
_cell_angle_alpha   89.84728239
_cell_angle_beta   90.00000000
_cell_angle_gamma   90.00000000
_symmetry_Int_Tables_number   1
_chemical_formula_structural   Ho4TiGa3Rh4
_chemical_formula_sum   'Ho4 Ti1 Ga3 Rh4'
_cell_volume   228.75004045
_cell_formula_units_Z   1
loop_
 _symmetry_equiv_pos_site_id
 _symmetry_equiv_pos_as_xyz
  1  'x, y, z'
loop_
 _atom_site_type_symbol
 _atom_site_label
 _atom_site_symmetry_multiplicity
 _atom_site_fract_x
 _atom_site_fract_y
 _atom_site_fract_z
 _atom_site_occupancy
  Ho  Ho0  1  0.250000  0.539908  0.187690  1
  Ho  Ho1  1  0.750000  0.476529  0.810435  1
  Ho  Ho2  1  0.750000  0.965595  0.675761  1
  Ho  Ho3  1  0.250000  0.026429  0.321465  1
  Ti  Ti4  1  0.250000  0.126755  0.934573  1
  Ga  Ga5  1  0.250000  0.649510  0.568191  1
  Ga  Ga6  1  0.750000  0.348843  0.434178  1
  Ga  Ga7  1  0.750000  0.857618  0.064657  1
  Rh  Rh8  1  0.250000  0.771523  0.883006  1
  Rh  Rh9  1  0.750000  0.241255  0.108167  1
  Rh  Rh10  1  0.750000  0.731377  0.384581  1
  Rh  Rh11  1  0.250000  0.264656  0.627298  1
