# generated using pymatgen
data_Tm3Co2Sn3Hg
_symmetry_space_group_name_H-M   'P 1'
_cell_length_a   7.59400800
_cell_length_b   7.59400813
_cell_length_c   3.75154400
_cell_angle_alpha   90.00000000
_cell_angle_beta   90.00000000
_cell_angle_gamma   119.99999941
_symmetry_Int_Tables_number   1
_chemical_formula_structural   Tm3Co2Sn3Hg
_chemical_formula_sum   'Tm3 Co2 Sn3 Hg1'
_cell_volume   187.36254937
_cell_formula_units_Z   1
loop_
 _symmetry_equiv_pos_site_id
 _symmetry_equiv_pos_as_xyz
  1  'x, y, z'
loop_
 _atom_site_type_symbol
 _atom_site_label
 _atom_site_symmetry_multiplicity
 _atom_site_fract_x
 _atom_site_fract_y
 _atom_site_fract_z
 _atom_site_occupancy
  Tm  Tm0  1  0.028424  0.414990  0.000000  1
  Tm  Tm1  1  0.585010  0.613434  0.000000  1
  Tm  Tm2  1  0.386566  0.971576  0.000000  1
  Co  Co3  1  0.333333  0.666667  0.500000  1
  Co  Co4  1  0.000000  0.000000  0.000000  1
  Sn  Sn5  1  0.246516  0.255161  0.500000  1
  Sn  Sn6  1  0.008645  0.753484  0.500000  1
  Sn  Sn7  1  0.744839  0.991355  0.500000  1
  Hg  Hg8  1  0.666667  0.333333  0.500000  1
