# generated using pymatgen
data_Y12Er4Cd4IrRu3
_symmetry_space_group_name_H-M   'P 1'
_cell_length_a   9.61205739
_cell_length_b   9.68379702
_cell_length_c   9.68379800
_cell_angle_alpha   59.99999665
_cell_angle_beta   59.75279724
_cell_angle_gamma   59.75279704
_symmetry_Int_Tables_number   1
_chemical_formula_structural   Y12Er4Cd4IrRu3
_chemical_formula_sum   'Y12 Er4 Cd4 Ir1 Ru3'
_cell_volume   634.97974394
_cell_formula_units_Z   1
loop_
 _symmetry_equiv_pos_site_id
 _symmetry_equiv_pos_as_xyz
  1  'x, y, z'
loop_
 _atom_site_type_symbol
 _atom_site_label
 _atom_site_symmetry_multiplicity
 _atom_site_fract_x
 _atom_site_fract_y
 _atom_site_fract_z
 _atom_site_occupancy
  Y  Y0  1  0.810422  0.190260  0.190260  1
  Y  Y1  1  0.187424  0.810519  0.810519  1
  Y  Y2  1  0.187424  0.810519  0.191537  1
  Y  Y3  1  0.810422  0.190260  0.809058  1
  Y  Y4  1  0.187424  0.191537  0.810519  1
  Y  Y5  1  0.810422  0.809058  0.190260  1
  Y  Y6  1  0.936042  0.563031  0.563031  1
  Y  Y7  1  0.559630  0.939263  0.939263  1
  Y  Y8  1  0.559630  0.939263  0.561844  1
  Y  Y9  1  0.936042  0.563031  0.937897  1
  Y  Y10  1  0.559630  0.561844  0.939263  1
  Y  Y11  1  0.936042  0.937897  0.563031  1
  Er  Er12  1  0.345266  0.346929  0.346929  1
  Er  Er13  1  0.345266  0.346929  0.960877  1
  Er  Er14  1  0.345266  0.960877  0.346929  1
  Er  Er15  1  0.969928  0.343358  0.343358  1
  Cd  Cd16  1  0.580265  0.579175  0.579175  1
  Cd  Cd17  1  0.580265  0.579175  0.261384  1
  Cd  Cd18  1  0.580265  0.261384  0.579175  1
  Cd  Cd19  1  0.258868  0.580377  0.580377  1
  Ir  Ir20  1  0.574340  0.141887  0.141887  1
  Ru  Ru21  1  0.146573  0.138227  0.138227  1
  Ru  Ru22  1  0.146573  0.138227  0.576973  1
  Ru  Ru23  1  0.146573  0.576973  0.138227  1
