# generated using pymatgen
data_Nd2Pa(GaIr)3
_symmetry_space_group_name_H-M   'P 1'
_cell_length_a   7.37120876
_cell_length_b   7.37120855
_cell_length_c   3.88701900
_cell_angle_alpha   90.00000000
_cell_angle_beta   90.00000000
_cell_angle_gamma   119.26319082
_symmetry_Int_Tables_number   1
_chemical_formula_structural   Nd2Pa(GaIr)3
_chemical_formula_sum   'Nd2 Pa1 Ga3 Ir3'
_cell_volume   184.24746112
_cell_formula_units_Z   1
loop_
 _symmetry_equiv_pos_site_id
 _symmetry_equiv_pos_as_xyz
  1  'x, y, z'
loop_
 _atom_site_type_symbol
 _atom_site_label
 _atom_site_symmetry_multiplicity
 _atom_site_fract_x
 _atom_site_fract_y
 _atom_site_fract_z
 _atom_site_occupancy
  Nd  Nd0  1  0.412364  0.002569  0.000000  1
  Nd  Nd1  1  0.002569  0.412364  0.000000  1
  Pa  Pa2  1  0.584459  0.584459  0.000000  1
  Ga  Ga3  1  0.000923  0.752208  0.500000  1
  Ga  Ga4  1  0.237572  0.237572  0.500000  1
  Ga  Ga5  1  0.752208  0.000923  0.500000  1
  Ir  Ir6  1  0.982580  0.982580  0.000000  1
  Ir  Ir7  1  0.661113  0.366212  0.500000  1
  Ir  Ir8  1  0.366212  0.661113  0.500000  1
