# generated using pymatgen
data_Nd4Th2MgCo16TcP12
_symmetry_space_group_name_H-M   'P 1'
_cell_length_a   3.79289600
_cell_length_b   10.72267000
_cell_length_c   12.45595500
_cell_angle_alpha   90.00000000
_cell_angle_beta   90.00000000
_cell_angle_gamma   90.00000000
_symmetry_Int_Tables_number   1
_chemical_formula_structural   Nd4Th2MgCo16TcP12
_chemical_formula_sum   'Nd4 Th2 Mg1 Co16 Tc1 P12'
_cell_volume   506.58334298
_cell_formula_units_Z   1
loop_
 _symmetry_equiv_pos_site_id
 _symmetry_equiv_pos_as_xyz
  1  'x, y, z'
loop_
 _atom_site_type_symbol
 _atom_site_label
 _atom_site_symmetry_multiplicity
 _atom_site_fract_x
 _atom_site_fract_y
 _atom_site_fract_z
 _atom_site_occupancy
  Nd  Nd0  1  0.500000  0.817533  0.205494  1
  Nd  Nd1  1  0.500000  0.182467  0.205494  1
  Nd  Nd2  1  0.000000  0.683952  0.795365  1
  Nd  Nd3  1  0.000000  0.316048  0.795365  1
  Th  Th4  1  0.000000  0.500000  0.527332  1
  Th  Th5  1  0.500000  0.000000  0.473643  1
  Mg  Mg6  1  0.500000  0.500000  0.149634  1
  Co  Co7  1  0.500000  0.500000  0.699926  1
  Co  Co8  1  0.000000  0.000000  0.300577  1
  Co  Co9  1  0.000000  0.500000  0.984991  1
  Co  Co10  1  0.500000  0.000000  0.010591  1
  Co  Co11  1  0.500000  0.328903  0.992797  1
  Co  Co12  1  0.500000  0.671097  0.992797  1
  Co  Co13  1  0.000000  0.163265  0.004868  1
  Co  Co14  1  0.000000  0.836735  0.004868  1
  Co  Co15  1  0.500000  0.296314  0.434507  1
  Co  Co16  1  0.500000  0.703686  0.434507  1
  Co  Co17  1  0.000000  0.200110  0.570278  1
  Co  Co18  1  0.000000  0.799890  0.570278  1
  Co  Co19  1  0.500000  0.882840  0.708901  1
  Co  Co20  1  0.500000  0.117160  0.708901  1
  Co  Co21  1  0.000000  0.620493  0.295405  1
  Co  Co22  1  0.000000  0.379507  0.295405  1
  Tc  Tc23  1  0.000000  0.000000  0.843732  1
  P  P24  1  0.500000  0.500000  0.884529  1
  P  P25  1  0.000000  0.000000  0.115901  1
  P  P26  1  0.500000  0.500000  0.347999  1
  P  P27  1  0.000000  0.000000  0.655886  1
  P  P28  1  0.500000  0.304417  0.616000  1
  P  P29  1  0.500000  0.695583  0.616000  1
  P  P30  1  0.000000  0.195321  0.386563  1
  P  P31  1  0.000000  0.804679  0.386563  1
  P  P32  1  0.500000  0.848690  0.893556  1
  P  P33  1  0.500000  0.151310  0.893556  1
  P  P34  1  0.000000  0.659249  0.098897  1
  P  P35  1  0.000000  0.340751  0.098897  1
