# generated using pymatgen
data_Ho5Mg2Co17P12
_symmetry_space_group_name_H-M   'P 1'
_cell_length_a   12.09514576
_cell_length_b   12.08769976
_cell_length_c   3.71142500
_cell_angle_alpha   90.00000000
_cell_angle_beta   90.00000000
_cell_angle_gamma   119.97963590
_symmetry_Int_Tables_number   1
_chemical_formula_structural   Ho5Mg2Co17P12
_chemical_formula_sum   'Ho5 Mg2 Co17 P12'
_cell_volume   470.01873908
_cell_formula_units_Z   1
loop_
 _symmetry_equiv_pos_site_id
 _symmetry_equiv_pos_as_xyz
  1  'x, y, z'
loop_
 _atom_site_type_symbol
 _atom_site_label
 _atom_site_symmetry_multiplicity
 _atom_site_fract_x
 _atom_site_fract_y
 _atom_site_fract_z
 _atom_site_occupancy
  Ho  Ho0  1  0.668796  0.335168  0.000000  1
  Ho  Ho1  1  0.331204  0.666373  0.000000  1
  Ho  Ho2  1  0.815502  0.814926  0.500000  1
  Ho  Ho3  1  0.184498  0.999424  0.500000  1
  Ho  Ho4  1  0.000000  0.189749  0.500000  1
  Mg  Mg5  1  0.439091  0.439843  0.000000  1
  Mg  Mg6  1  0.560909  0.000753  0.000000  1
  Co  Co7  1  0.876793  0.361742  0.500000  1
  Co  Co8  1  0.646169  0.517429  0.500000  1
  Co  Co9  1  0.481403  0.123709  0.500000  1
  Co  Co10  1  0.353831  0.871260  0.500000  1
  Co  Co11  1  0.518597  0.642306  0.500000  1
  Co  Co12  1  0.123207  0.484948  0.500000  1
  Co  Co13  1  0.000000  0.553023  0.000000  1
  Co  Co14  1  0.804648  0.182157  0.000000  1
  Co  Co15  1  0.825813  0.623888  0.000000  1
  Co  Co16  1  0.374660  0.196291  0.000000  1
  Co  Co17  1  0.174187  0.798076  0.000000  1
  Co  Co18  1  0.625340  0.821632  0.000000  1
  Co  Co19  1  0.195352  0.377510  0.000000  1
  Co  Co20  1  0.279561  0.281243  0.500000  1
  Co  Co21  1  0.720439  0.001682  0.500000  1
  Co  Co22  1  0.000000  0.715360  0.500000  1
  Co  Co23  1  0.000000  0.999286  0.000000  1
  P  P24  1  0.692356  0.173540  0.500000  1
  P  P25  1  0.835175  0.521589  0.500000  1
  P  P26  1  0.479611  0.306827  0.500000  1
  P  P27  1  0.164825  0.686413  0.500000  1
  P  P28  1  0.520389  0.827216  0.500000  1
  P  P29  1  0.307644  0.481183  0.500000  1
  P  P30  1  0.178517  0.180327  0.000000  1
  P  P31  1  0.821483  0.001810  0.000000  1
  P  P32  1  0.000000  0.818947  0.000000  1
  P  P33  1  0.642303  0.638610  0.000000  1
  P  P34  1  0.357697  0.996307  0.000000  1
  P  P35  1  0.000000  0.369450  0.000000  1
