# generated using pymatgen
data_Th4OsWC4
_symmetry_space_group_name_H-M   'P 1'
_cell_length_a   5.36669300
_cell_length_b   6.72228020
_cell_length_c   10.15497271
_cell_angle_alpha   89.66047254
_cell_angle_beta   90.00000000
_cell_angle_gamma   90.00000000
_symmetry_Int_Tables_number   1
_chemical_formula_structural   Th4OsWC4
_chemical_formula_sum   'Th8 Os2 W2 C8'
_cell_volume   366.34856833
_cell_formula_units_Z   2
loop_
 _symmetry_equiv_pos_site_id
 _symmetry_equiv_pos_as_xyz
  1  'x, y, z'
loop_
 _atom_site_type_symbol
 _atom_site_label
 _atom_site_symmetry_multiplicity
 _atom_site_fract_x
 _atom_site_fract_y
 _atom_site_fract_z
 _atom_site_occupancy
  Th  Th0  1  0.250000  0.688776  0.547192  1
  Th  Th1  1  0.750000  0.311224  0.452808  1
  Th  Th2  1  0.750000  0.809981  0.051350  1
  Th  Th3  1  0.250000  0.190019  0.948650  1
  Th  Th4  1  0.250000  0.526950  0.226801  1
  Th  Th5  1  0.750000  0.473050  0.773199  1
  Th  Th6  1  0.750000  0.973015  0.719236  1
  Th  Th7  1  0.250000  0.026985  0.280764  1
  Os  Os8  1  0.750000  0.773317  0.364828  1
  Os  Os9  1  0.250000  0.226683  0.635172  1
  W  W10  1  0.250000  0.724068  0.862345  1
  W  W11  1  0.750000  0.275932  0.137655  1
  C  C12  1  0.250000  0.462860  0.755766  1
  C  C13  1  0.750000  0.537140  0.244234  1
  C  C14  1  0.750000  0.032674  0.258130  1
  C  C15  1  0.250000  0.967326  0.741870  1
  C  C16  1  0.250000  0.831205  0.054153  1
  C  C17  1  0.750000  0.168795  0.945847  1
  C  C18  1  0.750000  0.662547  0.553568  1
  C  C19  1  0.250000  0.337453  0.446432  1
