# generated using pymatgen
data_Be3Mo2Pt
_symmetry_space_group_name_H-M   'P 1'
_cell_length_a   4.74945400
_cell_length_b   4.74945416
_cell_length_c   7.25088500
_cell_angle_alpha   90.00000000
_cell_angle_beta   90.00000000
_cell_angle_gamma   119.99999890
_symmetry_Int_Tables_number   1
_chemical_formula_structural   Be3Mo2Pt
_chemical_formula_sum   'Be6 Mo4 Pt2'
_cell_volume   141.64754101
_cell_formula_units_Z   2
loop_
 _symmetry_equiv_pos_site_id
 _symmetry_equiv_pos_as_xyz
  1  'x, y, z'
loop_
 _atom_site_type_symbol
 _atom_site_label
 _atom_site_symmetry_multiplicity
 _atom_site_fract_x
 _atom_site_fract_y
 _atom_site_fract_z
 _atom_site_occupancy
  Be  Be0  1  0.823053  0.176947  0.250000  1
  Be  Be1  1  0.823053  0.646105  0.250000  1
  Be  Be2  1  0.353895  0.176947  0.250000  1
  Be  Be3  1  0.176947  0.823053  0.750000  1
  Be  Be4  1  0.176947  0.353895  0.750000  1
  Be  Be5  1  0.646105  0.823053  0.750000  1
  Mo  Mo6  1  0.333333  0.666667  0.424271  1
  Mo  Mo7  1  0.666667  0.333333  0.575729  1
  Mo  Mo8  1  0.666667  0.333333  0.924271  1
  Mo  Mo9  1  0.333333  0.666667  0.075729  1
  Pt  Pt10  1  0.000000  0.000000  0.500000  1
  Pt  Pt11  1  0.000000  0.000000  0.000000  1
