# generated using pymatgen
data_Tb3Ag(Ir2O7)2
_symmetry_space_group_name_H-M   'P 1'
_cell_length_a   7.34422274
_cell_length_b   7.34422385
_cell_length_c   7.18178750
_cell_angle_alpha   59.24896183
_cell_angle_beta   59.24895690
_cell_angle_gamma   60.00000248
_symmetry_Int_Tables_number   1
_chemical_formula_structural   Tb3Ag(Ir2O7)2
_chemical_formula_sum   'Tb3 Ag1 Ir4 O14'
_cell_volume   270.76016946
_cell_formula_units_Z   1
loop_
 _symmetry_equiv_pos_site_id
 _symmetry_equiv_pos_as_xyz
  1  'x, y, z'
loop_
 _atom_site_type_symbol
 _atom_site_label
 _atom_site_symmetry_multiplicity
 _atom_site_fract_x
 _atom_site_fract_y
 _atom_site_fract_z
 _atom_site_occupancy
  Tb  Tb0  1  0.625000  0.125000  0.125000  1
  Tb  Tb1  1  0.125000  0.625000  0.125000  1
  Tb  Tb2  1  0.125000  0.125000  0.125000  1
  Ag  Ag3  1  0.125000  0.125000  0.625000  1
  Ir  Ir4  1  0.125000  0.625000  0.625000  1
  Ir  Ir5  1  0.625000  0.125000  0.625000  1
  Ir  Ir6  1  0.625000  0.625000  0.125000  1
  Ir  Ir7  1  0.625000  0.625000  0.625000  1
  O  O8  1  0.711367  0.711367  0.285800  1
  O  O9  1  0.299326  0.299326  0.709075  1
  O  O10  1  0.692273  0.299326  0.709075  1
  O  O11  1  0.291465  0.711367  0.285800  1
  O  O12  1  0.299326  0.692273  0.709075  1
  O  O13  1  0.711367  0.291465  0.285800  1
  O  O14  1  0.538633  0.538633  0.964200  1
  O  O15  1  0.950674  0.950674  0.540925  1
  O  O16  1  0.557727  0.950674  0.540925  1
  O  O17  1  0.958535  0.538633  0.964200  1
  O  O18  1  0.950674  0.557727  0.540925  1
  O  O19  1  0.538633  0.958535  0.964200  1
  O  O20  1  0.250996  0.250996  0.247013  1
  O  O21  1  0.999004  0.999004  0.002987  1
