# generated using pymatgen
data_YErRe4(BC)2
_symmetry_space_group_name_H-M   'P 1'
_cell_length_a   5.78434082
_cell_length_b   5.78434045
_cell_length_c   7.24622000
_cell_angle_alpha   90.00000000
_cell_angle_beta   90.00000000
_cell_angle_gamma   145.37952165
_symmetry_Int_Tables_number   1
_chemical_formula_structural   YErRe4(BC)2
_chemical_formula_sum   'Y1 Er1 Re4 B2 C2'
_cell_volume   137.74410001
_cell_formula_units_Z   1
loop_
 _symmetry_equiv_pos_site_id
 _symmetry_equiv_pos_as_xyz
  1  'x, y, z'
loop_
 _atom_site_type_symbol
 _atom_site_label
 _atom_site_symmetry_multiplicity
 _atom_site_fract_x
 _atom_site_fract_y
 _atom_site_fract_z
 _atom_site_occupancy
  Y  Y0  1  0.455520  0.544480  0.750000  1
  Er  Er1  1  0.545189  0.454811  0.250000  1
  Re  Re2  1  0.827518  0.172482  0.067234  1
  Re  Re3  1  0.172708  0.827292  0.934460  1
  Re  Re4  1  0.172708  0.827292  0.565540  1
  Re  Re5  1  0.827518  0.172482  0.432766  1
  B  B6  1  0.259502  0.740498  0.250000  1
  B  B7  1  0.738637  0.261363  0.750000  1
  C  C8  1  0.000351  0.999649  0.002507  1
  C  C9  1  0.000351  0.999649  0.497493  1
