# generated using pymatgen
data_Al2CdPd7
_symmetry_space_group_name_H-M   'P 1'
_cell_length_a   7.45929571
_cell_length_b   7.45929489
_cell_length_c   5.57496302
_cell_angle_alpha   108.36305141
_cell_angle_beta   108.36305248
_cell_angle_gamma   31.92183803
_symmetry_Int_Tables_number   1
_chemical_formula_structural   Al2CdPd7
_chemical_formula_sum   'Al2 Cd1 Pd7'
_cell_volume   154.96521485
_cell_formula_units_Z   1
loop_
 _symmetry_equiv_pos_site_id
 _symmetry_equiv_pos_as_xyz
  1  'x, y, z'
loop_
 _atom_site_type_symbol
 _atom_site_label
 _atom_site_symmetry_multiplicity
 _atom_site_fract_x
 _atom_site_fract_y
 _atom_site_fract_z
 _atom_site_occupancy
  Al  Al0  1  0.810297  0.810297  0.349187  1
  Al  Al1  1  0.189703  0.189703  0.650813  1
  Cd  Cd2  1  0.000000  0.000000  0.000000  1
  Pd  Pd3  1  0.210164  0.210164  0.144548  1
  Pd  Pd4  1  0.404054  0.404054  0.170745  1
  Pd  Pd5  1  0.622115  0.622115  0.357883  1
  Pd  Pd6  1  0.000000  0.000000  0.500000  1
  Pd  Pd7  1  0.377885  0.377885  0.642117  1
  Pd  Pd8  1  0.595945  0.595945  0.829255  1
  Pd  Pd9  1  0.789836  0.789836  0.855452  1
