# generated using pymatgen
data_Rb4ZrSb2F14
_symmetry_space_group_name_H-M   'P 1'
_cell_length_a   7.10336236
_cell_length_b   7.81500781
_cell_length_c   8.12262790
_cell_angle_alpha   91.95048945
_cell_angle_beta   91.15946584
_cell_angle_gamma   115.18617869
_symmetry_Int_Tables_number   1
_chemical_formula_structural   Rb4ZrSb2F14
_chemical_formula_sum   'Rb4 Zr1 Sb2 F14'
_cell_volume   407.50491555
_cell_formula_units_Z   1
loop_
 _symmetry_equiv_pos_site_id
 _symmetry_equiv_pos_as_xyz
  1  'x, y, z'
loop_
 _atom_site_type_symbol
 _atom_site_label
 _atom_site_symmetry_multiplicity
 _atom_site_fract_x
 _atom_site_fract_y
 _atom_site_fract_z
 _atom_site_occupancy
  Rb  Rb0  1  0.286148  0.555486  0.142097  1
  Rb  Rb1  1  0.853175  0.738467  0.413660  1
  Rb  Rb2  1  0.713852  0.444514  0.857903  1
  Rb  Rb3  1  0.146825  0.261533  0.586340  1
  Zr  Zr4  1  0.000000  0.000000  0.000000  1
  Sb  Sb5  1  0.390515  0.809978  0.678839  1
  Sb  Sb6  1  0.609485  0.190022  0.321161  1
  F  F7  1  0.910294  0.368666  0.330320  1
  F  F8  1  0.276195  0.121504  0.882682  1
  F  F9  1  0.427381  0.664415  0.487751  1
  F  F10  1  0.723805  0.878496  0.117318  1
  F  F11  1  0.944748  0.229922  0.947547  1
  F  F12  1  0.282121  0.935250  0.497118  1
  F  F13  1  0.055252  0.770078  0.052453  1
  F  F14  1  0.858434  0.871992  0.778841  1
  F  F15  1  0.089706  0.631334  0.669680  1
  F  F16  1  0.141566  0.128008  0.221159  1
  F  F17  1  0.403064  0.585224  0.806743  1
  F  F18  1  0.596936  0.414776  0.193257  1
  F  F19  1  0.717879  0.064750  0.502882  1
  F  F20  1  0.572619  0.335585  0.512249  1
