# generated using pymatgen
data_Th2Pa(AlOs)3
_symmetry_space_group_name_H-M   'P 1'
_cell_length_a   7.15452600
_cell_length_b   7.19357439
_cell_length_c   4.10472400
_cell_angle_alpha   90.00000000
_cell_angle_beta   90.00000000
_cell_angle_gamma   120.18070979
_symmetry_Int_Tables_number   1
_chemical_formula_structural   Th2Pa(AlOs)3
_chemical_formula_sum   'Th2 Pa1 Al3 Os3'
_cell_volume   182.61922052
_cell_formula_units_Z   1
loop_
 _symmetry_equiv_pos_site_id
 _symmetry_equiv_pos_as_xyz
  1  'x, y, z'
loop_
 _atom_site_type_symbol
 _atom_site_label
 _atom_site_symmetry_multiplicity
 _atom_site_fract_x
 _atom_site_fract_y
 _atom_site_fract_z
 _atom_site_occupancy
  Th  Th0  1  0.582651  0.578965  0.500000  1
  Th  Th1  1  0.417349  0.996314  0.500000  1
  Pa  Pa2  1  0.000000  0.418285  0.500000  1
  Al  Al3  1  0.000000  0.771740  0.000000  1
  Al  Al4  1  0.229102  0.234279  0.000000  1
  Al  Al5  1  0.770898  0.005176  0.000000  1
  Os  Os6  1  0.302720  0.644340  0.000000  1
  Os  Os7  1  0.697280  0.341619  0.000000  1
  Os  Os8  1  0.000000  0.009282  0.500000  1
