# generated using pymatgen
data_La2P7(Ru5Pt)2
_symmetry_space_group_name_H-M   'P 1'
_cell_length_a   9.61289326
_cell_length_b   9.66878274
_cell_length_c   3.93380100
_cell_angle_alpha   90.00000000
_cell_angle_beta   90.00000000
_cell_angle_gamma   120.23440513
_symmetry_Int_Tables_number   1
_chemical_formula_structural   La2P7(Ru5Pt)2
_chemical_formula_sum   'La2 P7 Ru10 Pt2'
_cell_volume   315.89174241
_cell_formula_units_Z   1
loop_
 _symmetry_equiv_pos_site_id
 _symmetry_equiv_pos_as_xyz
  1  'x, y, z'
loop_
 _atom_site_type_symbol
 _atom_site_label
 _atom_site_symmetry_multiplicity
 _atom_site_fract_x
 _atom_site_fract_y
 _atom_site_fract_z
 _atom_site_occupancy
  La  La0  1  0.668059  0.333810  0.500000  1
  La  La1  1  0.327243  0.663939  0.000000  1
  P  P2  1  0.608596  0.708879  0.500000  1
  P  P3  1  0.998523  0.001405  0.000000  1
  P  P4  1  0.279607  0.887388  0.500000  1
  P  P5  1  0.097407  0.399072  0.500000  1
  P  P6  1  0.891089  0.592213  0.000000  1
  P  P7  1  0.407764  0.282810  0.000000  1
  P  P8  1  0.714355  0.119931  0.000000  1
  Ru  Ru9  1  0.898875  0.132816  0.500000  1
  Ru  Ru10  1  0.243302  0.105095  0.500000  1
  Ru  Ru11  1  0.870558  0.775897  0.500000  1
  Ru  Ru12  1  0.730066  0.886383  0.000000  1
  Ru  Ru13  1  0.113609  0.850425  0.000000  1
  Ru  Ru14  1  0.156656  0.266810  0.000000  1
  Ru  Ru15  1  0.438685  0.057387  0.000000  1
  Ru  Ru16  1  0.940234  0.373431  0.000000  1
  Ru  Ru17  1  0.626713  0.564026  0.000000  1
  Ru  Ru18  1  0.052696  0.618910  0.500000  1
  Pt  Pt19  1  0.552977  0.935004  0.500000  1
  Pt  Pt20  1  0.382986  0.444370  0.500000  1
