# generated using pymatgen
data_Sr(Cr5S8)2
_symmetry_space_group_name_H-M   'P 1'
_cell_length_a   6.94793336
_cell_length_b   9.18312324
_cell_length_c   9.28263553
_cell_angle_alpha   71.33596050
_cell_angle_beta   68.01601401
_cell_angle_gamma   79.14463818
_symmetry_Int_Tables_number   1
_chemical_formula_structural   Sr(Cr5S8)2
_chemical_formula_sum   'Sr1 Cr10 S16'
_cell_volume   518.73477086
_cell_formula_units_Z   1
loop_
 _symmetry_equiv_pos_site_id
 _symmetry_equiv_pos_as_xyz
  1  'x, y, z'
loop_
 _atom_site_type_symbol
 _atom_site_label
 _atom_site_symmetry_multiplicity
 _atom_site_fract_x
 _atom_site_fract_y
 _atom_site_fract_z
 _atom_site_occupancy
  Sr  Sr0  1  0.000000  0.000000  0.000000  1
  Cr  Cr1  1  0.844018  0.686419  0.468187  1
  Cr  Cr2  1  0.345708  0.686751  0.464550  1
  Cr  Cr3  1  0.654292  0.313249  0.535450  1
  Cr  Cr4  1  0.155982  0.313581  0.531813  1
  Cr  Cr5  1  0.815269  0.410200  0.166107  1
  Cr  Cr6  1  0.315392  0.404802  0.165194  1
  Cr  Cr7  1  0.684608  0.595198  0.834806  1
  Cr  Cr8  1  0.184731  0.589800  0.833893  1
  Cr  Cr9  1  0.500000  0.000000  0.500000  1
  Cr  Cr10  1  0.000000  0.000000  0.500000  1
  S  S11  1  0.784757  0.155187  0.352751  1
  S  S12  1  0.284402  0.155318  0.353716  1
  S  S13  1  0.715598  0.844682  0.646284  1
  S  S14  1  0.215243  0.844813  0.647249  1
  S  S15  1  0.957450  0.473700  0.346999  1
  S  S16  1  0.459073  0.474231  0.346279  1
  S  S17  1  0.540927  0.525769  0.653721  1
  S  S18  1  0.042550  0.526300  0.653001  1
  S  S19  1  0.634533  0.838012  0.317139  1
  S  S20  1  0.128770  0.838169  0.316959  1
  S  S21  1  0.871230  0.161831  0.683041  1
  S  S22  1  0.365467  0.161988  0.682861  1
  S  S23  1  0.338924  0.657112  0.987942  1
  S  S24  1  0.844629  0.660651  0.987071  1
  S  S25  1  0.155371  0.339349  0.012929  1
  S  S26  1  0.661076  0.342888  0.012058  1
