# generated using pymatgen
data_Tb16MgAg3Pt4
_symmetry_space_group_name_H-M   'P 1'
_cell_length_a   9.65790690
_cell_length_b   9.68034600
_cell_length_c   9.68034600
_cell_angle_alpha   60.00000684
_cell_angle_beta   59.92311987
_cell_angle_gamma   59.92311780
_symmetry_Int_Tables_number   1
_chemical_formula_structural   Tb16MgAg3Pt4
_chemical_formula_sum   'Tb16 Mg1 Ag3 Pt4'
_cell_volume   639.21086120
_cell_formula_units_Z   1
loop_
 _symmetry_equiv_pos_site_id
 _symmetry_equiv_pos_as_xyz
  1  'x, y, z'
loop_
 _atom_site_type_symbol
 _atom_site_label
 _atom_site_symmetry_multiplicity
 _atom_site_fract_x
 _atom_site_fract_y
 _atom_site_fract_z
 _atom_site_occupancy
  Tb  Tb0  1  0.353899  0.351776  0.351776  1
  Tb  Tb1  1  0.353899  0.351776  0.942548  1
  Tb  Tb2  1  0.353899  0.942548  0.351776  1
  Tb  Tb3  1  0.930724  0.356425  0.356425  1
  Tb  Tb4  1  0.809212  0.190131  0.190131  1
  Tb  Tb5  1  0.187175  0.812175  0.812175  1
  Tb  Tb6  1  0.187175  0.812175  0.188474  1
  Tb  Tb7  1  0.809212  0.190131  0.810525  1
  Tb  Tb8  1  0.187175  0.188474  0.812175  1
  Tb  Tb9  1  0.809212  0.810525  0.190131  1
  Tb  Tb10  1  0.931476  0.566372  0.566372  1
  Tb  Tb11  1  0.565618  0.934225  0.934225  1
  Tb  Tb12  1  0.565618  0.934225  0.565933  1
  Tb  Tb13  1  0.931476  0.566372  0.935780  1
  Tb  Tb14  1  0.565618  0.565933  0.934225  1
  Tb  Tb15  1  0.931476  0.935780  0.566372  1
  Mg  Mg16  1  0.285223  0.571592  0.571592  1
  Ag  Ag17  1  0.582378  0.584825  0.584825  1
  Ag  Ag18  1  0.582378  0.584825  0.247974  1
  Ag  Ag19  1  0.582378  0.247974  0.584825  1
  Pt  Pt20  1  0.141549  0.144847  0.144847  1
  Pt  Pt21  1  0.141549  0.144847  0.568755  1
  Pt  Pt22  1  0.141549  0.568755  0.144847  1
  Pt  Pt23  1  0.570132  0.143289  0.143289  1
