# generated using pymatgen
data_Tb5NdAl16(SiOs)8
_symmetry_space_group_name_H-M   'P 1'
_cell_length_a   8.73019300
_cell_length_b   8.72475958
_cell_length_c   9.44835900
_cell_angle_alpha   90.00000000
_cell_angle_beta   90.00000000
_cell_angle_gamma   120.02060664
_symmetry_Int_Tables_number   1
_chemical_formula_structural   Tb5NdAl16(SiOs)8
_chemical_formula_sum   'Tb5 Nd1 Al16 Si8 Os8'
_cell_volume   623.12347678
_cell_formula_units_Z   1
loop_
 _symmetry_equiv_pos_site_id
 _symmetry_equiv_pos_as_xyz
  1  'x, y, z'
loop_
 _atom_site_type_symbol
 _atom_site_label
 _atom_site_symmetry_multiplicity
 _atom_site_fract_x
 _atom_site_fract_y
 _atom_site_fract_z
 _atom_site_occupancy
  Tb  Tb0  1  0.807124  0.614248  0.750000  1
  Tb  Tb1  1  0.611235  0.805699  0.250000  1
  Tb  Tb2  1  0.386381  0.193335  0.750000  1
  Tb  Tb3  1  0.194464  0.805699  0.250000  1
  Tb  Tb4  1  0.806953  0.193335  0.750000  1
  Nd  Nd5  1  0.191344  0.382688  0.250000  1
  Al  Al6  1  0.164336  0.328672  0.578391  1
  Al  Al7  1  0.834159  0.668319  0.420916  1
  Al  Al8  1  0.671703  0.836035  0.577116  1
  Al  Al9  1  0.834159  0.668319  0.079084  1
  Al  Al10  1  0.333389  0.166115  0.421191  1
  Al  Al11  1  0.164336  0.328672  0.921609  1
  Al  Al12  1  0.164332  0.836035  0.577116  1
  Al  Al13  1  0.333389  0.166115  0.078809  1
  Al  Al14  1  0.832726  0.166115  0.421191  1
  Al  Al15  1  0.671703  0.836035  0.922884  1
  Al  Al16  1  0.832726  0.166115  0.078809  1
  Al  Al17  1  0.164332  0.836035  0.922884  1
  Al  Al18  1  0.436890  0.873781  0.750000  1
  Al  Al19  1  0.126518  0.563844  0.750000  1
  Al  Al20  1  0.437326  0.563844  0.750000  1
  Al  Al21  1  0.999984  0.999967  0.750000  1
  Si  Si22  1  0.333953  0.667908  0.034279  1
  Si  Si23  1  0.666934  0.333867  0.959827  1
  Si  Si24  1  0.666934  0.333867  0.540173  1
  Si  Si25  1  0.333953  0.667908  0.465721  1
  Si  Si26  1  0.561609  0.123216  0.250000  1
  Si  Si27  1  0.873774  0.438902  0.250000  1
  Si  Si28  1  0.565128  0.438902  0.250000  1
  Si  Si29  1  0.996331  0.992663  0.250000  1
  Os  Os30  1  0.501826  0.003653  0.006809  1
  Os  Os31  1  0.995876  0.499009  0.006054  1
  Os  Os32  1  0.501826  0.003653  0.493191  1
  Os  Os33  1  0.503133  0.499009  0.006054  1
  Os  Os34  1  0.995876  0.499009  0.493946  1
  Os  Os35  1  0.503133  0.499009  0.493946  1
  Os  Os36  1  0.000103  0.000204  0.007825  1
  Os  Os37  1  0.000103  0.000204  0.492175  1
