# generated using pymatgen
data_CeAl4Cu9
_symmetry_space_group_name_H-M   'P 1'
_cell_length_a   8.31683524
_cell_length_b   8.31683383
_cell_length_c   8.31683478
_cell_angle_alpha   120.06429917
_cell_angle_beta   120.06429758
_cell_angle_gamma   89.88867070
_symmetry_Int_Tables_number   1
_chemical_formula_structural   CeAl4Cu9
_chemical_formula_sum   'Ce2 Al8 Cu18'
_cell_volume   406.38345360
_cell_formula_units_Z   2
loop_
 _symmetry_equiv_pos_site_id
 _symmetry_equiv_pos_as_xyz
  1  'x, y, z'
loop_
 _atom_site_type_symbol
 _atom_site_label
 _atom_site_symmetry_multiplicity
 _atom_site_fract_x
 _atom_site_fract_y
 _atom_site_fract_z
 _atom_site_occupancy
  Ce  Ce0  1  0.750000  0.750000  0.000000  1
  Ce  Ce1  1  0.250000  0.250000  0.000000  1
  Al  Al2  1  0.803089  0.303088  0.862002  1
  Al  Al3  1  0.441086  0.941087  0.137999  1
  Al  Al4  1  0.696913  0.558914  0.500000  1
  Al  Al5  1  0.058913  0.196912  0.500000  1
  Al  Al6  1  0.196913  0.696913  0.137999  1
  Al  Al7  1  0.558913  0.058913  0.862002  1
  Al  Al8  1  0.941087  0.803088  0.500000  1
  Al  Al9  1  0.303088  0.441087  0.500000  1
  Cu  Cu10  1  0.202890  0.060165  0.263055  1
  Cu  Cu11  1  0.797108  0.939836  0.736946  1
  Cu  Cu12  1  0.297109  0.560164  0.857273  1
  Cu  Cu13  1  0.702889  0.439835  0.142726  1
  Cu  Cu14  1  0.439837  0.297109  0.736946  1
  Cu  Cu15  1  0.560164  0.702889  0.263055  1
  Cu  Cu16  1  0.939836  0.202890  0.142728  1
  Cu  Cu17  1  0.060165  0.797109  0.857274  1
  Cu  Cu18  1  0.499999  0.000000  0.499999  1
  Cu  Cu19  1  0.000000  0.499999  0.499999  1
  Cu  Cu20  1  0.294591  0.794590  0.732327  1
  Cu  Cu21  1  0.062263  0.562264  0.267674  1
  Cu  Cu22  1  0.205410  0.937737  0.499999  1
  Cu  Cu23  1  0.437738  0.705411  0.500002  1
  Cu  Cu24  1  0.705411  0.205410  0.267674  1
  Cu  Cu25  1  0.937737  0.437738  0.732327  1
  Cu  Cu26  1  0.562264  0.294591  0.500002  1
  Cu  Cu27  1  0.794590  0.062263  0.499999  1
