# generated using pymatgen
data_Ho8Re3OsC8
_symmetry_space_group_name_H-M   'P 1'
_cell_length_a   5.09457000
_cell_length_b   6.54184480
_cell_length_c   9.80486396
_cell_angle_alpha   89.84627229
_cell_angle_beta   90.00000000
_cell_angle_gamma   90.00000000
_symmetry_Int_Tables_number   1
_chemical_formula_structural   Ho8Re3OsC8
_chemical_formula_sum   'Ho8 Re3 Os1 C8'
_cell_volume   326.77421448
_cell_formula_units_Z   1
loop_
 _symmetry_equiv_pos_site_id
 _symmetry_equiv_pos_as_xyz
  1  'x, y, z'
loop_
 _atom_site_type_symbol
 _atom_site_label
 _atom_site_symmetry_multiplicity
 _atom_site_fract_x
 _atom_site_fract_y
 _atom_site_fract_z
 _atom_site_occupancy
  Ho  Ho0  1  0.250000  0.677345  0.555207  1
  Ho  Ho1  1  0.750000  0.319972  0.443843  1
  Ho  Ho2  1  0.750000  0.820641  0.056056  1
  Ho  Ho3  1  0.250000  0.179425  0.943928  1
  Ho  Ho4  1  0.250000  0.531456  0.216653  1
  Ho  Ho5  1  0.750000  0.466763  0.784435  1
  Ho  Ho6  1  0.750000  0.968967  0.713376  1
  Ho  Ho7  1  0.250000  0.031264  0.283890  1
  Re  Re8  1  0.250000  0.721086  0.865872  1
  Re  Re9  1  0.750000  0.278895  0.132913  1
  Re  Re10  1  0.750000  0.777987  0.366797  1
  Os  Os11  1  0.250000  0.221794  0.634174  1
  C  C12  1  0.250000  0.455265  0.759271  1
  C  C13  1  0.750000  0.545473  0.240688  1
  C  C14  1  0.750000  0.045242  0.259462  1
  C  C15  1  0.250000  0.955367  0.741850  1
  C  C16  1  0.250000  0.824300  0.051051  1
  C  C17  1  0.750000  0.176599  0.947889  1
  C  C18  1  0.750000  0.676622  0.552643  1
  C  C19  1  0.250000  0.325537  0.450003  1
