# generated using pymatgen
data_NbRu3(PbO4)4
_symmetry_space_group_name_H-M   'P 1'
_cell_length_a   5.16281944
_cell_length_b   5.34071402
_cell_length_c   13.78221813
_cell_angle_alpha   67.87517819
_cell_angle_beta   89.54109654
_cell_angle_gamma   88.84726301
_symmetry_Int_Tables_number   1
_chemical_formula_structural   NbRu3(PbO4)4
_chemical_formula_sum   'Nb1 Ru3 Pb4 O16'
_cell_volume   351.96528301
_cell_formula_units_Z   1
loop_
 _symmetry_equiv_pos_site_id
 _symmetry_equiv_pos_as_xyz
  1  'x, y, z'
loop_
 _atom_site_type_symbol
 _atom_site_label
 _atom_site_symmetry_multiplicity
 _atom_site_fract_x
 _atom_site_fract_y
 _atom_site_fract_z
 _atom_site_occupancy
  Nb  Nb0  1  0.251303  0.585750  0.919411  1
  Ru  Ru1  1  0.249732  0.574727  0.426088  1
  Ru  Ru2  1  0.750619  0.422158  0.076821  1
  Ru  Ru3  1  0.750320  0.422296  0.573322  1
  Pb  Pb4  1  0.743153  0.155310  0.341197  1
  Pb  Pb5  1  0.242059  0.841499  0.160031  1
  Pb  Pb6  1  0.257221  0.843838  0.655895  1
  Pb  Pb7  1  0.756521  0.157960  0.841565  1
  O  O8  1  0.549828  0.741345  0.459071  1
  O  O9  1  0.053655  0.252399  0.046759  1
  O  O10  1  0.451448  0.267111  0.537838  1
  O  O11  1  0.936488  0.749575  0.962837  1
  O  O12  1  0.947229  0.347284  0.454317  1
  O  O13  1  0.445526  0.648570  0.050867  1
  O  O14  1  0.049515  0.645037  0.542852  1
  O  O15  1  0.568306  0.340336  0.956853  1
  O  O16  1  0.131527  0.899596  0.325371  1
  O  O17  1  0.626691  0.104890  0.176636  1
  O  O18  1  0.862863  0.098875  0.672844  1
  O  O19  1  0.380154  0.910230  0.821481  1
  O  O20  1  0.368768  0.462957  0.321185  1
  O  O21  1  0.874202  0.527610  0.181241  1
  O  O22  1  0.635028  0.535867  0.677101  1
  O  O23  1  0.117845  0.464782  0.818416  1
