# generated using pymatgen
data_Tb3Dy5GaPd24
_symmetry_space_group_name_H-M   'P 1'
_cell_length_a   8.37871900
_cell_length_b   8.37871900
_cell_length_c   8.37871900
_cell_angle_alpha   89.99954868
_cell_angle_beta   89.99954868
_cell_angle_gamma   90.00045132
_symmetry_Int_Tables_number   1
_chemical_formula_structural   Tb3Dy5GaPd24
_chemical_formula_sum   'Tb3 Dy5 Ga1 Pd24'
_cell_volume   588.21064088
_cell_formula_units_Z   1
loop_
 _symmetry_equiv_pos_site_id
 _symmetry_equiv_pos_as_xyz
  1  'x, y, z'
loop_
 _atom_site_type_symbol
 _atom_site_label
 _atom_site_symmetry_multiplicity
 _atom_site_fract_x
 _atom_site_fract_y
 _atom_site_fract_z
 _atom_site_occupancy
  Tb  Tb0  1  0.748023  0.251955  0.748045  1
  Tb  Tb1  1  0.251955  0.748023  0.748045  1
  Tb  Tb2  1  0.251955  0.251955  0.251977  1
  Dy  Dy3  1  0.251991  0.251991  0.748009  1
  Dy  Dy4  1  0.251967  0.748022  0.251978  1
  Dy  Dy5  1  0.748022  0.251967  0.251978  1
  Dy  Dy6  1  0.748022  0.748022  0.748033  1
  Dy  Dy7  1  0.748042  0.748042  0.251958  1
  Ga  Ga8  1  0.000001  0.000001  0.999999  1
  Pd  Pd9  1  0.499985  0.499985  0.746773  1
  Pd  Pd10  1  0.499985  0.253227  0.500015  1
  Pd  Pd11  1  0.253227  0.499985  0.500015  1
  Pd  Pd12  1  0.500251  0.500251  0.253214  1
  Pd  Pd13  1  0.500251  0.746786  0.499749  1
  Pd  Pd14  1  0.746786  0.500251  0.499749  1
  Pd  Pd15  1  0.000028  0.000028  0.707901  1
  Pd  Pd16  1  0.000028  0.292099  0.999972  1
  Pd  Pd17  1  0.292099  0.000028  0.999972  1
  Pd  Pd18  1  0.999775  0.999775  0.292077  1
  Pd  Pd19  1  0.999775  0.707923  0.000225  1
  Pd  Pd20  1  0.707923  0.999775  0.000225  1
  Pd  Pd21  1  0.000013  0.499949  0.739447  1
  Pd  Pd22  1  0.499949  0.260553  0.999987  1
  Pd  Pd23  1  0.260553  0.000013  0.500051  1
  Pd  Pd24  1  0.000013  0.260553  0.500051  1
  Pd  Pd25  1  0.499949  0.000013  0.739447  1
  Pd  Pd26  1  0.260553  0.499949  0.999987  1
  Pd  Pd27  1  0.999770  0.500231  0.260564  1
  Pd  Pd28  1  0.500231  0.739436  0.000230  1
  Pd  Pd29  1  0.999770  0.739436  0.499769  1
  Pd  Pd30  1  0.500231  0.999770  0.260564  1
  Pd  Pd31  1  0.739436  0.999770  0.499769  1
  Pd  Pd32  1  0.739436  0.500231  0.000230  1
