# generated using pymatgen
data_SmHoAl20RuRh3
_symmetry_space_group_name_H-M   'P 1'
_cell_length_a   6.85666389
_cell_length_b   6.85413232
_cell_length_c   9.16141640
_cell_angle_alpha   90.10980697
_cell_angle_beta   90.08124169
_cell_angle_gamma   97.29002903
_symmetry_Int_Tables_number   1
_chemical_formula_structural   SmHoAl20RuRh3
_chemical_formula_sum   'Sm1 Ho1 Al20 Ru1 Rh3'
_cell_volume   427.07258478
_cell_formula_units_Z   1
loop_
 _symmetry_equiv_pos_site_id
 _symmetry_equiv_pos_as_xyz
  1  'x, y, z'
loop_
 _atom_site_type_symbol
 _atom_site_label
 _atom_site_symmetry_multiplicity
 _atom_site_fract_x
 _atom_site_fract_y
 _atom_site_fract_z
 _atom_site_occupancy
  Sm  Sm0  1  0.870134  0.127320  0.750250  1
  Ho  Ho1  1  0.131338  0.871735  0.250034  1
  Al  Al2  1  0.620797  0.376292  0.547306  1
  Al  Al3  1  0.378577  0.624188  0.451960  1
  Al  Al4  1  0.377979  0.622673  0.049487  1
  Al  Al5  1  0.621405  0.377900  0.951235  1
  Al  Al6  1  0.222402  0.220718  0.498622  1
  Al  Al7  1  0.777878  0.779061  0.500021  1
  Al  Al8  1  0.776910  0.776981  0.000656  1
  Al  Al9  1  0.223403  0.222734  0.000761  1
  Al  Al10  1  0.845362  0.155163  0.104095  1
  Al  Al11  1  0.155454  0.844052  0.896931  1
  Al  Al12  1  0.156246  0.845253  0.601975  1
  Al  Al13  1  0.844422  0.153910  0.397003  1
  Al  Al14  1  0.856981  0.590729  0.749497  1
  Al  Al15  1  0.143411  0.411006  0.250469  1
  Al  Al16  1  0.409249  0.142288  0.748999  1
  Al  Al17  1  0.589109  0.857372  0.250942  1
  Al  Al18  1  0.225605  0.481119  0.749945  1
  Al  Al19  1  0.775202  0.519760  0.250048  1
  Al  Al20  1  0.518203  0.775711  0.746916  1
  Al  Al21  1  0.480891  0.223516  0.253022  1
  Ru  Ru22  1  0.499463  0.999939  0.499173  1
  Rh  Rh23  1  0.999984  0.500281  0.499360  1
  Rh  Rh24  1  0.999959  0.500310  0.000598  1
  Rh  Rh25  1  0.499635  0.999989  0.000696  1
