# generated using pymatgen
data_LiTi8(SiSb2)2
_symmetry_space_group_name_H-M   'P 1'
_cell_length_a   4.93148702
_cell_length_b   7.78969149
_cell_length_c   7.78969178
_cell_angle_alpha   95.75052161
_cell_angle_beta   108.45376306
_cell_angle_gamma   71.54623856
_symmetry_Int_Tables_number   1
_chemical_formula_structural   LiTi8(SiSb2)2
_chemical_formula_sum   'Li1 Ti8 Si2 Sb4'
_cell_volume   269.25626309
_cell_formula_units_Z   1
loop_
 _symmetry_equiv_pos_site_id
 _symmetry_equiv_pos_as_xyz
  1  'x, y, z'
loop_
 _atom_site_type_symbol
 _atom_site_label
 _atom_site_symmetry_multiplicity
 _atom_site_fract_x
 _atom_site_fract_y
 _atom_site_fract_z
 _atom_site_occupancy
  Li  Li0  1  0.250000  0.500000  0.500000  1
  Ti  Ti1  1  0.416776  0.876427  0.716922  1
  Ti  Ti2  1  0.576281  0.123573  0.283078  1
  Ti  Ti3  1  0.923719  0.283078  0.123573  1
  Ti  Ti4  1  0.083224  0.716922  0.876427  1
  Ti  Ti5  1  0.706797  0.716922  0.123573  1
  Ti  Ti6  1  0.300146  0.283078  0.876427  1
  Ti  Ti7  1  0.793203  0.123573  0.716922  1
  Ti  Ti8  1  0.199854  0.876427  0.283078  1
  Si  Si9  1  0.250000  0.000000  0.000000  1
  Si  Si10  1  0.750000  0.000000  0.000000  1
  Sb  Sb11  1  0.365616  0.500000  0.194665  1
  Sb  Sb12  1  0.670951  0.500000  0.805335  1
  Sb  Sb13  1  0.829049  0.805335  0.500000  1
  Sb  Sb14  1  0.134384  0.194665  0.500000  1
