# generated using pymatgen
data_Lu2Al9NiIr2
_symmetry_space_group_name_H-M   'P 1'
_cell_length_a   7.47419883
_cell_length_b   7.47419633
_cell_length_c   9.32452408
_cell_angle_alpha   89.80729866
_cell_angle_beta   89.80729712
_cell_angle_gamma   119.29013411
_symmetry_Int_Tables_number   1
_chemical_formula_structural   Lu2Al9NiIr2
_chemical_formula_sum   'Lu4 Al18 Ni2 Ir4'
_cell_volume   454.29624415
_cell_formula_units_Z   2
loop_
 _symmetry_equiv_pos_site_id
 _symmetry_equiv_pos_as_xyz
  1  'x, y, z'
loop_
 _atom_site_type_symbol
 _atom_site_label
 _atom_site_symmetry_multiplicity
 _atom_site_fract_x
 _atom_site_fract_y
 _atom_site_fract_z
 _atom_site_occupancy
  Lu  Lu0  1  0.995564  0.673974  0.250537  1
  Lu  Lu1  1  0.004436  0.326026  0.749463  1
  Lu  Lu2  1  0.673974  0.995564  0.250537  1
  Lu  Lu3  1  0.326026  0.004436  0.749463  1
  Al  Al4  1  0.130955  0.130955  0.248600  1
  Al  Al5  1  0.869045  0.869045  0.751400  1
  Al  Al6  1  0.997421  0.337774  0.074972  1
  Al  Al7  1  0.002579  0.662226  0.925028  1
  Al  Al8  1  0.998977  0.663349  0.575980  1
  Al  Al9  1  0.336651  0.001023  0.424020  1
  Al  Al10  1  0.001023  0.336651  0.424020  1
  Al  Al11  1  0.663349  0.998977  0.575980  1
  Al  Al12  1  0.662226  0.002579  0.925028  1
  Al  Al13  1  0.337774  0.997421  0.074972  1
  Al  Al14  1  0.333171  0.333171  0.552741  1
  Al  Al15  1  0.666829  0.666829  0.447259  1
  Al  Al16  1  0.665358  0.665358  0.053480  1
  Al  Al17  1  0.334642  0.334642  0.946520  1
  Al  Al18  1  0.340504  0.552910  0.245988  1
  Al  Al19  1  0.659496  0.447090  0.754012  1
  Al  Al20  1  0.552910  0.340504  0.245988  1
  Al  Al21  1  0.447090  0.659496  0.754012  1
  Ni  Ni22  1  0.671911  0.328089  0.000000  1
  Ni  Ni23  1  0.328089  0.671911  0.000000  1
  Ir  Ir24  1  0.327995  0.672005  0.500000  1
  Ir  Ir25  1  0.672005  0.327995  0.500000  1
  Ir  Ir26  1  0.000000  0.000000  0.000000  1
  Ir  Ir27  1  0.000000  0.000000  0.500000  1
