# generated using pymatgen
data_SmDy3(Co2O5)4
_symmetry_space_group_name_H-M   'P 1'
_cell_length_a   5.66511600
_cell_length_b   7.28128411
_cell_length_c   8.46269265
_cell_angle_alpha   90.29286370
_cell_angle_beta   90.00000000
_cell_angle_gamma   90.00000000
_symmetry_Int_Tables_number   1
_chemical_formula_structural   SmDy3(Co2O5)4
_chemical_formula_sum   'Sm1 Dy3 Co8 O20'
_cell_volume   349.07574946
_cell_formula_units_Z   1
loop_
 _symmetry_equiv_pos_site_id
 _symmetry_equiv_pos_as_xyz
  1  'x, y, z'
loop_
 _atom_site_type_symbol
 _atom_site_label
 _atom_site_symmetry_multiplicity
 _atom_site_fract_x
 _atom_site_fract_y
 _atom_site_fract_z
 _atom_site_occupancy
  Sm  Sm0  1  0.000000  0.856705  0.827006  1
  Dy  Dy1  1  0.000000  0.145393  0.173135  1
  Dy  Dy2  1  0.000000  0.361402  0.673176  1
  Dy  Dy3  1  0.000000  0.638578  0.326979  1
  Co  Co4  1  0.743616  0.000819  0.498002  1
  Co  Co5  1  0.500000  0.586043  0.648981  1
  Co  Co6  1  0.500000  0.407536  0.352565  1
  Co  Co7  1  0.500000  0.910565  0.148434  1
  Co  Co8  1  0.500000  0.090691  0.847000  1
  Co  Co9  1  0.257708  0.497928  0.002261  1
  Co  Co10  1  0.742292  0.497928  0.002261  1
  Co  Co11  1  0.256384  0.000819  0.498002  1
  O  O12  1  0.000000  0.337508  0.948026  1
  O  O13  1  0.723247  0.003647  0.001181  1
  O  O14  1  0.276753  0.003647  0.001181  1
  O  O15  1  0.500000  0.155092  0.432174  1
  O  O16  1  0.000000  0.161253  0.447334  1
  O  O17  1  0.726764  0.501130  0.499422  1
  O  O18  1  0.000000  0.837756  0.549674  1
  O  O19  1  0.753234  0.591340  0.790121  1
  O  O20  1  0.247793  0.105654  0.705640  1
  O  O21  1  0.500000  0.652552  0.060277  1
  O  O22  1  0.500000  0.346033  0.947531  1
  O  O23  1  0.000000  0.658672  0.054830  1
  O  O24  1  0.754650  0.901464  0.291440  1
  O  O25  1  0.758144  0.400130  0.212043  1
  O  O26  1  0.752207  0.105654  0.705640  1
  O  O27  1  0.246766  0.591340  0.790121  1
  O  O28  1  0.273236  0.501130  0.499422  1
  O  O29  1  0.245350  0.901464  0.291440  1
  O  O30  1  0.241856  0.400130  0.212043  1
  O  O31  1  0.500000  0.849997  0.562658  1
