# generated using pymatgen
data_DyEr3GaCo4
_symmetry_space_group_name_H-M   'P 1'
_cell_length_a   5.44046093
_cell_length_b   5.44046238
_cell_length_c   8.85692536
_cell_angle_alpha   70.85980769
_cell_angle_beta   70.85980381
_cell_angle_gamma   43.41062042
_symmetry_Int_Tables_number   1
_chemical_formula_structural   DyEr3GaCo4
_chemical_formula_sum   'Dy1 Er3 Ga1 Co4'
_cell_volume   168.56594660
_cell_formula_units_Z   1
loop_
 _symmetry_equiv_pos_site_id
 _symmetry_equiv_pos_as_xyz
  1  'x, y, z'
loop_
 _atom_site_type_symbol
 _atom_site_label
 _atom_site_symmetry_multiplicity
 _atom_site_fract_x
 _atom_site_fract_y
 _atom_site_fract_z
 _atom_site_occupancy
  Dy  Dy0  1  0.746207  0.746207  0.661981  1
  Er  Er1  1  0.253863  0.253863  0.337627  1
  Er  Er2  1  0.391286  0.391286  0.885954  1
  Er  Er3  1  0.608669  0.608669  0.114717  1
  Ga  Ga4  1  0.500293  0.500293  0.499717  1
  Co  Co5  1  0.037783  0.037783  0.645457  1
  Co  Co6  1  0.962304  0.962304  0.354011  1
  Co  Co7  1  0.094084  0.094084  0.880858  1
  Co  Co8  1  0.905512  0.905512  0.119678  1
