# generated using pymatgen
data_Y2Er2MgP12Ru19
_symmetry_space_group_name_H-M   'P 1'
_cell_length_a   12.47139847
_cell_length_b   12.48888623
_cell_length_c   3.99196000
_cell_angle_alpha   90.00000000
_cell_angle_beta   90.00000000
_cell_angle_gamma   120.04639096
_symmetry_Int_Tables_number   1
_chemical_formula_structural   Y2Er2MgP12Ru19
_chemical_formula_sum   'Y2 Er2 Mg1 P12 Ru19'
_cell_volume   538.21087607
_cell_formula_units_Z   1
loop_
 _symmetry_equiv_pos_site_id
 _symmetry_equiv_pos_as_xyz
  1  'x, y, z'
loop_
 _atom_site_type_symbol
 _atom_site_label
 _atom_site_symmetry_multiplicity
 _atom_site_fract_x
 _atom_site_fract_y
 _atom_site_fract_z
 _atom_site_occupancy
  Y  Y0  1  0.673259  0.333228  0.000000  1
  Y  Y1  1  0.326741  0.659970  0.000000  1
  Er  Er2  1  0.816514  0.816063  0.500000  1
  Er  Er3  1  0.183486  0.999549  0.500000  1
  Mg  Mg4  1  0.000000  0.189223  0.500000  1
  P  P5  1  0.000000  0.827786  0.000000  1
  P  P6  1  0.194085  0.180090  0.000000  1
  P  P7  1  0.805915  0.986006  0.000000  1
  P  P8  1  0.698892  0.169259  0.500000  1
  P  P9  1  0.831141  0.525649  0.500000  1
  P  P10  1  0.481134  0.307041  0.500000  1
  P  P11  1  0.168859  0.694509  0.500000  1
  P  P12  1  0.518866  0.825906  0.500000  1
  P  P13  1  0.301108  0.470367  0.500000  1
  P  P14  1  0.000000  0.380979  0.000000  1
  P  P15  1  0.625257  0.626080  0.000000  1
  P  P16  1  0.374743  0.000823  0.000000  1
  Ru  Ru17  1  0.000000  0.560820  0.000000  1
  Ru  Ru18  1  0.439702  0.445564  0.000000  1
  Ru  Ru19  1  0.560298  0.005861  0.000000  1
  Ru  Ru20  1  0.000000  0.722829  0.500000  1
  Ru  Ru21  1  0.283115  0.278705  0.500000  1
  Ru  Ru22  1  0.716885  0.995591  0.500000  1
  Ru  Ru23  1  0.825333  0.182236  0.000000  1
  Ru  Ru24  1  0.815510  0.628700  0.000000  1
  Ru  Ru25  1  0.384277  0.194111  0.000000  1
  Ru  Ru26  1  0.184490  0.813189  0.000000  1
  Ru  Ru27  1  0.615723  0.809834  0.000000  1
  Ru  Ru28  1  0.174667  0.356902  0.000000  1
  Ru  Ru29  1  0.874248  0.364907  0.500000  1
  Ru  Ru30  1  0.633835  0.509322  0.500000  1
  Ru  Ru31  1  0.497208  0.127385  0.500000  1
  Ru  Ru32  1  0.366165  0.875488  0.500000  1
  Ru  Ru33  1  0.502792  0.630177  0.500000  1
  Ru  Ru34  1  0.125752  0.490660  0.500000  1
  Ru  Ru35  1  0.000000  0.015185  0.000000  1
