# generated using pymatgen
data_K(Zn2Au)2
_symmetry_space_group_name_H-M   'P 1'
_cell_length_a   8.13195700
_cell_length_b   8.13195700
_cell_length_c   4.19085200
_cell_angle_alpha   90.00000000
_cell_angle_beta   90.00000000
_cell_angle_gamma   90.00000000
_symmetry_Int_Tables_number   1
_chemical_formula_structural   K(Zn2Au)2
_chemical_formula_sum   'K2 Zn8 Au4'
_cell_volume   277.13569796
_cell_formula_units_Z   2
loop_
 _symmetry_equiv_pos_site_id
 _symmetry_equiv_pos_as_xyz
  1  'x, y, z'
loop_
 _atom_site_type_symbol
 _atom_site_label
 _atom_site_symmetry_multiplicity
 _atom_site_fract_x
 _atom_site_fract_y
 _atom_site_fract_z
 _atom_site_occupancy
  K  K0  1  0.500000  0.500000  0.500000  1
  K  K1  1  0.000000  0.000000  0.000000  1
  Zn  Zn2  1  0.355005  0.087226  0.500000  1
  Zn  Zn3  1  0.644995  0.912774  0.500000  1
  Zn  Zn4  1  0.855005  0.412774  0.000000  1
  Zn  Zn5  1  0.144995  0.587226  0.000000  1
  Zn  Zn6  1  0.087226  0.355005  0.500000  1
  Zn  Zn7  1  0.912774  0.644995  0.500000  1
  Zn  Zn8  1  0.412774  0.855005  0.000000  1
  Zn  Zn9  1  0.587226  0.144995  0.000000  1
  Au  Au10  1  0.772343  0.227657  0.500000  1
  Au  Au11  1  0.227657  0.772343  0.500000  1
  Au  Au12  1  0.272343  0.272343  0.000000  1
  Au  Au13  1  0.727657  0.727657  0.000000  1
