# generated using pymatgen
data_Ho8Lu2Hg3Bi2Au
_symmetry_space_group_name_H-M   'P 1'
_cell_length_a   8.72101058
_cell_length_b   8.72101086
_cell_length_c   8.74508158
_cell_angle_alpha   124.00464972
_cell_angle_beta   124.00464902
_cell_angle_gamma   83.01511461
_symmetry_Int_Tables_number   1
_chemical_formula_structural   Ho8Lu2Hg3Bi2Au
_chemical_formula_sum   'Ho8 Lu2 Hg3 Bi2 Au1'
_cell_volume   439.04648322
_cell_formula_units_Z   1
loop_
 _symmetry_equiv_pos_site_id
 _symmetry_equiv_pos_as_xyz
  1  'x, y, z'
loop_
 _atom_site_type_symbol
 _atom_site_label
 _atom_site_symmetry_multiplicity
 _atom_site_fract_x
 _atom_site_fract_y
 _atom_site_fract_z
 _atom_site_occupancy
  Ho  Ho0  1  0.002791  0.509144  0.801182  1
  Ho  Ho1  1  0.701609  0.207962  0.198818  1
  Ho  Ho2  1  0.515253  0.697891  0.500000  1
  Ho  Ho3  1  0.200975  0.007716  0.500000  1
  Ho  Ho4  1  0.990856  0.497209  0.198818  1
  Ho  Ho5  1  0.292038  0.798391  0.801182  1
  Ho  Ho6  1  0.492284  0.299025  0.500000  1
  Ho  Ho7  1  0.802109  0.984747  0.500000  1
  Lu  Lu8  1  0.997981  0.995483  0.993463  1
  Lu  Lu9  1  0.504517  0.502019  0.006537  1
  Hg  Hg10  1  0.640457  0.141011  0.781467  1
  Hg  Hg11  1  0.358989  0.859543  0.218533  1
  Hg  Hg12  1  0.140438  0.359562  0.500000  1
  Bi  Bi13  1  0.748651  0.751349  0.000000  1
  Bi  Bi14  1  0.248651  0.251349  0.000000  1
  Au  Au15  1  0.862403  0.637597  0.500000  1
