# generated using pymatgen
data_Mn4ZnGaPd10
_symmetry_space_group_name_H-M   'P 1'
_cell_length_a   4.09827600
_cell_length_b   5.46810365
_cell_length_c   10.70552632
_cell_angle_alpha   90.25746053
_cell_angle_beta   90.00000000
_cell_angle_gamma   90.00000000
_symmetry_Int_Tables_number   1
_chemical_formula_structural   Mn4ZnGaPd10
_chemical_formula_sum   'Mn4 Zn1 Ga1 Pd10'
_cell_volume   239.90625970
_cell_formula_units_Z   1
loop_
 _symmetry_equiv_pos_site_id
 _symmetry_equiv_pos_as_xyz
  1  'x, y, z'
loop_
 _atom_site_type_symbol
 _atom_site_label
 _atom_site_symmetry_multiplicity
 _atom_site_fract_x
 _atom_site_fract_y
 _atom_site_fract_z
 _atom_site_occupancy
  Mn  Mn0  1  0.000000  0.812268  0.635334  1
  Mn  Mn1  1  0.000000  0.318413  0.862187  1
  Mn  Mn2  1  0.000000  0.187732  0.364666  1
  Mn  Mn3  1  0.000000  0.681587  0.137813  1
  Zn  Zn4  1  0.500000  0.500000  0.500000  1
  Ga  Ga5  1  0.500000  0.000000  0.000000  1
  Pd  Pd6  1  0.000000  0.810454  0.890553  1
  Pd  Pd7  1  0.000000  0.694126  0.387737  1
  Pd  Pd8  1  0.000000  0.305874  0.612263  1
  Pd  Pd9  1  0.500000  0.926411  0.241350  1
  Pd  Pd10  1  0.500000  0.426168  0.257491  1
  Pd  Pd11  1  0.500000  0.573832  0.742509  1
  Pd  Pd12  1  0.500000  0.073589  0.758650  1
  Pd  Pd13  1  0.500000  0.500000  0.000000  1
  Pd  Pd14  1  0.500000  0.000000  0.500000  1
  Pd  Pd15  1  0.000000  0.189546  0.109447  1
