# generated using pymatgen
data_DyY6LuC10
_symmetry_space_group_name_H-M   'P 1'
_cell_length_a   3.68072000
_cell_length_b   6.58474768
_cell_length_c   11.89463801
_cell_angle_alpha   90.17745300
_cell_angle_beta   90.00000000
_cell_angle_gamma   90.00000000
_symmetry_Int_Tables_number   1
_chemical_formula_structural   DyY6LuC10
_chemical_formula_sum   'Dy1 Y6 Lu1 C10'
_cell_volume   288.28434947
_cell_formula_units_Z   1
loop_
 _symmetry_equiv_pos_site_id
 _symmetry_equiv_pos_as_xyz
  1  'x, y, z'
loop_
 _atom_site_type_symbol
 _atom_site_label
 _atom_site_symmetry_multiplicity
 _atom_site_fract_x
 _atom_site_fract_y
 _atom_site_fract_z
 _atom_site_occupancy
  Dy  Dy0  1  0.500000  0.895689  0.197357  1
  Y  Y1  1  0.500000  0.391358  0.302494  1
  Y  Y2  1  0.500000  0.606410  0.697182  1
  Y  Y3  1  0.500000  0.108894  0.804706  1
  Y  Y4  1  0.000000  0.749952  0.957146  1
  Y  Y5  1  0.000000  0.262553  0.542107  1
  Y  Y6  1  0.000000  0.751208  0.455181  1
  Lu  Lu7  1  0.000000  0.233524  0.042221  1
  C  C8  1  0.500000  0.993569  0.002485  1
  C  C9  1  0.500000  0.512247  0.500542  1
  C  C10  1  0.000000  0.136777  0.232219  1
  C  C11  1  0.000000  0.855933  0.762222  1
  C  C12  1  0.000000  0.365142  0.738561  1
  C  C13  1  0.000000  0.642646  0.259129  1
  C  C14  1  0.000000  0.114089  0.343995  1
  C  C15  1  0.000000  0.925391  0.657377  1
  C  C16  1  0.000000  0.384377  0.850525  1
  C  C17  1  0.000000  0.570240  0.154551  1
