# generated using pymatgen
data_Tm2UFe3
_symmetry_space_group_name_H-M   'P 1'
_cell_length_a   5.47342827
_cell_length_b   5.47342711
_cell_length_c   5.00668048
_cell_angle_alpha   56.86507546
_cell_angle_beta   56.86508049
_cell_angle_gamma   59.99999058
_symmetry_Int_Tables_number   1
_chemical_formula_structural   Tm2UFe3
_chemical_formula_sum   'Tm2 U1 Fe3'
_cell_volume   100.75353640
_cell_formula_units_Z   1
loop_
 _symmetry_equiv_pos_site_id
 _symmetry_equiv_pos_as_xyz
  1  'x, y, z'
loop_
 _atom_site_type_symbol
 _atom_site_label
 _atom_site_symmetry_multiplicity
 _atom_site_fract_x
 _atom_site_fract_y
 _atom_site_fract_z
 _atom_site_occupancy
  Tm  Tm0  1  0.998553  0.998553  0.004341  1
  Tm  Tm1  1  0.251448  0.251448  0.245660  1
  U  U2  1  0.625000  0.625000  0.125002  1
  Fe  Fe3  1  0.625000  0.625000  0.625000  1
  Fe  Fe4  1  0.125002  0.625000  0.625000  1
  Fe  Fe5  1  0.625000  0.125002  0.625000  1
