# generated using pymatgen
data_HoLu(Be12Ni)2
_symmetry_space_group_name_H-M   'P 1'
_cell_length_a   7.21385448
_cell_length_b   7.27312250
_cell_length_c   7.18747517
_cell_angle_alpha   59.84609862
_cell_angle_beta   59.63496744
_cell_angle_gamma   59.48736561
_symmetry_Int_Tables_number   1
_chemical_formula_structural   HoLu(Be12Ni)2
_chemical_formula_sum   'Ho1 Lu1 Be24 Ni2'
_cell_volume   264.56633364
_cell_formula_units_Z   1
loop_
 _symmetry_equiv_pos_site_id
 _symmetry_equiv_pos_as_xyz
  1  'x, y, z'
loop_
 _atom_site_type_symbol
 _atom_site_label
 _atom_site_symmetry_multiplicity
 _atom_site_fract_x
 _atom_site_fract_y
 _atom_site_fract_z
 _atom_site_occupancy
  Ho  Ho0  1  0.751110  0.748890  0.751110  1
  Lu  Lu1  1  0.248635  0.251365  0.248635  1
  Be  Be2  1  0.499999  0.500001  0.499999  1
  Be  Be3  1  0.000038  0.999962  0.000038  1
  Be  Be4  1  0.567871  0.788474  0.431940  1
  Be  Be5  1  0.431940  0.211714  0.567871  1
  Be  Be6  1  0.293269  0.935153  0.706489  1
  Be  Be7  1  0.706489  0.065088  0.293269  1
  Be  Be8  1  0.932874  0.285249  0.067336  1
  Be  Be9  1  0.067336  0.714541  0.932874  1
  Be  Be10  1  0.205790  0.798018  0.560612  1
  Be  Be11  1  0.794379  0.202225  0.439171  1
  Be  Be12  1  0.439171  0.564226  0.794379  1
  Be  Be13  1  0.560612  0.435580  0.205790  1
  Be  Be14  1  0.711187  0.284047  0.935429  1
  Be  Be15  1  0.288597  0.715852  0.064744  1
  Be  Be16  1  0.064744  0.930806  0.288597  1
  Be  Be17  1  0.935429  0.069337  0.711187  1
  Be  Be18  1  0.561976  0.206863  0.795029  1
  Be  Be19  1  0.437803  0.793319  0.205208  1
  Be  Be20  1  0.795029  0.436132  0.561976  1
  Be  Be21  1  0.205208  0.563669  0.437803  1
  Be  Be22  1  0.936370  0.710829  0.289378  1
  Be  Be23  1  0.063853  0.288967  0.710371  1
  Be  Be24  1  0.289378  0.063423  0.936370  1
  Be  Be25  1  0.710371  0.936809  0.063853  1
  Ni  Ni26  1  0.799796  0.558600  0.200744  1
  Ni  Ni27  1  0.200744  0.440859  0.799796  1
