# generated using pymatgen
data_TmZn3AgIr
_symmetry_space_group_name_H-M   'P 1'
_cell_length_a   5.21220980
_cell_length_b   5.21220942
_cell_length_c   5.21220900
_cell_angle_alpha   60.21213950
_cell_angle_beta   60.21215455
_cell_angle_gamma   60.21213478
_symmetry_Int_Tables_number   1
_chemical_formula_structural   TmZn3AgIr
_chemical_formula_sum   'Tm1 Zn3 Ag1 Ir1'
_cell_volume   100.60779653
_cell_formula_units_Z   1
loop_
 _symmetry_equiv_pos_site_id
 _symmetry_equiv_pos_as_xyz
  1  'x, y, z'
loop_
 _atom_site_type_symbol
 _atom_site_label
 _atom_site_symmetry_multiplicity
 _atom_site_fract_x
 _atom_site_fract_y
 _atom_site_fract_z
 _atom_site_occupancy
  Tm  Tm0  1  0.252422  0.252422  0.252422  1
  Zn  Zn1  1  0.626509  0.626509  0.119862  1
  Zn  Zn2  1  0.626509  0.119862  0.626509  1
  Zn  Zn3  1  0.119862  0.626509  0.626509  1
  Ag  Ag4  1  0.001942  0.001942  0.001942  1
  Ir  Ir5  1  0.622756  0.622756  0.622756  1
