# generated using pymatgen
data_MnNiAs4
_symmetry_space_group_name_H-M   'P 1'
_cell_length_a   3.00528600
_cell_length_b   5.27480890
_cell_length_c   6.01525903
_cell_angle_alpha   89.84189409
_cell_angle_beta   90.00000000
_cell_angle_gamma   90.00000000
_symmetry_Int_Tables_number   1
_chemical_formula_structural   MnNiAs4
_chemical_formula_sum   'Mn1 Ni1 As4'
_cell_volume   95.35538394
_cell_formula_units_Z   1
loop_
 _symmetry_equiv_pos_site_id
 _symmetry_equiv_pos_as_xyz
  1  'x, y, z'
loop_
 _atom_site_type_symbol
 _atom_site_label
 _atom_site_symmetry_multiplicity
 _atom_site_fract_x
 _atom_site_fract_y
 _atom_site_fract_z
 _atom_site_occupancy
  Mn  Mn0  1  0.000000  0.000000  0.000000  1
  Ni  Ni1  1  0.500000  0.500000  0.500000  1
  As  As2  1  0.500000  0.316182  0.132488  1
  As  As3  1  0.500000  0.683818  0.867512  1
  As  As4  1  0.000000  0.822542  0.358219  1
  As  As5  1  0.000000  0.177458  0.641781  1
