# generated using pymatgen
data_Nd4TcMoRu6
_symmetry_space_group_name_H-M   'P 1'
_cell_length_a   5.19733376
_cell_length_b   5.19733466
_cell_length_c   9.32955300
_cell_angle_alpha   90.00000000
_cell_angle_beta   90.00000000
_cell_angle_gamma   113.87452189
_symmetry_Int_Tables_number   1
_chemical_formula_structural   Nd4TcMoRu6
_chemical_formula_sum   'Nd4 Tc1 Mo1 Ru6'
_cell_volume   230.44882663
_cell_formula_units_Z   1
loop_
 _symmetry_equiv_pos_site_id
 _symmetry_equiv_pos_as_xyz
  1  'x, y, z'
loop_
 _atom_site_type_symbol
 _atom_site_label
 _atom_site_symmetry_multiplicity
 _atom_site_fract_x
 _atom_site_fract_y
 _atom_site_fract_z
 _atom_site_occupancy
  Nd  Nd0  1  0.334837  0.665163  0.432180  1
  Nd  Nd1  1  0.669082  0.330918  0.564945  1
  Nd  Nd2  1  0.669082  0.330918  0.935055  1
  Nd  Nd3  1  0.334837  0.665163  0.067820  1
  Tc  Tc4  1  0.837056  0.162944  0.250000  1
  Mo  Mo5  1  0.153313  0.846687  0.750000  1
  Ru  Ru6  1  0.003142  0.996858  0.498593  1
  Ru  Ru7  1  0.003142  0.996858  0.001407  1
  Ru  Ru8  1  0.838858  0.656666  0.250000  1
  Ru  Ru9  1  0.343334  0.161142  0.250000  1
  Ru  Ru10  1  0.165854  0.352540  0.750000  1
  Ru  Ru11  1  0.647460  0.834146  0.750000  1
