# generated using pymatgen
data_Er3In4CuOs
_symmetry_space_group_name_H-M   'P 1'
_cell_length_a   7.99457100
_cell_length_b   7.99457075
_cell_length_c   3.63438900
_cell_angle_alpha   90.00000000
_cell_angle_beta   90.00000000
_cell_angle_gamma   120.00000518
_symmetry_Int_Tables_number   1
_chemical_formula_structural   Er3In4CuOs
_chemical_formula_sum   'Er3 In4 Cu1 Os1'
_cell_volume   201.16495873
_cell_formula_units_Z   1
loop_
 _symmetry_equiv_pos_site_id
 _symmetry_equiv_pos_as_xyz
  1  'x, y, z'
loop_
 _atom_site_type_symbol
 _atom_site_label
 _atom_site_symmetry_multiplicity
 _atom_site_fract_x
 _atom_site_fract_y
 _atom_site_fract_z
 _atom_site_occupancy
  Er  Er0  1  0.704078  0.953203  0.500000  1
  Er  Er1  1  0.249125  0.295922  0.500000  1
  Er  Er2  1  0.046797  0.750875  0.500000  1
  In  In3  1  0.926029  0.334005  0.000000  1
  In  In4  1  0.407976  0.073971  0.000000  1
  In  In5  1  0.665995  0.592024  0.000000  1
  In  In6  1  0.333333  0.666667  0.000000  1
  Cu  Cu7  1  0.666667  0.333333  0.500000  1
  Os  Os8  1  0.000000  0.000000  0.000000  1
