# generated using pymatgen
data_TmNi5Sn
_symmetry_space_group_name_H-M   'P 1'
_cell_length_a   4.83455000
_cell_length_b   8.00446200
_cell_length_c   10.18663400
_cell_angle_alpha   90.00000000
_cell_angle_beta   90.00000000
_cell_angle_gamma   90.00000000
_symmetry_Int_Tables_number   1
_chemical_formula_structural   TmNi5Sn
_chemical_formula_sum   'Tm4 Ni20 Sn4'
_cell_volume   394.20207488
_cell_formula_units_Z   4
loop_
 _symmetry_equiv_pos_site_id
 _symmetry_equiv_pos_as_xyz
  1  'x, y, z'
loop_
 _atom_site_type_symbol
 _atom_site_label
 _atom_site_symmetry_multiplicity
 _atom_site_fract_x
 _atom_site_fract_y
 _atom_site_fract_z
 _atom_site_occupancy
  Tm  Tm0  1  0.750000  0.246806  0.560351  1
  Tm  Tm1  1  0.250000  0.253194  0.060351  1
  Tm  Tm2  1  0.750000  0.746806  0.939649  1
  Tm  Tm3  1  0.250000  0.753194  0.439649  1
  Ni  Ni4  1  0.750000  0.913997  0.482634  1
  Ni  Ni5  1  0.250000  0.586003  0.982634  1
  Ni  Ni6  1  0.750000  0.413997  0.017366  1
  Ni  Ni7  1  0.250000  0.086003  0.517366  1
  Ni  Ni8  1  0.250000  0.188786  0.742414  1
  Ni  Ni9  1  0.750000  0.311214  0.242414  1
  Ni  Ni10  1  0.250000  0.688786  0.757586  1
  Ni  Ni11  1  0.750000  0.811214  0.257586  1
  Ni  Ni12  1  0.750000  0.547282  0.401515  1
  Ni  Ni13  1  0.250000  0.952718  0.901515  1
  Ni  Ni14  1  0.750000  0.047282  0.098485  1
  Ni  Ni15  1  0.250000  0.452718  0.598485  1
  Ni  Ni16  1  0.498932  0.066118  0.309500  1
  Ni  Ni17  1  0.501068  0.433882  0.809500  1
  Ni  Ni18  1  0.001068  0.566118  0.190500  1
  Ni  Ni19  1  0.998932  0.933882  0.690500  1
  Ni  Ni20  1  0.501068  0.933882  0.690500  1
  Ni  Ni21  1  0.498932  0.566118  0.190500  1
  Ni  Ni22  1  0.998932  0.433882  0.809500  1
  Ni  Ni23  1  0.001068  0.066118  0.309500  1
  Sn  Sn24  1  0.750000  0.639758  0.639701  1
  Sn  Sn25  1  0.250000  0.860242  0.139701  1
  Sn  Sn26  1  0.750000  0.139758  0.860299  1
  Sn  Sn27  1  0.250000  0.360242  0.360299  1
