# generated using pymatgen
data_Dy2Ho3V3(P3Ir4)4
_symmetry_space_group_name_H-M   'P 1'
_cell_length_a   12.67423400
_cell_length_b   12.67450002
_cell_length_c   3.95551800
_cell_angle_alpha   90.00000000
_cell_angle_beta   90.00000000
_cell_angle_gamma   120.00069614
_symmetry_Int_Tables_number   1
_chemical_formula_structural   Dy2Ho3V3(P3Ir4)4
_chemical_formula_sum   'Dy2 Ho3 V3 P12 Ir16'
_cell_volume   550.27972022
_cell_formula_units_Z   1
loop_
 _symmetry_equiv_pos_site_id
 _symmetry_equiv_pos_as_xyz
  1  'x, y, z'
loop_
 _atom_site_type_symbol
 _atom_site_label
 _atom_site_symmetry_multiplicity
 _atom_site_fract_x
 _atom_site_fract_y
 _atom_site_fract_z
 _atom_site_occupancy
  Dy  Dy0  1  0.188393  0.188395  0.000000  1
  Dy  Dy1  1  0.811607  0.000002  0.000000  1
  Ho  Ho2  1  0.333335  0.666666  0.500000  1
  Ho  Ho3  1  0.666665  0.333330  0.500000  1
  Ho  Ho4  1  0.000000  0.811596  0.000000  1
  V  V5  1  0.000000  0.451025  0.500000  1
  V  V6  1  0.548987  0.548989  0.500000  1
  V  V7  1  0.451013  0.000002  0.500000  1
  P  P8  1  0.000000  0.636104  0.500000  1
  P  P9  1  0.363957  0.363958  0.500000  1
  P  P10  1  0.636043  0.000002  0.500000  1
  P  P11  1  0.516582  0.683715  0.000000  1
  P  P12  1  0.316295  0.832863  0.000000  1
  P  P13  1  0.167127  0.483418  0.000000  1
  P  P14  1  0.483418  0.167134  0.000000  1
  P  P15  1  0.683705  0.516569  0.000000  1
  P  P16  1  0.832873  0.316291  0.000000  1
  P  P17  1  0.000000  0.177193  0.500000  1
  P  P18  1  0.822866  0.822818  0.500000  1
  P  P19  1  0.177134  0.999952  0.500000  1
  Ir  Ir20  1  0.509387  0.867370  0.000000  1
  Ir  Ir21  1  0.132634  0.642033  0.000000  1
  Ir  Ir22  1  0.357986  0.490618  0.000000  1
  Ir  Ir23  1  0.490613  0.357982  0.000000  1
  Ir  Ir24  1  0.867366  0.509398  0.000000  1
  Ir  Ir25  1  0.642014  0.132631  0.000000  1
  Ir  Ir26  1  0.000000  0.285414  0.000000  1
  Ir  Ir27  1  0.714635  0.714597  0.000000  1
  Ir  Ir28  1  0.285365  0.999962  0.000000  1
  Ir  Ir29  1  0.625275  0.803904  0.500000  1
  Ir  Ir30  1  0.195985  0.821369  0.500000  1
  Ir  Ir31  1  0.178627  0.374721  0.500000  1
  Ir  Ir32  1  0.374725  0.178628  0.500000  1
  Ir  Ir33  1  0.804015  0.625384  0.500000  1
  Ir  Ir34  1  0.821373  0.196093  0.500000  1
  Ir  Ir35  1  0.000000  0.999877  0.500000  1
