# generated using pymatgen
data_Gd7Dy(MnSe4)4
_symmetry_space_group_name_H-M   'P 1'
_cell_length_a   6.73351900
_cell_length_b   8.32155302
_cell_length_c   14.22152300
_cell_angle_alpha   90.00248557
_cell_angle_beta   89.99827266
_cell_angle_gamma   89.99748008
_symmetry_Int_Tables_number   1
_chemical_formula_structural   Gd7Dy(MnSe4)4
_chemical_formula_sum   'Gd7 Dy1 Mn4 Se16'
_cell_volume   796.87936581
_cell_formula_units_Z   1
loop_
 _symmetry_equiv_pos_site_id
 _symmetry_equiv_pos_as_xyz
  1  'x, y, z'
loop_
 _atom_site_type_symbol
 _atom_site_label
 _atom_site_symmetry_multiplicity
 _atom_site_fract_x
 _atom_site_fract_y
 _atom_site_fract_z
 _atom_site_occupancy
  Gd  Gd0  1  0.000000  0.500000  0.000000  1
  Gd  Gd1  1  0.500000  0.000000  0.500000  1
  Gd  Gd2  1  0.000000  0.000000  0.000000  1
  Gd  Gd3  1  0.995841  0.749558  0.264971  1
  Gd  Gd4  1  0.505326  0.749401  0.764380  1
  Gd  Gd5  1  0.004159  0.250442  0.735029  1
  Gd  Gd6  1  0.494674  0.250599  0.235620  1
  Dy  Dy7  1  0.500000  0.500000  0.500000  1
  Mn  Mn8  1  0.407218  0.750388  0.092088  1
  Mn  Mn9  1  0.093547  0.750495  0.592004  1
  Mn  Mn10  1  0.592782  0.249612  0.907912  1
  Mn  Mn11  1  0.906453  0.249505  0.407996  1
  Se  Se12  1  0.775106  0.749286  0.089919  1
  Se  Se13  1  0.724689  0.747673  0.589098  1
  Se  Se14  1  0.224894  0.250714  0.910081  1
  Se  Se15  1  0.275311  0.252327  0.410902  1
  Se  Se16  1  0.246403  0.747882  0.429279  1
  Se  Se17  1  0.255086  0.749874  0.929065  1
  Se  Se18  1  0.753597  0.252118  0.570721  1
  Se  Se19  1  0.744914  0.250126  0.070935  1
  Se  Se20  1  0.740170  0.489202  0.331445  1
  Se  Se21  1  0.758469  0.011781  0.830401  1
  Se  Se22  1  0.259184  0.989031  0.669973  1
  Se  Se23  1  0.241892  0.512375  0.169544  1
  Se  Se24  1  0.259830  0.510798  0.668555  1
  Se  Se25  1  0.241531  0.988219  0.169599  1
  Se  Se26  1  0.740816  0.010969  0.330027  1
  Se  Se27  1  0.758108  0.487625  0.830456  1
