# generated using pymatgen
data_Ac11Tb(GePd)12
_symmetry_space_group_name_H-M   'P 1'
_cell_length_a   4.67626600
_cell_length_b   7.94633032
_cell_length_c   22.87169000
_cell_angle_alpha   90.01625933
_cell_angle_beta   90.00000000
_cell_angle_gamma   90.00000000
_symmetry_Int_Tables_number   1
_chemical_formula_structural   Ac11Tb(GePd)12
_chemical_formula_sum   'Ac11 Tb1 Ge12 Pd12'
_cell_volume   849.89262359
_cell_formula_units_Z   1
loop_
 _symmetry_equiv_pos_site_id
 _symmetry_equiv_pos_as_xyz
  1  'x, y, z'
loop_
 _atom_site_type_symbol
 _atom_site_label
 _atom_site_symmetry_multiplicity
 _atom_site_fract_x
 _atom_site_fract_y
 _atom_site_fract_z
 _atom_site_occupancy
  Ac  Ac0  1  0.250000  0.714267  0.335303  1
  Ac  Ac1  1  0.750000  0.287108  0.664502  1
  Ac  Ac2  1  0.750000  0.210478  0.167551  1
  Ac  Ac3  1  0.250000  0.788648  0.832469  1
  Ac  Ac4  1  0.250000  0.790628  0.167406  1
  Ac  Ac5  1  0.750000  0.208995  0.832766  1
  Ac  Ac6  1  0.750000  0.292029  0.336332  1
  Ac  Ac7  1  0.250000  0.712617  0.664398  1
  Ac  Ac8  1  0.250000  0.717864  0.002769  1
  Ac  Ac9  1  0.750000  0.282017  0.997495  1
  Ac  Ac10  1  0.750000  0.210644  0.498125  1
  Tb  Tb11  1  0.250000  0.772191  0.502430  1
  Ge  Ge12  1  0.250000  0.088466  0.070772  1
  Ge  Ge13  1  0.750000  0.911223  0.929273  1
  Ge  Ge14  1  0.750000  0.596158  0.436218  1
  Ge  Ge15  1  0.250000  0.419157  0.568716  1
  Ge  Ge16  1  0.250000  0.083953  0.272163  1
  Ge  Ge17  1  0.750000  0.917190  0.727672  1
  Ge  Ge18  1  0.750000  0.581573  0.230286  1
  Ge  Ge19  1  0.250000  0.417495  0.769375  1
  Ge  Ge20  1  0.250000  0.078947  0.399510  1
  Ge  Ge21  1  0.750000  0.912786  0.598595  1
  Ge  Ge22  1  0.750000  0.581521  0.105111  1
  Ge  Ge23  1  0.250000  0.418353  0.894940  1
  Pd  Pd24  1  0.250000  0.418464  0.241107  1
  Pd  Pd25  1  0.750000  0.581137  0.759330  1
  Pd  Pd26  1  0.750000  0.918384  0.262024  1
  Pd  Pd27  1  0.250000  0.081649  0.738031  1
  Pd  Pd28  1  0.250000  0.424964  0.435970  1
  Pd  Pd29  1  0.750000  0.591629  0.559691  1
  Pd  Pd30  1  0.750000  0.917468  0.068245  1
  Pd  Pd31  1  0.250000  0.081704  0.932042  1
  Pd  Pd32  1  0.250000  0.418547  0.093030  1
  Pd  Pd33  1  0.750000  0.581198  0.907211  1
  Pd  Pd34  1  0.750000  0.916556  0.411954  1
  Pd  Pd35  1  0.250000  0.073995  0.587188  1
