# generated using pymatgen
data_DyEr3Ga4(IrPt)2
_symmetry_space_group_name_H-M   'P 1'
_cell_length_a   4.40396100
_cell_length_b   6.79585903
_cell_length_c   7.70558967
_cell_angle_alpha   89.68243294
_cell_angle_beta   90.00000000
_cell_angle_gamma   90.00000000
_symmetry_Int_Tables_number   1
_chemical_formula_structural   DyEr3Ga4(IrPt)2
_chemical_formula_sum   'Dy1 Er3 Ga4 Ir2 Pt2'
_cell_volume   230.61472467
_cell_formula_units_Z   1
loop_
 _symmetry_equiv_pos_site_id
 _symmetry_equiv_pos_as_xyz
  1  'x, y, z'
loop_
 _atom_site_type_symbol
 _atom_site_label
 _atom_site_symmetry_multiplicity
 _atom_site_fract_x
 _atom_site_fract_y
 _atom_site_fract_z
 _atom_site_occupancy
  Dy  Dy0  1  0.750000  0.021962  0.689008  1
  Er  Er1  1  0.250000  0.984129  0.304584  1
  Er  Er2  1  0.250000  0.484505  0.195058  1
  Er  Er3  1  0.750000  0.522365  0.811362  1
  Ga  Ga4  1  0.250000  0.334254  0.568246  1
  Ga  Ga5  1  0.250000  0.833375  0.931707  1
  Ga  Ga6  1  0.750000  0.660294  0.426380  1
  Ga  Ga7  1  0.750000  0.160974  0.073784  1
  Ir  Ir8  1  0.750000  0.770314  0.104905  1
  Ir  Ir9  1  0.750000  0.271080  0.393877  1
  Pt  Pt10  1  0.250000  0.229793  0.895634  1
  Pt  Pt11  1  0.250000  0.726956  0.605455  1
