# generated using pymatgen
data_HoEr11Co6Sn
_symmetry_space_group_name_H-M   'P 1'
_cell_length_a   8.28861199
_cell_length_b   8.28659131
_cell_length_c   8.28659062
_cell_angle_alpha   109.47077250
_cell_angle_beta   109.49727903
_cell_angle_gamma   109.43574570
_symmetry_Int_Tables_number   1
_chemical_formula_structural   HoEr11Co6Sn
_chemical_formula_sum   'Ho1 Er11 Co6 Sn1'
_cell_volume   438.19204609
_cell_formula_units_Z   1
loop_
 _symmetry_equiv_pos_site_id
 _symmetry_equiv_pos_as_xyz
  1  'x, y, z'
loop_
 _atom_site_type_symbol
 _atom_site_label
 _atom_site_symmetry_multiplicity
 _atom_site_fract_x
 _atom_site_fract_y
 _atom_site_fract_z
 _atom_site_occupancy
  Ho  Ho0  1  0.892131  0.194580  0.697552  1
  Er  Er1  1  0.805230  0.697448  0.502904  1
  Er  Er2  1  0.194946  0.302052  0.496847  1
  Er  Er3  1  0.194946  0.698098  0.892894  1
  Er  Er4  1  0.805230  0.302327  0.107782  1
  Er  Er5  1  0.697221  0.502872  0.805372  1
  Er  Er6  1  0.302851  0.497434  0.194939  1
  Er  Er7  1  0.697221  0.891850  0.194350  1
  Er  Er8  1  0.302851  0.107912  0.805416  1
  Er  Er9  1  0.502912  0.805170  0.697740  1
  Er  Er10  1  0.497171  0.194673  0.302501  1
  Er  Er11  1  0.107787  0.805457  0.302329  1
  Co  Co12  1  0.886540  0.386533  0.500007  1
  Co  Co13  1  0.114261  0.613962  0.500299  1
  Co  Co14  1  0.386641  0.500482  0.886159  1
  Co  Co15  1  0.613660  0.499770  0.113890  1
  Co  Co16  1  0.499142  0.885819  0.385620  1
  Co  Co17  1  0.499142  0.113522  0.613324  1
  Sn  Sn18  1  0.000116  0.000040  0.000076  1
