# generated using pymatgen
data_Pa2Zn3Re
_symmetry_space_group_name_H-M   'P 1'
_cell_length_a   5.18306900
_cell_length_b   5.18306752
_cell_length_c   9.39935100
_cell_angle_alpha   90.00000000
_cell_angle_beta   90.00000000
_cell_angle_gamma   120.00000308
_symmetry_Int_Tables_number   1
_chemical_formula_structural   Pa2Zn3Re
_chemical_formula_sum   'Pa4 Zn6 Re2'
_cell_volume   218.67661501
_cell_formula_units_Z   2
loop_
 _symmetry_equiv_pos_site_id
 _symmetry_equiv_pos_as_xyz
  1  'x, y, z'
loop_
 _atom_site_type_symbol
 _atom_site_label
 _atom_site_symmetry_multiplicity
 _atom_site_fract_x
 _atom_site_fract_y
 _atom_site_fract_z
 _atom_site_occupancy
  Pa  Pa0  1  0.333333  0.666667  0.464537  1
  Pa  Pa1  1  0.666667  0.333333  0.535463  1
  Pa  Pa2  1  0.666667  0.333333  0.964537  1
  Pa  Pa3  1  0.333333  0.666667  0.035463  1
  Zn  Zn4  1  0.834159  0.165841  0.250000  1
  Zn  Zn5  1  0.834159  0.668316  0.250000  1
  Zn  Zn6  1  0.331684  0.165841  0.250000  1
  Zn  Zn7  1  0.165841  0.834159  0.750000  1
  Zn  Zn8  1  0.165841  0.331684  0.750000  1
  Zn  Zn9  1  0.668316  0.834159  0.750000  1
  Re  Re10  1  0.000000  0.000000  0.500000  1
  Re  Re11  1  0.000000  0.000000  0.000000  1
