# generated using pymatgen
data_Dy5Ho3(P3Ir4)4
_symmetry_space_group_name_H-M   'P 1'
_cell_length_a   12.98502300
_cell_length_b   12.98502343
_cell_length_c   4.00845300
_cell_angle_alpha   90.00000000
_cell_angle_beta   90.00000000
_cell_angle_gamma   120.00000144
_symmetry_Int_Tables_number   1
_chemical_formula_structural   Dy5Ho3(P3Ir4)4
_chemical_formula_sum   'Dy5 Ho3 P12 Ir16'
_cell_volume   585.31935067
_cell_formula_units_Z   1
loop_
 _symmetry_equiv_pos_site_id
 _symmetry_equiv_pos_as_xyz
  1  'x, y, z'
loop_
 _atom_site_type_symbol
 _atom_site_label
 _atom_site_symmetry_multiplicity
 _atom_site_fract_x
 _atom_site_fract_y
 _atom_site_fract_z
 _atom_site_occupancy
  Dy  Dy0  1  0.333333  0.666667  0.500000  1
  Dy  Dy1  1  0.666667  0.333333  0.500000  1
  Dy  Dy2  1  0.000000  0.814515  0.000000  1
  Dy  Dy3  1  0.185485  0.185485  0.000000  1
  Dy  Dy4  1  0.814515  0.000000  0.000000  1
  Ho  Ho5  1  0.000000  0.446138  0.500000  1
  Ho  Ho6  1  0.553862  0.553862  0.500000  1
  Ho  Ho7  1  0.446138  0.000000  0.500000  1
  P  P8  1  0.000000  0.652780  0.500000  1
  P  P9  1  0.347220  0.347220  0.500000  1
  P  P10  1  0.652780  0.000000  0.500000  1
  P  P11  1  0.516626  0.688520  0.000000  1
  P  P12  1  0.311480  0.828107  0.000000  1
  P  P13  1  0.171893  0.483374  0.000000  1
  P  P14  1  0.483374  0.171893  0.000000  1
  P  P15  1  0.688520  0.516626  0.000000  1
  P  P16  1  0.828107  0.311480  0.000000  1
  P  P17  1  0.000000  0.176543  0.500000  1
  P  P18  1  0.823457  0.823457  0.500000  1
  P  P19  1  0.176543  0.000000  0.500000  1
  Ir  Ir20  1  0.509546  0.865691  0.000000  1
  Ir  Ir21  1  0.134309  0.643856  0.000000  1
  Ir  Ir22  1  0.356144  0.490454  0.000000  1
  Ir  Ir23  1  0.490454  0.356144  0.000000  1
  Ir  Ir24  1  0.865691  0.509546  0.000000  1
  Ir  Ir25  1  0.643856  0.134309  0.000000  1
  Ir  Ir26  1  0.000000  0.274444  0.000000  1
  Ir  Ir27  1  0.725556  0.725556  0.000000  1
  Ir  Ir28  1  0.274444  0.000000  0.000000  1
  Ir  Ir29  1  0.630468  0.809388  0.500000  1
  Ir  Ir30  1  0.190612  0.821081  0.500000  1
  Ir  Ir31  1  0.178919  0.369532  0.500000  1
  Ir  Ir32  1  0.369532  0.178919  0.500000  1
  Ir  Ir33  1  0.809388  0.630468  0.500000  1
  Ir  Ir34  1  0.821081  0.190612  0.500000  1
  Ir  Ir35  1  0.000000  0.000000  0.500000  1
