# generated using pymatgen
data_Rb6LuBiF12
_symmetry_space_group_name_H-M   'P 1'
_cell_length_a   6.89536450
_cell_length_b   6.65737381
_cell_length_c   11.58245600
_cell_angle_alpha   55.29064705
_cell_angle_beta   90.14636880
_cell_angle_gamma   89.91618343
_symmetry_Int_Tables_number   1
_chemical_formula_structural   Rb6LuBiF12
_chemical_formula_sum   'Rb6 Lu1 Bi1 F12'
_cell_volume   437.07452434
_cell_formula_units_Z   1
loop_
 _symmetry_equiv_pos_site_id
 _symmetry_equiv_pos_as_xyz
  1  'x, y, z'
loop_
 _atom_site_type_symbol
 _atom_site_label
 _atom_site_symmetry_multiplicity
 _atom_site_fract_x
 _atom_site_fract_y
 _atom_site_fract_z
 _atom_site_occupancy
  Rb  Rb0  1  0.500000  0.500000  0.000000  1
  Rb  Rb1  1  0.000000  0.500000  0.500000  1
  Rb  Rb2  1  0.047604  0.725951  0.761024  1
  Rb  Rb3  1  0.952396  0.274049  0.238976  1
  Rb  Rb4  1  0.550314  0.260279  0.754354  1
  Rb  Rb5  1  0.449686  0.739721  0.245646  1
  Lu  Lu6  1  0.000000  0.000000  0.000000  1
  Bi  Bi7  1  0.500000  0.000000  0.500000  1
  F  F8  1  0.773084  0.762461  0.571617  1
  F  F9  1  0.226916  0.237539  0.428383  1
  F  F10  1  0.254486  0.222572  0.939182  1
  F  F11  1  0.745514  0.777428  0.060818  1
  F  F12  1  0.445253  0.884471  0.724674  1
  F  F13  1  0.554747  0.115529  0.275326  1
  F  F14  1  0.950865  0.108697  0.789766  1
  F  F15  1  0.049135  0.891303  0.210234  1
  F  F16  1  0.325995  0.668796  0.550562  1
  F  F17  1  0.674005  0.331204  0.449438  1
  F  F18  1  0.829144  0.303682  0.956833  1
  F  F19  1  0.170856  0.696318  0.043167  1
