# generated using pymatgen
data_LiAc4Ag3As8
_symmetry_space_group_name_H-M   'P 1'
_cell_length_a   4.18042900
_cell_length_b   4.26511503
_cell_length_c   22.14488740
_cell_angle_alpha   89.98187248
_cell_angle_beta   90.00000000
_cell_angle_gamma   90.00000000
_symmetry_Int_Tables_number   1
_chemical_formula_structural   LiAc4Ag3As8
_chemical_formula_sum   'Li1 Ac4 Ag3 As8'
_cell_volume   394.84355677
_cell_formula_units_Z   1
loop_
 _symmetry_equiv_pos_site_id
 _symmetry_equiv_pos_as_xyz
  1  'x, y, z'
loop_
 _atom_site_type_symbol
 _atom_site_label
 _atom_site_symmetry_multiplicity
 _atom_site_fract_x
 _atom_site_fract_y
 _atom_site_fract_z
 _atom_site_occupancy
  Li  Li0  1  0.250000  0.224184  0.249785  1
  Ac  Ac1  1  0.250000  0.776546  0.617420  1
  Ac  Ac2  1  0.750000  0.224607  0.381891  1
  Ac  Ac3  1  0.750000  0.276661  0.882637  1
  Ac  Ac4  1  0.250000  0.723203  0.118200  1
  Ag  Ag5  1  0.750000  0.724185  0.249621  1
  Ag  Ag6  1  0.750000  0.775742  0.749749  1
  Ag  Ag7  1  0.250000  0.275856  0.750269  1
  As  As8  1  0.250000  0.776416  0.832036  1
  As  As9  1  0.750000  0.223675  0.172261  1
  As  As10  1  0.750000  0.276242  0.667961  1
  As  As11  1  0.250000  0.724867  0.328025  1
  As  As12  1  0.250000  0.310162  0.501982  1
  As  As13  1  0.250000  0.188681  0.002606  1
  As  As14  1  0.750000  0.810124  0.998086  1
  As  As15  1  0.750000  0.688851  0.497471  1
