# generated using pymatgen
data_Dy3Ho3(AlC3)2
_symmetry_space_group_name_H-M   'P 1'
_cell_length_a   3.55905500
_cell_length_b   7.02823568
_cell_length_c   9.97086797
_cell_angle_alpha   89.94965184
_cell_angle_beta   90.00000000
_cell_angle_gamma   90.00000000
_symmetry_Int_Tables_number   1
_chemical_formula_structural   Dy3Ho3(AlC3)2
_chemical_formula_sum   'Dy3 Ho3 Al2 C6'
_cell_volume   249.40997181
_cell_formula_units_Z   1
loop_
 _symmetry_equiv_pos_site_id
 _symmetry_equiv_pos_as_xyz
  1  'x, y, z'
loop_
 _atom_site_type_symbol
 _atom_site_label
 _atom_site_symmetry_multiplicity
 _atom_site_fract_x
 _atom_site_fract_y
 _atom_site_fract_z
 _atom_site_occupancy
  Dy  Dy0  1  0.500000  0.509516  0.199807  1
  Dy  Dy1  1  0.000000  0.750072  0.458550  1
  Dy  Dy2  1  0.000000  0.250069  0.541550  1
  Ho  Ho3  1  0.500000  0.489258  0.799920  1
  Ho  Ho4  1  0.500000  0.989483  0.200129  1
  Ho  Ho5  1  0.500000  0.010664  0.799781  1
  Al  Al6  1  0.000000  0.750618  0.005168  1
  Al  Al7  1  0.000000  0.249309  0.994336  1
  C  C8  1  0.500000  0.509343  0.566692  1
  C  C9  1  0.500000  0.490820  0.434344  1
  C  C10  1  0.500000  0.990848  0.566194  1
  C  C11  1  0.500000  0.009240  0.433800  1
  C  C12  1  0.000000  0.750867  0.208286  1
  C  C13  1  0.000000  0.249893  0.791443  1
