# generated using pymatgen
data_Ce12Si8Tc5Rh3
_symmetry_space_group_name_H-M   'P 1'
_cell_length_a   5.51604486
_cell_length_b   7.96359735
_cell_length_c   13.34863525
_cell_angle_alpha   89.77650401
_cell_angle_beta   90.26606814
_cell_angle_gamma   90.05014554
_symmetry_Int_Tables_number   1
_chemical_formula_structural   Ce12Si8Tc5Rh3
_chemical_formula_sum   'Ce12 Si8 Tc5 Rh3'
_cell_volume   586.36197908
_cell_formula_units_Z   1
loop_
 _symmetry_equiv_pos_site_id
 _symmetry_equiv_pos_as_xyz
  1  'x, y, z'
loop_
 _atom_site_type_symbol
 _atom_site_label
 _atom_site_symmetry_multiplicity
 _atom_site_fract_x
 _atom_site_fract_y
 _atom_site_fract_z
 _atom_site_occupancy
  Ce  Ce0  1  0.132944  0.255092  0.752372  1
  Ce  Ce1  1  0.868037  0.744880  0.251009  1
  Ce  Ce2  1  0.136491  0.241608  0.251458  1
  Ce  Ce3  1  0.857518  0.756501  0.750743  1
  Ce  Ce4  1  0.653663  0.395325  0.596874  1
  Ce  Ce5  1  0.348092  0.606158  0.096614  1
  Ce  Ce6  1  0.664444  0.093340  0.400598  1
  Ce  Ce7  1  0.345731  0.891944  0.903120  1
  Ce  Ce8  1  0.339570  0.595820  0.397047  1
  Ce  Ce9  1  0.657652  0.411517  0.899239  1
  Ce  Ce10  1  0.339020  0.911207  0.598307  1
  Ce  Ce11  1  0.660713  0.090220  0.099584  1
  Si  Si12  1  0.120894  0.251965  0.500532  1
  Si  Si13  1  0.867647  0.749037  0.999583  1
  Si  Si14  1  0.874839  0.751547  0.499960  1
  Si  Si15  1  0.138659  0.249966  0.000920  1
  Si  Si16  1  0.632961  0.107804  0.751350  1
  Si  Si17  1  0.362674  0.894099  0.248662  1
  Si  Si18  1  0.637965  0.393010  0.249184  1
  Si  Si19  1  0.356511  0.606564  0.749058  1
  Tc  Tc20  1  0.860424  0.029327  0.592978  1
  Tc  Tc21  1  0.140247  0.969906  0.087648  1
  Tc  Tc22  1  0.854874  0.475004  0.410243  1
  Tc  Tc23  1  0.134930  0.527186  0.909794  1
  Tc  Tc24  1  0.146257  0.969434  0.409850  1
  Rh  Rh25  1  0.861794  0.038715  0.906647  1
  Rh  Rh26  1  0.139704  0.531401  0.592661  1
  Rh  Rh27  1  0.865744  0.461424  0.093965  1
