# generated using pymatgen
data_Dy21Y11B8(C8I19)2
_symmetry_space_group_name_H-M   'P 1'
_cell_length_a   12.61450671
_cell_length_b   14.48638858
_cell_length_c   19.80435543
_cell_angle_alpha   104.70099358
_cell_angle_beta   89.59747625
_cell_angle_gamma   112.80657208
_symmetry_Int_Tables_number   1
_chemical_formula_structural   Dy21Y11B8(C8I19)2
_chemical_formula_sum   'Dy21 Y11 B8 C16 I38'
_cell_volume   3209.89194427
_cell_formula_units_Z   1
loop_
 _symmetry_equiv_pos_site_id
 _symmetry_equiv_pos_as_xyz
  1  'x, y, z'
loop_
 _atom_site_type_symbol
 _atom_site_label
 _atom_site_symmetry_multiplicity
 _atom_site_fract_x
 _atom_site_fract_y
 _atom_site_fract_z
 _atom_site_occupancy
  Dy  Dy0  1  0.315187  0.341116  0.220794  1
  Dy  Dy1  1  0.570016  0.347528  0.221705  1
  Dy  Dy2  1  0.684703  0.658928  0.779290  1
  Dy  Dy3  1  0.398166  0.265271  0.042825  1
  Dy  Dy4  1  0.321456  0.711017  0.543934  1
  Dy  Dy5  1  0.859330  0.728080  0.541813  1
  Dy  Dy6  1  0.639098  0.504630  0.408569  1
  Dy  Dy7  1  0.443738  0.651141  0.279006  1
  Dy  Dy8  1  0.398127  0.264473  0.373178  1
  Dy  Dy9  1  0.139088  0.276761  0.956015  1
  Dy  Dy10  1  0.325609  0.714628  0.041901  1
  Dy  Dy11  1  0.405163  0.263375  0.872937  1
  Dy  Dy12  1  0.860991  0.723264  0.043995  1
  Dy  Dy13  1  0.678484  0.288974  0.456009  1
  Dy  Dy14  1  0.601896  0.734746  0.957153  1
  Dy  Dy15  1  0.594836  0.736573  0.127029  1
  Dy  Dy16  1  0.637601  0.502252  0.091594  1
  Dy  Dy17  1  0.362453  0.497762  0.908439  1
  Dy  Dy18  1  0.140689  0.271774  0.458127  1
  Dy  Dy19  1  0.699465  0.659841  0.277951  1
  Dy  Dy20  1  0.405230  0.265060  0.542812  1
  Y  Y21  1  0.366141  0.496712  0.407820  1
  Y  Y22  1  0.366076  0.497416  0.092075  1
  Y  Y23  1  0.633891  0.502623  0.907987  1
  Y  Y24  1  0.429363  0.652426  0.778314  1
  Y  Y25  1  0.360743  0.495365  0.591486  1
  Y  Y26  1  0.674755  0.285427  0.958154  1
  Y  Y27  1  0.595041  0.735370  0.456958  1
  Y  Y28  1  0.633900  0.503392  0.592166  1
  Y  Y29  1  0.556375  0.348468  0.720896  1
  Y  Y30  1  0.299973  0.340049  0.722013  1
  Y  Y31  1  0.602132  0.736040  0.627185  1
  B  B32  1  0.508089  0.501125  0.205383  1
  B  B33  1  0.470738  0.430092  0.486874  1
  B  B34  1  0.492089  0.498774  0.794774  1
  B  B35  1  0.470694  0.430218  0.987017  1
  B  B36  1  0.529251  0.569826  0.013036  1
  B  B37  1  0.492454  0.500608  0.705397  1
  B  B38  1  0.507757  0.499195  0.294468  1
  B  B39  1  0.529195  0.569832  0.512873  1
  C  C40  1  0.666115  0.635731  0.524985  1
  C  C41  1  0.460821  0.391503  0.315526  1
  C  C42  1  0.449659  0.391834  0.816338  1
  C  C43  1  0.445253  0.630385  0.024804  1
  C  C44  1  0.553628  0.368480  0.475521  1
  C  C45  1  0.539591  0.608352  0.684630  1
  C  C46  1  0.333947  0.363039  0.975266  1
  C  C47  1  0.450777  0.394855  0.644224  1
  C  C48  1  0.554617  0.369703  0.975236  1
  C  C49  1  0.665992  0.636984  0.024779  1
  C  C50  1  0.550382  0.608469  0.184148  1
  C  C51  1  0.461293  0.395000  0.144567  1
  C  C52  1  0.446230  0.631425  0.524286  1
  C  C53  1  0.333916  0.363670  0.474680  1
  C  C54  1  0.549487  0.605116  0.355300  1
  C  C55  1  0.538951  0.604875  0.855582  1
  I  I56  1  0.455787  0.085929  0.947223  1
  I  I57  1  0.617125  0.867500  0.833936  1
  I  I58  1  0.502811  0.905144  0.640751  1
  I  I59  1  0.111711  0.353063  0.824984  1
  I  I60  1  0.615193  0.205244  0.584100  1
  I  I61  1  0.869322  0.194119  0.437825  1
  I  I62  1  0.845469  0.911517  0.143303  1
  I  I63  1  0.873293  0.506200  0.949723  1
  I  I64  1  0.862666  0.812055  0.702365  1
  I  I65  1  0.383085  0.132779  0.166167  1
  I  I66  1  0.137459  0.188011  0.297661  1
  I  I67  1  0.770994  0.366556  0.324913  1
  I  I68  1  0.866721  0.807883  0.916620  1
  I  I69  1  0.750826  0.338850  0.114570  1
  I  I70  1  0.543842  0.913791  0.052760  1
  I  I71  1  0.108225  0.325275  0.614969  1
  I  I72  1  0.891503  0.674592  0.385037  1
  I  I73  1  0.818139  0.921627  0.539007  1
  I  I74  1  0.135351  0.810236  0.057185  1
  I  I75  1  0.805591  0.509909  0.748932  1
  I  I76  1  0.864438  0.189730  0.942802  1
  I  I77  1  0.127384  0.491343  0.450709  1
  I  I78  1  0.249202  0.661274  0.885663  1
  I  I79  1  0.130658  0.805881  0.562183  1
  I  I80  1  0.624140  0.211846  0.797737  1
  I  I81  1  0.194729  0.490267  0.251084  1
  I  I82  1  0.181786  0.078490  0.461041  1
  I  I83  1  0.497192  0.094974  0.359302  1
  I  I84  1  0.384781  0.794800  0.415848  1
  I  I85  1  0.154474  0.088502  0.856724  1
  I  I86  1  0.872591  0.508667  0.549274  1
  I  I87  1  0.683723  0.868055  0.327901  1
  I  I88  1  0.133301  0.192148  0.083395  1
  I  I89  1  0.126893  0.494041  0.050267  1
  I  I90  1  0.228816  0.633588  0.675109  1
  I  I91  1  0.375859  0.788026  0.202090  1
  I  I92  1  0.316137  0.131621  0.671962  1
  I  I93  1  0.888139  0.646894  0.175056  1
