# generated using pymatgen
data_Tm16MgIn3Pt3Rh
_symmetry_space_group_name_H-M   'P 1'
_cell_length_a   9.58693051
_cell_length_b   9.58169168
_cell_length_c   9.58692966
_cell_angle_alpha   60.12979480
_cell_angle_beta   60.04161976
_cell_angle_gamma   60.12979681
_symmetry_Int_Tables_number   1
_chemical_formula_structural   Tm16MgIn3Pt3Rh
_chemical_formula_sum   'Tm16 Mg1 In3 Pt3 Rh1'
_cell_volume   624.12634012
_cell_formula_units_Z   1
loop_
 _symmetry_equiv_pos_site_id
 _symmetry_equiv_pos_as_xyz
  1  'x, y, z'
loop_
 _atom_site_type_symbol
 _atom_site_label
 _atom_site_symmetry_multiplicity
 _atom_site_fract_x
 _atom_site_fract_y
 _atom_site_fract_z
 _atom_site_occupancy
  Tm  Tm0  1  0.062347  0.061074  0.438676  1
  Tm  Tm1  1  0.434633  0.065694  0.434633  1
  Tm  Tm2  1  0.061993  0.437474  0.061993  1
  Tm  Tm3  1  0.051888  0.646234  0.650024  1
  Tm  Tm4  1  0.435324  0.434046  0.065247  1
  Tm  Tm5  1  0.648105  0.056414  0.648105  1
  Tm  Tm6  1  0.189231  0.808125  0.189231  1
  Tm  Tm7  1  0.185960  0.191208  0.809036  1
  Tm  Tm8  1  0.808512  0.808133  0.191081  1
  Tm  Tm9  1  0.438676  0.061074  0.062347  1
  Tm  Tm10  1  0.809036  0.191208  0.185960  1
  Tm  Tm11  1  0.065247  0.434046  0.435324  1
  Tm  Tm12  1  0.809537  0.192362  0.809537  1
  Tm  Tm13  1  0.191081  0.808133  0.808512  1
  Tm  Tm14  1  0.650024  0.646234  0.051888  1
  Tm  Tm15  1  0.652082  0.648530  0.652082  1
  Mg  Mg16  1  0.422308  0.423255  0.422308  1
  In  In17  1  0.749794  0.417793  0.416115  1
  In  In18  1  0.416549  0.750530  0.416549  1
  In  In19  1  0.416115  0.417793  0.749794  1
  Pt  Pt20  1  0.858287  0.859024  0.427494  1
  Pt  Pt21  1  0.856974  0.857046  0.856974  1
  Pt  Pt22  1  0.427494  0.859024  0.858287  1
  Rh  Rh23  1  0.858805  0.425548  0.858805  1
