# generated using pymatgen
data_Nd6Cd(GeS7)2
_symmetry_space_group_name_H-M   'P 1'
_cell_length_a   10.27693700
_cell_length_b   10.27693680
_cell_length_c   5.81264900
_cell_angle_alpha   90.00000000
_cell_angle_beta   90.00000000
_cell_angle_gamma   120.00000385
_symmetry_Int_Tables_number   1
_chemical_formula_structural   Nd6Cd(GeS7)2
_chemical_formula_sum   'Nd6 Cd1 Ge2 S14'
_cell_volume   531.65768222
_cell_formula_units_Z   1
loop_
 _symmetry_equiv_pos_site_id
 _symmetry_equiv_pos_as_xyz
  1  'x, y, z'
loop_
 _atom_site_type_symbol
 _atom_site_label
 _atom_site_symmetry_multiplicity
 _atom_site_fract_x
 _atom_site_fract_y
 _atom_site_fract_z
 _atom_site_occupancy
  Nd  Nd0  1  0.642510  0.768889  0.752067  1
  Nd  Nd1  1  0.126379  0.357490  0.752067  1
  Nd  Nd2  1  0.231111  0.873621  0.752067  1
  Nd  Nd3  1  0.357165  0.230467  0.248542  1
  Nd  Nd4  1  0.873302  0.642835  0.248542  1
  Nd  Nd5  1  0.769533  0.126698  0.248542  1
  Cd  Cd6  1  0.000000  0.000000  0.516969  1
  Ge  Ge7  1  0.333333  0.666667  0.168700  1
  Ge  Ge8  1  0.666667  0.333333  0.663459  1
  S  S9  1  0.480974  0.894365  0.011674  1
  S  S10  1  0.413390  0.519026  0.011674  1
  S  S11  1  0.105635  0.586610  0.011674  1
  S  S12  1  0.519264  0.105419  0.507832  1
  S  S13  1  0.586154  0.480736  0.507832  1
  S  S14  1  0.894581  0.413846  0.507832  1
  S  S15  1  0.333333  0.666667  0.546591  1
  S  S16  1  0.666667  0.333333  0.042117  1
  S  S17  1  0.743419  0.836116  0.276262  1
  S  S18  1  0.092697  0.256581  0.276262  1
  S  S19  1  0.163884  0.907303  0.276262  1
  S  S20  1  0.256281  0.165853  0.765024  1
  S  S21  1  0.909572  0.743719  0.765024  1
  S  S22  1  0.834147  0.090428  0.765024  1
