# generated using pymatgen
data_Cs5RbV3IrBr18
_symmetry_space_group_name_H-M   'P 1'
_cell_length_a   7.76832200
_cell_length_b   7.76832220
_cell_length_c   19.19192600
_cell_angle_alpha   90.00000000
_cell_angle_beta   90.00000000
_cell_angle_gamma   119.99999065
_symmetry_Int_Tables_number   1
_chemical_formula_structural   Cs5RbV3IrBr18
_chemical_formula_sum   'Cs5 Rb1 V3 Ir1 Br18'
_cell_volume   1003.00634845
_cell_formula_units_Z   1
loop_
 _symmetry_equiv_pos_site_id
 _symmetry_equiv_pos_as_xyz
  1  'x, y, z'
loop_
 _atom_site_type_symbol
 _atom_site_label
 _atom_site_symmetry_multiplicity
 _atom_site_fract_x
 _atom_site_fract_y
 _atom_site_fract_z
 _atom_site_occupancy
  Cs  Cs0  1  0.666667  0.333333  0.570044  1
  Cs  Cs1  1  0.333333  0.666667  0.069156  1
  Cs  Cs2  1  0.333333  0.666667  0.429767  1
  Cs  Cs3  1  0.666667  0.333333  0.932219  1
  Cs  Cs4  1  0.000000  0.000000  0.249955  1
  Rb  Rb5  1  0.000000  0.000000  0.750103  1
  V  V6  1  0.666667  0.333333  0.334762  1
  V  V7  1  0.333333  0.666667  0.831538  1
  V  V8  1  0.666667  0.333333  0.165295  1
  Ir  Ir9  1  0.333333  0.666667  0.671861  1
  Br  Br10  1  0.822223  0.644447  0.406678  1
  Br  Br11  1  0.180726  0.819274  0.597269  1
  Br  Br12  1  0.638548  0.819274  0.597269  1
  Br  Br13  1  0.822223  0.177777  0.406678  1
  Br  Br14  1  0.355553  0.177777  0.406678  1
  Br  Br15  1  0.177177  0.354353  0.902902  1
  Br  Br16  1  0.024496  0.512248  0.747676  1
  Br  Br17  1  0.645647  0.822823  0.902902  1
  Br  Br18  1  0.822202  0.644406  0.093637  1
  Br  Br19  1  0.180726  0.361452  0.597269  1
  Br  Br20  1  0.487752  0.975504  0.747676  1
  Br  Br21  1  0.514908  0.485092  0.250273  1
  Br  Br22  1  0.487752  0.512248  0.747676  1
  Br  Br23  1  0.177177  0.822823  0.902902  1
  Br  Br24  1  0.355594  0.177798  0.093637  1
  Br  Br25  1  0.970185  0.485092  0.250273  1
  Br  Br26  1  0.514908  0.029815  0.250273  1
  Br  Br27  1  0.822202  0.177798  0.093637  1
