# generated using pymatgen
data_SmDy9(In2Rh)4
_symmetry_space_group_name_H-M   'P 1'
_cell_length_a   3.64879700
_cell_length_b   8.03229044
_cell_length_c   18.38199359
_cell_angle_alpha   89.91062510
_cell_angle_beta   90.00000000
_cell_angle_gamma   90.00000000
_symmetry_Int_Tables_number   1
_chemical_formula_structural   SmDy9(In2Rh)4
_chemical_formula_sum   'Sm1 Dy9 In8 Rh4'
_cell_volume   538.74243897
_cell_formula_units_Z   1
loop_
 _symmetry_equiv_pos_site_id
 _symmetry_equiv_pos_as_xyz
  1  'x, y, z'
loop_
 _atom_site_type_symbol
 _atom_site_label
 _atom_site_symmetry_multiplicity
 _atom_site_fract_x
 _atom_site_fract_y
 _atom_site_fract_z
 _atom_site_occupancy
  Sm  Sm0  1  0.500000  0.500000  0.000000  1
  Dy  Dy1  1  0.500000  0.382893  0.588614  1
  Dy  Dy2  1  0.500000  0.882228  0.911193  1
  Dy  Dy3  1  0.500000  0.117772  0.088807  1
  Dy  Dy4  1  0.500000  0.753173  0.721345  1
  Dy  Dy5  1  0.500000  0.253064  0.778374  1
  Dy  Dy6  1  0.500000  0.746936  0.221626  1
  Dy  Dy7  1  0.500000  0.246827  0.278655  1
  Dy  Dy8  1  0.500000  0.000000  0.500000  1
  Dy  Dy9  1  0.500000  0.617107  0.411386  1
  In  In10  1  0.000000  0.794814  0.069588  1
  In  In11  1  0.000000  0.929035  0.349467  1
  In  In12  1  0.000000  0.070965  0.650533  1
  In  In13  1  0.000000  0.571409  0.848251  1
  In  In14  1  0.000000  0.707173  0.568637  1
  In  In15  1  0.000000  0.205186  0.930412  1
  In  In16  1  0.000000  0.292827  0.431363  1
  In  In17  1  0.000000  0.428591  0.151749  1
  Rh  Rh18  1  0.000000  0.976591  0.805218  1
  Rh  Rh19  1  0.000000  0.523240  0.305538  1
  Rh  Rh20  1  0.000000  0.476760  0.694462  1
  Rh  Rh21  1  0.000000  0.023409  0.194782  1
