# generated using pymatgen
data_Tm6Co2P12Ru11Rh5
_symmetry_space_group_name_H-M   'P 1'
_cell_length_a   3.87970100
_cell_length_b   11.08345764
_cell_length_c   12.59061858
_cell_angle_alpha   89.59464672
_cell_angle_beta   90.00000000
_cell_angle_gamma   90.00000000
_symmetry_Int_Tables_number   1
_chemical_formula_structural   Tm6Co2P12Ru11Rh5
_chemical_formula_sum   'Tm6 Co2 P12 Ru11 Rh5'
_cell_volume   541.38936626
_cell_formula_units_Z   1
loop_
 _symmetry_equiv_pos_site_id
 _symmetry_equiv_pos_as_xyz
  1  'x, y, z'
loop_
 _atom_site_type_symbol
 _atom_site_label
 _atom_site_symmetry_multiplicity
 _atom_site_fract_x
 _atom_site_fract_y
 _atom_site_fract_z
 _atom_site_occupancy
  Tm  Tm0  1  0.000000  0.498753  0.522592  1
  Tm  Tm1  1  0.500000  0.001551  0.478328  1
  Tm  Tm2  1  0.500000  0.818840  0.202739  1
  Tm  Tm3  1  0.500000  0.180260  0.203828  1
  Tm  Tm4  1  0.000000  0.681942  0.796609  1
  Tm  Tm5  1  0.000000  0.319377  0.796187  1
  Co  Co6  1  0.000000  0.500503  0.987885  1
  Co  Co7  1  0.500000  0.999627  0.012106  1
  P  P8  1  0.500000  0.501266  0.883447  1
  P  P9  1  0.000000  0.998991  0.116311  1
  P  P10  1  0.500000  0.499886  0.346115  1
  P  P11  1  0.000000  0.994179  0.656491  1
  P  P12  1  0.500000  0.308635  0.615228  1
  P  P13  1  0.500000  0.694581  0.617339  1
  P  P14  1  0.000000  0.190526  0.385368  1
  P  P15  1  0.000000  0.807303  0.383493  1
  P  P16  1  0.500000  0.849445  0.896359  1
  P  P17  1  0.500000  0.152721  0.899807  1
  P  P18  1  0.000000  0.651688  0.100590  1
  P  P19  1  0.000000  0.348024  0.101065  1
  Ru  Ru20  1  0.500000  0.499878  0.158124  1
  Ru  Ru21  1  0.000000  0.001676  0.843644  1
  Ru  Ru22  1  0.500000  0.335842  0.989966  1
  Ru  Ru23  1  0.500000  0.665359  0.989329  1
  Ru  Ru24  1  0.000000  0.165035  0.010859  1
  Ru  Ru25  1  0.000000  0.835246  0.010458  1
  Ru  Ru26  1  0.500000  0.299333  0.428410  1
  Ru  Ru27  1  0.500000  0.699583  0.427547  1
  Ru  Ru28  1  0.000000  0.198224  0.572251  1
  Ru  Ru29  1  0.000000  0.797939  0.569240  1
  Ru  Ru30  1  0.500000  0.878050  0.714147  1
  Rh  Rh31  1  0.500000  0.500398  0.698586  1
  Rh  Rh32  1  0.000000  0.999819  0.301281  1
  Rh  Rh33  1  0.500000  0.127095  0.718195  1
  Rh  Rh34  1  0.000000  0.624769  0.283036  1
  Rh  Rh35  1  0.000000  0.373658  0.283040  1
