# generated using pymatgen
data_YbZr(CuP)3
_symmetry_space_group_name_H-M   'P 1'
_cell_length_a   3.83032900
_cell_length_b   10.44881100
_cell_length_c   12.39045000
_cell_angle_alpha   90.00000000
_cell_angle_beta   90.00000000
_cell_angle_gamma   90.00000000
_symmetry_Int_Tables_number   1
_chemical_formula_structural   YbZr(CuP)3
_chemical_formula_sum   'Yb4 Zr4 Cu12 P12'
_cell_volume   495.89534522
_cell_formula_units_Z   4
loop_
 _symmetry_equiv_pos_site_id
 _symmetry_equiv_pos_as_xyz
  1  'x, y, z'
loop_
 _atom_site_type_symbol
 _atom_site_label
 _atom_site_symmetry_multiplicity
 _atom_site_fract_x
 _atom_site_fract_y
 _atom_site_fract_z
 _atom_site_occupancy
  Yb  Yb0  1  0.250000  0.069918  0.205046  1
  Yb  Yb1  1  0.750000  0.930082  0.794954  1
  Yb  Yb2  1  0.750000  0.569918  0.294954  1
  Yb  Yb3  1  0.250000  0.430082  0.705046  1
  Zr  Zr4  1  0.250000  0.158299  0.498716  1
  Zr  Zr5  1  0.750000  0.841701  0.501284  1
  Zr  Zr6  1  0.750000  0.658299  0.001284  1
  Zr  Zr7  1  0.250000  0.341701  0.998716  1
  Cu  Cu8  1  0.250000  0.729766  0.666807  1
  Cu  Cu9  1  0.750000  0.270234  0.333193  1
  Cu  Cu10  1  0.750000  0.229766  0.833193  1
  Cu  Cu11  1  0.250000  0.770234  0.166807  1
  Cu  Cu12  1  0.250000  0.368076  0.220583  1
  Cu  Cu13  1  0.750000  0.631924  0.779417  1
  Cu  Cu14  1  0.750000  0.868076  0.279417  1
  Cu  Cu15  1  0.250000  0.131924  0.720583  1
  Cu  Cu16  1  0.250000  0.600333  0.480770  1
  Cu  Cu17  1  0.750000  0.399667  0.519230  1
  Cu  Cu18  1  0.750000  0.100333  0.019230  1
  Cu  Cu19  1  0.250000  0.899667  0.980770  1
  P  P20  1  0.250000  0.942597  0.621764  1
  P  P21  1  0.750000  0.057403  0.378236  1
  P  P22  1  0.750000  0.442597  0.878236  1
  P  P23  1  0.250000  0.557403  0.121764  1
  P  P24  1  0.250000  0.389784  0.404849  1
  P  P25  1  0.750000  0.610216  0.595151  1
  P  P26  1  0.750000  0.889784  0.095151  1
  P  P27  1  0.250000  0.110216  0.904849  1
  P  P28  1  0.250000  0.768311  0.358297  1
  P  P29  1  0.750000  0.231689  0.641703  1
  P  P30  1  0.750000  0.268311  0.141703  1
  P  P31  1  0.250000  0.731689  0.858297  1
