# generated using pymatgen
data_Cs6Sc3PI18
_symmetry_space_group_name_H-M   'P 1'
_cell_length_a   8.46158200
_cell_length_b   8.47136989
_cell_length_c   21.16472740
_cell_angle_alpha   89.37086938
_cell_angle_beta   89.34828258
_cell_angle_gamma   119.96646619
_symmetry_Int_Tables_number   1
_chemical_formula_structural   Cs6Sc3PI18
_chemical_formula_sum   'Cs6 Sc3 P1 I18'
_cell_volume   1313.97388520
_cell_formula_units_Z   1
loop_
 _symmetry_equiv_pos_site_id
 _symmetry_equiv_pos_as_xyz
  1  'x, y, z'
loop_
 _atom_site_type_symbol
 _atom_site_label
 _atom_site_symmetry_multiplicity
 _atom_site_fract_x
 _atom_site_fract_y
 _atom_site_fract_z
 _atom_site_occupancy
  Cs  Cs0  1  0.000069  0.006962  0.757008  1
  Cs  Cs1  1  0.665437  0.328365  0.066133  1
  Cs  Cs2  1  0.002550  0.995189  0.249011  1
  Cs  Cs3  1  0.325049  0.661804  0.576814  1
  Cs  Cs4  1  0.337068  0.673960  0.924342  1
  Cs  Cs5  1  0.670950  0.334321  0.423798  1
  Sc  Sc6  1  0.342977  0.673526  0.343805  1
  Sc  Sc7  1  0.326258  0.656721  0.158215  1
  Sc  Sc8  1  0.672638  0.342213  0.838651  1
  P  P9  1  0.657301  0.326796  0.654266  1
  I  I10  1  0.646759  0.814403  0.084261  1
  I  I11  1  0.352790  0.185238  0.915412  1
  I  I12  1  0.507967  0.020574  0.754353  1
  I  I13  1  0.185587  0.844160  0.413187  1
  I  I14  1  0.845257  0.188043  0.909871  1
  I  I15  1  0.805998  0.629391  0.584043  1
  I  I16  1  0.806360  0.166899  0.588824  1
  I  I17  1  0.343877  0.166983  0.593168  1
  I  I18  1  0.491732  0.977932  0.246135  1
  I  I19  1  0.977948  0.491310  0.742297  1
  I  I20  1  0.154828  0.813202  0.090316  1
  I  I21  1  0.022032  0.508665  0.257631  1
  I  I22  1  0.508074  0.491450  0.748258  1
  I  I23  1  0.841732  0.672566  0.905538  1
  I  I24  1  0.156729  0.324545  0.095217  1
  I  I25  1  0.675343  0.842531  0.408516  1
  I  I26  1  0.491768  0.509112  0.251876  1
  I  I27  1  0.184925  0.353139  0.419050  1
