# generated using pymatgen
data_TbTmAl20IrRu3
_symmetry_space_group_name_H-M   'P 1'
_cell_length_a   6.84120216
_cell_length_b   6.84506918
_cell_length_c   9.13403124
_cell_angle_alpha   90.07607997
_cell_angle_beta   90.08324967
_cell_angle_gamma   96.70333830
_symmetry_Int_Tables_number   1
_chemical_formula_structural   TbTmAl20IrRu3
_chemical_formula_sum   'Tb1 Tm1 Al20 Ir1 Ru3'
_cell_volume   424.80802246
_cell_formula_units_Z   1
loop_
 _symmetry_equiv_pos_site_id
 _symmetry_equiv_pos_as_xyz
  1  'x, y, z'
loop_
 _atom_site_type_symbol
 _atom_site_label
 _atom_site_symmetry_multiplicity
 _atom_site_fract_x
 _atom_site_fract_y
 _atom_site_fract_z
 _atom_site_occupancy
  Tb  Tb0  1  0.128551  0.872939  0.249761  1
  Tm  Tm1  1  0.870635  0.127623  0.750364  1
  Al  Al2  1  0.620856  0.375940  0.551449  1
  Al  Al3  1  0.379548  0.623698  0.448778  1
  Al  Al4  1  0.377358  0.623230  0.050287  1
  Al  Al5  1  0.623042  0.376376  0.949452  1
  Al  Al6  1  0.226478  0.223816  0.499063  1
  Al  Al7  1  0.773337  0.776427  0.501548  1
  Al  Al8  1  0.774283  0.775100  0.000220  1
  Al  Al9  1  0.225512  0.225091  0.999142  1
  Al  Al10  1  0.843714  0.156901  0.099892  1
  Al  Al11  1  0.155851  0.843520  0.899792  1
  Al  Al12  1  0.157529  0.845370  0.601845  1
  Al  Al13  1  0.842048  0.155144  0.398461  1
  Al  Al14  1  0.857114  0.586966  0.751558  1
  Al  Al15  1  0.142569  0.412181  0.248436  1
  Al  Al16  1  0.414002  0.142101  0.750381  1
  Al  Al17  1  0.586880  0.858169  0.249614  1
  Al  Al18  1  0.221454  0.480451  0.752297  1
  Al  Al19  1  0.778071  0.518705  0.247704  1
  Al  Al20  1  0.519300  0.779604  0.749818  1
  Al  Al21  1  0.481544  0.220846  0.250204  1
  Ir  Ir22  1  0.999943  0.499894  0.500465  1
  Ru  Ru23  1  0.999910  0.499761  0.999462  1
  Ru  Ru24  1  0.500207  0.000061  0.999420  1
  Ru  Ru25  1  0.500264  0.000086  0.500585  1
