# generated using pymatgen
data_Nb4VTc(P2Rh)2
_symmetry_space_group_name_H-M   'P 1'
_cell_length_a   3.66958200
_cell_length_b   6.38229224
_cell_length_c   7.40483669
_cell_angle_alpha   89.78532029
_cell_angle_beta   90.00000000
_cell_angle_gamma   90.00000000
_symmetry_Int_Tables_number   1
_chemical_formula_structural   Nb4VTc(P2Rh)2
_chemical_formula_sum   'Nb4 V1 Tc1 P4 Rh2'
_cell_volume   173.42261048
_cell_formula_units_Z   1
loop_
 _symmetry_equiv_pos_site_id
 _symmetry_equiv_pos_as_xyz
  1  'x, y, z'
loop_
 _atom_site_type_symbol
 _atom_site_label
 _atom_site_symmetry_multiplicity
 _atom_site_fract_x
 _atom_site_fract_y
 _atom_site_fract_z
 _atom_site_occupancy
  Nb  Nb0  1  0.250000  0.020276  0.828898  1
  Nb  Nb1  1  0.250000  0.539043  0.661858  1
  Nb  Nb2  1  0.750000  0.974140  0.171584  1
  Nb  Nb3  1  0.750000  0.466841  0.334014  1
  V  V4  1  0.750000  0.856083  0.560786  1
  Tc  Tc5  1  0.250000  0.143841  0.444637  1
  P  P6  1  0.250000  0.767097  0.367598  1
  P  P7  1  0.250000  0.264061  0.129585  1
  P  P8  1  0.750000  0.234967  0.631338  1
  P  P9  1  0.750000  0.734571  0.870006  1
  Rh  Rh10  1  0.250000  0.646523  0.063489  1
  Rh  Rh11  1  0.750000  0.352556  0.936210  1
