# generated using pymatgen
data_Nd4CdIn3
_symmetry_space_group_name_H-M   'P 1'
_cell_length_a   3.80871200
_cell_length_b   3.80871200
_cell_length_c   16.08697100
_cell_angle_alpha   90.00000000
_cell_angle_beta   90.00000000
_cell_angle_gamma   90.00000000
_symmetry_Int_Tables_number   1
_chemical_formula_structural   Nd4CdIn3
_chemical_formula_sum   'Nd4 Cd1 In3'
_cell_volume   233.36221988
_cell_formula_units_Z   1
loop_
 _symmetry_equiv_pos_site_id
 _symmetry_equiv_pos_as_xyz
  1  'x, y, z'
loop_
 _atom_site_type_symbol
 _atom_site_label
 _atom_site_symmetry_multiplicity
 _atom_site_fract_x
 _atom_site_fract_y
 _atom_site_fract_z
 _atom_site_occupancy
  Nd  Nd0  1  0.500000  0.500000  0.122450  1
  Nd  Nd1  1  0.500000  0.500000  0.373120  1
  Nd  Nd2  1  0.500000  0.500000  0.626880  1
  Nd  Nd3  1  0.500000  0.500000  0.877550  1
  Cd  Cd4  1  0.000000  0.000000  0.000000  1
  In  In5  1  0.000000  0.000000  0.245726  1
  In  In6  1  0.000000  0.000000  0.500000  1
  In  In7  1  0.000000  0.000000  0.754274  1
