# generated using pymatgen
data_TeIF34
_symmetry_space_group_name_H-M   'P 1'
_cell_length_a   8.98067446
_cell_length_b   8.71102937
_cell_length_c   10.23735716
_cell_angle_alpha   81.37359767
_cell_angle_beta   87.20446199
_cell_angle_gamma   65.86570003
_symmetry_Int_Tables_number   1
_chemical_formula_structural   TeIF34
_chemical_formula_sum   'Te1 I1 F34'
_cell_volume   722.53471427
_cell_formula_units_Z   1
loop_
 _symmetry_equiv_pos_site_id
 _symmetry_equiv_pos_as_xyz
  1  'x, y, z'
loop_
 _atom_site_type_symbol
 _atom_site_label
 _atom_site_symmetry_multiplicity
 _atom_site_fract_x
 _atom_site_fract_y
 _atom_site_fract_z
 _atom_site_occupancy
  Te  Te0  1  0.863075  0.250908  0.761262  1
  I  I1  1  0.137904  0.749130  0.240380  1
  F  F2  1  0.602140  0.200249  0.483975  1
  F  F3  1  0.402422  0.792758  0.513841  1
  F  F4  1  0.824134  0.707361  0.721733  1
  F  F5  1  0.173217  0.302492  0.290551  1
  F  F6  1  0.087375  0.758605  0.860494  1
  F  F7  1  0.919030  0.227210  0.145057  1
  F  F8  1  0.554469  0.144331  0.375197  1
  F  F9  1  0.442485  0.857467  0.621112  1
  F  F10  1  0.648930  0.324491  0.700351  1
  F  F11  1  0.358855  0.674165  0.302831  1
  F  F12  1  0.931563  0.074182  0.659631  1
  F  F13  1  0.063364  0.927528  0.348020  1
  F  F14  1  0.903600  0.388422  0.619044  1
  F  F15  1  0.096219  0.609401  0.387373  1
  F  F16  1  0.858605  0.798997  0.605617  1
  F  F17  1  0.150770  0.178655  0.387739  1
  F  F18  1  0.796862  0.429030  0.861671  1
  F  F19  1  0.205715  0.562930  0.139083  1
  F  F20  1  0.214074  0.687581  0.770070  1
  F  F21  1  0.784914  0.316909  0.223384  1
  F  F22  1  0.920921  0.823477  0.171728  1
  F  F23  1  0.075183  0.177411  0.825854  1
  F  F24  1  0.820242  0.112119  0.901700  1
  F  F25  1  0.181127  0.895803  0.097364  1
  F  F26  1  0.481917  0.590087  0.983320  1
  F  F27  1  0.516937  0.413665  0.014922  1
  F  F28  1  0.454371  0.086967  0.867975  1
  F  F29  1  0.534822  0.924752  0.133253  1
  F  F30  1  0.286893  0.242764  0.610635  1
  F  F31  1  0.709501  0.758379  0.382491  1
  F  F32  1  0.258972  0.387645  0.673259  1
  F  F33  1  0.745625  0.608316  0.324415  1
  F  F34  1  0.553660  0.921380  0.837203  1
  F  F35  1  0.440105  0.094433  0.157464  1
