# generated using pymatgen
data_Sr6YbCd(CoO6)2
_symmetry_space_group_name_H-M   'P 1'
_cell_length_a   6.74260513
_cell_length_b   6.75267768
_cell_length_c   6.73507075
_cell_angle_alpha   91.29558600
_cell_angle_beta   91.43387877
_cell_angle_gamma   91.20286502
_symmetry_Int_Tables_number   1
_chemical_formula_structural   Sr6YbCd(CoO6)2
_chemical_formula_sum   'Sr6 Yb1 Cd1 Co2 O12'
_cell_volume   306.40637543
_cell_formula_units_Z   1
loop_
 _symmetry_equiv_pos_site_id
 _symmetry_equiv_pos_as_xyz
  1  'x, y, z'
loop_
 _atom_site_type_symbol
 _atom_site_label
 _atom_site_symmetry_multiplicity
 _atom_site_fract_x
 _atom_site_fract_y
 _atom_site_fract_z
 _atom_site_occupancy
  Sr  Sr0  1  0.886784  0.250590  0.612991  1
  Sr  Sr1  1  0.248469  0.614067  0.886004  1
  Sr  Sr2  1  0.614228  0.885958  0.250959  1
  Sr  Sr3  1  0.751459  0.383524  0.116790  1
  Sr  Sr4  1  0.382788  0.116764  0.749028  1
  Sr  Sr5  1  0.116063  0.749484  0.384047  1
  Yb  Yb6  1  0.750354  0.749581  0.750089  1
  Cd  Cd7  1  0.249665  0.250690  0.249612  1
  Co  Co8  1  0.996765  0.997186  0.997020  1
  Co  Co9  1  0.503042  0.502790  0.503199  1
  O  O10  1  0.227584  0.422233  0.552613  1
  O  O11  1  0.423916  0.553703  0.229713  1
  O  O12  1  0.553040  0.227770  0.422368  1
  O  O13  1  0.917612  0.722408  0.048570  1
  O  O14  1  0.724910  0.048478  0.918578  1
  O  O15  1  0.048547  0.918002  0.724498  1
  O  O16  1  0.777228  0.582449  0.451987  1
  O  O17  1  0.581349  0.450692  0.774415  1
  O  O18  1  0.451434  0.776372  0.582527  1
  O  O19  1  0.077345  0.273272  0.946951  1
  O  O20  1  0.270575  0.947093  0.076752  1
  O  O21  1  0.946843  0.076894  0.271290  1
