# generated using pymatgen
data_Th3Zn3Co2Ag
_symmetry_space_group_name_H-M   'P 1'
_cell_length_a   7.41550600
_cell_length_b   7.41550500
_cell_length_c   3.80609000
_cell_angle_alpha   90.00000000
_cell_angle_beta   90.00000000
_cell_angle_gamma   119.99999554
_symmetry_Int_Tables_number   1
_chemical_formula_structural   Th3Zn3Co2Ag
_chemical_formula_sum   'Th3 Zn3 Co2 Ag1'
_cell_volume   181.25551410
_cell_formula_units_Z   1
loop_
 _symmetry_equiv_pos_site_id
 _symmetry_equiv_pos_as_xyz
  1  'x, y, z'
loop_
 _atom_site_type_symbol
 _atom_site_label
 _atom_site_symmetry_multiplicity
 _atom_site_fract_x
 _atom_site_fract_y
 _atom_site_fract_z
 _atom_site_occupancy
  Th  Th0  1  0.574969  0.000000  0.000000  1
  Th  Th1  1  0.000000  0.574969  0.000000  1
  Th  Th2  1  0.425031  0.425031  0.000000  1
  Zn  Zn3  1  0.258325  0.000000  0.500000  1
  Zn  Zn4  1  0.000000  0.258325  0.500000  1
  Zn  Zn5  1  0.741675  0.741675  0.500000  1
  Co  Co6  1  0.333333  0.666667  0.500000  1
  Co  Co7  1  0.666667  0.333333  0.500000  1
  Ag  Ag8  1  0.000000  0.000000  0.000000  1
