# generated using pymatgen
data_Nb2Se7S2
_symmetry_space_group_name_H-M   'P 1'
_cell_length_a   8.78391386
_cell_length_b   8.78247269
_cell_length_c   8.73114800
_cell_angle_alpha   83.40959084
_cell_angle_beta   96.57554085
_cell_angle_gamma   78.58198633
_symmetry_Int_Tables_number   1
_chemical_formula_structural   Nb2Se7S2
_chemical_formula_sum   'Nb4 Se14 S4'
_cell_volume   649.32027996
_cell_formula_units_Z   2
loop_
 _symmetry_equiv_pos_site_id
 _symmetry_equiv_pos_as_xyz
  1  'x, y, z'
loop_
 _atom_site_type_symbol
 _atom_site_label
 _atom_site_symmetry_multiplicity
 _atom_site_fract_x
 _atom_site_fract_y
 _atom_site_fract_z
 _atom_site_occupancy
  Nb  Nb0  1  0.399333  0.137790  0.411447  1
  Nb  Nb1  1  0.137775  0.399323  0.088539  1
  Nb  Nb2  1  0.600670  0.862214  0.588553  1
  Nb  Nb3  1  0.862217  0.600676  0.911459  1
  Se  Se4  1  0.316214  0.860422  0.451661  1
  Se  Se5  1  0.860471  0.316142  0.048388  1
  Se  Se6  1  0.683802  0.139571  0.548359  1
  Se  Se7  1  0.139517  0.683877  0.951602  1
  Se  Se8  1  0.095582  0.304974  0.386390  1
  Se  Se9  1  0.304984  0.095551  0.113637  1
  Se  Se10  1  0.904419  0.695060  0.613606  1
  Se  Se11  1  0.694992  0.904428  0.886375  1
  Se  Se12  1  0.300415  0.401729  0.523283  1
  Se  Se13  1  0.401700  0.300447  0.976670  1
  Se  Se14  1  0.699605  0.598281  0.476703  1
  Se  Se15  1  0.598311  0.699519  0.023352  1
  Se  Se16  1  0.412533  0.412630  0.249939  1
  Se  Se17  1  0.587459  0.587345  0.750042  1
  S  S18  1  0.334859  0.989993  0.651416  1
  S  S19  1  0.990024  0.334841  0.848614  1
  S  S20  1  0.665149  0.010018  0.348592  1
  S  S21  1  0.009972  0.665172  0.151378  1
