# generated using pymatgen
data_Tb2UIr2Ru
_symmetry_space_group_name_H-M   'P 1'
_cell_length_a   5.31895859
_cell_length_b   5.31895910
_cell_length_c   5.09499000
_cell_angle_alpha   66.89304439
_cell_angle_beta   66.89304208
_cell_angle_gamma   65.37526636
_symmetry_Int_Tables_number   1
_chemical_formula_structural   Tb2UIr2Ru
_chemical_formula_sum   'Tb2 U1 Ir2 Ru1'
_cell_volume   115.91724087
_cell_formula_units_Z   1
loop_
 _symmetry_equiv_pos_site_id
 _symmetry_equiv_pos_as_xyz
  1  'x, y, z'
loop_
 _atom_site_type_symbol
 _atom_site_label
 _atom_site_symmetry_multiplicity
 _atom_site_fract_x
 _atom_site_fract_y
 _atom_site_fract_z
 _atom_site_occupancy
  Tb  Tb0  1  0.751539  0.751539  0.743721  1
  Tb  Tb1  1  0.498461  0.498461  0.506279  1
  U  U2  1  0.125000  0.125000  0.125000  1
  Ir  Ir3  1  0.125000  0.625000  0.125000  1
  Ir  Ir4  1  0.625000  0.125000  0.125000  1
  Ru  Ru5  1  0.125000  0.125000  0.625000  1
