# generated using pymatgen
data_Ta24Si7S
_symmetry_space_group_name_H-M   'P 1'
_cell_length_a   10.24297722
_cell_length_b   10.15477474
_cell_length_c   5.20975951
_cell_angle_alpha   89.87400860
_cell_angle_beta   89.89041820
_cell_angle_gamma   90.10803905
_symmetry_Int_Tables_number   1
_chemical_formula_structural   Ta24Si7S
_chemical_formula_sum   'Ta24 Si7 S1'
_cell_volume   541.89052461
_cell_formula_units_Z   1
loop_
 _symmetry_equiv_pos_site_id
 _symmetry_equiv_pos_as_xyz
  1  'x, y, z'
loop_
 _atom_site_type_symbol
 _atom_site_label
 _atom_site_symmetry_multiplicity
 _atom_site_fract_x
 _atom_site_fract_y
 _atom_site_fract_z
 _atom_site_occupancy
  Ta  Ta0  1  0.517505  0.646682  0.272737  1
  Ta  Ta1  1  0.399414  0.086301  0.030037  1
  Ta  Ta2  1  0.710132  0.811545  0.508004  1
  Ta  Ta3  1  0.899430  0.588111  0.470675  1
  Ta  Ta4  1  0.854384  0.012159  0.771692  1
  Ta  Ta5  1  0.018644  0.145378  0.227506  1
  Ta  Ta6  1  0.788246  0.690804  0.983916  1
  Ta  Ta7  1  0.286798  0.187526  0.514033  1
  Ta  Ta8  1  0.688537  0.213100  0.012300  1
  Ta  Ta9  1  0.413212  0.899619  0.531123  1
  Ta  Ta10  1  0.812605  0.287147  0.487063  1
  Ta  Ta11  1  0.353499  0.519554  0.727081  1
  Ta  Ta12  1  0.647072  0.482373  0.727326  1
  Ta  Ta13  1  0.144423  0.977673  0.772309  1
  Ta  Ta14  1  0.212537  0.312600  0.986559  1
  Ta  Ta15  1  0.914789  0.401489  0.970739  1
  Ta  Ta16  1  0.313981  0.786909  0.015075  1
  Ta  Ta17  1  0.599865  0.914557  0.028585  1
  Ta  Ta18  1  0.087131  0.602846  0.970135  1
  Ta  Ta19  1  0.098270  0.414845  0.469948  1
  Ta  Ta20  1  0.982264  0.852587  0.229595  1
  Ta  Ta21  1  0.186902  0.713624  0.488297  1
  Ta  Ta22  1  0.481812  0.354278  0.272788  1
  Ta  Ta23  1  0.587405  0.099892  0.530180  1
  Si  Si24  1  0.205091  0.971027  0.278100  1
  Si  Si25  1  0.795211  0.028556  0.277858  1
  Si  Si26  1  0.470929  0.295325  0.778877  1
  Si  Si27  1  0.294040  0.529633  0.221165  1
  Si  Si28  1  0.028555  0.204177  0.722360  1
  Si  Si29  1  0.705744  0.472362  0.221138  1
  Si  Si30  1  0.529610  0.705062  0.779853  1
  S  S31  1  0.971963  0.792262  0.722945  1
