# generated using pymatgen
data_DyHoB6Ir
_symmetry_space_group_name_H-M   'P 1'
_cell_length_a   3.64272800
_cell_length_b   9.18685300
_cell_length_c   11.52967100
_cell_angle_alpha   90.00000000
_cell_angle_beta   90.00000000
_cell_angle_gamma   90.00000000
_symmetry_Int_Tables_number   1
_chemical_formula_structural   DyHoB6Ir
_chemical_formula_sum   'Dy4 Ho4 B24 Ir4'
_cell_volume   385.84282268
_cell_formula_units_Z   4
loop_
 _symmetry_equiv_pos_site_id
 _symmetry_equiv_pos_as_xyz
  1  'x, y, z'
loop_
 _atom_site_type_symbol
 _atom_site_label
 _atom_site_symmetry_multiplicity
 _atom_site_fract_x
 _atom_site_fract_y
 _atom_site_fract_z
 _atom_site_occupancy
  Dy  Dy0  1  0.000000  0.322048  0.413009  1
  Dy  Dy1  1  0.000000  0.677952  0.586991  1
  Dy  Dy2  1  0.000000  0.822048  0.086991  1
  Dy  Dy3  1  0.000000  0.177952  0.913009  1
  Ho  Ho4  1  0.000000  0.944131  0.374378  1
  Ho  Ho5  1  0.000000  0.055869  0.625622  1
  Ho  Ho6  1  0.000000  0.444131  0.125622  1
  Ho  Ho7  1  0.000000  0.555869  0.874378  1
  B  B8  1  0.500000  0.553553  0.433774  1
  B  B9  1  0.500000  0.446447  0.566226  1
  B  B10  1  0.500000  0.053553  0.066226  1
  B  B11  1  0.500000  0.946447  0.933774  1
  B  B12  1  0.500000  0.749348  0.420654  1
  B  B13  1  0.500000  0.250652  0.579346  1
  B  B14  1  0.500000  0.249348  0.079346  1
  B  B15  1  0.500000  0.750652  0.920654  1
  B  B16  1  0.500000  0.792927  0.265512  1
  B  B17  1  0.500000  0.207073  0.734488  1
  B  B18  1  0.500000  0.292927  0.234488  1
  B  B19  1  0.500000  0.707073  0.765512  1
  B  B20  1  0.500000  0.632130  0.184363  1
  B  B21  1  0.500000  0.367870  0.815637  1
  B  B22  1  0.500000  0.132130  0.315637  1
  B  B23  1  0.500000  0.867870  0.684363  1
  B  B24  1  0.500000  0.982163  0.213252  1
  B  B25  1  0.500000  0.017837  0.786748  1
  B  B26  1  0.500000  0.482163  0.286748  1
  B  B27  1  0.500000  0.517837  0.713252  1
  B  B28  1  0.500000  0.610523  0.030251  1
  B  B29  1  0.500000  0.389477  0.969749  1
  B  B30  1  0.500000  0.110523  0.469749  1
  B  B31  1  0.500000  0.889477  0.530251  1
  Ir  Ir32  1  0.000000  0.638443  0.321129  1
  Ir  Ir33  1  0.000000  0.361557  0.678871  1
  Ir  Ir34  1  0.000000  0.138443  0.178871  1
  Ir  Ir35  1  0.000000  0.861557  0.821129  1
