# generated using pymatgen
data_Hf7TiTc4
_symmetry_space_group_name_H-M   'P 1'
_cell_length_a   14.33061700
_cell_length_b   3.31766300
_cell_length_c   4.73795800
_cell_angle_alpha   90.00000000
_cell_angle_beta   90.00000000
_cell_angle_gamma   90.00000000
_symmetry_Int_Tables_number   1
_chemical_formula_structural   Hf7TiTc4
_chemical_formula_sum   'Hf7 Ti1 Tc4'
_cell_volume   225.26222275
_cell_formula_units_Z   1
loop_
 _symmetry_equiv_pos_site_id
 _symmetry_equiv_pos_as_xyz
  1  'x, y, z'
loop_
 _atom_site_type_symbol
 _atom_site_label
 _atom_site_symmetry_multiplicity
 _atom_site_fract_x
 _atom_site_fract_y
 _atom_site_fract_z
 _atom_site_occupancy
  Hf  Hf0  1  0.296622  0.000000  0.000000  1
  Hf  Hf1  1  0.990030  0.000000  0.000000  1
  Hf  Hf2  1  0.495935  0.499999  0.000000  1
  Hf  Hf3  1  0.802402  0.499999  0.000000  1
  Hf  Hf4  1  0.141610  0.000000  0.500000  1
  Hf  Hf5  1  0.448749  0.000000  0.500000  1
  Hf  Hf6  1  0.648322  0.499999  0.500000  1
  Ti  Ti7  1  0.948003  0.499999  0.500000  1
  Tc  Tc8  1  0.644660  0.000000  0.000000  1
  Tc  Tc9  1  0.139041  0.499999  0.000000  1
  Tc  Tc10  1  0.810629  0.000000  0.500000  1
  Tc  Tc11  1  0.300637  0.499999  0.500000  1
