# generated using pymatgen
data_CeY7(Si3Ir)4
_symmetry_space_group_name_H-M   'P 1'
_cell_length_a   8.17353600
_cell_length_b   8.17353703
_cell_length_c   7.98056400
_cell_angle_alpha   90.00000000
_cell_angle_beta   90.00000000
_cell_angle_gamma   119.99999585
_symmetry_Int_Tables_number   1
_chemical_formula_structural   CeY7(Si3Ir)4
_chemical_formula_sum   'Ce1 Y7 Si12 Ir4'
_cell_volume   461.72591305
_cell_formula_units_Z   1
loop_
 _symmetry_equiv_pos_site_id
 _symmetry_equiv_pos_as_xyz
  1  'x, y, z'
loop_
 _atom_site_type_symbol
 _atom_site_label
 _atom_site_symmetry_multiplicity
 _atom_site_fract_x
 _atom_site_fract_y
 _atom_site_fract_z
 _atom_site_occupancy
  Ce  Ce0  1  0.000000  0.000000  0.250000  1
  Y  Y1  1  0.000000  0.000000  0.750000  1
  Y  Y2  1  0.509066  0.490934  0.250000  1
  Y  Y3  1  0.509066  0.018131  0.250000  1
  Y  Y4  1  0.981869  0.490934  0.250000  1
  Y  Y5  1  0.490206  0.509794  0.750000  1
  Y  Y6  1  0.490206  0.980413  0.750000  1
  Y  Y7  1  0.019587  0.509794  0.750000  1
  Si  Si8  1  0.166557  0.833443  0.498695  1
  Si  Si9  1  0.166557  0.333114  0.498695  1
  Si  Si10  1  0.666886  0.833443  0.498695  1
  Si  Si11  1  0.832670  0.167330  0.500775  1
  Si  Si12  1  0.832670  0.665340  0.500775  1
  Si  Si13  1  0.334660  0.167330  0.500775  1
  Si  Si14  1  0.832670  0.167330  0.999225  1
  Si  Si15  1  0.832670  0.665340  0.999225  1
  Si  Si16  1  0.334660  0.167330  0.999225  1
  Si  Si17  1  0.166557  0.833443  0.001305  1
  Si  Si18  1  0.166557  0.333114  0.001305  1
  Si  Si19  1  0.666886  0.833443  0.001305  1
  Ir  Ir20  1  0.333333  0.666667  0.471993  1
  Ir  Ir21  1  0.666667  0.333333  0.534910  1
  Ir  Ir22  1  0.666667  0.333333  0.965090  1
  Ir  Ir23  1  0.333333  0.666667  0.028007  1
