# generated using pymatgen
data_Dy7Th(AlRu)8
_symmetry_space_group_name_H-M   'P 1'
_cell_length_a   4.09002300
_cell_length_b   7.03730959
_cell_length_c   15.95034006
_cell_angle_alpha   90.35209614
_cell_angle_beta   90.00000000
_cell_angle_gamma   90.00000000
_symmetry_Int_Tables_number   1
_chemical_formula_structural   Dy7Th(AlRu)8
_chemical_formula_sum   'Dy7 Th1 Al8 Ru8'
_cell_volume   459.08611026
_cell_formula_units_Z   1
loop_
 _symmetry_equiv_pos_site_id
 _symmetry_equiv_pos_as_xyz
  1  'x, y, z'
loop_
 _atom_site_type_symbol
 _atom_site_label
 _atom_site_symmetry_multiplicity
 _atom_site_fract_x
 _atom_site_fract_y
 _atom_site_fract_z
 _atom_site_occupancy
  Dy  Dy0  1  0.750000  0.963693  0.219070  1
  Dy  Dy1  1  0.250000  0.160524  0.560211  1
  Dy  Dy2  1  0.750000  0.841894  0.435939  1
  Dy  Dy3  1  0.750000  0.464352  0.280972  1
  Dy  Dy4  1  0.750000  0.338217  0.064486  1
  Dy  Dy5  1  0.250000  0.658555  0.939568  1
  Dy  Dy6  1  0.250000  0.037615  0.782177  1
  Th  Th7  1  0.250000  0.535059  0.720367  1
  Al  Al8  1  0.750000  0.505829  0.560664  1
  Al  Al9  1  0.750000  0.357982  0.854684  1
  Al  Al10  1  0.750000  0.996239  0.936211  1
  Al  Al11  1  0.750000  0.873825  0.649184  1
  Al  Al12  1  0.250000  0.500924  0.433637  1
  Al  Al13  1  0.250000  0.995904  0.066446  1
  Al  Al14  1  0.250000  0.633858  0.151052  1
  Al  Al15  1  0.250000  0.135433  0.348891  1
  Ru  Ru16  1  0.750000  0.740186  0.809332  1
  Ru  Ru17  1  0.250000  0.230177  0.937863  1
  Ru  Ru18  1  0.750000  0.265098  0.435465  1
  Ru  Ru19  1  0.250000  0.754501  0.312438  1
  Ru  Ru20  1  0.750000  0.762539  0.064532  1
  Ru  Ru21  1  0.750000  0.256410  0.685069  1
  Ru  Ru22  1  0.250000  0.252995  0.187511  1
  Ru  Ru23  1  0.250000  0.738190  0.564233  1
