# generated using pymatgen
data_ErTm3U2(Co3P2)6
_symmetry_space_group_name_H-M   'P 1'
_cell_length_a   3.70290000
_cell_length_b   10.54826100
_cell_length_c   12.07464800
_cell_angle_alpha   90.00071202
_cell_angle_beta   90.00000000
_cell_angle_gamma   90.00000000
_symmetry_Int_Tables_number   1
_chemical_formula_structural   ErTm3U2(Co3P2)6
_chemical_formula_sum   'Er1 Tm3 U2 Co18 P12'
_cell_volume   471.62555572
_cell_formula_units_Z   1
loop_
 _symmetry_equiv_pos_site_id
 _symmetry_equiv_pos_as_xyz
  1  'x, y, z'
loop_
 _atom_site_type_symbol
 _atom_site_label
 _atom_site_symmetry_multiplicity
 _atom_site_fract_x
 _atom_site_fract_y
 _atom_site_fract_z
 _atom_site_occupancy
  Er  Er0  1  0.750000  0.434997  0.205110  1
  Tm  Tm1  1  0.250000  0.934721  0.794967  1
  Tm  Tm2  1  0.250000  0.565323  0.795254  1
  Tm  Tm3  1  0.750000  0.065160  0.204711  1
  U  U4  1  0.750000  0.249746  0.469957  1
  U  U5  1  0.250000  0.749936  0.530240  1
  Co  Co6  1  0.250000  0.249802  0.840526  1
  Co  Co7  1  0.750000  0.750030  0.159248  1
  Co  Co8  1  0.250000  0.249807  0.306294  1
  Co  Co9  1  0.750000  0.750029  0.693966  1
  Co  Co10  1  0.750000  0.249867  0.014829  1
  Co  Co11  1  0.250000  0.750146  0.984808  1
  Co  Co12  1  0.250000  0.416024  0.007064  1
  Co  Co13  1  0.250000  0.083942  0.007139  1
  Co  Co14  1  0.750000  0.584195  0.992373  1
  Co  Co15  1  0.750000  0.916021  0.992404  1
  Co  Co16  1  0.250000  0.450760  0.567711  1
  Co  Co17  1  0.250000  0.049141  0.567154  1
  Co  Co18  1  0.750000  0.549259  0.433270  1
  Co  Co19  1  0.750000  0.950792  0.432688  1
  Co  Co20  1  0.250000  0.870558  0.290603  1
  Co  Co21  1  0.250000  0.629862  0.291233  1
  Co  Co22  1  0.750000  0.129491  0.709071  1
  Co  Co23  1  0.750000  0.370404  0.709370  1
  P  P24  1  0.250000  0.249802  0.122718  1
  P  P25  1  0.750000  0.750092  0.876906  1
  P  P26  1  0.250000  0.249939  0.653143  1
  P  P27  1  0.750000  0.750024  0.346883  1
  P  P28  1  0.250000  0.442427  0.383378  1
  P  P29  1  0.250000  0.057390  0.382540  1
  P  P30  1  0.750000  0.557545  0.617717  1
  P  P31  1  0.750000  0.942383  0.617258  1
  P  P32  1  0.250000  0.902836  0.105986  1
  P  P33  1  0.250000  0.597555  0.105962  1
  P  P34  1  0.750000  0.097167  0.893648  1
  P  P35  1  0.750000  0.402827  0.893872  1
