# generated using pymatgen
data_Sm5GdSe8(O12F)2
_symmetry_space_group_name_H-M   'P 1'
_cell_length_a   10.61452800
_cell_length_b   10.60097168
_cell_length_c   7.07642824
_cell_angle_alpha   90.05912663
_cell_angle_beta   90.00000000
_cell_angle_gamma   120.04230452
_symmetry_Int_Tables_number   1
_chemical_formula_structural   Sm5GdSe8(O12F)2
_chemical_formula_sum   'Sm5 Gd1 Se8 O24 F2'
_cell_volume   689.29558858
_cell_formula_units_Z   1
loop_
 _symmetry_equiv_pos_site_id
 _symmetry_equiv_pos_as_xyz
  1  'x, y, z'
loop_
 _atom_site_type_symbol
 _atom_site_label
 _atom_site_symmetry_multiplicity
 _atom_site_fract_x
 _atom_site_fract_y
 _atom_site_fract_z
 _atom_site_occupancy
  Sm  Sm0  1  0.074572  0.537346  0.416215  1
  Sm  Sm1  1  0.462775  0.537346  0.416215  1
  Sm  Sm2  1  0.462825  0.925652  0.416296  1
  Sm  Sm3  1  0.537107  0.462444  0.916298  1
  Sm  Sm4  1  0.925336  0.462444  0.916298  1
  Gd  Gd5  1  0.537111  0.074222  0.915827  1
  Se  Se6  1  0.311586  0.155169  0.146843  1
  Se  Se7  1  0.843584  0.155169  0.146843  1
  Se  Se8  1  0.844324  0.688648  0.147759  1
  Se  Se9  1  0.666465  0.332931  0.486455  1
  Se  Se10  1  0.156536  0.844966  0.648801  1
  Se  Se11  1  0.688430  0.844966  0.648801  1
  Se  Se12  1  0.155634  0.311269  0.647517  1
  Se  Se13  1  0.333270  0.666541  0.985483  1
  O  O14  1  0.163530  0.581897  0.094493  1
  O  O15  1  0.418368  0.581897  0.094493  1
  O  O16  1  0.418414  0.836828  0.093399  1
  O  O17  1  0.416990  0.081936  0.215761  1
  O  O18  1  0.664946  0.081936  0.215761  1
  O  O19  1  0.665869  0.584150  0.217913  1
  O  O20  1  0.918281  0.584150  0.217913  1
  O  O21  1  0.415895  0.333909  0.217425  1
  O  O22  1  0.918013  0.333909  0.217425  1
  O  O23  1  0.182466  0.364934  0.414122  1
  O  O24  1  0.183343  0.818478  0.415036  1
  O  O25  1  0.635133  0.818478  0.415036  1
  O  O26  1  0.581819  0.418252  0.594557  1
  O  O27  1  0.836433  0.418252  0.594557  1
  O  O28  1  0.581543  0.163087  0.595871  1
  O  O29  1  0.335048  0.918559  0.719011  1
  O  O30  1  0.583512  0.918559  0.719011  1
  O  O31  1  0.081810  0.416005  0.717548  1
  O  O32  1  0.334195  0.416005  0.717548  1
  O  O33  1  0.081905  0.666008  0.717736  1
  O  O34  1  0.584103  0.666008  0.717736  1
  O  O35  1  0.817180  0.634360  0.914413  1
  O  O36  1  0.364864  0.182087  0.913348  1
  O  O37  1  0.817223  0.182087  0.913348  1
  F  F38  1  0.333384  0.666767  0.459590  1
  F  F39  1  0.666174  0.332349  0.959549  1
