# generated using pymatgen
data_Sr(Li2Au)2
_symmetry_space_group_name_H-M   'P 1'
_cell_length_a   8.64659614
_cell_length_b   8.64659588
_cell_length_c   8.64659571
_cell_angle_alpha   30.49223170
_cell_angle_beta   30.49223573
_cell_angle_gamma   30.49224120
_symmetry_Int_Tables_number   1
_chemical_formula_structural   Sr(Li2Au)2
_chemical_formula_sum   'Sr1 Li4 Au2'
_cell_volume   147.54332583
_cell_formula_units_Z   1
loop_
 _symmetry_equiv_pos_site_id
 _symmetry_equiv_pos_as_xyz
  1  'x, y, z'
loop_
 _atom_site_type_symbol
 _atom_site_label
 _atom_site_symmetry_multiplicity
 _atom_site_fract_x
 _atom_site_fract_y
 _atom_site_fract_z
 _atom_site_occupancy
  Sr  Sr0  1  0.000000  0.000000  0.000000  1
  Li  Li1  1  0.435914  0.435914  0.435914  1
  Li  Li2  1  0.140448  0.140448  0.140448  1
  Li  Li3  1  0.564086  0.564086  0.564086  1
  Li  Li4  1  0.859552  0.859552  0.859552  1
  Au  Au5  1  0.753648  0.753648  0.753648  1
  Au  Au6  1  0.246352  0.246352  0.246352  1
