# generated using pymatgen
data_Y4Al18(CuRu)3
_symmetry_space_group_name_H-M   'P 1'
_cell_length_a   7.54918322
_cell_length_b   7.54918299
_cell_length_c   9.44645176
_cell_angle_alpha   89.90696425
_cell_angle_beta   89.90696115
_cell_angle_gamma   119.21945773
_symmetry_Int_Tables_number   1
_chemical_formula_structural   Y4Al18(CuRu)3
_chemical_formula_sum   'Y4 Al18 Cu3 Ru3'
_cell_volume   469.85019251
_cell_formula_units_Z   1
loop_
 _symmetry_equiv_pos_site_id
 _symmetry_equiv_pos_as_xyz
  1  'x, y, z'
loop_
 _atom_site_type_symbol
 _atom_site_label
 _atom_site_symmetry_multiplicity
 _atom_site_fract_x
 _atom_site_fract_y
 _atom_site_fract_z
 _atom_site_occupancy
  Y  Y0  1  0.996306  0.671353  0.250429  1
  Y  Y1  1  0.005897  0.329503  0.750450  1
  Y  Y2  1  0.670497  0.994103  0.249550  1
  Y  Y3  1  0.328647  0.003694  0.749571  1
  Al  Al4  1  0.126384  0.128065  0.250623  1
  Al  Al5  1  0.871935  0.873616  0.749377  1
  Al  Al6  1  0.000536  0.333136  0.075244  1
  Al  Al7  1  0.998978  0.668921  0.923274  1
  Al  Al8  1  0.995591  0.662477  0.573207  1
  Al  Al9  1  0.337523  0.004409  0.426793  1
  Al  Al10  1  0.995262  0.329459  0.427407  1
  Al  Al11  1  0.670541  0.004738  0.572593  1
  Al  Al12  1  0.666864  0.999464  0.924756  1
  Al  Al13  1  0.331079  0.001022  0.076726  1
  Al  Al14  1  0.332329  0.327211  0.545772  1
  Al  Al15  1  0.672789  0.667671  0.454228  1
  Al  Al16  1  0.668653  0.669429  0.052922  1
  Al  Al17  1  0.330571  0.331347  0.947078  1
  Al  Al18  1  0.342299  0.550122  0.251567  1
  Al  Al19  1  0.656286  0.448996  0.745883  1
  Al  Al20  1  0.551004  0.343714  0.254117  1
  Al  Al21  1  0.449878  0.657701  0.748433  1
  Cu  Cu22  1  0.671172  0.328828  0.000000  1
  Cu  Cu23  1  0.327749  0.672251  0.000000  1
  Cu  Cu24  1  0.328218  0.671782  0.500000  1
  Ru  Ru25  1  0.672014  0.327986  0.500000  1
  Ru  Ru26  1  0.999405  0.000595  0.000000  1
  Ru  Ru27  1  0.001591  0.998409  0.500000  1
