# generated using pymatgen
data_LaWF7
_symmetry_space_group_name_H-M   'P 1'
_cell_length_a   5.91831500
_cell_length_b   9.41412034
_cell_length_c   12.57324690
_cell_angle_alpha   62.61745349
_cell_angle_beta   90.00000000
_cell_angle_gamma   90.00000000
_symmetry_Int_Tables_number   1
_chemical_formula_structural   LaWF7
_chemical_formula_sum   'La4 W4 F28'
_cell_volume   622.03737810
_cell_formula_units_Z   4
loop_
 _symmetry_equiv_pos_site_id
 _symmetry_equiv_pos_as_xyz
  1  'x, y, z'
loop_
 _atom_site_type_symbol
 _atom_site_label
 _atom_site_symmetry_multiplicity
 _atom_site_fract_x
 _atom_site_fract_y
 _atom_site_fract_z
 _atom_site_occupancy
  La  La0  1  0.763590  0.810797  0.265667  1
  La  La1  1  0.263590  0.189203  0.234333  1
  La  La2  1  0.236410  0.189203  0.734333  1
  La  La3  1  0.736410  0.810797  0.765667  1
  W  W4  1  0.244218  0.725982  0.543393  1
  W  W5  1  0.744218  0.274018  0.956607  1
  W  W6  1  0.755782  0.274018  0.456607  1
  W  W7  1  0.255782  0.725982  0.043393  1
  F  F8  1  0.958479  0.715907  0.452580  1
  F  F9  1  0.458479  0.284093  0.047420  1
  F  F10  1  0.041521  0.284093  0.547420  1
  F  F11  1  0.541521  0.715907  0.952580  1
  F  F12  1  0.055935  0.710095  0.921562  1
  F  F13  1  0.555935  0.289905  0.578438  1
  F  F14  1  0.944065  0.289905  0.078438  1
  F  F15  1  0.444065  0.710095  0.421562  1
  F  F16  1  0.739404  0.511817  0.860612  1
  F  F17  1  0.239404  0.488183  0.639388  1
  F  F18  1  0.260596  0.488183  0.139388  1
  F  F19  1  0.760596  0.511817  0.360612  1
  F  F20  1  0.740839  0.036310  0.050846  1
  F  F21  1  0.240839  0.963690  0.449154  1
  F  F22  1  0.259161  0.963690  0.949154  1
  F  F23  1  0.759161  0.036310  0.550846  1
  F  F24  1  0.047215  0.744170  0.666258  1
  F  F25  1  0.547215  0.255830  0.833742  1
  F  F26  1  0.952785  0.255830  0.333742  1
  F  F27  1  0.452785  0.744170  0.166258  1
  F  F28  1  0.021718  0.268245  0.859564  1
  F  F29  1  0.521718  0.731755  0.640436  1
  F  F30  1  0.978282  0.731755  0.140436  1
  F  F31  1  0.478282  0.268245  0.359564  1
  F  F32  1  0.084595  0.971781  0.231732  1
  F  F33  1  0.584595  0.028219  0.268268  1
  F  F34  1  0.915405  0.028219  0.768268  1
  F  F35  1  0.415405  0.971781  0.731732  1
