# generated using pymatgen
data_Cs16TiCr3Se16
_symmetry_space_group_name_H-M   'P 1'
_cell_length_a   8.95541210
_cell_length_b   10.61815200
_cell_length_c   15.59715100
_cell_angle_alpha   90.00000000
_cell_angle_beta   90.03923189
_cell_angle_gamma   90.00000000
_symmetry_Int_Tables_number   1
_chemical_formula_structural   Cs16TiCr3Se16
_chemical_formula_sum   'Cs16 Ti1 Cr3 Se16'
_cell_volume   1483.13160066
_cell_formula_units_Z   1
loop_
 _symmetry_equiv_pos_site_id
 _symmetry_equiv_pos_as_xyz
  1  'x, y, z'
loop_
 _atom_site_type_symbol
 _atom_site_label
 _atom_site_symmetry_multiplicity
 _atom_site_fract_x
 _atom_site_fract_y
 _atom_site_fract_z
 _atom_site_occupancy
  Cs  Cs0  1  0.999017  0.998373  0.000353  1
  Cs  Cs1  1  0.500262  0.000672  0.499652  1
  Cs  Cs2  1  0.999017  0.501627  0.000353  1
  Cs  Cs3  1  0.500262  0.499328  0.499652  1
  Cs  Cs4  1  0.995656  0.750000  0.420430  1
  Cs  Cs5  1  0.496536  0.250000  0.080283  1
  Cs  Cs6  1  0.003565  0.250000  0.578508  1
  Cs  Cs7  1  0.507697  0.750000  0.921535  1
  Cs  Cs8  1  0.829822  0.056461  0.281421  1
  Cs  Cs9  1  0.329668  0.943459  0.218635  1
  Cs  Cs10  1  0.170638  0.557279  0.718532  1
  Cs  Cs11  1  0.668522  0.445344  0.780398  1
  Cs  Cs12  1  0.170638  0.942721  0.718532  1
  Cs  Cs13  1  0.668522  0.054656  0.780398  1
  Cs  Cs14  1  0.829822  0.443539  0.281421  1
  Cs  Cs15  1  0.329668  0.556541  0.218635  1
  Ti  Ti16  1  0.263544  0.250000  0.835371  1
  Cr  Cr17  1  0.765154  0.750000  0.663786  1
  Cr  Cr18  1  0.235471  0.250000  0.335677  1
  Cr  Cr19  1  0.735850  0.750000  0.164922  1
  Se  Se20  1  0.994162  0.250000  0.827162  1
  Se  Se21  1  0.496911  0.250000  0.326431  1
  Se  Se22  1  0.503614  0.750000  0.672954  1
  Se  Se23  1  0.997228  0.750000  0.173867  1
  Se  Se24  1  0.655121  0.570904  0.092660  1
  Se  Se25  1  0.154661  0.429196  0.408083  1
  Se  Se26  1  0.346201  0.066002  0.910562  1
  Se  Se27  1  0.846094  0.929106  0.591524  1
  Se  Se28  1  0.346201  0.433998  0.910562  1
  Se  Se29  1  0.846094  0.570894  0.591524  1
  Se  Se30  1  0.655121  0.929096  0.092660  1
  Se  Se31  1  0.154661  0.070804  0.408083  1
  Se  Se32  1  0.636143  0.750000  0.304892  1
  Se  Se33  1  0.135967  0.250000  0.195508  1
  Se  Se34  1  0.367279  0.250000  0.691140  1
  Se  Se35  1  0.865206  0.750000  0.803896  1
