# generated using pymatgen
data_Tb5Pr3(HgPt)2
_symmetry_space_group_name_H-M   'P 1'
_cell_length_a   9.83521335
_cell_length_b   9.83521227
_cell_length_c   9.83521200
_cell_angle_alpha   60.00000091
_cell_angle_beta   60.00000453
_cell_angle_gamma   59.99999745
_symmetry_Int_Tables_number   1
_chemical_formula_structural   Tb5Pr3(HgPt)2
_chemical_formula_sum   'Tb10 Pr6 Hg4 Pt4'
_cell_volume   672.72297505
_cell_formula_units_Z   2
loop_
 _symmetry_equiv_pos_site_id
 _symmetry_equiv_pos_as_xyz
  1  'x, y, z'
loop_
 _atom_site_type_symbol
 _atom_site_label
 _atom_site_symmetry_multiplicity
 _atom_site_fract_x
 _atom_site_fract_y
 _atom_site_fract_z
 _atom_site_occupancy
  Tb  Tb0  1  0.351519  0.351519  0.351519  1
  Tb  Tb1  1  0.351519  0.351519  0.945442  1
  Tb  Tb2  1  0.351519  0.945442  0.351519  1
  Tb  Tb3  1  0.945442  0.351519  0.351519  1
  Tb  Tb4  1  0.811296  0.188704  0.188704  1
  Tb  Tb5  1  0.188704  0.811296  0.811296  1
  Tb  Tb6  1  0.188704  0.811296  0.188704  1
  Tb  Tb7  1  0.811296  0.188704  0.811296  1
  Tb  Tb8  1  0.188704  0.188704  0.811296  1
  Tb  Tb9  1  0.811296  0.811296  0.188704  1
  Pr  Pr10  1  0.938252  0.561748  0.561748  1
  Pr  Pr11  1  0.561748  0.938252  0.938252  1
  Pr  Pr12  1  0.561748  0.938252  0.561748  1
  Pr  Pr13  1  0.938252  0.561748  0.938252  1
  Pr  Pr14  1  0.561748  0.561748  0.938252  1
  Pr  Pr15  1  0.938252  0.938252  0.561748  1
  Hg  Hg16  1  0.583033  0.583033  0.583033  1
  Hg  Hg17  1  0.583033  0.583033  0.250902  1
  Hg  Hg18  1  0.583033  0.250902  0.583033  1
  Hg  Hg19  1  0.250902  0.583033  0.583033  1
  Pt  Pt20  1  0.142935  0.142935  0.142935  1
  Pt  Pt21  1  0.142935  0.142935  0.571194  1
  Pt  Pt22  1  0.142935  0.571194  0.142935  1
  Pt  Pt23  1  0.571194  0.142935  0.142935  1
