# generated using pymatgen
data_ZrTa2B2Ru5
_symmetry_space_group_name_H-M   'P 1'
_cell_length_a   9.48502805
_cell_length_b   9.48502805
_cell_length_c   3.06865900
_cell_angle_alpha   90.00000000
_cell_angle_beta   90.00000000
_cell_angle_gamma   90.20410175
_symmetry_Int_Tables_number   1
_chemical_formula_structural   ZrTa2B2Ru5
_chemical_formula_sum   'Zr2 Ta4 B4 Ru10'
_cell_volume   276.07247833
_cell_formula_units_Z   2
loop_
 _symmetry_equiv_pos_site_id
 _symmetry_equiv_pos_as_xyz
  1  'x, y, z'
loop_
 _atom_site_type_symbol
 _atom_site_label
 _atom_site_symmetry_multiplicity
 _atom_site_fract_x
 _atom_site_fract_y
 _atom_site_fract_z
 _atom_site_occupancy
  Zr  Zr0  1  0.823317  0.676683  0.000000  1
  Zr  Zr1  1  0.176683  0.323317  0.000000  1
  Ta  Ta2  1  0.323824  0.823824  0.000000  1
  Ta  Ta3  1  0.676176  0.176176  0.000000  1
  Ta  Ta4  1  0.500000  0.500000  0.000000  1
  Ta  Ta5  1  0.000000  0.000000  0.000000  1
  B  B6  1  0.620766  0.879234  0.000000  1
  B  B7  1  0.379234  0.120766  0.000000  1
  B  B8  1  0.121693  0.621693  0.000000  1
  B  B9  1  0.878307  0.378307  0.000000  1
  Ru  Ru10  1  0.566425  0.720105  0.500000  1
  Ru  Ru11  1  0.433575  0.279895  0.500000  1
  Ru  Ru12  1  0.075216  0.783438  0.500000  1
  Ru  Ru13  1  0.924784  0.216562  0.500000  1
  Ru  Ru14  1  0.283438  0.575216  0.500000  1
  Ru  Ru15  1  0.716562  0.424784  0.500000  1
  Ru  Ru16  1  0.220105  0.066425  0.500000  1
  Ru  Ru17  1  0.779895  0.933575  0.500000  1
  Ru  Ru18  1  0.500000  0.000000  0.500000  1
  Ru  Ru19  1  0.000000  0.500000  0.500000  1
