# generated using pymatgen
data_YScB6W
_symmetry_space_group_name_H-M   'P 1'
_cell_length_a   3.50867500
_cell_length_b   9.17930800
_cell_length_c   11.57786700
_cell_angle_alpha   90.00000000
_cell_angle_beta   90.00000000
_cell_angle_gamma   90.00000000
_symmetry_Int_Tables_number   1
_chemical_formula_structural   YScB6W
_chemical_formula_sum   'Y4 Sc4 B24 W4'
_cell_volume   372.89077642
_cell_formula_units_Z   4
loop_
 _symmetry_equiv_pos_site_id
 _symmetry_equiv_pos_as_xyz
  1  'x, y, z'
loop_
 _atom_site_type_symbol
 _atom_site_label
 _atom_site_symmetry_multiplicity
 _atom_site_fract_x
 _atom_site_fract_y
 _atom_site_fract_z
 _atom_site_occupancy
  Y  Y0  1  0.500000  0.320195  0.414226  1
  Y  Y1  1  0.500000  0.679805  0.585774  1
  Y  Y2  1  0.500000  0.179805  0.914226  1
  Y  Y3  1  0.500000  0.820195  0.085774  1
  Sc  Sc4  1  0.500000  0.445454  0.127096  1
  Sc  Sc5  1  0.500000  0.554546  0.872904  1
  Sc  Sc6  1  0.500000  0.054546  0.627096  1
  Sc  Sc7  1  0.500000  0.945454  0.372904  1
  B  B8  1  0.000000  0.095475  0.473791  1
  B  B9  1  0.000000  0.904525  0.526209  1
  B  B10  1  0.000000  0.404525  0.973791  1
  B  B11  1  0.000000  0.595475  0.026209  1
  B  B12  1  0.000000  0.129163  0.319463  1
  B  B13  1  0.000000  0.870837  0.680537  1
  B  B14  1  0.000000  0.370837  0.819463  1
  B  B15  1  0.000000  0.629163  0.180537  1
  B  B16  1  0.000000  0.052526  0.065754  1
  B  B17  1  0.000000  0.947474  0.934246  1
  B  B18  1  0.000000  0.447474  0.565754  1
  B  B19  1  0.000000  0.552526  0.434246  1
  B  B20  1  0.000000  0.478988  0.284765  1
  B  B21  1  0.000000  0.521012  0.715235  1
  B  B22  1  0.000000  0.021012  0.784765  1
  B  B23  1  0.000000  0.978988  0.215235  1
  B  B24  1  0.000000  0.256901  0.079384  1
  B  B25  1  0.000000  0.743099  0.920616  1
  B  B26  1  0.000000  0.243099  0.579384  1
  B  B27  1  0.000000  0.756901  0.420616  1
  B  B28  1  0.000000  0.297959  0.235456  1
  B  B29  1  0.000000  0.702041  0.764544  1
  B  B30  1  0.000000  0.202041  0.735456  1
  B  B31  1  0.000000  0.797959  0.264544  1
  W  W32  1  0.500000  0.141753  0.181454  1
  W  W33  1  0.500000  0.858247  0.818546  1
  W  W34  1  0.500000  0.358247  0.681454  1
  W  W35  1  0.500000  0.641753  0.318546  1
