# generated using pymatgen
data_CsPrSm9(C2I9)2
_symmetry_space_group_name_H-M   'P 1'
_cell_length_a   11.58700648
_cell_length_b   11.64399696
_cell_length_c   11.73072469
_cell_angle_alpha   113.19080459
_cell_angle_beta   87.16496031
_cell_angle_gamma   119.46014613
_symmetry_Int_Tables_number   1
_chemical_formula_structural   CsPrSm9(C2I9)2
_chemical_formula_sum   'Cs1 Pr1 Sm9 C4 I18'
_cell_volume   1245.96996099
_cell_formula_units_Z   1
loop_
 _symmetry_equiv_pos_site_id
 _symmetry_equiv_pos_as_xyz
  1  'x, y, z'
loop_
 _atom_site_type_symbol
 _atom_site_label
 _atom_site_symmetry_multiplicity
 _atom_site_fract_x
 _atom_site_fract_y
 _atom_site_fract_z
 _atom_site_occupancy
  Cs  Cs0  1  0.500038  0.000222  0.500019  1
  Pr  Pr1  1  0.667762  0.719986  0.704805  1
  Sm  Sm2  1  0.277049  0.353790  0.016592  1
  Sm  Sm3  1  0.092960  0.395215  0.294401  1
  Sm  Sm4  1  0.965607  0.039065  0.324376  1
  Sm  Sm5  1  0.906780  0.604401  0.705255  1
  Sm  Sm6  1  0.107789  0.944612  0.001210  1
  Sm  Sm7  1  0.035128  0.961330  0.676120  1
  Sm  Sm8  1  0.327558  0.277768  0.292054  1
  Sm  Sm9  1  0.723641  0.646550  0.983889  1
  Sm  Sm10  1  0.893098  0.055793  0.999302  1
  C  C11  1  0.152173  0.221398  0.124097  1
  C  C12  1  0.850232  0.779654  0.877276  1
  C  C13  1  0.923579  0.853664  0.803836  1
  C  C14  1  0.078735  0.147276  0.197683  1
  I  I15  1  0.445825  0.527319  0.833179  1
  I  I16  1  0.385018  0.038213  0.157936  1
  I  I17  1  0.777553  0.857362  0.498341  1
  I  I18  1  0.836096  0.311422  0.154021  1
  I  I19  1  0.551470  0.470006  0.169362  1
  I  I20  1  0.224596  0.144904  0.499283  1
  I  I21  1  0.317282  0.095432  0.831640  1
  I  I22  1  0.682941  0.904692  0.168225  1
  I  I23  1  0.977984  0.757876  0.169109  1
  I  I24  1  0.932730  0.299346  0.502144  1
  I  I25  1  0.021989  0.241932  0.831066  1
  I  I26  1  0.067351  0.700714  0.497786  1
  I  I27  1  0.261869  0.623943  0.184323  1
  I  I28  1  0.738031  0.376179  0.815738  1
  I  I29  1  0.639378  0.424903  0.493271  1
  I  I30  1  0.164296  0.689032  0.846400  1
  I  I31  1  0.614192  0.967324  0.845200  1
  I  I32  1  0.359271  0.568675  0.502061  1
