# generated using pymatgen
data_Mg2TaGaIr4
_symmetry_space_group_name_H-M   'P 1'
_cell_length_a   6.23040600
_cell_length_b   6.23061200
_cell_length_c   6.18160100
_cell_angle_alpha   90.00000000
_cell_angle_beta   89.99985286
_cell_angle_gamma   90.00000000
_symmetry_Int_Tables_number   1
_chemical_formula_structural   Mg2TaGaIr4
_chemical_formula_sum   'Mg4 Ta2 Ga2 Ir8'
_cell_volume   239.96506757
_cell_formula_units_Z   2
loop_
 _symmetry_equiv_pos_site_id
 _symmetry_equiv_pos_as_xyz
  1  'x, y, z'
loop_
 _atom_site_type_symbol
 _atom_site_label
 _atom_site_symmetry_multiplicity
 _atom_site_fract_x
 _atom_site_fract_y
 _atom_site_fract_z
 _atom_site_occupancy
  Mg  Mg0  1  0.749989  0.250000  0.000000  1
  Mg  Mg1  1  0.250011  0.750000  0.000000  1
  Mg  Mg2  1  0.749964  0.250000  0.500003  1
  Mg  Mg3  1  0.250036  0.750000  0.499997  1
  Ta  Ta4  1  0.249994  0.250000  0.999999  1
  Ta  Ta5  1  0.750006  0.750000  0.000001  1
  Ga  Ga6  1  0.749983  0.750000  0.499990  1
  Ga  Ga7  1  0.250017  0.250000  0.500010  1
  Ir  Ir8  1  0.499997  0.000001  0.250756  1
  Ir  Ir9  1  0.499997  0.499997  0.250756  1
  Ir  Ir10  1  0.000002  0.000000  0.250784  1
  Ir  Ir11  1  0.000002  0.499998  0.250784  1
  Ir  Ir12  1  0.999998  0.000000  0.749216  1
  Ir  Ir13  1  0.999998  0.500001  0.749216  1
  Ir  Ir14  1  0.500003  0.999999  0.749246  1
  Ir  Ir15  1  0.500003  0.500002  0.749246  1
