# generated using pymatgen
data_Yb4YHo5Ru4
_symmetry_space_group_name_H-M   'P 1'
_cell_length_a   6.43237820
_cell_length_b   7.23116428
_cell_length_c   8.52374193
_cell_angle_alpha   97.19050929
_cell_angle_beta   112.31429238
_cell_angle_gamma   90.07113540
_symmetry_Int_Tables_number   1
_chemical_formula_structural   Yb4YHo5Ru4
_chemical_formula_sum   'Yb4 Y1 Ho5 Ru4'
_cell_volume   363.38159320
_cell_formula_units_Z   1
loop_
 _symmetry_equiv_pos_site_id
 _symmetry_equiv_pos_as_xyz
  1  'x, y, z'
loop_
 _atom_site_type_symbol
 _atom_site_label
 _atom_site_symmetry_multiplicity
 _atom_site_fract_x
 _atom_site_fract_y
 _atom_site_fract_z
 _atom_site_occupancy
  Yb  Yb0  1  0.979578  0.919291  0.183106  1
  Yb  Yb1  1  0.795861  0.580389  0.817166  1
  Yb  Yb2  1  0.020736  0.080845  0.817331  1
  Yb  Yb3  1  0.203716  0.418883  0.183179  1
  Y  Y4  1  0.634515  0.816330  0.433602  1
  Ho  Ho5  1  0.200944  0.682964  0.566041  1
  Ho  Ho6  1  0.364973  0.183449  0.566689  1
  Ho  Ho7  1  0.799544  0.316576  0.433743  1
  Ho  Ho8  1  0.431162  0.749958  0.999774  1
  Ho  Ho9  1  0.568982  0.250073  0.000538  1
  Ru  Ru10  1  0.817740  0.573473  0.229979  1
  Ru  Ru11  1  0.584250  0.925949  0.770661  1
  Ru  Ru12  1  0.184279  0.425565  0.768546  1
  Ru  Ru13  1  0.413721  0.076256  0.229644  1
