# generated using pymatgen
data_LaNd3In4(Sn3Rh2)4
_symmetry_space_group_name_H-M   'P 1'
_cell_length_a   4.57917600
_cell_length_b   7.14693404
_cell_length_c   18.75071410
_cell_angle_alpha   89.98802539
_cell_angle_beta   90.00000000
_cell_angle_gamma   90.00000000
_symmetry_Int_Tables_number   1
_chemical_formula_structural   LaNd3In4(Sn3Rh2)4
_chemical_formula_sum   'La1 Nd3 In4 Sn12 Rh8'
_cell_volume   613.65589755
_cell_formula_units_Z   1
loop_
 _symmetry_equiv_pos_site_id
 _symmetry_equiv_pos_as_xyz
  1  'x, y, z'
loop_
 _atom_site_type_symbol
 _atom_site_label
 _atom_site_symmetry_multiplicity
 _atom_site_fract_x
 _atom_site_fract_y
 _atom_site_fract_z
 _atom_site_occupancy
  La  La0  1  0.750000  0.501324  0.640455  1
  Nd  Nd1  1  0.250000  0.001388  0.859439  1
  Nd  Nd2  1  0.250000  0.498651  0.359502  1
  Nd  Nd3  1  0.750000  0.998662  0.140546  1
  In  In4  1  0.250000  0.308086  0.179880  1
  In  In5  1  0.250000  0.190639  0.680055  1
  In  In6  1  0.750000  0.691961  0.820220  1
  In  In7  1  0.750000  0.808101  0.320134  1
  Sn  Sn8  1  0.250000  0.725440  0.198877  1
  Sn  Sn9  1  0.250000  0.775958  0.699074  1
  Sn  Sn10  1  0.750000  0.274048  0.801478  1
  Sn  Sn11  1  0.750000  0.225569  0.301162  1
  Sn  Sn12  1  0.250000  0.863315  0.032663  1
  Sn  Sn13  1  0.250000  0.637606  0.532218  1
  Sn  Sn14  1  0.750000  0.136725  0.967259  1
  Sn  Sn15  1  0.750000  0.363067  0.467019  1
  Sn  Sn16  1  0.250000  0.522688  0.928066  1
  Sn  Sn17  1  0.250000  0.977275  0.428063  1
  Sn  Sn18  1  0.750000  0.477366  0.071964  1
  Sn  Sn19  1  0.750000  0.021998  0.571920  1
  Rh  Rh20  1  0.250000  0.254346  0.031708  1
  Rh  Rh21  1  0.250000  0.245452  0.531583  1
  Rh  Rh22  1  0.750000  0.745690  0.968303  1
  Rh  Rh23  1  0.750000  0.754565  0.468074  1
  Rh  Rh24  1  0.250000  0.028751  0.284329  1
  Rh  Rh25  1  0.250000  0.471135  0.784581  1
  Rh  Rh26  1  0.750000  0.971443  0.715847  1
  Rh  Rh27  1  0.750000  0.528751  0.215578  1
