# generated using pymatgen
data_RbY(NbBr3)6
_symmetry_space_group_name_H-M   'P 1'
_cell_length_a   10.78995995
_cell_length_b   10.78996025
_cell_length_c   10.78996011
_cell_angle_alpha   55.36018002
_cell_angle_beta   55.36017845
_cell_angle_gamma   55.36018700
_symmetry_Int_Tables_number   1
_chemical_formula_structural   RbY(NbBr3)6
_chemical_formula_sum   'Rb1 Y1 Nb6 Br18'
_cell_volume   792.52016272
_cell_formula_units_Z   1
loop_
 _symmetry_equiv_pos_site_id
 _symmetry_equiv_pos_as_xyz
  1  'x, y, z'
loop_
 _atom_site_type_symbol
 _atom_site_label
 _atom_site_symmetry_multiplicity
 _atom_site_fract_x
 _atom_site_fract_y
 _atom_site_fract_z
 _atom_site_occupancy
  Rb  Rb0  1  0.221662  0.221662  0.221662  1
  Y  Y1  1  0.498134  0.498134  0.498134  1
  Nb  Nb2  1  0.808360  0.142752  0.916741  1
  Nb  Nb3  1  0.916741  0.808360  0.142752  1
  Nb  Nb4  1  0.142752  0.916741  0.808360  1
  Nb  Nb5  1  0.192693  0.857737  0.082495  1
  Nb  Nb6  1  0.082495  0.192693  0.857737  1
  Nb  Nb7  1  0.857737  0.082495  0.192693  1
  Br  Br8  1  0.863365  0.411840  0.727074  1
  Br  Br9  1  0.727074  0.863365  0.411840  1
  Br  Br10  1  0.411840  0.727074  0.863365  1
  Br  Br11  1  0.136008  0.588298  0.275373  1
  Br  Br12  1  0.275373  0.136008  0.588298  1
  Br  Br13  1  0.588298  0.275373  0.136008  1
  Br  Br14  1  0.530056  0.342320  0.806478  1
  Br  Br15  1  0.806478  0.530056  0.342320  1
  Br  Br16  1  0.342320  0.806478  0.530056  1
  Br  Br17  1  0.467644  0.659340  0.194584  1
  Br  Br18  1  0.194584  0.467644  0.659340  1
  Br  Br19  1  0.659340  0.194584  0.467644  1
  Br  Br20  1  0.663799  0.937795  0.071657  1
  Br  Br21  1  0.071657  0.663799  0.937795  1
  Br  Br22  1  0.937795  0.071657  0.663799  1
  Br  Br23  1  0.339472  0.060951  0.924512  1
  Br  Br24  1  0.924512  0.339472  0.060951  1
  Br  Br25  1  0.060951  0.924512  0.339472  1
