# generated using pymatgen
data_K2Ba(SiSe3)2
_symmetry_space_group_name_H-M   'P 1'
_cell_length_a   8.88875071
_cell_length_b   8.88875129
_cell_length_c   10.03142740
_cell_angle_alpha   88.83724313
_cell_angle_beta   88.83724253
_cell_angle_gamma   113.80229331
_symmetry_Int_Tables_number   1
_chemical_formula_structural   K2Ba(SiSe3)2
_chemical_formula_sum   'K4 Ba2 Si4 Se12'
_cell_volume   724.66692433
_cell_formula_units_Z   2
loop_
 _symmetry_equiv_pos_site_id
 _symmetry_equiv_pos_as_xyz
  1  'x, y, z'
loop_
 _atom_site_type_symbol
 _atom_site_label
 _atom_site_symmetry_multiplicity
 _atom_site_fract_x
 _atom_site_fract_y
 _atom_site_fract_z
 _atom_site_occupancy
  K  K0  1  0.269525  0.538563  0.530078  1
  K  K1  1  0.730475  0.461437  0.469922  1
  K  K2  1  0.461437  0.730475  0.969922  1
  K  K3  1  0.538563  0.269525  0.030078  1
  Ba  Ba4  1  0.970649  0.029351  0.250000  1
  Ba  Ba5  1  0.029351  0.970649  0.750000  1
  Si  Si6  1  0.978182  0.652484  0.057533  1
  Si  Si7  1  0.021818  0.347516  0.942467  1
  Si  Si8  1  0.347516  0.021818  0.442467  1
  Si  Si9  1  0.652484  0.978182  0.557533  1
  Se  Se10  1  0.645113  0.749377  0.662627  1
  Se  Se11  1  0.912218  0.525919  0.849274  1
  Se  Se12  1  0.250623  0.354887  0.837373  1
  Se  Se13  1  0.525919  0.912218  0.349274  1
  Se  Se14  1  0.354887  0.250623  0.337373  1
  Se  Se15  1  0.904269  0.185320  0.533680  1
  Se  Se16  1  0.814680  0.095731  0.966320  1
  Se  Se17  1  0.185320  0.904269  0.033680  1
  Se  Se18  1  0.087782  0.474081  0.150726  1
  Se  Se19  1  0.474081  0.087782  0.650726  1
  Se  Se20  1  0.095731  0.814680  0.466320  1
  Se  Se21  1  0.749377  0.645113  0.162627  1
