# generated using pymatgen
data_Y8ErTmSn8
_symmetry_space_group_name_H-M   'P 1'
_cell_length_a   8.03685500
_cell_length_b   8.19346400
_cell_length_c   15.50447400
_cell_angle_alpha   90.00000000
_cell_angle_beta   90.00000000
_cell_angle_gamma   90.00000000
_symmetry_Int_Tables_number   1
_chemical_formula_structural   Y8ErTmSn8
_chemical_formula_sum   'Y16 Er2 Tm2 Sn16'
_cell_volume   1020.96468427
_cell_formula_units_Z   2
loop_
 _symmetry_equiv_pos_site_id
 _symmetry_equiv_pos_as_xyz
  1  'x, y, z'
loop_
 _atom_site_type_symbol
 _atom_site_label
 _atom_site_symmetry_multiplicity
 _atom_site_fract_x
 _atom_site_fract_y
 _atom_site_fract_z
 _atom_site_occupancy
  Y  Y0  1  0.366751  0.837270  0.877830  1
  Y  Y1  1  0.866751  0.662730  0.622170  1
  Y  Y2  1  0.633195  0.162710  0.377720  1
  Y  Y3  1  0.133195  0.337290  0.122280  1
  Y  Y4  1  0.633195  0.162710  0.122280  1
  Y  Y5  1  0.133195  0.337290  0.377720  1
  Y  Y6  1  0.366751  0.837270  0.622170  1
  Y  Y7  1  0.866751  0.662730  0.877830  1
  Y  Y8  1  0.519868  0.320510  0.902691  1
  Y  Y9  1  0.019868  0.179490  0.597309  1
  Y  Y10  1  0.480124  0.679480  0.402600  1
  Y  Y11  1  0.980124  0.820520  0.097400  1
  Y  Y12  1  0.480124  0.679480  0.097400  1
  Y  Y13  1  0.980124  0.820520  0.402600  1
  Y  Y14  1  0.519868  0.320510  0.597309  1
  Y  Y15  1  0.019868  0.179490  0.902691  1
  Er  Er16  1  0.198223  0.502735  0.750000  1
  Er  Er17  1  0.698223  0.997265  0.750000  1
  Tm  Tm18  1  0.801827  0.497247  0.250000  1
  Tm  Tm19  1  0.301827  0.002753  0.250000  1
  Sn  Sn20  1  0.293163  0.035997  0.042566  1
  Sn  Sn21  1  0.793163  0.464003  0.457434  1
  Sn  Sn22  1  0.706815  0.963968  0.542376  1
  Sn  Sn23  1  0.206815  0.536032  0.957624  1
  Sn  Sn24  1  0.706815  0.963968  0.957624  1
  Sn  Sn25  1  0.206815  0.536032  0.542376  1
  Sn  Sn26  1  0.293163  0.035997  0.457434  1
  Sn  Sn27  1  0.793163  0.464003  0.042566  1
  Sn  Sn28  1  0.563850  0.618321  0.750000  1
  Sn  Sn29  1  0.063850  0.881679  0.750000  1
  Sn  Sn30  1  0.436439  0.381604  0.250000  1
  Sn  Sn31  1  0.936439  0.118396  0.250000  1
  Sn  Sn32  1  0.329031  0.148359  0.750000  1
  Sn  Sn33  1  0.829031  0.351641  0.750000  1
  Sn  Sn34  1  0.670796  0.851309  0.250000  1
  Sn  Sn35  1  0.170796  0.648691  0.250000  1
