# generated using pymatgen
data_CaLaNd5OsBr12
_symmetry_space_group_name_H-M   'P 1'
_cell_length_a   9.56771162
_cell_length_b   9.55452456
_cell_length_c   9.72298601
_cell_angle_alpha   107.12354407
_cell_angle_beta   107.27716199
_cell_angle_gamma   106.90729767
_symmetry_Int_Tables_number   1
_chemical_formula_structural   CaLaNd5OsBr12
_chemical_formula_sum   'Ca1 La1 Nd5 Os1 Br12'
_cell_volume   738.13399111
_cell_formula_units_Z   1
loop_
 _symmetry_equiv_pos_site_id
 _symmetry_equiv_pos_as_xyz
  1  'x, y, z'
loop_
 _atom_site_type_symbol
 _atom_site_label
 _atom_site_symmetry_multiplicity
 _atom_site_fract_x
 _atom_site_fract_y
 _atom_site_fract_z
 _atom_site_occupancy
  Ca  Ca0  1  0.500518  0.499404  0.498979  1
  La  La1  1  0.686557  0.895981  0.972082  1
  Nd  Nd2  1  0.309106  0.103943  0.028429  1
  Nd  Nd3  1  0.027434  0.312869  0.104160  1
  Nd  Nd4  1  0.109924  0.027919  0.323090  1
  Nd  Nd5  1  0.892289  0.972578  0.678085  1
  Nd  Nd6  1  0.971220  0.687074  0.895923  1
  Os  Os7  1  0.995963  0.998867  0.000451  1
  Br  Br8  1  0.686239  0.228506  0.072424  1
  Br  Br9  1  0.381913  0.457271  0.168471  1
  Br  Br10  1  0.069698  0.683908  0.218452  1
  Br  Br11  1  0.783688  0.931787  0.318589  1
  Br  Br12  1  0.458159  0.164623  0.379276  1
  Br  Br13  1  0.165466  0.380439  0.454779  1
  Br  Br14  1  0.836107  0.619791  0.545519  1
  Br  Br15  1  0.541828  0.833699  0.613571  1
  Br  Br16  1  0.221487  0.070302  0.688686  1
  Br  Br17  1  0.931333  0.316393  0.781842  1
  Br  Br18  1  0.617940  0.536517  0.827457  1
  Br  Br19  1  0.313133  0.778132  0.929737  1
