# generated using pymatgen
data_Ba6In2(WO6)3
_symmetry_space_group_name_H-M   'P 1'
_cell_length_a   5.90555003
_cell_length_b   5.90555003
_cell_length_c   14.79882257
_cell_angle_alpha   90.00000125
_cell_angle_beta   78.49065955
_cell_angle_gamma   120.00002071
_symmetry_Int_Tables_number   1
_chemical_formula_structural   Ba6In2(WO6)3
_chemical_formula_sum   'Ba6 In2 W3 O18'
_cell_volume   434.94531364
_cell_formula_units_Z   1
loop_
 _symmetry_equiv_pos_site_id
 _symmetry_equiv_pos_as_xyz
  1  'x, y, z'
loop_
 _atom_site_type_symbol
 _atom_site_label
 _atom_site_symmetry_multiplicity
 _atom_site_fract_x
 _atom_site_fract_y
 _atom_site_fract_z
 _atom_site_occupancy
  Ba  Ba0  1  0.272679  0.636339  0.090983  1
  Ba  Ba1  1  0.824797  0.912398  0.262805  1
  Ba  Ba2  1  0.374761  0.187381  0.437858  1
  Ba  Ba3  1  0.625238  0.812618  0.562143  1
  Ba  Ba4  1  0.175203  0.087602  0.737195  1
  Ba  Ba5  1  0.727321  0.363661  0.909017  1
  In  In6  1  0.551454  0.275727  0.172817  1
  In  In7  1  0.448546  0.724273  0.827182  1
  W  W8  1  0.000000  0.000000  0.000000  1
  W  W9  1  0.104887  0.552443  0.342670  1
  W  W10  1  0.895113  0.447557  0.657330  1
  O  O11  1  0.263275  0.131637  0.077787  1
  O  O12  1  0.790575  0.131638  0.077787  1
  O  O13  1  0.790576  0.658939  0.077787  1
  O  O14  1  0.321622  0.426608  0.251770  1
  O  O15  1  0.853217  0.426609  0.251770  1
  O  O16  1  0.321620  0.895013  0.251770  1
  O  O17  1  0.902486  0.213086  0.408115  1
  O  O18  1  0.902486  0.689398  0.408115  1
  O  O19  1  0.378798  0.689399  0.408115  1
  O  O20  1  0.097515  0.310600  0.591885  1
  O  O21  1  0.621202  0.310601  0.591885  1
  O  O22  1  0.097515  0.786913  0.591885  1
  O  O23  1  0.678378  0.104987  0.748230  1
  O  O24  1  0.146784  0.573390  0.748230  1
  O  O25  1  0.678379  0.573391  0.748230  1
  O  O26  1  0.209423  0.341060  0.922213  1
  O  O27  1  0.209423  0.868363  0.922213  1
  O  O28  1  0.736725  0.868363  0.922213  1
