# generated using pymatgen
data_CsNiMoF6
_symmetry_space_group_name_H-M   'P 1'
_cell_length_a   7.64172907
_cell_length_b   7.64172934
_cell_length_c   7.64172798
_cell_angle_alpha   119.06578976
_cell_angle_beta   120.87723056
_cell_angle_gamma   90.05650095
_symmetry_Int_Tables_number   1
_chemical_formula_structural   CsNiMoF6
_chemical_formula_sum   'Cs2 Ni2 Mo2 F12'
_cell_volume   315.58118964
_cell_formula_units_Z   2
loop_
 _symmetry_equiv_pos_site_id
 _symmetry_equiv_pos_as_xyz
  1  'x, y, z'
loop_
 _atom_site_type_symbol
 _atom_site_label
 _atom_site_symmetry_multiplicity
 _atom_site_fract_x
 _atom_site_fract_y
 _atom_site_fract_z
 _atom_site_occupancy
  Cs  Cs0  1  0.896647  0.646647  0.250000  1
  Cs  Cs1  1  0.103353  0.353353  0.750000  1
  Ni  Ni2  1  0.500000  0.000000  0.500000  1
  Ni  Ni3  1  0.000000  0.000000  0.000000  1
  Mo  Mo4  1  0.500000  0.000000  0.000000  1
  Mo  Mo5  1  0.500000  0.500000  0.500000  1
  F  F6  1  0.807311  0.057311  0.750000  1
  F  F7  1  0.418161  0.668161  0.750000  1
  F  F8  1  0.827953  0.681493  0.765609  1
  F  F9  1  0.415884  0.062344  0.734391  1
  F  F10  1  0.827953  0.062344  0.146460  1
  F  F11  1  0.415884  0.681493  0.353540  1
  F  F12  1  0.192689  0.942689  0.250000  1
  F  F13  1  0.581839  0.331839  0.250000  1
  F  F14  1  0.172047  0.318507  0.234391  1
  F  F15  1  0.584116  0.937656  0.265609  1
  F  F16  1  0.172047  0.937656  0.853540  1
  F  F17  1  0.584116  0.318507  0.646460  1
