# generated using pymatgen
data_TiV9S16
_symmetry_space_group_name_H-M   'P 1'
_cell_length_a   6.40374700
_cell_length_b   6.40374898
_cell_length_c   12.04504900
_cell_angle_alpha   90.00000000
_cell_angle_beta   90.00000000
_cell_angle_gamma   120.00000528
_symmetry_Int_Tables_number   1
_chemical_formula_structural   TiV9S16
_chemical_formula_sum   'Ti1 V9 S16'
_cell_volume   427.76736124
_cell_formula_units_Z   1
loop_
 _symmetry_equiv_pos_site_id
 _symmetry_equiv_pos_as_xyz
  1  'x, y, z'
loop_
 _atom_site_type_symbol
 _atom_site_label
 _atom_site_symmetry_multiplicity
 _atom_site_fract_x
 _atom_site_fract_y
 _atom_site_fract_z
 _atom_site_occupancy
  Ti  Ti0  1  0.000000  0.000000  0.000000  1
  V  V1  1  0.000000  0.000000  0.251045  1
  V  V2  1  0.000000  0.000000  0.748955  1
  V  V3  1  0.506220  0.012439  0.251828  1
  V  V4  1  0.493780  0.987561  0.748172  1
  V  V5  1  0.987561  0.493780  0.251828  1
  V  V6  1  0.012439  0.506220  0.748172  1
  V  V7  1  0.506220  0.493780  0.251828  1
  V  V8  1  0.493780  0.506220  0.748172  1
  V  V9  1  0.000000  0.000000  0.500000  1
  S  S10  1  0.333333  0.666667  0.623921  1
  S  S11  1  0.666667  0.333333  0.376079  1
  S  S12  1  0.666667  0.333333  0.127806  1
  S  S13  1  0.333333  0.666667  0.872194  1
  S  S14  1  0.167691  0.335382  0.129194  1
  S  S15  1  0.832309  0.664618  0.870806  1
  S  S16  1  0.664618  0.832309  0.129194  1
  S  S17  1  0.833477  0.666955  0.627648  1
  S  S18  1  0.335382  0.167691  0.870806  1
  S  S19  1  0.166523  0.333045  0.372352  1
  S  S20  1  0.167691  0.832309  0.129194  1
  S  S21  1  0.333045  0.166523  0.627648  1
  S  S22  1  0.832309  0.167691  0.870806  1
  S  S23  1  0.666955  0.833477  0.372352  1
  S  S24  1  0.833477  0.166523  0.627648  1
  S  S25  1  0.166523  0.833477  0.372352  1
