# generated using pymatgen
data_Tb4YbEr2IrI12
_symmetry_space_group_name_H-M   'P 1'
_cell_length_a   9.83026002
_cell_length_b   9.83800894
_cell_length_c   9.78588567
_cell_angle_alpha   106.95442155
_cell_angle_beta   107.12241191
_cell_angle_gamma   106.90038352
_symmetry_Int_Tables_number   1
_chemical_formula_structural   Tb4YbEr2IrI12
_chemical_formula_sum   'Tb4 Yb1 Er2 Ir1 I12'
_cell_volume   788.32739775
_cell_formula_units_Z   1
loop_
 _symmetry_equiv_pos_site_id
 _symmetry_equiv_pos_as_xyz
  1  'x, y, z'
loop_
 _atom_site_type_symbol
 _atom_site_label
 _atom_site_symmetry_multiplicity
 _atom_site_fract_x
 _atom_site_fract_y
 _atom_site_fract_z
 _atom_site_occupancy
  Tb  Tb0  1  0.093619  0.023067  0.293008  1
  Tb  Tb1  1  0.303294  0.097580  0.023974  1
  Tb  Tb2  1  0.025003  0.303246  0.097436  1
  Tb  Tb3  1  0.904657  0.976194  0.706172  1
  Yb  Yb4  1  0.499948  0.499792  0.500153  1
  Er  Er5  1  0.700804  0.901884  0.975330  1
  Er  Er6  1  0.974396  0.701050  0.903704  1
  Ir  Ir7  1  0.999706  0.999844  0.999608  1
  I  I8  1  0.071388  0.678721  0.222861  1
  I  I9  1  0.222671  0.070798  0.677569  1
  I  I10  1  0.677082  0.220805  0.070772  1
  I  I11  1  0.927878  0.322947  0.774700  1
  I  I12  1  0.774866  0.928075  0.319546  1
  I  I13  1  0.322090  0.774472  0.928094  1
  I  I14  1  0.456766  0.152182  0.380420  1
  I  I15  1  0.380625  0.458771  0.152387  1
  I  I16  1  0.152647  0.379033  0.458101  1
  I  I17  1  0.542638  0.847491  0.622247  1
  I  I18  1  0.621510  0.543512  0.849176  1
  I  I19  1  0.848411  0.620534  0.544742  1
