# generated using pymatgen
data_LaNd(Al2Cu3)2
_symmetry_space_group_name_H-M   'P 1'
_cell_length_a   4.23414900
_cell_length_b   5.18725220
_cell_length_c   9.21734600
_cell_angle_alpha   91.99438005
_cell_angle_beta   90.00000000
_cell_angle_gamma   90.00000000
_symmetry_Int_Tables_number   1
_chemical_formula_structural   LaNd(Al2Cu3)2
_chemical_formula_sum   'La1 Nd1 Al4 Cu6'
_cell_volume   202.32345619
_cell_formula_units_Z   1
loop_
 _symmetry_equiv_pos_site_id
 _symmetry_equiv_pos_as_xyz
  1  'x, y, z'
loop_
 _atom_site_type_symbol
 _atom_site_label
 _atom_site_symmetry_multiplicity
 _atom_site_fract_x
 _atom_site_fract_y
 _atom_site_fract_z
 _atom_site_occupancy
  La  La0  1  0.000000  0.999907  0.999882  1
  Nd  Nd1  1  0.000000  0.500095  0.500094  1
  Al  Al2  1  0.500000  0.000101  0.499974  1
  Al  Al3  1  0.500000  0.499874  0.000004  1
  Al  Al4  1  0.500000  0.251970  0.250968  1
  Al  Al5  1  0.500000  0.747980  0.749000  1
  Cu  Cu6  1  0.000000  0.994115  0.332507  1
  Cu  Cu7  1  0.000000  0.493411  0.829497  1
  Cu  Cu8  1  0.000000  0.506574  0.170729  1
  Cu  Cu9  1  0.000000  0.005855  0.667377  1
  Cu  Cu10  1  0.500000  0.749960  0.250936  1
  Cu  Cu11  1  0.500000  0.249958  0.749033  1
