# generated using pymatgen
data_Tb3Dy9In2(CoOs)2
_symmetry_space_group_name_H-M   'P 1'
_cell_length_a   8.44410861
_cell_length_b   8.44389719
_cell_length_c   8.44389704
_cell_angle_alpha   112.95037675
_cell_angle_beta   110.04419158
_cell_angle_gamma   105.50402952
_symmetry_Int_Tables_number   1
_chemical_formula_structural   Tb3Dy9In2(CoOs)2
_chemical_formula_sum   'Tb3 Dy9 In2 Co2 Os2'
_cell_volume   461.49974037
_cell_formula_units_Z   1
loop_
 _symmetry_equiv_pos_site_id
 _symmetry_equiv_pos_as_xyz
  1  'x, y, z'
loop_
 _atom_site_type_symbol
 _atom_site_label
 _atom_site_symmetry_multiplicity
 _atom_site_fract_x
 _atom_site_fract_y
 _atom_site_fract_z
 _atom_site_occupancy
  Tb  Tb0  1  0.442410  0.241797  0.200615  1
  Tb  Tb1  1  0.557600  0.758203  0.799396  1
  Tb  Tb2  1  0.041179  0.241800  0.799380  1
  Dy  Dy3  1  0.958861  0.758229  0.200631  1
  Dy  Dy4  1  0.183533  0.284264  0.467812  1
  Dy  Dy5  1  0.816467  0.715716  0.532159  1
  Dy  Dy6  1  0.183533  0.715722  0.899269  1
  Dy  Dy7  1  0.816467  0.284307  0.100751  1
  Dy  Dy8  1  0.324722  0.641310  0.316543  1
  Dy  Dy9  1  0.675264  0.358714  0.683471  1
  Dy  Dy10  1  0.324722  0.008179  0.683412  1
  Dy  Dy11  1  0.675264  0.991793  0.316550  1
  In  In12  1  0.500033  0.500019  0.000015  1
  In  In13  1  0.999995  0.999973  0.000022  1
  Co  Co14  1  0.110776  0.610799  0.499977  1
  Co  Co15  1  0.889213  0.389212  0.500002  1
  Os  Os16  1  0.330711  0.999966  0.330745  1
  Os  Os17  1  0.669250  0.999999  0.669250  1
