# generated using pymatgen
data_NdDyHo2(WO6)2
_symmetry_space_group_name_H-M   'P 1'
_cell_length_a   5.44031000
_cell_length_b   7.75338778
_cell_length_c   11.53434111
_cell_angle_alpha   75.53936509
_cell_angle_beta   90.00000000
_cell_angle_gamma   90.00000000
_symmetry_Int_Tables_number   1
_chemical_formula_structural   NdDyHo2(WO6)2
_chemical_formula_sum   'Nd2 Dy2 Ho4 W4 O24'
_cell_volume   471.11463138
_cell_formula_units_Z   2
loop_
 _symmetry_equiv_pos_site_id
 _symmetry_equiv_pos_as_xyz
  1  'x, y, z'
loop_
 _atom_site_type_symbol
 _atom_site_label
 _atom_site_symmetry_multiplicity
 _atom_site_fract_x
 _atom_site_fract_y
 _atom_site_fract_z
 _atom_site_occupancy
  Nd  Nd0  1  0.685357  0.500000  0.750000  1
  Nd  Nd1  1  0.314643  0.500000  0.250000  1
  Dy  Dy2  1  0.740432  0.000000  0.750000  1
  Dy  Dy3  1  0.259568  0.000000  0.250000  1
  Ho  Ho4  1  0.187944  0.798410  0.577089  1
  Ho  Ho5  1  0.812056  0.798410  0.077089  1
  Ho  Ho6  1  0.187944  0.201590  0.922911  1
  Ho  Ho7  1  0.812056  0.201590  0.422911  1
  W  W8  1  0.252793  0.726566  0.885152  1
  W  W9  1  0.747207  0.726566  0.385152  1
  W  W10  1  0.252793  0.273434  0.614848  1
  W  W11  1  0.747207  0.273434  0.114848  1
  O  O12  1  0.039985  0.941020  0.896096  1
  O  O13  1  0.529877  0.847977  0.931193  1
  O  O14  1  0.960015  0.941020  0.396096  1
  O  O15  1  0.456325  0.793455  0.727665  1
  O  O16  1  0.470123  0.847977  0.431193  1
  O  O17  1  0.987080  0.718172  0.769605  1
  O  O18  1  0.543675  0.793455  0.227665  1
  O  O19  1  0.856957  0.640890  0.546103  1
  O  O20  1  0.351042  0.492382  0.888599  1
  O  O21  1  0.012920  0.718172  0.269605  1
  O  O22  1  0.351042  0.507618  0.611401  1
  O  O23  1  0.856957  0.359110  0.953897  1
  O  O24  1  0.143043  0.640890  0.046103  1
  O  O25  1  0.648958  0.492382  0.388599  1
  O  O26  1  0.987080  0.281828  0.730395  1
  O  O27  1  0.648958  0.507618  0.111401  1
  O  O28  1  0.143043  0.359110  0.453897  1
  O  O29  1  0.456325  0.206545  0.772335  1
  O  O30  1  0.012920  0.281828  0.230395  1
  O  O31  1  0.529877  0.152023  0.568807  1
  O  O32  1  0.543675  0.206545  0.272335  1
  O  O33  1  0.039985  0.058980  0.603904  1
  O  O34  1  0.470123  0.152023  0.068807  1
  O  O35  1  0.960015  0.058980  0.103904  1
