# generated using pymatgen
data_TbHo5(Co3P2)6
_symmetry_space_group_name_H-M   'P 1'
_cell_length_a   3.70201500
_cell_length_b   10.52463300
_cell_length_c   12.17882200
_cell_angle_alpha   90.00000000
_cell_angle_beta   90.00000000
_cell_angle_gamma   90.00000000
_symmetry_Int_Tables_number   1
_chemical_formula_structural   TbHo5(Co3P2)6
_chemical_formula_sum   'Tb1 Ho5 Co18 P12'
_cell_volume   474.51551604
_cell_formula_units_Z   1
loop_
 _symmetry_equiv_pos_site_id
 _symmetry_equiv_pos_as_xyz
  1  'x, y, z'
loop_
 _atom_site_type_symbol
 _atom_site_label
 _atom_site_symmetry_multiplicity
 _atom_site_fract_x
 _atom_site_fract_y
 _atom_site_fract_z
 _atom_site_occupancy
  Tb  Tb0  1  0.000000  0.500000  0.522292  1
  Ho  Ho1  1  0.500000  0.000000  0.477811  1
  Ho  Ho2  1  0.500000  0.817498  0.205912  1
  Ho  Ho3  1  0.500000  0.182502  0.205912  1
  Ho  Ho4  1  0.000000  0.682647  0.794251  1
  Ho  Ho5  1  0.000000  0.317353  0.794251  1
  Co  Co6  1  0.000000  0.500000  0.986131  1
  Co  Co7  1  0.500000  0.000000  0.014009  1
  Co  Co8  1  0.500000  0.296709  0.430439  1
  Co  Co9  1  0.500000  0.703291  0.430439  1
  Co  Co10  1  0.000000  0.202106  0.569494  1
  Co  Co11  1  0.000000  0.797894  0.569494  1
  Co  Co12  1  0.500000  0.879318  0.709769  1
  Co  Co13  1  0.500000  0.120682  0.709769  1
  Co  Co14  1  0.000000  0.620991  0.290070  1
  Co  Co15  1  0.000000  0.379009  0.290070  1
  Co  Co16  1  0.500000  0.333351  0.994663  1
  Co  Co17  1  0.500000  0.666649  0.994663  1
  Co  Co18  1  0.000000  0.166515  0.005317  1
  Co  Co19  1  0.000000  0.833485  0.005317  1
  Co  Co20  1  0.500000  0.500000  0.158441  1
  Co  Co21  1  0.000000  0.000000  0.841166  1
  Co  Co22  1  0.500000  0.500000  0.703790  1
  Co  Co23  1  0.000000  0.000000  0.296808  1
  P  P24  1  0.500000  0.309949  0.616319  1
  P  P25  1  0.500000  0.690051  0.616319  1
  P  P26  1  0.000000  0.189176  0.383936  1
  P  P27  1  0.000000  0.810824  0.383936  1
  P  P28  1  0.500000  0.500000  0.882863  1
  P  P29  1  0.000000  0.000000  0.117381  1
  P  P30  1  0.500000  0.847486  0.893105  1
  P  P31  1  0.500000  0.152514  0.893105  1
  P  P32  1  0.000000  0.652772  0.106794  1
  P  P33  1  0.000000  0.347228  0.106794  1
  P  P34  1  0.500000  0.500000  0.343212  1
  P  P35  1  0.000000  0.000000  0.655959  1
