# generated using pymatgen
data_Ca2TbDy2AgPb3
_symmetry_space_group_name_H-M   'P 1'
_cell_length_a   9.35387802
_cell_length_b   9.35387677
_cell_length_c   6.84622600
_cell_angle_alpha   90.00000000
_cell_angle_beta   90.00000000
_cell_angle_gamma   119.99618892
_symmetry_Int_Tables_number   1
_chemical_formula_structural   Ca2TbDy2AgPb3
_chemical_formula_sum   'Ca4 Tb2 Dy4 Ag2 Pb6'
_cell_volume   518.77840119
_cell_formula_units_Z   2
loop_
 _symmetry_equiv_pos_site_id
 _symmetry_equiv_pos_as_xyz
  1  'x, y, z'
loop_
 _atom_site_type_symbol
 _atom_site_label
 _atom_site_symmetry_multiplicity
 _atom_site_fract_x
 _atom_site_fract_y
 _atom_site_fract_z
 _atom_site_occupancy
  Ca  Ca0  1  0.666675  0.333339  0.499977  1
  Ca  Ca1  1  0.333339  0.666675  0.499977  1
  Ca  Ca2  1  0.333339  0.666675  0.000023  1
  Ca  Ca3  1  0.666675  0.333339  0.000023  1
  Tb  Tb4  1  0.729559  0.000061  0.750000  1
  Tb  Tb5  1  0.000061  0.729559  0.750000  1
  Dy  Dy6  1  0.729593  0.729593  0.250000  1
  Dy  Dy7  1  0.270350  0.000031  0.250000  1
  Dy  Dy8  1  0.000031  0.270350  0.250000  1
  Dy  Dy9  1  0.270404  0.270404  0.750000  1
  Ag  Ag10  1  0.999977  0.999977  0.500064  1
  Ag  Ag11  1  0.999977  0.999977  0.999936  1
  Pb  Pb12  1  0.379547  0.379547  0.250000  1
  Pb  Pb13  1  0.620462  0.000005  0.250000  1
  Pb  Pb14  1  0.000005  0.620462  0.250000  1
  Pb  Pb15  1  0.620409  0.620409  0.750000  1
  Pb  Pb16  1  0.379527  0.000070  0.750000  1
  Pb  Pb17  1  0.000070  0.379527  0.750000  1
