# generated using pymatgen
data_Yb5Ir(OsO6)3
_symmetry_space_group_name_H-M   'P 1'
_cell_length_a   8.86531489
_cell_length_b   8.86531488
_cell_length_c   5.19107466
_cell_angle_alpha   92.22248722
_cell_angle_beta   87.77751596
_cell_angle_gamma   120.07377712
_symmetry_Int_Tables_number   1
_chemical_formula_structural   Yb5Ir(OsO6)3
_chemical_formula_sum   'Yb5 Ir1 Os3 O18'
_cell_volume   352.70966411
_cell_formula_units_Z   1
loop_
 _symmetry_equiv_pos_site_id
 _symmetry_equiv_pos_as_xyz
  1  'x, y, z'
loop_
 _atom_site_type_symbol
 _atom_site_label
 _atom_site_symmetry_multiplicity
 _atom_site_fract_x
 _atom_site_fract_y
 _atom_site_fract_z
 _atom_site_occupancy
  Yb  Yb0  1  0.008839  0.267334  0.489874  1
  Yb  Yb1  1  0.267334  0.008839  0.510126  1
  Yb  Yb2  1  0.386553  0.386553  0.000000  1
  Yb  Yb3  1  0.979458  0.605325  0.013673  1
  Yb  Yb4  1  0.605325  0.979458  0.986327  1
  Ir  Ir5  1  0.700058  0.700058  0.500000  1
  Os  Os6  1  0.671602  0.325871  0.505830  1
  Os  Os7  1  0.325871  0.671602  0.494170  1
  Os  Os8  1  0.000533  0.000533  0.000000  1
  O  O9  1  0.768426  0.244969  0.734420  1
  O  O10  1  0.777434  0.557397  0.683488  1
  O  O11  1  0.475267  0.244617  0.723504  1
  O  O12  1  0.557397  0.777434  0.316512  1
  O  O13  1  0.244617  0.475267  0.276496  1
  O  O14  1  0.244969  0.768426  0.265580  1
  O  O15  1  0.606672  0.473193  0.305732  1
  O  O16  1  0.540006  0.144943  0.283154  1
  O  O17  1  0.870883  0.393850  0.299681  1
  O  O18  1  0.074595  0.864533  0.830453  1
  O  O19  1  0.132797  0.184672  0.775891  1
  O  O20  1  0.798325  0.901849  0.751746  1
  O  O21  1  0.184672  0.132797  0.224109  1
  O  O22  1  0.901849  0.798325  0.248254  1
  O  O23  1  0.864533  0.074595  0.169547  1
  O  O24  1  0.473193  0.606672  0.694268  1
  O  O25  1  0.393850  0.870883  0.700319  1
  O  O26  1  0.144943  0.540006  0.716846  1
