# generated using pymatgen
data_Sr4Er2SbRuO12
_symmetry_space_group_name_H-M   'P 1'
_cell_length_a   5.81760523
_cell_length_b   5.87100320
_cell_length_c   8.25273412
_cell_angle_alpha   90.14652093
_cell_angle_beta   90.27675153
_cell_angle_gamma   90.04346585
_symmetry_Int_Tables_number   1
_chemical_formula_structural   Sr4Er2SbRuO12
_chemical_formula_sum   'Sr4 Er2 Sb1 Ru1 O12'
_cell_volume   281.86931687
_cell_formula_units_Z   1
loop_
 _symmetry_equiv_pos_site_id
 _symmetry_equiv_pos_as_xyz
  1  'x, y, z'
loop_
 _atom_site_type_symbol
 _atom_site_label
 _atom_site_symmetry_multiplicity
 _atom_site_fract_x
 _atom_site_fract_y
 _atom_site_fract_z
 _atom_site_occupancy
  Sr  Sr0  1  0.007654  0.031461  0.254638  1
  Sr  Sr1  1  0.491984  0.536506  0.255196  1
  Sr  Sr2  1  0.508016  0.463494  0.744803  1
  Sr  Sr3  1  0.992346  0.968539  0.745361  1
  Er  Er4  1  0.500000  0.000000  0.000000  1
  Er  Er5  1  0.999999  0.500000  0.500000  1
  Sb  Sb6  1  0.000000  0.500000  0.000000  1
  Ru  Ru7  1  0.500001  0.000000  0.500000  1
  O  O8  1  0.274008  0.298789  0.040847  1
  O  O9  1  0.198112  0.775661  0.043182  1
  O  O10  1  0.923033  0.480923  0.237541  1
  O  O11  1  0.571526  0.981700  0.265093  1
  O  O12  1  0.299712  0.270662  0.462447  1
  O  O13  1  0.229935  0.797356  0.463989  1
  O  O14  1  0.770065  0.202644  0.536011  1
  O  O15  1  0.700288  0.729339  0.537552  1
  O  O16  1  0.428474  0.018300  0.734907  1
  O  O17  1  0.076967  0.519077  0.762459  1
  O  O18  1  0.801888  0.224340  0.956818  1
  O  O19  1  0.725991  0.701211  0.959153  1
