# generated using pymatgen
data_Tb2SnAs4(PRh6)2
_symmetry_space_group_name_H-M   'P 1'
_cell_length_a   3.94014742
_cell_length_b   10.05012894
_cell_length_c   9.84564456
_cell_angle_alpha   119.61745339
_cell_angle_beta   90.15208171
_cell_angle_gamma   89.20941732
_symmetry_Int_Tables_number   1
_chemical_formula_structural   Tb2SnAs4(PRh6)2
_chemical_formula_sum   'Tb2 Sn1 As4 P2 Rh12'
_cell_volume   338.90174327
_cell_formula_units_Z   1
loop_
 _symmetry_equiv_pos_site_id
 _symmetry_equiv_pos_as_xyz
  1  'x, y, z'
loop_
 _atom_site_type_symbol
 _atom_site_label
 _atom_site_symmetry_multiplicity
 _atom_site_fract_x
 _atom_site_fract_y
 _atom_site_fract_z
 _atom_site_occupancy
  Tb  Tb0  1  0.239711  0.668473  0.339819  1
  Tb  Tb1  1  0.754804  0.335445  0.666475  1
  Sn  Sn2  1  0.554477  0.998253  0.998034  1
  As  As3  1  0.736263  0.885973  0.602829  1
  As  As4  1  0.750226  0.408979  0.286310  1
  As  As5  1  0.741181  0.711200  0.120676  1
  As  As6  1  0.259840  0.116173  0.404184  1
  P  P7  1  0.242670  0.591519  0.709568  1
  P  P8  1  0.256407  0.289756  0.880581  1
  Rh  Rh9  1  0.765269  0.140332  0.847805  1
  Rh  Rh10  1  0.767012  0.166584  0.285178  1
  Rh  Rh11  1  0.742322  0.706654  0.868026  1
  Rh  Rh12  1  0.233640  0.871265  0.150455  1
  Rh  Rh13  1  0.225992  0.831917  0.726338  1
  Rh  Rh14  1  0.249962  0.277040  0.111835  1
  Rh  Rh15  1  0.738169  0.613761  0.554990  1
  Rh  Rh16  1  0.744173  0.448054  0.058079  1
  Rh  Rh17  1  0.748126  0.937255  0.386695  1
  Rh  Rh18  1  0.251877  0.391008  0.455647  1
  Rh  Rh19  1  0.245396  0.539224  0.921717  1
  Rh  Rh20  1  0.252481  0.071133  0.624759  1
