# generated using pymatgen
data_TiPb2(SeO3)4
_symmetry_space_group_name_H-M   'P 1'
_cell_length_a   6.92156700
_cell_length_b   9.28521994
_cell_length_c   9.67189733
_cell_angle_alpha   83.77643535
_cell_angle_beta   90.00000000
_cell_angle_gamma   90.00000000
_symmetry_Int_Tables_number   1
_chemical_formula_structural   TiPb2(SeO3)4
_chemical_formula_sum   'Ti2 Pb4 Se8 O24'
_cell_volume   617.93272765
_cell_formula_units_Z   2
loop_
 _symmetry_equiv_pos_site_id
 _symmetry_equiv_pos_as_xyz
  1  'x, y, z'
loop_
 _atom_site_type_symbol
 _atom_site_label
 _atom_site_symmetry_multiplicity
 _atom_site_fract_x
 _atom_site_fract_y
 _atom_site_fract_z
 _atom_site_occupancy
  Ti  Ti0  1  0.000000  0.000000  0.500000  1
  Ti  Ti1  1  0.500000  0.000000  0.000000  1
  Pb  Pb2  1  0.248526  0.538406  0.598225  1
  Pb  Pb3  1  0.748526  0.461594  0.901775  1
  Pb  Pb4  1  0.751474  0.461594  0.401775  1
  Pb  Pb5  1  0.251474  0.538406  0.098225  1
  Se  Se6  1  0.191126  0.837793  0.792196  1
  Se  Se7  1  0.691126  0.162207  0.707804  1
  Se  Se8  1  0.808874  0.162207  0.207804  1
  Se  Se9  1  0.308874  0.837793  0.292196  1
  Se  Se10  1  0.190222  0.244937  0.867906  1
  Se  Se11  1  0.690222  0.755063  0.632094  1
  Se  Se12  1  0.809778  0.755063  0.132094  1
  Se  Se13  1  0.309778  0.244937  0.367906  1
  O  O14  1  0.376801  0.960452  0.828071  1
  O  O15  1  0.876801  0.039548  0.671929  1
  O  O16  1  0.623199  0.039548  0.171929  1
  O  O17  1  0.123199  0.960452  0.328071  1
  O  O18  1  0.191029  0.870722  0.610505  1
  O  O19  1  0.691029  0.129278  0.889495  1
  O  O20  1  0.808971  0.129278  0.389495  1
  O  O21  1  0.308971  0.870722  0.110505  1
  O  O22  1  0.307702  0.675669  0.812121  1
  O  O23  1  0.807702  0.324331  0.687879  1
  O  O24  1  0.692298  0.324331  0.187879  1
  O  O25  1  0.192298  0.675669  0.312121  1
  O  O26  1  0.360051  0.351529  0.776281  1
  O  O27  1  0.860051  0.648471  0.723719  1
  O  O28  1  0.639949  0.648471  0.223719  1
  O  O29  1  0.139949  0.351529  0.276281  1
  O  O30  1  0.063874  0.374820  0.950308  1
  O  O31  1  0.563874  0.625180  0.549692  1
  O  O32  1  0.936126  0.625180  0.049692  1
  O  O33  1  0.436126  0.374820  0.450308  1
  O  O34  1  0.328813  0.172109  0.009321  1
  O  O35  1  0.828813  0.827891  0.490679  1
  O  O36  1  0.671187  0.827891  0.990679  1
  O  O37  1  0.171187  0.172109  0.509321  1
