# generated using pymatgen
data_Yb2Zn9Pd
_symmetry_space_group_name_H-M   'P 1'
_cell_length_a   6.88989603
_cell_length_b   6.88989636
_cell_length_c   6.88666164
_cell_angle_alpha   135.51698102
_cell_angle_beta   103.92082765
_cell_angle_gamma   92.65998292
_symmetry_Int_Tables_number   1
_chemical_formula_structural   Yb2Zn9Pd
_chemical_formula_sum   'Yb2 Zn9 Pd1'
_cell_volume   210.60317194
_cell_formula_units_Z   1
loop_
 _symmetry_equiv_pos_site_id
 _symmetry_equiv_pos_as_xyz
  1  'x, y, z'
loop_
 _atom_site_type_symbol
 _atom_site_label
 _atom_site_symmetry_multiplicity
 _atom_site_fract_x
 _atom_site_fract_y
 _atom_site_fract_z
 _atom_site_occupancy
  Yb  Yb0  1  0.763556  0.494126  0.757682  1
  Yb  Yb1  1  0.236444  0.505874  0.242318  1
  Zn  Zn2  1  0.082389  0.839099  0.756540  1
  Zn  Zn3  1  0.417443  0.174152  0.756540  1
  Zn  Zn4  1  0.582557  0.825848  0.243460  1
  Zn  Zn5  1  0.917611  0.160901  0.243460  1
  Zn  Zn6  1  0.500000  0.000000  0.000000  1
  Zn  Zn7  1  0.748255  0.000088  0.747296  1
  Zn  Zn8  1  0.752792  0.500958  0.252704  1
  Zn  Zn9  1  0.247208  0.499042  0.747296  1
  Zn  Zn10  1  0.251745  0.999912  0.252704  1
  Pd  Pd11  1  0.000000  0.000000  0.500000  1
