# generated using pymatgen
data_MnV4Fe(CoP2)2
_symmetry_space_group_name_H-M   'P 1'
_cell_length_a   3.48753500
_cell_length_b   5.88928806
_cell_length_c   6.72497258
_cell_angle_alpha   90.06719580
_cell_angle_beta   90.00000000
_cell_angle_gamma   90.00000000
_symmetry_Int_Tables_number   1
_chemical_formula_structural   MnV4Fe(CoP2)2
_chemical_formula_sum   'Mn1 V4 Fe1 Co2 P4'
_cell_volume   138.12477745
_cell_formula_units_Z   1
loop_
 _symmetry_equiv_pos_site_id
 _symmetry_equiv_pos_as_xyz
  1  'x, y, z'
loop_
 _atom_site_type_symbol
 _atom_site_label
 _atom_site_symmetry_multiplicity
 _atom_site_fract_x
 _atom_site_fract_y
 _atom_site_fract_z
 _atom_site_occupancy
  Mn  Mn0  1  0.750000  0.358022  0.060946  1
  V  V1  1  0.750000  0.471981  0.674257  1
  V  V2  1  0.750000  0.973745  0.829601  1
  V  V3  1  0.250000  0.523169  0.327508  1
  V  V4  1  0.250000  0.031166  0.170801  1
  Fe  Fe5  1  0.250000  0.141225  0.560880  1
  Co  Co6  1  0.750000  0.856251  0.438391  1
  Co  Co7  1  0.250000  0.644934  0.937579  1
  P  P8  1  0.750000  0.732731  0.125670  1
  P  P9  1  0.750000  0.232361  0.376694  1
  P  P10  1  0.250000  0.266201  0.872851  1
  P  P11  1  0.250000  0.768214  0.624823  1
