# generated using pymatgen
data_Dy3Er9Ga2(TcNi)2
_symmetry_space_group_name_H-M   'P 1'
_cell_length_a   8.31886439
_cell_length_b   8.31844949
_cell_length_c   8.31844958
_cell_angle_alpha   113.17247718
_cell_angle_beta   111.17985618
_cell_angle_gamma   104.19204563
_symmetry_Int_Tables_number   1
_chemical_formula_structural   Dy3Er9Ga2(TcNi)2
_chemical_formula_sum   'Dy3 Er9 Ga2 Tc2 Ni2'
_cell_volume   440.20241840
_cell_formula_units_Z   1
loop_
 _symmetry_equiv_pos_site_id
 _symmetry_equiv_pos_as_xyz
  1  'x, y, z'
loop_
 _atom_site_type_symbol
 _atom_site_label
 _atom_site_symmetry_multiplicity
 _atom_site_fract_x
 _atom_site_fract_y
 _atom_site_fract_z
 _atom_site_occupancy
  Dy  Dy0  1  0.054372  0.744788  0.309584  1
  Dy  Dy1  1  0.946377  0.256018  0.690359  1
  Dy  Dy2  1  0.565588  0.255918  0.309669  1
  Er  Er3  1  0.435476  0.744085  0.691392  1
  Er  Er4  1  0.666271  0.850337  0.183044  1
  Er  Er5  1  0.333015  0.516733  0.184206  1
  Er  Er6  1  0.333015  0.148808  0.816282  1
  Er  Er7  1  0.666271  0.483227  0.815935  1
  Er  Er8  1  0.179241  0.219436  0.398038  1
  Er  Er9  1  0.820143  0.218172  0.038772  1
  Er  Er10  1  0.179241  0.781203  0.959805  1
  Er  Er11  1  0.820143  0.781371  0.601970  1
  Ga  Ga12  1  0.001794  0.501580  0.500214  1
  Ga  Ga13  1  0.500196  0.999410  0.500786  1
  Tc  Tc14  1  0.680230  0.500075  0.180156  1
  Tc  Tc15  1  0.319840  0.500144  0.819696  1
  Ni  Ni16  1  0.881836  0.882209  0.999627  1
  Ni  Ni17  1  0.116950  0.116485  0.000466  1
