# generated using pymatgen
data_Tm3Hf5(NiP)12
_symmetry_space_group_name_H-M   'P 1'
_cell_length_a   3.68757000
_cell_length_b   10.10543720
_cell_length_c   12.23794210
_cell_angle_alpha   90.02212104
_cell_angle_beta   90.00000000
_cell_angle_gamma   90.00000000
_symmetry_Int_Tables_number   1
_chemical_formula_structural   Tm3Hf5(NiP)12
_chemical_formula_sum   'Tm3 Hf5 Ni12 P12'
_cell_volume   456.04084601
_cell_formula_units_Z   1
loop_
 _symmetry_equiv_pos_site_id
 _symmetry_equiv_pos_as_xyz
  1  'x, y, z'
loop_
 _atom_site_type_symbol
 _atom_site_label
 _atom_site_symmetry_multiplicity
 _atom_site_fract_x
 _atom_site_fract_y
 _atom_site_fract_z
 _atom_site_occupancy
  Tm  Tm0  1  0.250000  0.071645  0.207626  1
  Tm  Tm1  1  0.750000  0.928618  0.792898  1
  Tm  Tm2  1  0.750000  0.571809  0.292203  1
  Hf  Hf3  1  0.250000  0.425844  0.707784  1
  Hf  Hf4  1  0.250000  0.162551  0.498420  1
  Hf  Hf5  1  0.750000  0.838948  0.503953  1
  Hf  Hf6  1  0.750000  0.660512  0.001702  1
  Hf  Hf7  1  0.250000  0.340414  0.994709  1
  Ni  Ni8  1  0.250000  0.725868  0.663927  1
  Ni  Ni9  1  0.750000  0.272191  0.335737  1
  Ni  Ni10  1  0.750000  0.227563  0.836978  1
  Ni  Ni11  1  0.250000  0.770991  0.164460  1
  Ni  Ni12  1  0.250000  0.366900  0.217651  1
  Ni  Ni13  1  0.750000  0.630936  0.780002  1
  Ni  Ni14  1  0.750000  0.866784  0.282095  1
  Ni  Ni15  1  0.250000  0.136865  0.718930  1
  Ni  Ni16  1  0.250000  0.596724  0.483576  1
  Ni  Ni17  1  0.750000  0.401566  0.518774  1
  Ni  Ni18  1  0.750000  0.099244  0.018440  1
  Ni  Ni19  1  0.250000  0.900380  0.982981  1
  P  P20  1  0.250000  0.946277  0.623780  1
  P  P21  1  0.750000  0.054921  0.378341  1
  P  P22  1  0.750000  0.444791  0.870702  1
  P  P23  1  0.250000  0.554339  0.121416  1
  P  P24  1  0.250000  0.394513  0.401007  1
  P  P25  1  0.750000  0.603009  0.598821  1
  P  P26  1  0.750000  0.894180  0.098212  1
  P  P27  1  0.250000  0.104973  0.903051  1
  P  P28  1  0.250000  0.769525  0.356182  1
  P  P29  1  0.750000  0.236285  0.647026  1
  P  P30  1  0.750000  0.270116  0.143623  1
  P  P31  1  0.250000  0.730717  0.854996  1
