# generated using pymatgen
data_La2Pr3Bi2Os
_symmetry_space_group_name_H-M   'P 1'
_cell_length_a   8.36682200
_cell_length_b   9.42712900
_cell_length_c   12.96741400
_cell_angle_alpha   90.00000000
_cell_angle_beta   90.00000000
_cell_angle_gamma   90.00000000
_symmetry_Int_Tables_number   1
_chemical_formula_structural   La2Pr3Bi2Os
_chemical_formula_sum   'La8 Pr12 Bi8 Os4'
_cell_volume   1022.80620974
_cell_formula_units_Z   4
loop_
 _symmetry_equiv_pos_site_id
 _symmetry_equiv_pos_as_xyz
  1  'x, y, z'
loop_
 _atom_site_type_symbol
 _atom_site_label
 _atom_site_symmetry_multiplicity
 _atom_site_fract_x
 _atom_site_fract_y
 _atom_site_fract_z
 _atom_site_occupancy
  La  La0  1  0.846766  0.750000  0.793863  1
  La  La1  1  0.153234  0.250000  0.206137  1
  La  La2  1  0.346766  0.250000  0.706137  1
  La  La3  1  0.653234  0.750000  0.293863  1
  La  La4  1  0.377578  0.750000  0.691337  1
  La  La5  1  0.622422  0.250000  0.308663  1
  La  La6  1  0.877578  0.250000  0.808663  1
  La  La7  1  0.122422  0.750000  0.191337  1
  Pr  Pr8  1  0.938944  0.750000  0.503023  1
  Pr  Pr9  1  0.061056  0.250000  0.496977  1
  Pr  Pr10  1  0.438944  0.250000  0.996977  1
  Pr  Pr11  1  0.561056  0.750000  0.003023  1
  Pr  Pr12  1  0.677162  0.039341  0.566965  1
  Pr  Pr13  1  0.322838  0.960659  0.433035  1
  Pr  Pr14  1  0.177162  0.960659  0.933035  1
  Pr  Pr15  1  0.322838  0.539341  0.433035  1
  Pr  Pr16  1  0.822838  0.039341  0.066965  1
  Pr  Pr17  1  0.677162  0.460659  0.566965  1
  Pr  Pr18  1  0.822838  0.460659  0.066965  1
  Pr  Pr19  1  0.177162  0.539341  0.933035  1
  Bi  Bi20  1  0.570499  0.493319  0.830374  1
  Bi  Bi21  1  0.429501  0.506681  0.169626  1
  Bi  Bi22  1  0.070499  0.506681  0.669626  1
  Bi  Bi23  1  0.429501  0.993319  0.169626  1
  Bi  Bi24  1  0.929501  0.493319  0.330374  1
  Bi  Bi25  1  0.570499  0.006681  0.830374  1
  Bi  Bi26  1  0.929501  0.006681  0.330374  1
  Bi  Bi27  1  0.070499  0.993319  0.669626  1
  Os  Os28  1  0.576184  0.750000  0.509514  1
  Os  Os29  1  0.423816  0.250000  0.490486  1
  Os  Os30  1  0.076184  0.250000  0.990486  1
  Os  Os31  1  0.923816  0.750000  0.009514  1
