# generated using pymatgen
data_Yb2CeDy(B4Ru)4
_symmetry_space_group_name_H-M   'P 1'
_cell_length_a   3.56857200
_cell_length_b   5.97288330
_cell_length_c   11.55506665
_cell_angle_alpha   89.95679917
_cell_angle_beta   90.00000000
_cell_angle_gamma   90.00000000
_symmetry_Int_Tables_number   1
_chemical_formula_structural   Yb2CeDy(B4Ru)4
_chemical_formula_sum   'Yb2 Ce1 Dy1 B16 Ru4'
_cell_volume   246.29229439
_cell_formula_units_Z   1
loop_
 _symmetry_equiv_pos_site_id
 _symmetry_equiv_pos_as_xyz
  1  'x, y, z'
loop_
 _atom_site_type_symbol
 _atom_site_label
 _atom_site_symmetry_multiplicity
 _atom_site_fract_x
 _atom_site_fract_y
 _atom_site_fract_z
 _atom_site_occupancy
  Yb  Yb0  1  0.000000  0.128042  0.647831  1
  Yb  Yb1  1  0.000000  0.872154  0.350777  1
  Ce  Ce2  1  0.000000  0.629126  0.848326  1
  Dy  Dy3  1  0.000000  0.371182  0.152229  1
  B  B4  1  0.500000  0.476230  0.689704  1
  B  B5  1  0.500000  0.524224  0.308771  1
  B  B6  1  0.500000  0.975496  0.808697  1
  B  B7  1  0.500000  0.024931  0.192751  1
  B  B8  1  0.500000  0.286362  0.814372  1
  B  B9  1  0.500000  0.713821  0.187054  1
  B  B10  1  0.500000  0.787275  0.683553  1
  B  B11  1  0.500000  0.211843  0.315624  1
  B  B12  1  0.500000  0.363647  0.969824  1
  B  B13  1  0.500000  0.636558  0.031774  1
  B  B14  1  0.500000  0.864143  0.530119  1
  B  B15  1  0.500000  0.135614  0.469063  1
  B  B16  1  0.500000  0.385946  0.545565  1
  B  B17  1  0.500000  0.612830  0.453218  1
  B  B18  1  0.500000  0.889869  0.954272  1
  B  B19  1  0.500000  0.111713  0.048172  1
  Ru  Ru20  1  0.000000  0.139955  0.907638  1
  Ru  Ru21  1  0.000000  0.859540  0.091280  1
  Ru  Ru22  1  0.000000  0.636595  0.589709  1
  Ru  Ru23  1  0.000000  0.362903  0.409676  1
