# generated using pymatgen
data_Ho2Al4Pt3
_symmetry_space_group_name_H-M   'P 1'
_cell_length_a   13.67876700
_cell_length_b   13.67876650
_cell_length_c   4.20661200
_cell_angle_alpha   90.00000000
_cell_angle_beta   90.00000000
_cell_angle_gamma   119.99999396
_symmetry_Int_Tables_number   1
_chemical_formula_structural   Ho2Al4Pt3
_chemical_formula_sum   'Ho8 Al16 Pt12'
_cell_volume   681.64303662
_cell_formula_units_Z   4
loop_
 _symmetry_equiv_pos_site_id
 _symmetry_equiv_pos_as_xyz
  1  'x, y, z'
loop_
 _atom_site_type_symbol
 _atom_site_label
 _atom_site_symmetry_multiplicity
 _atom_site_fract_x
 _atom_site_fract_y
 _atom_site_fract_z
 _atom_site_occupancy
  Ho  Ho0  1  0.181313  0.000000  0.500000  1
  Ho  Ho1  1  0.818687  0.818687  0.500000  1
  Ho  Ho2  1  0.000000  0.181313  0.500000  1
  Ho  Ho3  1  0.666667  0.333333  0.000000  1
  Ho  Ho4  1  0.333333  0.666667  0.000000  1
  Ho  Ho5  1  0.546540  0.000000  0.000000  1
  Ho  Ho6  1  0.453460  0.453460  0.000000  1
  Ho  Ho7  1  0.000000  0.546540  0.000000  1
  Al  Al8  1  0.469131  0.125699  0.500000  1
  Al  Al9  1  0.874301  0.343433  0.500000  1
  Al  Al10  1  0.656567  0.530869  0.500000  1
  Al  Al11  1  0.530869  0.656567  0.500000  1
  Al  Al12  1  0.343433  0.874301  0.500000  1
  Al  Al13  1  0.125699  0.469131  0.500000  1
  Al  Al14  1  0.379845  0.199411  0.000000  1
  Al  Al15  1  0.800589  0.180437  0.000000  1
  Al  Al16  1  0.819563  0.620155  0.000000  1
  Al  Al17  1  0.620155  0.819563  0.000000  1
  Al  Al18  1  0.000000  0.000000  0.000000  1
  Al  Al19  1  0.180437  0.800589  0.000000  1
  Al  Al20  1  0.720690  0.000000  0.500000  1
  Al  Al21  1  0.279310  0.279310  0.500000  1
  Al  Al22  1  0.000000  0.720690  0.500000  1
  Al  Al23  1  0.199411  0.379845  0.000000  1
  Pt  Pt24  1  0.000000  0.346694  0.000000  1
  Pt  Pt25  1  0.346694  0.000000  0.000000  1
  Pt  Pt26  1  0.487759  0.320411  0.500000  1
  Pt  Pt27  1  0.679589  0.167347  0.500000  1
  Pt  Pt28  1  0.832653  0.512241  0.500000  1
  Pt  Pt29  1  0.512241  0.832653  0.500000  1
  Pt  Pt30  1  0.167347  0.679589  0.500000  1
  Pt  Pt31  1  0.320411  0.487759  0.500000  1
  Pt  Pt32  1  0.000000  0.820466  0.000000  1
  Pt  Pt33  1  0.179534  0.179534  0.000000  1
  Pt  Pt34  1  0.820466  0.000000  0.000000  1
  Pt  Pt35  1  0.653306  0.653306  0.000000  1
