# generated using pymatgen
data_Er8Lu4ZnCdCo4
_symmetry_space_group_name_H-M   'P 1'
_cell_length_a   8.20567152
_cell_length_b   8.20567234
_cell_length_c   8.20567231
_cell_angle_alpha   111.85326919
_cell_angle_beta   110.23711462
_cell_angle_gamma   106.37143156
_symmetry_Int_Tables_number   1
_chemical_formula_structural   Er8Lu4ZnCdCo4
_chemical_formula_sum   'Er8 Lu4 Zn1 Cd1 Co4'
_cell_volume   424.30789964
_cell_formula_units_Z   1
loop_
 _symmetry_equiv_pos_site_id
 _symmetry_equiv_pos_as_xyz
  1  'x, y, z'
loop_
 _atom_site_type_symbol
 _atom_site_label
 _atom_site_symmetry_multiplicity
 _atom_site_fract_x
 _atom_site_fract_y
 _atom_site_fract_z
 _atom_site_occupancy
  Er  Er0  1  0.429509  0.227017  0.202491  1
  Er  Er1  1  0.570491  0.772983  0.797509  1
  Er  Er2  1  0.024527  0.227017  0.797509  1
  Er  Er3  1  0.975473  0.772983  0.202491  1
  Er  Er4  1  0.184538  0.286414  0.470953  1
  Er  Er5  1  0.815462  0.713586  0.529047  1
  Er  Er6  1  0.184538  0.713586  0.898126  1
  Er  Er7  1  0.815462  0.286414  0.101874  1
  Lu  Lu8  1  0.316727  0.622558  0.305829  1
  Lu  Lu9  1  0.683273  0.377442  0.694171  1
  Lu  Lu10  1  0.316727  0.010896  0.694171  1
  Lu  Lu11  1  0.683273  0.989104  0.305829  1
  Zn  Zn12  1  0.000000  0.000000  0.000000  1
  Cd  Cd13  1  0.500000  0.500000  0.000000  1
  Co  Co14  1  0.374415  0.000000  0.374415  1
  Co  Co15  1  0.625585  0.000000  0.625585  1
  Co  Co16  1  0.114424  0.614424  0.500000  1
  Co  Co17  1  0.885576  0.385576  0.500000  1
