# generated using pymatgen
data_Zn49Pd29
_symmetry_space_group_name_H-M   'P 1'
_cell_length_a   2.80596700
_cell_length_b   7.05316937
_cell_length_c   60.12659800
_cell_angle_alpha   93.36247848
_cell_angle_beta   90.00000000
_cell_angle_gamma   90.00000000
_symmetry_Int_Tables_number   1
_chemical_formula_structural   Zn49Pd29
_chemical_formula_sum   'Zn49 Pd29'
_cell_volume   1187.91454717
_cell_formula_units_Z   1
loop_
 _symmetry_equiv_pos_site_id
 _symmetry_equiv_pos_as_xyz
  1  'x, y, z'
loop_
 _atom_site_type_symbol
 _atom_site_label
 _atom_site_symmetry_multiplicity
 _atom_site_fract_x
 _atom_site_fract_y
 _atom_site_fract_z
 _atom_site_occupancy
  Zn  Zn0  1  0.000000  0.703741  0.137392  1
  Zn  Zn1  1  0.000000  0.454693  0.326107  1
  Zn  Zn2  1  0.000000  0.566348  0.862608  1
  Zn  Zn3  1  0.000000  0.268584  0.240843  1
  Zn  Zn4  1  0.000000  0.483745  0.280281  1
  Zn  Zn5  1  0.000000  0.255462  0.169419  1
  Zn  Zn6  1  0.000000  0.678217  0.067471  1
  Zn  Zn7  1  0.000000  0.711389  0.821698  1
  Zn  Zn8  1  0.000000  0.941484  0.551548  1
  Zn  Zn9  1  0.000000  0.491976  0.655071  1
  Zn  Zn10  1  0.000000  0.610746  0.932529  1
  Zn  Zn11  1  0.000000  0.197262  0.874599  1
  Zn  Zn12  1  0.000000  0.885169  0.225918  1
  Zn  Zn13  1  0.000000  0.086043  0.830581  1
  Zn  Zn14  1  0.000000  0.935874  0.103014  1
  Zn  Zn15  1  0.000000  0.578256  0.574959  1
  Zn  Zn16  1  0.000000  0.624123  0.413987  1
  Zn  Zn17  1  0.000000  0.322663  0.125401  1
  Zn  Zn18  1  0.000000  0.381136  0.000000  1
  Zn  Zn19  1  0.000000  0.389936  0.448452  1
  Zn  Zn20  1  0.000000  0.070135  0.310347  1
  Zn  Zn21  1  0.000000  0.027742  0.759157  1
  Zn  Zn22  1  0.000000  0.080112  0.381599  1
  Zn  Zn23  1  0.000000  0.203466  0.719719  1
  Zn  Zn24  1  0.000000  0.128587  0.673893  1
  Zn  Zn25  1  0.000000  0.832860  0.896986  1
  Zn  Zn26  1  0.000000  0.836905  0.344929  1
  Zn  Zn27  1  0.000000  0.210136  0.586013  1
  Zn  Zn28  1  0.000000  0.546248  0.525817  1
  Zn  Zn29  1  0.000000  0.698513  0.618401  1
  Zn  Zn30  1  0.000000  0.310746  0.076557  1
  Zn  Zn31  1  0.000000  0.003297  0.425041  1
  Zn  Zn32  1  0.000000  0.848441  0.271432  1
  Zn  Zn33  1  0.000000  0.445740  0.373164  1
  Zn  Zn34  1  0.000000  0.577009  0.728568  1
  Zn  Zn35  1  0.000000  0.020429  0.474183  1
  Zn  Zn36  1  0.000000  0.116138  0.965368  1
  Zn  Zn37  1  0.000000  0.659251  0.774082  1
  Zn  Zn38  1  0.000000  0.759788  0.689653  1
  Zn  Zn39  1  0.000000  0.293588  0.793465  1
  Zn  Zn40  1  0.000000  0.889690  0.178302  1
  Zn  Zn41  1  0.000000  0.652430  0.483484  1
  Zn  Zn42  1  0.000000  0.747302  0.975330  1
  Zn  Zn43  1  0.000000  0.072576  0.626836  1
  Zn  Zn44  1  0.000000  0.150770  0.034632  1
  Zn  Zn45  1  0.000000  0.500124  0.206535  1
  Zn  Zn46  1  0.000000  0.771973  0.024670  1
  Zn  Zn47  1  0.000000  0.234190  0.923443  1
  Zn  Zn48  1  0.000000  0.168946  0.516516  1
  Pd  Pd49  1  0.500000  0.890646  0.724592  1
  Pd  Pd50  1  0.500000  0.887046  0.588952  1
  Pd  Pd51  1  0.500000  0.938577  0.795124  1
  Pd  Pd52  1  0.500000  0.334746  0.485604  1
  Pd  Pd53  1  0.500000  0.435051  0.962729  1
  Pd  Pd54  1  0.500000  0.928913  0.933905  1
  Pd  Pd55  1  0.500000  0.166054  0.275408  1
  Pd  Pd56  1  0.500000  0.192657  0.346341  1
  Pd  Pd57  1  0.500000  0.363840  0.756419  1
  Pd  Pd58  1  0.500000  0.420843  0.692091  1
  Pd  Pd59  1  0.500000  0.143453  0.204876  1
  Pd  Pd60  1  0.500000  0.472322  0.037271  1
  Pd  Pd61  1  0.500000  0.007590  0.000000  1
  Pd  Pd62  1  0.500000  0.607421  0.243581  1
  Pd  Pd63  1  0.500000  0.728752  0.307909  1
  Pd  Pd64  1  0.500000  0.313721  0.551151  1
  Pd  Pd65  1  0.500000  0.762569  0.448849  1
  Pd  Pd66  1  0.500000  0.849141  0.514396  1
  Pd  Pd67  1  0.500000  0.401902  0.829650  1
  Pd  Pd68  1  0.500000  0.572252  0.170350  1
  Pd  Pd69  1  0.500000  0.891494  0.859624  1
  Pd  Pd70  1  0.500000  0.465447  0.897741  1
  Pd  Pd71  1  0.500000  0.995010  0.066095  1
  Pd  Pd72  1  0.500000  0.763458  0.381333  1
  Pd  Pd73  1  0.500000  0.382125  0.618667  1
  Pd  Pd74  1  0.500000  0.298094  0.411048  1
  Pd  Pd75  1  0.500000  0.567706  0.102259  1
  Pd  Pd76  1  0.500000  0.031870  0.140376  1
  Pd  Pd77  1  0.500000  0.846316  0.653659  1
