# generated using pymatgen
data_CaBi3Te10
_symmetry_space_group_name_H-M   'P 1'
_cell_length_a   24.05067100
_cell_length_b   24.05067050
_cell_length_c   3.18328900
_cell_angle_alpha   90.00000000
_cell_angle_beta   90.00000000
_cell_angle_gamma   166.42274554
_symmetry_Int_Tables_number   1
_chemical_formula_structural   CaBi3Te10
_chemical_formula_sum   'Ca1 Bi3 Te10'
_cell_volume   432.26254013
_cell_formula_units_Z   1
loop_
 _symmetry_equiv_pos_site_id
 _symmetry_equiv_pos_as_xyz
  1  'x, y, z'
loop_
 _atom_site_type_symbol
 _atom_site_label
 _atom_site_symmetry_multiplicity
 _atom_site_fract_x
 _atom_site_fract_y
 _atom_site_fract_z
 _atom_site_occupancy
  Ca  Ca0  1  0.104694  0.895306  0.750000  1
  Bi  Bi1  1  0.682017  0.317983  0.250000  1
  Bi  Bi2  1  0.319721  0.680279  0.750000  1
  Bi  Bi3  1  0.886848  0.113152  0.250000  1
  Te  Te4  1  0.618345  0.381655  0.250000  1
  Te  Te5  1  0.385352  0.614648  0.750000  1
  Te  Te6  1  0.821566  0.178434  0.250000  1
  Te  Te7  1  0.174514  0.825486  0.750000  1
  Te  Te8  1  0.955488  0.044512  0.750000  1
  Te  Te9  1  0.046576  0.953424  0.250000  1
  Te  Te10  1  0.544113  0.455887  0.750000  1
  Te  Te11  1  0.459923  0.540077  0.250000  1
  Te  Te12  1  0.748438  0.251562  0.750000  1
  Te  Te13  1  0.252407  0.747593  0.250000  1
