# generated using pymatgen
data_CeTm3CdIr
_symmetry_space_group_name_H-M   'P 1'
_cell_length_a   9.58534401
_cell_length_b   9.58534398
_cell_length_c   9.58534400
_cell_angle_alpha   60.00000682
_cell_angle_beta   60.00000695
_cell_angle_gamma   60.00000252
_symmetry_Int_Tables_number   1
_chemical_formula_structural   CeTm3CdIr
_chemical_formula_sum   'Ce4 Tm12 Cd4 Ir4'
_cell_volume   622.74201229
_cell_formula_units_Z   4
loop_
 _symmetry_equiv_pos_site_id
 _symmetry_equiv_pos_as_xyz
  1  'x, y, z'
loop_
 _atom_site_type_symbol
 _atom_site_label
 _atom_site_symmetry_multiplicity
 _atom_site_fract_x
 _atom_site_fract_y
 _atom_site_fract_z
 _atom_site_occupancy
  Ce  Ce0  1  0.600213  0.600213  0.600213  1
  Ce  Ce1  1  0.600213  0.600213  0.199361  1
  Ce  Ce2  1  0.600213  0.199361  0.600213  1
  Ce  Ce3  1  0.199361  0.600213  0.600213  1
  Tm  Tm4  1  0.062033  0.437967  0.437967  1
  Tm  Tm5  1  0.437967  0.062033  0.062033  1
  Tm  Tm6  1  0.437967  0.062033  0.437967  1
  Tm  Tm7  1  0.062033  0.437967  0.062033  1
  Tm  Tm8  1  0.437967  0.437967  0.062033  1
  Tm  Tm9  1  0.062033  0.062033  0.437967  1
  Tm  Tm10  1  0.186520  0.813480  0.813480  1
  Tm  Tm11  1  0.813480  0.186520  0.186520  1
  Tm  Tm12  1  0.813480  0.186520  0.813480  1
  Tm  Tm13  1  0.186520  0.813480  0.186520  1
  Tm  Tm14  1  0.813480  0.813480  0.186520  1
  Tm  Tm15  1  0.186520  0.186520  0.813480  1
  Cd  Cd16  1  0.832530  0.832530  0.832530  1
  Cd  Cd17  1  0.832530  0.832530  0.502408  1
  Cd  Cd18  1  0.832530  0.502408  0.832530  1
  Cd  Cd19  1  0.502408  0.832530  0.832530  1
  Ir  Ir20  1  0.392529  0.392529  0.392529  1
  Ir  Ir21  1  0.392529  0.392529  0.822412  1
  Ir  Ir22  1  0.392529  0.822412  0.392529  1
  Ir  Ir23  1  0.822412  0.392529  0.392529  1
