# generated using pymatgen
data_Th3In3Ni2Pt
_symmetry_space_group_name_H-M   'P 1'
_cell_length_a   7.51227200
_cell_length_b   7.51227253
_cell_length_c   4.12910800
_cell_angle_alpha   90.00000000
_cell_angle_beta   90.00000000
_cell_angle_gamma   119.99999768
_symmetry_Int_Tables_number   1
_chemical_formula_structural   Th3In3Ni2Pt
_chemical_formula_sum   'Th3 In3 Ni2 Pt1'
_cell_volume   201.80388515
_cell_formula_units_Z   1
loop_
 _symmetry_equiv_pos_site_id
 _symmetry_equiv_pos_as_xyz
  1  'x, y, z'
loop_
 _atom_site_type_symbol
 _atom_site_label
 _atom_site_symmetry_multiplicity
 _atom_site_fract_x
 _atom_site_fract_y
 _atom_site_fract_z
 _atom_site_occupancy
  Th  Th0  1  0.417775  0.005021  0.500000  1
  Th  Th1  1  0.994979  0.412754  0.500000  1
  Th  Th2  1  0.587246  0.582225  0.500000  1
  In  In3  1  0.760691  0.004974  0.000000  1
  In  In4  1  0.995026  0.755717  0.000000  1
  In  In5  1  0.244283  0.239309  0.000000  1
  Ni  Ni6  1  0.666667  0.333333  0.000000  1
  Ni  Ni7  1  0.000000  0.000000  0.500000  1
  Pt  Pt8  1  0.333333  0.666667  0.000000  1
