# generated using pymatgen
data_BaTmCr4N7
_symmetry_space_group_name_H-M   'P 1'
_cell_length_a   6.23401100
_cell_length_b   6.23401134
_cell_length_c   10.22163600
_cell_angle_alpha   90.00000000
_cell_angle_beta   90.00000000
_cell_angle_gamma   120.00000349
_symmetry_Int_Tables_number   1
_chemical_formula_structural   BaTmCr4N7
_chemical_formula_sum   'Ba2 Tm2 Cr8 N14'
_cell_volume   344.02197133
_cell_formula_units_Z   2
loop_
 _symmetry_equiv_pos_site_id
 _symmetry_equiv_pos_as_xyz
  1  'x, y, z'
loop_
 _atom_site_type_symbol
 _atom_site_label
 _atom_site_symmetry_multiplicity
 _atom_site_fract_x
 _atom_site_fract_y
 _atom_site_fract_z
 _atom_site_occupancy
  Ba  Ba0  1  0.333333  0.666667  0.363903  1
  Ba  Ba1  1  0.666667  0.333333  0.863903  1
  Tm  Tm2  1  0.333333  0.666667  0.736188  1
  Tm  Tm3  1  0.666667  0.333333  0.236188  1
  Cr  Cr4  1  0.829970  0.659939  0.548842  1
  Cr  Cr5  1  0.170030  0.829970  0.048842  1
  Cr  Cr6  1  0.659939  0.829970  0.048842  1
  Cr  Cr7  1  0.340061  0.170030  0.548842  1
  Cr  Cr8  1  0.829970  0.170030  0.548842  1
  Cr  Cr9  1  0.170030  0.340061  0.048842  1
  Cr  Cr10  1  0.000000  0.000000  0.808308  1
  Cr  Cr11  1  0.000000  0.000000  0.308308  1
  N  N12  1  0.000000  0.000000  0.618883  1
  N  N13  1  0.000000  0.000000  0.118883  1
  N  N14  1  0.158343  0.316685  0.869121  1
  N  N15  1  0.841657  0.158343  0.369121  1
  N  N16  1  0.316685  0.158343  0.369121  1
  N  N17  1  0.683315  0.841657  0.869121  1
  N  N18  1  0.158343  0.841657  0.869121  1
  N  N19  1  0.841657  0.683315  0.369121  1
  N  N20  1  0.984252  0.492127  0.604244  1
  N  N21  1  0.492127  0.984252  0.104244  1
  N  N22  1  0.492127  0.507873  0.104244  1
  N  N23  1  0.507873  0.492127  0.604244  1
  N  N24  1  0.015748  0.507873  0.104244  1
  N  N25  1  0.507873  0.015748  0.604244  1
