# generated using pymatgen
data_Lu10In5BiSe2
_symmetry_space_group_name_H-M   'P 1'
_cell_length_a   8.98467100
_cell_length_b   9.02253794
_cell_length_c   6.65371600
_cell_angle_alpha   90.00000000
_cell_angle_beta   90.00000000
_cell_angle_gamma   120.13951484
_symmetry_Int_Tables_number   1
_chemical_formula_structural   Lu10In5BiSe2
_chemical_formula_sum   'Lu10 In5 Bi1 Se2'
_cell_volume   466.45904505
_cell_formula_units_Z   1
loop_
 _symmetry_equiv_pos_site_id
 _symmetry_equiv_pos_as_xyz
  1  'x, y, z'
loop_
 _atom_site_type_symbol
 _atom_site_label
 _atom_site_symmetry_multiplicity
 _atom_site_fract_x
 _atom_site_fract_y
 _atom_site_fract_z
 _atom_site_occupancy
  Lu  Lu0  1  0.662538  0.334589  0.494724  1
  Lu  Lu1  1  0.337462  0.672051  0.494724  1
  Lu  Lu2  1  0.337462  0.672051  0.005276  1
  Lu  Lu3  1  0.662538  0.334589  0.005276  1
  Lu  Lu4  1  0.748694  0.746337  0.250000  1
  Lu  Lu5  1  0.251306  0.997643  0.250000  1
  Lu  Lu6  1  0.000000  0.253887  0.250000  1
  Lu  Lu7  1  0.255582  0.246001  0.750000  1
  Lu  Lu8  1  0.744418  0.990419  0.750000  1
  Lu  Lu9  1  0.000000  0.747857  0.750000  1
  In  In10  1  0.399295  0.402758  0.250000  1
  In  In11  1  0.600705  0.003463  0.250000  1
  In  In12  1  0.000000  0.602678  0.250000  1
  In  In13  1  0.598244  0.598038  0.750000  1
  In  In14  1  0.401756  0.999794  0.750000  1
  Bi  Bi15  1  0.000000  0.394651  0.750000  1
  Se  Se16  1  0.000000  0.001596  0.500836  1
  Se  Se17  1  0.000000  0.001596  0.999164  1
