# generated using pymatgen
data_NpUBe26
_symmetry_space_group_name_H-M   'P 1'
_cell_length_a   7.21199535
_cell_length_b   7.21199515
_cell_length_c   7.21199500
_cell_angle_alpha   59.99999608
_cell_angle_beta   59.99999703
_cell_angle_gamma   59.99999443
_symmetry_Int_Tables_number   1
_chemical_formula_structural   NpUBe26
_chemical_formula_sum   'Np1 U1 Be26'
_cell_volume   265.24746509
_cell_formula_units_Z   1
loop_
 _symmetry_equiv_pos_site_id
 _symmetry_equiv_pos_as_xyz
  1  'x, y, z'
loop_
 _atom_site_type_symbol
 _atom_site_label
 _atom_site_symmetry_multiplicity
 _atom_site_fract_x
 _atom_site_fract_y
 _atom_site_fract_z
 _atom_site_occupancy
  Np  Np0  1  0.000000  0.000000  0.000000  1
  U  U1  1  0.500000  0.500000  0.500000  1
  Be  Be2  1  0.540783  0.311088  0.958752  1
  Be  Be3  1  0.958752  0.189378  0.540783  1
  Be  Be4  1  0.311088  0.540783  0.189378  1
  Be  Be5  1  0.189378  0.958752  0.311088  1
  Be  Be6  1  0.041248  0.688912  0.459217  1
  Be  Be7  1  0.459217  0.810622  0.041248  1
  Be  Be8  1  0.688912  0.041248  0.810622  1
  Be  Be9  1  0.810622  0.459217  0.688912  1
  Be  Be10  1  0.958752  0.540783  0.311088  1
  Be  Be11  1  0.540783  0.958752  0.189378  1
  Be  Be12  1  0.189378  0.311088  0.540783  1
  Be  Be13  1  0.311088  0.189378  0.958752  1
  Be  Be14  1  0.459217  0.041248  0.688912  1
  Be  Be15  1  0.041248  0.459217  0.810622  1
  Be  Be16  1  0.810622  0.688912  0.041248  1
  Be  Be17  1  0.688912  0.810622  0.459217  1
  Be  Be18  1  0.311088  0.958752  0.540783  1
  Be  Be19  1  0.189378  0.540783  0.958752  1
  Be  Be20  1  0.540783  0.189378  0.311088  1
  Be  Be21  1  0.958752  0.311088  0.189378  1
  Be  Be22  1  0.688912  0.459217  0.041248  1
  Be  Be23  1  0.810622  0.041248  0.459217  1
  Be  Be24  1  0.041248  0.810622  0.688912  1
  Be  Be25  1  0.459217  0.688912  0.810622  1
  Be  Be26  1  0.250000  0.250000  0.250000  1
  Be  Be27  1  0.750000  0.750000  0.750000  1
