# generated using pymatgen
data_CaLa2Yb9Ru4
_symmetry_space_group_name_H-M   'P 1'
_cell_length_a   6.31267572
_cell_length_b   7.62006434
_cell_length_c   9.45448500
_cell_angle_alpha   90.00000000
_cell_angle_beta   90.00000000
_cell_angle_gamma   87.77730692
_symmetry_Int_Tables_number   1
_chemical_formula_structural   CaLa2Yb9Ru4
_chemical_formula_sum   'Ca1 La2 Yb9 Ru4'
_cell_volume   454.44687765
_cell_formula_units_Z   1
loop_
 _symmetry_equiv_pos_site_id
 _symmetry_equiv_pos_as_xyz
  1  'x, y, z'
loop_
 _atom_site_type_symbol
 _atom_site_label
 _atom_site_symmetry_multiplicity
 _atom_site_fract_x
 _atom_site_fract_y
 _atom_site_fract_z
 _atom_site_occupancy
  Ca  Ca0  1  0.131730  0.457537  0.750000  1
  La  La1  1  0.649310  0.050027  0.250000  1
  La  La2  1  0.355379  0.950129  0.750000  1
  Yb  Yb3  1  0.342354  0.666811  0.068905  1
  Yb  Yb4  1  0.159508  0.167725  0.431218  1
  Yb  Yb5  1  0.657879  0.332808  0.568849  1
  Yb  Yb6  1  0.841776  0.832207  0.932129  1
  Yb  Yb7  1  0.657879  0.332808  0.931151  1
  Yb  Yb8  1  0.841776  0.832207  0.567871  1
  Yb  Yb9  1  0.342354  0.666811  0.431095  1
  Yb  Yb10  1  0.159508  0.167725  0.068782  1
  Yb  Yb11  1  0.863879  0.543793  0.250000  1
  Ru  Ru12  1  0.010864  0.885354  0.250000  1
  Ru  Ru13  1  0.484824  0.361503  0.250000  1
  Ru  Ru14  1  0.976082  0.110106  0.750000  1
  Ru  Ru15  1  0.524897  0.642451  0.750000  1
