# generated using pymatgen
data_Nd2Sb5
_symmetry_space_group_name_H-M   'P 1'
_cell_length_a   4.26317300
_cell_length_b   13.59371788
_cell_length_c   15.35550415
_cell_angle_alpha   77.42924539
_cell_angle_beta   90.00000000
_cell_angle_gamma   90.00000000
_symmetry_Int_Tables_number   1
_chemical_formula_structural   Nd2Sb5
_chemical_formula_sum   'Nd8 Sb20'
_cell_volume   868.55546500
_cell_formula_units_Z   4
loop_
 _symmetry_equiv_pos_site_id
 _symmetry_equiv_pos_as_xyz
  1  'x, y, z'
loop_
 _atom_site_type_symbol
 _atom_site_label
 _atom_site_symmetry_multiplicity
 _atom_site_fract_x
 _atom_site_fract_y
 _atom_site_fract_z
 _atom_site_occupancy
  Nd  Nd0  1  0.250000  0.669257  0.575975  1
  Nd  Nd1  1  0.750000  0.330743  0.424025  1
  Nd  Nd2  1  0.250000  0.394864  0.773666  1
  Nd  Nd3  1  0.750000  0.605136  0.226334  1
  Nd  Nd4  1  0.250000  0.949933  0.362969  1
  Nd  Nd5  1  0.750000  0.050067  0.637031  1
  Nd  Nd6  1  0.250000  0.665028  0.855373  1
  Nd  Nd7  1  0.750000  0.334972  0.144627  1
  Sb  Sb8  1  0.250000  0.425684  0.556480  1
  Sb  Sb9  1  0.750000  0.574316  0.443520  1
  Sb  Sb10  1  0.250000  0.715933  0.059148  1
  Sb  Sb11  1  0.750000  0.284067  0.940852  1
  Sb  Sb12  1  0.250000  0.420387  0.975459  1
  Sb  Sb13  1  0.750000  0.579613  0.024541  1
  Sb  Sb14  1  0.250000  0.861868  0.673696  1
  Sb  Sb15  1  0.750000  0.138132  0.326304  1
  Sb  Sb16  1  0.250000  0.149110  0.183151  1
  Sb  Sb17  1  0.750000  0.850890  0.816849  1
  Sb  Sb18  1  0.250000  0.706980  0.352572  1
  Sb  Sb19  1  0.750000  0.293020  0.647428  1
  Sb  Sb20  1  0.250000  0.143770  0.777253  1
  Sb  Sb21  1  0.750000  0.856230  0.222747  1
  Sb  Sb22  1  0.250000  0.422427  0.265578  1
  Sb  Sb23  1  0.750000  0.577573  0.734422  1
  Sb  Sb24  1  0.250000  0.142208  0.477997  1
  Sb  Sb25  1  0.750000  0.857792  0.522003  1
  Sb  Sb26  1  0.250000  0.970853  0.113728  1
  Sb  Sb27  1  0.750000  0.029147  0.886272  1
