# generated using pymatgen
data_Tb14Y6FeCo3Sb8
_symmetry_space_group_name_H-M   'P 1'
_cell_length_a   7.95545128
_cell_length_b   8.77321100
_cell_length_c   12.26375468
_cell_angle_alpha   90.00000000
_cell_angle_beta   90.09661321
_cell_angle_gamma   90.00000000
_symmetry_Int_Tables_number   1
_chemical_formula_structural   Tb14Y6FeCo3Sb8
_chemical_formula_sum   'Tb14 Y6 Fe1 Co3 Sb8'
_cell_volume   855.94573481
_cell_formula_units_Z   1
loop_
 _symmetry_equiv_pos_site_id
 _symmetry_equiv_pos_as_xyz
  1  'x, y, z'
loop_
 _atom_site_type_symbol
 _atom_site_label
 _atom_site_symmetry_multiplicity
 _atom_site_fract_x
 _atom_site_fract_y
 _atom_site_fract_z
 _atom_site_occupancy
  Tb  Tb0  1  0.455019  0.750000  0.997332  1
  Tb  Tb1  1  0.046732  0.750000  0.497292  1
  Tb  Tb2  1  0.621282  0.750000  0.305502  1
  Tb  Tb3  1  0.122459  0.250000  0.193929  1
  Tb  Tb4  1  0.377594  0.250000  0.694418  1
  Tb  Tb5  1  0.878002  0.750000  0.806242  1
  Tb  Tb6  1  0.820833  0.964917  0.065032  1
  Tb  Tb7  1  0.323193  0.032547  0.436431  1
  Tb  Tb8  1  0.178400  0.465174  0.935224  1
  Tb  Tb9  1  0.679382  0.537054  0.564365  1
  Tb  Tb10  1  0.178400  0.034826  0.935224  1
  Tb  Tb11  1  0.679382  0.962946  0.564365  1
  Tb  Tb12  1  0.820833  0.535083  0.065032  1
  Tb  Tb13  1  0.323193  0.467453  0.436431  1
  Y  Y14  1  0.156209  0.750000  0.204952  1
  Y  Y15  1  0.654537  0.250000  0.296055  1
  Y  Y16  1  0.845340  0.250000  0.796647  1
  Y  Y17  1  0.345968  0.750000  0.703155  1
  Y  Y18  1  0.953562  0.250000  0.502693  1
  Y  Y19  1  0.543865  0.250000  0.002130  1
  Fe  Fe20  1  0.428384  0.750000  0.487042  1
  Co  Co21  1  0.935736  0.250000  0.010533  1
  Co  Co22  1  0.567051  0.250000  0.510814  1
  Co  Co23  1  0.065592  0.750000  0.990081  1
  Sb  Sb24  1  0.927391  0.992586  0.326972  1
  Sb  Sb25  1  0.427569  0.008466  0.172538  1
  Sb  Sb26  1  0.071840  0.491562  0.672981  1
  Sb  Sb27  1  0.572727  0.507505  0.827048  1
  Sb  Sb28  1  0.071840  0.008438  0.672981  1
  Sb  Sb29  1  0.572727  0.992495  0.827048  1
  Sb  Sb30  1  0.927391  0.507414  0.326972  1
  Sb  Sb31  1  0.427569  0.491534  0.172538  1
