# generated using pymatgen
data_Ho2Er2B16OsRu3
_symmetry_space_group_name_H-M   'P 1'
_cell_length_a   3.55237200
_cell_length_b   5.94685533
_cell_length_c   11.50723710
_cell_angle_alpha   89.97365004
_cell_angle_beta   90.00000000
_cell_angle_gamma   90.00000000
_symmetry_Int_Tables_number   1
_chemical_formula_structural   Ho2Er2B16OsRu3
_chemical_formula_sum   'Ho2 Er2 B16 Os1 Ru3'
_cell_volume   243.09544813
_cell_formula_units_Z   1
loop_
 _symmetry_equiv_pos_site_id
 _symmetry_equiv_pos_as_xyz
  1  'x, y, z'
loop_
 _atom_site_type_symbol
 _atom_site_label
 _atom_site_symmetry_multiplicity
 _atom_site_fract_x
 _atom_site_fract_y
 _atom_site_fract_z
 _atom_site_occupancy
  Ho  Ho0  1  0.000000  0.629024  0.350404  1
  Ho  Ho1  1  0.000000  0.370980  0.649612  1
  Er  Er2  1  0.000000  0.129273  0.150293  1
  Er  Er3  1  0.000000  0.870540  0.849823  1
  B  B4  1  0.500000  0.790231  0.185971  1
  B  B5  1  0.500000  0.209878  0.814076  1
  B  B6  1  0.500000  0.289793  0.314281  1
  B  B7  1  0.500000  0.710095  0.685614  1
  B  B8  1  0.500000  0.864222  0.029601  1
  B  B9  1  0.500000  0.135670  0.970054  1
  B  B10  1  0.500000  0.364176  0.469969  1
  B  B11  1  0.500000  0.635786  0.530199  1
  B  B12  1  0.500000  0.887985  0.453248  1
  B  B13  1  0.500000  0.112116  0.546920  1
  B  B14  1  0.500000  0.387530  0.047040  1
  B  B15  1  0.500000  0.612399  0.952888  1
  B  B16  1  0.500000  0.977388  0.307905  1
  B  B17  1  0.500000  0.023060  0.692198  1
  B  B18  1  0.500000  0.476131  0.192027  1
  B  B19  1  0.500000  0.523457  0.807863  1
  Os  Os20  1  0.000000  0.641820  0.092928  1
  Ru  Ru21  1  0.000000  0.358263  0.907090  1
  Ru  Ru22  1  0.000000  0.140707  0.407040  1
  Ru  Ru23  1  0.000000  0.859476  0.592958  1
