# generated using pymatgen
data_PaVO5
_symmetry_space_group_name_H-M   'P 1'
_cell_length_a   5.96183400
_cell_length_b   7.50429800
_cell_length_c   12.82133100
_cell_angle_alpha   90.00000000
_cell_angle_beta   90.00000000
_cell_angle_gamma   90.00000000
_symmetry_Int_Tables_number   1
_chemical_formula_structural   PaVO5
_chemical_formula_sum   'Pa4 V4 O20'
_cell_volume   573.61838641
_cell_formula_units_Z   4
loop_
 _symmetry_equiv_pos_site_id
 _symmetry_equiv_pos_as_xyz
  1  'x, y, z'
loop_
 _atom_site_type_symbol
 _atom_site_label
 _atom_site_symmetry_multiplicity
 _atom_site_fract_x
 _atom_site_fract_y
 _atom_site_fract_z
 _atom_site_occupancy
  Pa  Pa0  1  0.750000  0.832205  0.061974  1
  Pa  Pa1  1  0.250000  0.332205  0.438026  1
  Pa  Pa2  1  0.750000  0.667795  0.561974  1
  Pa  Pa3  1  0.250000  0.167795  0.938026  1
  V  V4  1  0.250000  0.529562  0.154971  1
  V  V5  1  0.750000  0.029562  0.345029  1
  V  V6  1  0.250000  0.970438  0.654971  1
  V  V7  1  0.750000  0.470438  0.845029  1
  O  O8  1  0.000000  0.000000  0.000000  1
  O  O9  1  0.500000  0.000000  0.000000  1
  O  O10  1  0.250000  0.336272  0.080627  1
  O  O11  1  0.011144  0.653733  0.125080  1
  O  O12  1  0.488856  0.653733  0.125080  1
  O  O13  1  0.750000  0.975534  0.213299  1
  O  O14  1  0.250000  0.475534  0.286701  1
  O  O15  1  0.988856  0.153733  0.374920  1
  O  O16  1  0.511144  0.153733  0.374920  1
  O  O17  1  0.750000  0.836272  0.419373  1
  O  O18  1  0.000000  0.500000  0.500000  1
  O  O19  1  0.500000  0.500000  0.500000  1
  O  O20  1  0.250000  0.163728  0.580627  1
  O  O21  1  0.011144  0.846267  0.625080  1
  O  O22  1  0.488856  0.846267  0.625080  1
  O  O23  1  0.750000  0.524466  0.713299  1
  O  O24  1  0.250000  0.024466  0.786701  1
  O  O25  1  0.511144  0.346267  0.874920  1
  O  O26  1  0.988856  0.346267  0.874920  1
  O  O27  1  0.750000  0.663728  0.919373  1
