# generated using pymatgen
data_Ta4AlZn7
_symmetry_space_group_name_H-M   'P 1'
_cell_length_a   5.07160782
_cell_length_b   5.07160915
_cell_length_c   8.13464300
_cell_angle_alpha   90.00000000
_cell_angle_beta   90.00000000
_cell_angle_gamma   120.31221548
_symmetry_Int_Tables_number   1
_chemical_formula_structural   Ta4AlZn7
_chemical_formula_sum   'Ta4 Al1 Zn7'
_cell_volume   180.62822928
_cell_formula_units_Z   1
loop_
 _symmetry_equiv_pos_site_id
 _symmetry_equiv_pos_as_xyz
  1  'x, y, z'
loop_
 _atom_site_type_symbol
 _atom_site_label
 _atom_site_symmetry_multiplicity
 _atom_site_fract_x
 _atom_site_fract_y
 _atom_site_fract_z
 _atom_site_occupancy
  Ta  Ta0  1  0.332372  0.667628  0.431369  1
  Ta  Ta1  1  0.668456  0.331544  0.567541  1
  Ta  Ta2  1  0.668456  0.331544  0.932459  1
  Ta  Ta3  1  0.332372  0.667628  0.068631  1
  Al  Al4  1  0.825740  0.174260  0.250000  1
  Zn  Zn5  1  0.001294  0.998706  0.501403  1
  Zn  Zn6  1  0.001294  0.998706  0.998597  1
  Zn  Zn7  1  0.827205  0.657794  0.250000  1
  Zn  Zn8  1  0.342206  0.172795  0.250000  1
  Zn  Zn9  1  0.172847  0.827153  0.750000  1
  Zn  Zn10  1  0.172839  0.345081  0.750000  1
  Zn  Zn11  1  0.654919  0.827161  0.750000  1
