# generated using pymatgen
data_HfZrMnB2Ru5
_symmetry_space_group_name_H-M   'P 1'
_cell_length_a   9.34449092
_cell_length_b   9.34449092
_cell_length_c   3.08029600
_cell_angle_alpha   90.00000000
_cell_angle_beta   90.00000000
_cell_angle_gamma   90.28511521
_symmetry_Int_Tables_number   1
_chemical_formula_structural   HfZrMnB2Ru5
_chemical_formula_sum   'Hf2 Zr2 Mn2 B4 Ru10'
_cell_volume   268.96660914
_cell_formula_units_Z   2
loop_
 _symmetry_equiv_pos_site_id
 _symmetry_equiv_pos_as_xyz
  1  'x, y, z'
loop_
 _atom_site_type_symbol
 _atom_site_label
 _atom_site_symmetry_multiplicity
 _atom_site_fract_x
 _atom_site_fract_y
 _atom_site_fract_z
 _atom_site_occupancy
  Hf  Hf0  1  0.676115  0.176115  0.000000  1
  Hf  Hf1  1  0.323885  0.823885  0.000000  1
  Zr  Zr2  1  0.176676  0.323324  0.000000  1
  Zr  Zr3  1  0.823324  0.676676  0.000000  1
  Mn  Mn4  1  0.000000  0.000000  0.000000  1
  Mn  Mn5  1  0.500000  0.500000  0.000000  1
  B  B6  1  0.124361  0.624361  0.000000  1
  B  B7  1  0.875639  0.375639  0.000000  1
  B  B8  1  0.623385  0.876615  0.000000  1
  B  B9  1  0.376615  0.123385  0.000000  1
  Ru  Ru10  1  0.214374  0.068897  0.500000  1
  Ru  Ru11  1  0.785626  0.931103  0.500000  1
  Ru  Ru12  1  0.071614  0.786553  0.500000  1
  Ru  Ru13  1  0.713447  0.428386  0.500000  1
  Ru  Ru14  1  0.928386  0.213447  0.500000  1
  Ru  Ru15  1  0.286553  0.571614  0.500000  1
  Ru  Ru16  1  0.568897  0.714374  0.500000  1
  Ru  Ru17  1  0.431103  0.285626  0.500000  1
  Ru  Ru18  1  0.500000  0.000000  0.500000  1
  Ru  Ru19  1  0.000000  0.500000  0.500000  1
