# generated using pymatgen
data_Y4In3Co2
_symmetry_space_group_name_H-M   'P 1'
_cell_length_a   3.67428600
_cell_length_b   7.37637711
_cell_length_c   8.19656993
_cell_angle_alpha   71.87156642
_cell_angle_beta   90.00000000
_cell_angle_gamma   90.00000000
_symmetry_Int_Tables_number   1
_chemical_formula_structural   Y4In3Co2
_chemical_formula_sum   'Y4 In3 Co2'
_cell_volume   211.12371741
_cell_formula_units_Z   1
loop_
 _symmetry_equiv_pos_site_id
 _symmetry_equiv_pos_as_xyz
  1  'x, y, z'
loop_
 _atom_site_type_symbol
 _atom_site_label
 _atom_site_symmetry_multiplicity
 _atom_site_fract_x
 _atom_site_fract_y
 _atom_site_fract_z
 _atom_site_occupancy
  Y  Y0  1  0.500000  0.608546  0.182347  1
  Y  Y1  1  0.500000  0.391454  0.817653  1
  Y  Y2  1  0.500000  0.090436  0.277542  1
  Y  Y3  1  0.500000  0.909564  0.722458  1
  In  In4  1  0.000000  0.704234  0.507677  1
  In  In5  1  0.000000  0.000000  0.000000  1
  In  In6  1  0.000000  0.295766  0.492323  1
  Co  Co7  1  0.000000  0.648825  0.896864  1
  Co  Co8  1  0.000000  0.351175  0.103136  1
