# generated using pymatgen
data_K2Sn(PdS2)3
_symmetry_space_group_name_H-M   'P 1'
_cell_length_a   7.68071797
_cell_length_b   7.68071782
_cell_length_c   7.68071700
_cell_angle_alpha   55.49815777
_cell_angle_beta   55.49815852
_cell_angle_gamma   55.49814572
_symmetry_Int_Tables_number   1
_chemical_formula_structural   K2Sn(PdS2)3
_chemical_formula_sum   'K2 Sn1 Pd3 S6'
_cell_volume   286.90859941
_cell_formula_units_Z   1
loop_
 _symmetry_equiv_pos_site_id
 _symmetry_equiv_pos_as_xyz
  1  'x, y, z'
loop_
 _atom_site_type_symbol
 _atom_site_label
 _atom_site_symmetry_multiplicity
 _atom_site_fract_x
 _atom_site_fract_y
 _atom_site_fract_z
 _atom_site_occupancy
  K  K0  1  0.192998  0.192998  0.192998  1
  K  K1  1  0.807002  0.807002  0.807002  1
  Sn  Sn2  1  0.000000  0.000000  0.000000  1
  Pd  Pd3  1  0.500000  0.500000  0.000000  1
  Pd  Pd4  1  0.500000  0.000000  0.500000  1
  Pd  Pd5  1  0.000000  0.500000  0.500000  1
  S  S6  1  0.708306  0.245205  0.245206  1
  S  S7  1  0.245205  0.708306  0.245206  1
  S  S8  1  0.754795  0.754795  0.291694  1
  S  S9  1  0.245205  0.245205  0.708307  1
  S  S10  1  0.754795  0.291694  0.754794  1
  S  S11  1  0.291694  0.754795  0.754794  1
