# generated using pymatgen
data_Er19Sc(Cd3Ni)2
_symmetry_space_group_name_H-M   'P 1'
_cell_length_a   9.48896100
_cell_length_b   9.48896137
_cell_length_c   9.65700200
_cell_angle_alpha   90.00000000
_cell_angle_beta   90.00000000
_cell_angle_gamma   119.99999522
_symmetry_Int_Tables_number   1
_chemical_formula_structural   Er19Sc(Cd3Ni)2
_chemical_formula_sum   'Er19 Sc1 Cd6 Ni2'
_cell_volume   753.02659448
_cell_formula_units_Z   1
loop_
 _symmetry_equiv_pos_site_id
 _symmetry_equiv_pos_as_xyz
  1  'x, y, z'
loop_
 _atom_site_type_symbol
 _atom_site_label
 _atom_site_symmetry_multiplicity
 _atom_site_fract_x
 _atom_site_fract_y
 _atom_site_fract_z
 _atom_site_occupancy
  Er  Er0  1  0.000000  0.000000  0.000000  1
  Er  Er1  1  0.543215  0.456785  0.250245  1
  Er  Er2  1  0.543215  0.086428  0.250245  1
  Er  Er3  1  0.913572  0.456785  0.250245  1
  Er  Er4  1  0.456785  0.543215  0.749755  1
  Er  Er5  1  0.456785  0.913572  0.749755  1
  Er  Er6  1  0.086428  0.543215  0.749755  1
  Er  Er7  1  0.210424  0.789576  0.438019  1
  Er  Er8  1  0.210424  0.420849  0.438019  1
  Er  Er9  1  0.579151  0.789576  0.438019  1
  Er  Er10  1  0.789576  0.210424  0.561981  1
  Er  Er11  1  0.789576  0.579151  0.561981  1
  Er  Er12  1  0.420849  0.210424  0.561981  1
  Er  Er13  1  0.788642  0.211358  0.940439  1
  Er  Er14  1  0.788642  0.577282  0.940439  1
  Er  Er15  1  0.422718  0.211358  0.940439  1
  Er  Er16  1  0.211358  0.788642  0.059561  1
  Er  Er17  1  0.211358  0.422718  0.059561  1
  Er  Er18  1  0.577282  0.788642  0.059561  1
  Sc  Sc19  1  0.000000  0.000000  0.500000  1
  Cd  Cd20  1  0.886912  0.113088  0.254536  1
  Cd  Cd21  1  0.886912  0.773823  0.254536  1
  Cd  Cd22  1  0.226177  0.113088  0.254536  1
  Cd  Cd23  1  0.113088  0.886912  0.745464  1
  Cd  Cd24  1  0.113088  0.226177  0.745464  1
  Cd  Cd25  1  0.773823  0.886912  0.745464  1
  Ni  Ni26  1  0.333333  0.666667  0.249425  1
  Ni  Ni27  1  0.666667  0.333333  0.750575  1
