# generated using pymatgen
data_Lu8V9Re3Si16
_symmetry_space_group_name_H-M   'P 1'
_cell_length_a   6.59750400
_cell_length_b   6.73572254
_cell_length_c   12.50979700
_cell_angle_alpha   90.00000000
_cell_angle_beta   90.00000000
_cell_angle_gamma   90.07351108
_symmetry_Int_Tables_number   1
_chemical_formula_structural   Lu8V9Re3Si16
_chemical_formula_sum   'Lu8 V9 Re3 Si16'
_cell_volume   555.92186623
_cell_formula_units_Z   1
loop_
 _symmetry_equiv_pos_site_id
 _symmetry_equiv_pos_as_xyz
  1  'x, y, z'
loop_
 _atom_site_type_symbol
 _atom_site_label
 _atom_site_symmetry_multiplicity
 _atom_site_fract_x
 _atom_site_fract_y
 _atom_site_fract_z
 _atom_site_occupancy
  Lu  Lu0  1  0.496524  0.668840  0.593964  1
  Lu  Lu1  1  0.995979  0.830490  0.905702  1
  Lu  Lu2  1  0.505720  0.332648  0.092909  1
  Lu  Lu3  1  0.004475  0.167917  0.407162  1
  Lu  Lu4  1  0.505720  0.332648  0.407091  1
  Lu  Lu5  1  0.004475  0.167917  0.092838  1
  Lu  Lu6  1  0.496524  0.668840  0.906036  1
  Lu  Lu7  1  0.995979  0.830490  0.594298  1
  V  V8  1  0.665890  0.168712  0.624947  1
  V  V9  1  0.164111  0.331146  0.874937  1
  V  V10  1  0.333241  0.832544  0.124499  1
  V  V11  1  0.834039  0.666970  0.375157  1
  V  V12  1  0.333241  0.832544  0.375501  1
  V  V13  1  0.834039  0.666970  0.124843  1
  V  V14  1  0.665890  0.168712  0.875053  1
  V  V15  1  0.164111  0.331146  0.625063  1
  V  V16  1  0.834409  0.490386  0.750000  1
  Re  Re17  1  0.333090  0.007061  0.750000  1
  Re  Re18  1  0.168599  0.501614  0.250000  1
  Re  Re19  1  0.667768  0.999009  0.250000  1
  Si  Si20  1  0.662766  0.956212  0.456468  1
  Si  Si21  1  0.162487  0.543687  0.043678  1
  Si  Si22  1  0.335917  0.045005  0.957025  1
  Si  Si23  1  0.836757  0.456462  0.544002  1
  Si  Si24  1  0.335917  0.045005  0.542975  1
  Si  Si25  1  0.836757  0.456462  0.955998  1
  Si  Si26  1  0.662766  0.956212  0.043532  1
  Si  Si27  1  0.162487  0.543687  0.456322  1
  Si  Si28  1  0.462267  0.368226  0.750000  1
  Si  Si29  1  0.961082  0.133405  0.750000  1
  Si  Si30  1  0.538142  0.635761  0.250000  1
  Si  Si31  1  0.037171  0.865126  0.250000  1
  Si  Si32  1  0.696382  0.873850  0.750000  1
  Si  Si33  1  0.193558  0.623641  0.750000  1
  Si  Si34  1  0.305660  0.127060  0.250000  1
  Si  Si35  1  0.806053  0.373594  0.250000  1
