# generated using pymatgen
data_Ba3NpF10
_symmetry_space_group_name_H-M   'P 1'
_cell_length_a   8.85236370
_cell_length_b   8.85239575
_cell_length_c   6.35183600
_cell_angle_alpha   90.00000000
_cell_angle_beta   90.00000000
_cell_angle_gamma   100.54278778
_symmetry_Int_Tables_number   1
_chemical_formula_structural   Ba3NpF10
_chemical_formula_sum   'Ba6 Np2 F20'
_cell_volume   489.35635582
_cell_formula_units_Z   2
loop_
 _symmetry_equiv_pos_site_id
 _symmetry_equiv_pos_as_xyz
  1  'x, y, z'
loop_
 _atom_site_type_symbol
 _atom_site_label
 _atom_site_symmetry_multiplicity
 _atom_site_fract_x
 _atom_site_fract_y
 _atom_site_fract_z
 _atom_site_occupancy
  Ba  Ba0  1  0.826675  0.605762  0.750000  1
  Ba  Ba1  1  0.173325  0.394238  0.250000  1
  Ba  Ba2  1  0.394248  0.173310  0.750000  1
  Ba  Ba3  1  0.605752  0.826690  0.250000  1
  Ba  Ba4  1  0.890930  0.109059  0.750000  1
  Ba  Ba5  1  0.109070  0.890941  0.250000  1
  Np  Np6  1  0.320169  0.679807  0.750000  1
  Np  Np7  1  0.679831  0.320193  0.250000  1
  F  F8  1  0.136935  0.136940  0.500002  1
  F  F9  1  0.863065  0.863060  0.499998  1
  F  F10  1  0.863065  0.863060  0.000002  1
  F  F11  1  0.136935  0.136940  0.999998  1
  F  F12  1  0.105001  0.649876  0.529949  1
  F  F13  1  0.894999  0.350124  0.470051  1
  F  F14  1  0.894999  0.350124  0.029949  1
  F  F15  1  0.350113  0.894989  0.970032  1
  F  F16  1  0.105001  0.649876  0.970051  1
  F  F17  1  0.649887  0.105011  0.029968  1
  F  F18  1  0.649887  0.105011  0.470032  1
  F  F19  1  0.350113  0.894989  0.529968  1
  F  F20  1  0.244380  0.421030  0.750000  1
  F  F21  1  0.755620  0.578970  0.250000  1
  F  F22  1  0.578982  0.755673  0.750000  1
  F  F23  1  0.421018  0.244327  0.250000  1
  F  F24  1  0.601131  0.398868  0.552695  1
  F  F25  1  0.398869  0.601132  0.447305  1
  F  F26  1  0.398869  0.601132  0.052695  1
  F  F27  1  0.601131  0.398868  0.947305  1
