# generated using pymatgen
data_Er4Al4Zn5Ag3
_symmetry_space_group_name_H-M   'P 1'
_cell_length_a   4.35305300
_cell_length_b   6.89427955
_cell_length_c   10.13705300
_cell_angle_alpha   90.22370600
_cell_angle_beta   90.00000000
_cell_angle_gamma   90.00000000
_symmetry_Int_Tables_number   1
_chemical_formula_structural   Er4Al4Zn5Ag3
_chemical_formula_sum   'Er4 Al4 Zn5 Ag3'
_cell_volume   304.22244400
_cell_formula_units_Z   1
loop_
 _symmetry_equiv_pos_site_id
 _symmetry_equiv_pos_as_xyz
  1  'x, y, z'
loop_
 _atom_site_type_symbol
 _atom_site_label
 _atom_site_symmetry_multiplicity
 _atom_site_fract_x
 _atom_site_fract_y
 _atom_site_fract_z
 _atom_site_occupancy
  Er  Er0  1  0.250000  0.286778  0.669106  1
  Er  Er1  1  0.750000  0.713936  0.327366  1
  Er  Er2  1  0.250000  0.782305  0.831827  1
  Er  Er3  1  0.750000  0.215122  0.171555  1
  Al  Al4  1  0.250000  0.708492  0.538771  1
  Al  Al5  1  0.250000  0.203010  0.959970  1
  Al  Al6  1  0.250000  0.414315  0.351345  1
  Al  Al7  1  0.250000  0.916345  0.151523  1
  Zn  Zn8  1  0.750000  0.964112  0.597510  1
  Zn  Zn9  1  0.750000  0.294293  0.464384  1
  Zn  Zn10  1  0.750000  0.802092  0.037664  1
  Zn  Zn11  1  0.750000  0.584538  0.648917  1
  Zn  Zn12  1  0.750000  0.078715  0.843544  1
  Ag  Ag13  1  0.250000  0.536875  0.100552  1
  Ag  Ag14  1  0.750000  0.461898  0.901486  1
  Ag  Ag15  1  0.250000  0.037172  0.404480  1
