# generated using pymatgen
data_DyTh(TaS2)8
_symmetry_space_group_name_H-M   'P 1'
_cell_length_a   6.67198200
_cell_length_b   6.67198172
_cell_length_c   14.11293700
_cell_angle_alpha   90.00000000
_cell_angle_beta   90.00000000
_cell_angle_gamma   120.00001133
_symmetry_Int_Tables_number   1
_chemical_formula_structural   DyTh(TaS2)8
_chemical_formula_sum   'Dy1 Th1 Ta8 S16'
_cell_volume   544.07365664
_cell_formula_units_Z   1
loop_
 _symmetry_equiv_pos_site_id
 _symmetry_equiv_pos_as_xyz
  1  'x, y, z'
loop_
 _atom_site_type_symbol
 _atom_site_label
 _atom_site_symmetry_multiplicity
 _atom_site_fract_x
 _atom_site_fract_y
 _atom_site_fract_z
 _atom_site_occupancy
  Dy  Dy0  1  0.000000  0.000000  0.500000  1
  Th  Th1  1  0.000000  0.000000  0.000000  1
  Ta  Ta2  1  0.505142  0.494858  0.747934  1
  Ta  Ta3  1  0.010283  0.505142  0.252066  1
  Ta  Ta4  1  0.494858  0.989717  0.252066  1
  Ta  Ta5  1  0.505142  0.010283  0.747934  1
  Ta  Ta6  1  0.989717  0.494858  0.747934  1
  Ta  Ta7  1  0.494858  0.505142  0.252066  1
  Ta  Ta8  1  0.000000  0.000000  0.748261  1
  Ta  Ta9  1  0.000000  0.000000  0.251739  1
  S  S10  1  0.831342  0.168658  0.363580  1
  S  S11  1  0.831342  0.662686  0.363580  1
  S  S12  1  0.337314  0.168658  0.363580  1
  S  S13  1  0.661336  0.830667  0.859531  1
  S  S14  1  0.168658  0.337314  0.636420  1
  S  S15  1  0.169333  0.830667  0.859531  1
  S  S16  1  0.169333  0.338664  0.859531  1
  S  S17  1  0.830667  0.169333  0.140469  1
  S  S18  1  0.338664  0.169333  0.140469  1
  S  S19  1  0.662686  0.831342  0.636420  1
  S  S20  1  0.333333  0.666667  0.137007  1
  S  S21  1  0.666667  0.333333  0.633786  1
  S  S22  1  0.666667  0.333333  0.862993  1
  S  S23  1  0.333333  0.666667  0.366214  1
  S  S24  1  0.830667  0.661336  0.140469  1
  S  S25  1  0.168658  0.831342  0.636420  1
