# generated using pymatgen
data_La2PtI
_symmetry_space_group_name_H-M   'P 1'
_cell_length_a   8.61000126
_cell_length_b   8.61000018
_cell_length_c   8.61000001
_cell_angle_alpha   29.25109517
_cell_angle_beta   29.25110644
_cell_angle_gamma   29.25109448
_symmetry_Int_Tables_number   1
_chemical_formula_structural   La2PtI
_chemical_formula_sum   'La2 Pt1 I1'
_cell_volume   134.84482588
_cell_formula_units_Z   1
loop_
 _symmetry_equiv_pos_site_id
 _symmetry_equiv_pos_as_xyz
  1  'x, y, z'
loop_
 _atom_site_type_symbol
 _atom_site_label
 _atom_site_symmetry_multiplicity
 _atom_site_fract_x
 _atom_site_fract_y
 _atom_site_fract_z
 _atom_site_occupancy
  La  La0  1  0.229214  0.229214  0.229214  1
  La  La1  1  0.770786  0.770786  0.770786  1
  Pt  Pt2  1  0.500000  0.500000  0.500000  1
  I  I3  1  0.000000  0.000000  0.000000  1
