# generated using pymatgen
data_DyNb(NiSn)2
_symmetry_space_group_name_H-M   'P 1'
_cell_length_a   7.66253949
_cell_length_b   7.66253926
_cell_length_c   7.66253936
_cell_angle_alpha   32.95323927
_cell_angle_beta   32.95324068
_cell_angle_gamma   32.95324072
_symmetry_Int_Tables_number   1
_chemical_formula_structural   DyNb(NiSn)2
_chemical_formula_sum   'Dy1 Nb1 Ni2 Sn2'
_cell_volume   118.45631481
_cell_formula_units_Z   1
loop_
 _symmetry_equiv_pos_site_id
 _symmetry_equiv_pos_as_xyz
  1  'x, y, z'
loop_
 _atom_site_type_symbol
 _atom_site_label
 _atom_site_symmetry_multiplicity
 _atom_site_fract_x
 _atom_site_fract_y
 _atom_site_fract_z
 _atom_site_occupancy
  Dy  Dy0  1  0.999993  0.999993  0.999993  1
  Nb  Nb1  1  0.501920  0.501920  0.501920  1
  Ni  Ni2  1  0.130150  0.130150  0.130150  1
  Ni  Ni3  1  0.616997  0.616997  0.616997  1
  Sn  Sn4  1  0.754580  0.754580  0.754580  1
  Sn  Sn5  1  0.246358  0.246358  0.246358  1
