# generated using pymatgen
data_Tb11In9(CuNi)2
_symmetry_space_group_name_H-M   'P 1'
_cell_length_a   3.63253700
_cell_length_b   13.11460120
_cell_length_c   13.09082949
_cell_angle_alpha   110.35266593
_cell_angle_beta   90.00000000
_cell_angle_gamma   90.00000000
_symmetry_Int_Tables_number   1
_chemical_formula_structural   Tb11In9(CuNi)2
_chemical_formula_sum   'Tb11 In9 Cu2 Ni2'
_cell_volume   584.70369186
_cell_formula_units_Z   1
loop_
 _symmetry_equiv_pos_site_id
 _symmetry_equiv_pos_as_xyz
  1  'x, y, z'
loop_
 _atom_site_type_symbol
 _atom_site_label
 _atom_site_symmetry_multiplicity
 _atom_site_fract_x
 _atom_site_fract_y
 _atom_site_fract_z
 _atom_site_occupancy
  Tb  Tb0  1  0.000000  0.927100  0.581387  1
  Tb  Tb1  1  0.000000  0.072900  0.418613  1
  Tb  Tb2  1  0.000000  0.580470  0.922909  1
  Tb  Tb3  1  0.000000  0.419530  0.077091  1
  Tb  Tb4  1  0.000000  0.159295  0.841504  1
  Tb  Tb5  1  0.000000  0.840705  0.158496  1
  Tb  Tb6  1  0.000000  0.379477  0.632793  1
  Tb  Tb7  1  0.000000  0.620523  0.367207  1
  Tb  Tb8  1  0.000000  0.684809  0.690202  1
  Tb  Tb9  1  0.000000  0.315191  0.309798  1
  Tb  Tb10  1  0.000000  0.000000  0.000000  1
  In  In11  1  0.500000  0.160551  0.632402  1
  In  In12  1  0.500000  0.839449  0.367598  1
  In  In13  1  0.500000  0.632401  0.157127  1
  In  In14  1  0.500000  0.367599  0.842873  1
  In  In15  1  0.500000  0.924127  0.779949  1
  In  In16  1  0.500000  0.075873  0.220051  1
  In  In17  1  0.500000  0.780310  0.923324  1
  In  In18  1  0.500000  0.219690  0.076676  1
  In  In19  1  0.500000  0.500000  0.500000  1
  Cu  Cu20  1  0.500000  0.749019  0.546048  1
  Cu  Cu21  1  0.500000  0.250981  0.453952  1
  Ni  Ni22  1  0.500000  0.548786  0.751521  1
  Ni  Ni23  1  0.500000  0.451214  0.248479  1
