# generated using pymatgen
data_Ac8Si15Au
_symmetry_space_group_name_H-M   'P 1'
_cell_length_a   8.42745200
_cell_length_b   8.42745291
_cell_length_c   9.24510600
_cell_angle_alpha   90.00000000
_cell_angle_beta   90.00000000
_cell_angle_gamma   120.00000426
_symmetry_Int_Tables_number   1
_chemical_formula_structural   Ac8Si15Au
_chemical_formula_sum   'Ac8 Si15 Au1'
_cell_volume   568.63702021
_cell_formula_units_Z   1
loop_
 _symmetry_equiv_pos_site_id
 _symmetry_equiv_pos_as_xyz
  1  'x, y, z'
loop_
 _atom_site_type_symbol
 _atom_site_label
 _atom_site_symmetry_multiplicity
 _atom_site_fract_x
 _atom_site_fract_y
 _atom_site_fract_z
 _atom_site_occupancy
  Ac  Ac0  1  0.497927  0.502073  0.745918  1
  Ac  Ac1  1  0.498078  0.501922  0.254056  1
  Ac  Ac2  1  0.004145  0.502073  0.745918  1
  Ac  Ac3  1  0.003844  0.501922  0.254056  1
  Ac  Ac4  1  0.497927  0.995855  0.745918  1
  Ac  Ac5  1  0.498078  0.996156  0.254056  1
  Ac  Ac6  1  0.000000  0.000000  0.748655  1
  Ac  Ac7  1  0.000000  0.000000  0.251352  1
  Si  Si8  1  0.836147  0.163853  0.000082  1
  Si  Si9  1  0.165791  0.834209  0.999971  1
  Si  Si10  1  0.327707  0.163853  0.000082  1
  Si  Si11  1  0.166726  0.833274  0.499782  1
  Si  Si12  1  0.668418  0.834209  0.999971  1
  Si  Si13  1  0.833978  0.166022  0.500247  1
  Si  Si14  1  0.836147  0.672293  0.000082  1
  Si  Si15  1  0.666548  0.833274  0.499782  1
  Si  Si16  1  0.165791  0.331582  0.999971  1
  Si  Si17  1  0.332045  0.166022  0.500247  1
  Si  Si18  1  0.166726  0.333452  0.499782  1
  Si  Si19  1  0.833978  0.667955  0.500247  1
  Si  Si20  1  0.333333  0.666667  0.000214  1
  Si  Si21  1  0.333333  0.666667  0.499832  1
  Si  Si22  1  0.666667  0.333333  0.500105  1
  Au  Au23  1  0.666667  0.333333  0.999673  1
