# generated using pymatgen
data_Sr2PaSi5PPd20
_symmetry_space_group_name_H-M   'P 1'
_cell_length_a   8.78516522
_cell_length_b   8.78516503
_cell_length_c   8.78391300
_cell_angle_alpha   60.00471804
_cell_angle_beta   60.00471879
_cell_angle_gamma   59.99056539
_symmetry_Int_Tables_number   1
_chemical_formula_structural   Sr2PaSi5PPd20
_chemical_formula_sum   'Sr2 Pa1 Si5 P1 Pd20'
_cell_volume   479.37223375
_cell_formula_units_Z   1
loop_
 _symmetry_equiv_pos_site_id
 _symmetry_equiv_pos_as_xyz
  1  'x, y, z'
loop_
 _atom_site_type_symbol
 _atom_site_label
 _atom_site_symmetry_multiplicity
 _atom_site_fract_x
 _atom_site_fract_y
 _atom_site_fract_z
 _atom_site_occupancy
  Sr  Sr0  1  0.249443  0.249443  0.250557  1
  Sr  Sr1  1  0.749443  0.749443  0.750557  1
  Pa  Pa2  1  0.001752  0.001752  0.998248  1
  Si  Si3  1  0.729101  0.268725  0.270899  1
  Si  Si4  1  0.268725  0.729101  0.731275  1
  Si  Si5  1  0.268725  0.729101  0.270899  1
  Si  Si6  1  0.729101  0.268725  0.731275  1
  Si  Si7  1  0.271194  0.271194  0.728806  1
  P  P8  1  0.730924  0.730924  0.269076  1
  Pd  Pd9  1  0.386332  0.386332  0.386233  1
  Pd  Pd10  1  0.613594  0.613594  0.611939  1
  Pd  Pd11  1  0.386332  0.386332  0.841104  1
  Pd  Pd12  1  0.388061  0.839127  0.386406  1
  Pd  Pd13  1  0.613594  0.613594  0.160873  1
  Pd  Pd14  1  0.613767  0.158896  0.613668  1
  Pd  Pd15  1  0.839127  0.388061  0.386406  1
  Pd  Pd16  1  0.158896  0.613767  0.613668  1
  Pd  Pd17  1  0.341601  0.000140  0.999860  1
  Pd  Pd18  1  0.658483  0.998508  0.001492  1
  Pd  Pd19  1  0.000140  0.341601  0.658399  1
  Pd  Pd20  1  0.998508  0.658483  0.341517  1
  Pd  Pd21  1  0.000140  0.341601  0.999860  1
  Pd  Pd22  1  0.658483  0.998508  0.341517  1
  Pd  Pd23  1  0.998508  0.658483  0.001492  1
  Pd  Pd24  1  0.341601  0.000140  0.658399  1
  Pd  Pd25  1  0.001106  0.001106  0.340899  1
  Pd  Pd26  1  0.001106  0.001106  0.656890  1
  Pd  Pd27  1  0.659101  0.343110  0.998894  1
  Pd  Pd28  1  0.343110  0.659101  0.998894  1
