# generated using pymatgen
data_Dy2Tm(LuSn2)2
_symmetry_space_group_name_H-M   'P 1'
_cell_length_a   7.94762500
_cell_length_b   8.07983800
_cell_length_c   15.27492100
_cell_angle_alpha   90.00000000
_cell_angle_beta   90.00000000
_cell_angle_gamma   90.00000000
_symmetry_Int_Tables_number   1
_chemical_formula_structural   Dy2Tm(LuSn2)2
_chemical_formula_sum   'Dy8 Tm4 Lu8 Sn16'
_cell_volume   980.88703293
_cell_formula_units_Z   4
loop_
 _symmetry_equiv_pos_site_id
 _symmetry_equiv_pos_as_xyz
  1  'x, y, z'
loop_
 _atom_site_type_symbol
 _atom_site_label
 _atom_site_symmetry_multiplicity
 _atom_site_fract_x
 _atom_site_fract_y
 _atom_site_fract_z
 _atom_site_occupancy
  Dy  Dy0  1  0.521777  0.320540  0.902942  1
  Dy  Dy1  1  0.021777  0.179460  0.597058  1
  Dy  Dy2  1  0.478223  0.679460  0.402942  1
  Dy  Dy3  1  0.978223  0.820540  0.097058  1
  Dy  Dy4  1  0.478281  0.679565  0.097145  1
  Dy  Dy5  1  0.978281  0.820435  0.402855  1
  Dy  Dy6  1  0.521719  0.320435  0.597145  1
  Dy  Dy7  1  0.021719  0.179565  0.902855  1
  Tm  Tm8  1  0.367470  0.836276  0.877345  1
  Tm  Tm9  1  0.867470  0.663724  0.622655  1
  Tm  Tm10  1  0.632530  0.163724  0.377345  1
  Tm  Tm11  1  0.132530  0.336276  0.122655  1
  Lu  Lu12  1  0.632663  0.163631  0.122627  1
  Lu  Lu13  1  0.132663  0.336369  0.377373  1
  Lu  Lu14  1  0.367337  0.836369  0.622627  1
  Lu  Lu15  1  0.867337  0.663631  0.877373  1
  Lu  Lu16  1  0.197693  0.504379  0.749959  1
  Lu  Lu17  1  0.697693  0.995621  0.750041  1
  Lu  Lu18  1  0.802307  0.495621  0.249959  1
  Lu  Lu19  1  0.302307  0.004379  0.250041  1
  Sn  Sn20  1  0.294470  0.036931  0.041814  1
  Sn  Sn21  1  0.794470  0.463069  0.458186  1
  Sn  Sn22  1  0.705530  0.963069  0.541814  1
  Sn  Sn23  1  0.205530  0.536931  0.958186  1
  Sn  Sn24  1  0.706070  0.963044  0.958391  1
  Sn  Sn25  1  0.206070  0.536956  0.541609  1
  Sn  Sn26  1  0.293930  0.036956  0.458391  1
  Sn  Sn27  1  0.793930  0.463044  0.041609  1
  Sn  Sn28  1  0.563994  0.621126  0.749979  1
  Sn  Sn29  1  0.063994  0.878874  0.750021  1
  Sn  Sn30  1  0.436006  0.378874  0.249979  1
  Sn  Sn31  1  0.936006  0.121126  0.250021  1
  Sn  Sn32  1  0.330565  0.147716  0.749935  1
  Sn  Sn33  1  0.830565  0.352284  0.750065  1
  Sn  Sn34  1  0.669435  0.852284  0.249935  1
  Sn  Sn35  1  0.169435  0.647716  0.250065  1
