# generated using pymatgen
data_Eu(FeCl4)2
_symmetry_space_group_name_H-M   'P 1'
_cell_length_a   7.09279100
_cell_length_b   7.76881967
_cell_length_c   12.89599100
_cell_angle_alpha   85.46097182
_cell_angle_beta   90.00000000
_cell_angle_gamma   90.00000000
_symmetry_Int_Tables_number   1
_chemical_formula_structural   Eu(FeCl4)2
_chemical_formula_sum   'Eu2 Fe4 Cl16'
_cell_volume   708.37412430
_cell_formula_units_Z   2
loop_
 _symmetry_equiv_pos_site_id
 _symmetry_equiv_pos_as_xyz
  1  'x, y, z'
loop_
 _atom_site_type_symbol
 _atom_site_label
 _atom_site_symmetry_multiplicity
 _atom_site_fract_x
 _atom_site_fract_y
 _atom_site_fract_z
 _atom_site_occupancy
  Eu  Eu0  1  0.846130  0.500000  0.750000  1
  Eu  Eu1  1  0.153870  0.500000  0.250000  1
  Fe  Fe2  1  0.259277  0.674726  0.580560  1
  Fe  Fe3  1  0.740723  0.674726  0.080560  1
  Fe  Fe4  1  0.740723  0.325274  0.419440  1
  Fe  Fe5  1  0.259277  0.325274  0.919440  1
  Cl  Cl6  1  0.822468  0.401832  0.116193  1
  Cl  Cl7  1  0.822468  0.598168  0.383807  1
  Cl  Cl8  1  0.303174  0.737423  0.411505  1
  Cl  Cl9  1  0.303174  0.262577  0.088495  1
  Cl  Cl10  1  0.696826  0.262577  0.588495  1
  Cl  Cl11  1  0.696826  0.737423  0.911505  1
  Cl  Cl12  1  0.022884  0.826869  0.639083  1
  Cl  Cl13  1  0.022884  0.173131  0.860917  1
  Cl  Cl14  1  0.977116  0.173131  0.360917  1
  Cl  Cl15  1  0.977116  0.826869  0.139083  1
  Cl  Cl16  1  0.527430  0.740300  0.656325  1
  Cl  Cl17  1  0.527430  0.259700  0.843675  1
  Cl  Cl18  1  0.472570  0.259700  0.343675  1
  Cl  Cl19  1  0.472570  0.740300  0.156325  1
  Cl  Cl20  1  0.177532  0.401832  0.616193  1
  Cl  Cl21  1  0.177532  0.598168  0.883807  1
