# generated using pymatgen
data_Nd6Sc(FeC4)3
_symmetry_space_group_name_H-M   'P 1'
_cell_length_a   8.41181500
_cell_length_b   8.41181520
_cell_length_c   5.24821800
_cell_angle_alpha   90.00000000
_cell_angle_beta   90.00000000
_cell_angle_gamma   120.00000210
_symmetry_Int_Tables_number   1
_chemical_formula_structural   Nd6Sc(FeC4)3
_chemical_formula_sum   'Nd6 Sc1 Fe3 C12'
_cell_volume   321.60435764
_cell_formula_units_Z   1
loop_
 _symmetry_equiv_pos_site_id
 _symmetry_equiv_pos_as_xyz
  1  'x, y, z'
loop_
 _atom_site_type_symbol
 _atom_site_label
 _atom_site_symmetry_multiplicity
 _atom_site_fract_x
 _atom_site_fract_y
 _atom_site_fract_z
 _atom_site_occupancy
  Nd  Nd0  1  0.616868  0.679328  0.751733  1
  Nd  Nd1  1  0.937540  0.616868  0.248267  1
  Nd  Nd2  1  0.679328  0.062460  0.248267  1
  Nd  Nd3  1  0.320672  0.937540  0.751733  1
  Nd  Nd4  1  0.062460  0.383132  0.751733  1
  Nd  Nd5  1  0.383132  0.320672  0.248267  1
  Sc  Sc6  1  0.000000  0.000000  0.500000  1
  Fe  Fe7  1  0.000000  0.000000  0.000000  1
  Fe  Fe8  1  0.666667  0.333333  0.754055  1
  Fe  Fe9  1  0.333333  0.666667  0.245945  1
  C  C10  1  0.960186  0.752551  0.751157  1
  C  C11  1  0.207635  0.960186  0.248843  1
  C  C12  1  0.752551  0.792365  0.248843  1
  C  C13  1  0.247449  0.207635  0.751157  1
  C  C14  1  0.792365  0.039814  0.751157  1
  C  C15  1  0.039814  0.247449  0.248843  1
  C  C16  1  0.856530  0.567786  0.754206  1
  C  C17  1  0.288743  0.856530  0.245794  1
  C  C18  1  0.567786  0.711257  0.245794  1
  C  C19  1  0.432214  0.288743  0.754206  1
  C  C20  1  0.143470  0.432214  0.245794  1
  C  C21  1  0.711257  0.143470  0.754206  1
