# generated using pymatgen
data_Cs2Pa4Se7
_symmetry_space_group_name_H-M   'P 1'
_cell_length_a   4.13521100
_cell_length_b   13.36484579
_cell_length_c   15.30584669
_cell_angle_alpha   83.37115287
_cell_angle_beta   90.00000000
_cell_angle_gamma   90.00000000
_symmetry_Int_Tables_number   1
_chemical_formula_structural   Cs2Pa4Se7
_chemical_formula_sum   'Cs4 Pa8 Se14'
_cell_volume   840.24488836
_cell_formula_units_Z   2
loop_
 _symmetry_equiv_pos_site_id
 _symmetry_equiv_pos_as_xyz
  1  'x, y, z'
loop_
 _atom_site_type_symbol
 _atom_site_label
 _atom_site_symmetry_multiplicity
 _atom_site_fract_x
 _atom_site_fract_y
 _atom_site_fract_z
 _atom_site_occupancy
  Cs  Cs0  1  0.250000  0.573141  0.824708  1
  Cs  Cs1  1  0.750000  0.426859  0.175292  1
  Cs  Cs2  1  0.750000  0.833345  0.625979  1
  Cs  Cs3  1  0.250000  0.166655  0.374021  1
  Pa  Pa4  1  0.250000  0.961569  0.897828  1
  Pa  Pa5  1  0.750000  0.038431  0.102172  1
  Pa  Pa6  1  0.250000  0.833474  0.265814  1
  Pa  Pa7  1  0.750000  0.166526  0.734186  1
  Pa  Pa8  1  0.750000  0.754331  0.060873  1
  Pa  Pa9  1  0.250000  0.245669  0.939127  1
  Pa  Pa10  1  0.750000  0.606842  0.424096  1
  Pa  Pa11  1  0.250000  0.393158  0.575904  1
  Se  Se12  1  0.250000  0.461408  0.388691  1
  Se  Se13  1  0.750000  0.538592  0.611309  1
  Se  Se14  1  0.250000  0.614452  0.046062  1
  Se  Se15  1  0.750000  0.385548  0.953938  1
  Se  Se16  1  0.750000  0.979873  0.292226  1
  Se  Se17  1  0.250000  0.020127  0.707774  1
  Se  Se18  1  0.750000  0.812620  0.871559  1
  Se  Se19  1  0.250000  0.187380  0.128441  1
  Se  Se20  1  0.250000  0.754924  0.450811  1
  Se  Se21  1  0.750000  0.245076  0.549189  1
  Se  Se22  1  0.750000  0.683386  0.242732  1
  Se  Se23  1  0.250000  0.316614  0.757268  1
  Se  Se24  1  0.250000  0.896221  0.082087  1
  Se  Se25  1  0.750000  0.103779  0.917913  1
