# generated using pymatgen
data_Er12InFe2Co2Cu
_symmetry_space_group_name_H-M   'P 1'
_cell_length_a   8.24618701
_cell_length_b   8.24618681
_cell_length_c   8.24618691
_cell_angle_alpha   110.52443161
_cell_angle_beta   110.63384384
_cell_angle_gamma   107.27742380
_symmetry_Int_Tables_number   1
_chemical_formula_structural   Er12InFe2Co2Cu
_chemical_formula_sum   'Er12 In1 Fe2 Co2 Cu1'
_cell_volume   431.18311521
_cell_formula_units_Z   1
loop_
 _symmetry_equiv_pos_site_id
 _symmetry_equiv_pos_as_xyz
  1  'x, y, z'
loop_
 _atom_site_type_symbol
 _atom_site_label
 _atom_site_symmetry_multiplicity
 _atom_site_fract_x
 _atom_site_fract_y
 _atom_site_fract_z
 _atom_site_occupancy
  Er  Er0  1  0.186473  0.290883  0.477355  1
  Er  Er1  1  0.813527  0.709117  0.522645  1
  Er  Er2  1  0.186473  0.709117  0.895589  1
  Er  Er3  1  0.813527  0.290883  0.104411  1
  Er  Er4  1  0.314790  0.617259  0.302470  1
  Er  Er5  1  0.685210  0.382741  0.697530  1
  Er  Er6  1  0.314790  0.012320  0.697530  1
  Er  Er7  1  0.685210  0.987680  0.302470  1
  Er  Er8  1  0.419156  0.217903  0.201252  1
  Er  Er9  1  0.580844  0.782097  0.798748  1
  Er  Er10  1  0.016652  0.217903  0.798748  1
  Er  Er11  1  0.983348  0.782097  0.201252  1
  In  In12  1  0.500000  0.500000  0.000000  1
  Fe  Fe13  1  0.109506  0.609506  0.500000  1
  Fe  Fe14  1  0.890494  0.390494  0.500000  1
  Co  Co15  1  0.379129  0.000000  0.379129  1
  Co  Co16  1  0.620871  0.000000  0.620871  1
  Cu  Cu17  1  0.000000  0.000000  0.000000  1
