# generated using pymatgen
data_Tb5ErAl24(CuRu3)2
_symmetry_space_group_name_H-M   'P 1'
_cell_length_a   8.83206101
_cell_length_b   8.83205892
_cell_length_c   9.47969500
_cell_angle_alpha   90.00000000
_cell_angle_beta   90.00000000
_cell_angle_gamma   119.54521935
_symmetry_Int_Tables_number   1
_chemical_formula_structural   Tb5ErAl24(CuRu3)2
_chemical_formula_sum   'Tb5 Er1 Al24 Cu2 Ru6'
_cell_volume   643.31111843
_cell_formula_units_Z   1
loop_
 _symmetry_equiv_pos_site_id
 _symmetry_equiv_pos_as_xyz
  1  'x, y, z'
loop_
 _atom_site_type_symbol
 _atom_site_label
 _atom_site_symmetry_multiplicity
 _atom_site_fract_x
 _atom_site_fract_y
 _atom_site_fract_z
 _atom_site_occupancy
  Tb  Tb0  1  0.188160  0.383017  0.250000  1
  Tb  Tb1  1  0.811339  0.616078  0.750000  1
  Tb  Tb2  1  0.616983  0.811840  0.250000  1
  Tb  Tb3  1  0.383922  0.188661  0.750000  1
  Tb  Tb4  1  0.193486  0.806514  0.250000  1
  Er  Er5  1  0.805542  0.194458  0.750000  1
  Al  Al6  1  0.332206  0.667794  0.019762  1
  Al  Al7  1  0.668121  0.331879  0.979366  1
  Al  Al8  1  0.668121  0.331879  0.520634  1
  Al  Al9  1  0.332206  0.667794  0.480238  1
  Al  Al10  1  0.156671  0.323723  0.578349  1
  Al  Al11  1  0.842552  0.675788  0.422287  1
  Al  Al12  1  0.676277  0.843329  0.578349  1
  Al  Al13  1  0.842552  0.675788  0.077713  1
  Al  Al14  1  0.324212  0.157448  0.422287  1
  Al  Al15  1  0.156671  0.323723  0.921651  1
  Al  Al16  1  0.163887  0.836113  0.577343  1
  Al  Al17  1  0.324212  0.157448  0.077713  1
  Al  Al18  1  0.836098  0.163902  0.424026  1
  Al  Al19  1  0.676277  0.843329  0.921651  1
  Al  Al20  1  0.836098  0.163902  0.075974  1
  Al  Al21  1  0.163887  0.836113  0.922657  1
  Al  Al22  1  0.560109  0.122435  0.250000  1
  Al  Al23  1  0.440508  0.878097  0.750000  1
  Al  Al24  1  0.877565  0.439891  0.250000  1
  Al  Al25  1  0.121903  0.559492  0.750000  1
  Al  Al26  1  0.560730  0.439270  0.250000  1
  Al  Al27  1  0.439107  0.560893  0.750000  1
  Al  Al28  1  0.998272  0.001728  0.250000  1
  Al  Al29  1  0.001421  0.998579  0.750000  1
  Cu  Cu30  1  0.500125  0.499875  0.000071  1
  Cu  Cu31  1  0.500125  0.499875  0.499929  1
  Ru  Ru32  1  0.500480  0.000122  0.999791  1
  Ru  Ru33  1  0.999878  0.499520  0.999791  1
  Ru  Ru34  1  0.500480  0.000122  0.500209  1
  Ru  Ru35  1  0.999878  0.499520  0.500209  1
  Ru  Ru36  1  0.999968  0.000032  0.999860  1
  Ru  Ru37  1  0.999968  0.000032  0.500140  1
