# generated using pymatgen
data_Ho4SnSb5Rh7
_symmetry_space_group_name_H-M   'P 1'
_cell_length_a   7.60162652
_cell_length_b   7.60162799
_cell_length_c   7.60162700
_cell_angle_alpha   109.60693760
_cell_angle_beta   109.40340983
_cell_angle_gamma   109.40340134
_symmetry_Int_Tables_number   1
_chemical_formula_structural   Ho4SnSb5Rh7
_chemical_formula_sum   'Ho4 Sn1 Sb5 Rh7'
_cell_volume   338.13954895
_cell_formula_units_Z   1
loop_
 _symmetry_equiv_pos_site_id
 _symmetry_equiv_pos_as_xyz
  1  'x, y, z'
loop_
 _atom_site_type_symbol
 _atom_site_label
 _atom_site_symmetry_multiplicity
 _atom_site_fract_x
 _atom_site_fract_y
 _atom_site_fract_z
 _atom_site_occupancy
  Ho  Ho0  1  0.498679  0.000656  0.000656  1
  Ho  Ho1  1  0.000000  0.501978  0.000656  1
  Ho  Ho2  1  0.000000  0.000656  0.501978  1
  Ho  Ho3  1  0.501321  0.501978  0.501978  1
  Sn  Sn4  1  0.000000  0.313712  0.313712  1
  Sb  Sb5  1  0.683219  0.001501  0.684721  1
  Sb  Sb6  1  0.683219  0.684721  0.001501  1
  Sb  Sb7  1  0.000000  0.678446  0.678446  1
  Sb  Sb8  1  0.316781  0.001501  0.318281  1
  Sb  Sb9  1  0.316781  0.318281  0.001501  1
  Rh  Rh10  1  0.000000  0.994578  0.994578  1
  Rh  Rh11  1  0.500000  0.751181  0.251181  1
  Rh  Rh12  1  0.749025  0.499907  0.248933  1
  Rh  Rh13  1  0.250975  0.750882  0.499907  1
  Rh  Rh14  1  0.250975  0.499907  0.750882  1
  Rh  Rh15  1  0.500000  0.251181  0.751181  1
  Rh  Rh16  1  0.749025  0.248933  0.499907  1
