# generated using pymatgen
data_Zr10BiPb5S2
_symmetry_space_group_name_H-M   'P 1'
_cell_length_a   8.69735901
_cell_length_b   8.69735875
_cell_length_c   6.09592900
_cell_angle_alpha   90.00000000
_cell_angle_beta   90.00000000
_cell_angle_gamma   120.00507412
_symmetry_Int_Tables_number   1
_chemical_formula_structural   Zr10BiPb5S2
_chemical_formula_sum   'Zr10 Bi1 Pb5 S2'
_cell_volume   399.32187866
_cell_formula_units_Z   1
loop_
 _symmetry_equiv_pos_site_id
 _symmetry_equiv_pos_as_xyz
  1  'x, y, z'
loop_
 _atom_site_type_symbol
 _atom_site_label
 _atom_site_symmetry_multiplicity
 _atom_site_fract_x
 _atom_site_fract_y
 _atom_site_fract_z
 _atom_site_occupancy
  Zr  Zr0  1  0.666754  0.333091  0.500859  1
  Zr  Zr1  1  0.333091  0.666754  0.500859  1
  Zr  Zr2  1  0.333091  0.666754  0.999141  1
  Zr  Zr3  1  0.666754  0.333091  0.999141  1
  Zr  Zr4  1  0.754115  0.754115  0.250000  1
  Zr  Zr5  1  0.246232  0.998677  0.250000  1
  Zr  Zr6  1  0.998677  0.246232  0.250000  1
  Zr  Zr7  1  0.246664  0.246664  0.750000  1
  Zr  Zr8  1  0.753006  0.000293  0.750000  1
  Zr  Zr9  1  0.000293  0.753006  0.750000  1
  Bi  Bi10  1  0.399429  0.399429  0.250000  1
  Pb  Pb11  1  0.600213  0.999707  0.250000  1
  Pb  Pb12  1  0.999707  0.600213  0.250000  1
  Pb  Pb13  1  0.602292  0.602292  0.750000  1
  Pb  Pb14  1  0.398924  0.999747  0.750000  1
  Pb  Pb15  1  0.999747  0.398924  0.750000  1
  S  S16  1  0.000506  0.000506  0.500094  1
  S  S17  1  0.000506  0.000506  0.999906  1
