# generated using pymatgen
data_Ce2CrMoC3
_symmetry_space_group_name_H-M   'P 1'
_cell_length_a   6.25363211
_cell_length_b   6.25363229
_cell_length_c   5.68530408
_cell_angle_alpha   64.28967415
_cell_angle_beta   64.28967307
_cell_angle_gamma   30.65225749
_symmetry_Int_Tables_number   1
_chemical_formula_structural   Ce2CrMoC3
_chemical_formula_sum   'Ce2 Cr1 Mo1 C3'
_cell_volume   101.23959681
_cell_formula_units_Z   1
loop_
 _symmetry_equiv_pos_site_id
 _symmetry_equiv_pos_as_xyz
  1  'x, y, z'
loop_
 _atom_site_type_symbol
 _atom_site_label
 _atom_site_symmetry_multiplicity
 _atom_site_fract_x
 _atom_site_fract_y
 _atom_site_fract_z
 _atom_site_occupancy
  Ce  Ce0  1  0.398353  0.398353  0.795613  1
  Ce  Ce1  1  0.601288  0.601288  0.199370  1
  Cr  Cr2  1  0.162725  0.162725  0.680497  1
  Mo  Mo3  1  0.840296  0.840296  0.325380  1
  C  C4  1  0.006639  0.006639  0.984250  1
  C  C5  1  0.246150  0.246150  0.274475  1
  C  C6  1  0.744549  0.744549  0.740415  1
