# generated using pymatgen
data_Dy2HoGa6Ni8Ir
_symmetry_space_group_name_H-M   'P 1'
_cell_length_a   4.10933000
_cell_length_b   8.88383916
_cell_length_c   8.88384009
_cell_angle_alpha   58.37319287
_cell_angle_beta   90.00000000
_cell_angle_gamma   90.00000000
_symmetry_Int_Tables_number   1
_chemical_formula_structural   Dy2HoGa6Ni8Ir
_chemical_formula_sum   'Dy2 Ho1 Ga6 Ni8 Ir1'
_cell_volume   276.15171688
_cell_formula_units_Z   1
loop_
 _symmetry_equiv_pos_site_id
 _symmetry_equiv_pos_as_xyz
  1  'x, y, z'
loop_
 _atom_site_type_symbol
 _atom_site_label
 _atom_site_symmetry_multiplicity
 _atom_site_fract_x
 _atom_site_fract_y
 _atom_site_fract_z
 _atom_site_occupancy
  Dy  Dy0  1  0.500000  0.334285  0.334084  1
  Dy  Dy1  1  0.500000  0.665916  0.665715  1
  Ho  Ho2  1  0.000000  0.985306  0.014694  1
  Ga  Ga3  1  0.000000  0.525412  0.474588  1
  Ga  Ga4  1  0.000000  0.480226  0.988623  1
  Ga  Ga5  1  0.000000  0.011377  0.519774  1
  Ga  Ga6  1  0.500000  0.266604  0.733396  1
  Ga  Ga7  1  0.500000  0.724920  0.993894  1
  Ga  Ga8  1  0.500000  0.006106  0.275080  1
  Ni  Ni9  1  0.000000  0.176208  0.197232  1
  Ni  Ni10  1  0.000000  0.199623  0.632612  1
  Ni  Ni11  1  0.000000  0.610557  0.166353  1
  Ni  Ni12  1  0.000000  0.802768  0.823792  1
  Ni  Ni13  1  0.000000  0.367388  0.800377  1
  Ni  Ni14  1  0.000000  0.833647  0.389443  1
  Ni  Ni15  1  0.500000  0.292718  0.995736  1
  Ni  Ni16  1  0.500000  0.004264  0.707282  1
  Ir  Ir17  1  0.500000  0.712574  0.287426  1
