# generated using pymatgen
data_CaNd6NiBr12
_symmetry_space_group_name_H-M   'P 1'
_cell_length_a   9.54874530
_cell_length_b   9.54828499
_cell_length_c   9.55031509
_cell_angle_alpha   107.00485512
_cell_angle_beta   106.99719708
_cell_angle_gamma   106.98571809
_symmetry_Int_Tables_number   1
_chemical_formula_structural   CaNd6NiBr12
_chemical_formula_sum   'Ca1 Nd6 Ni1 Br12'
_cell_volume   725.24269778
_cell_formula_units_Z   1
loop_
 _symmetry_equiv_pos_site_id
 _symmetry_equiv_pos_as_xyz
  1  'x, y, z'
loop_
 _atom_site_type_symbol
 _atom_site_label
 _atom_site_symmetry_multiplicity
 _atom_site_fract_x
 _atom_site_fract_y
 _atom_site_fract_z
 _atom_site_occupancy
  Ca  Ca0  1  0.500000  0.500000  0.500000  1
  Nd  Nd1  1  0.312554  0.103818  0.026941  1
  Nd  Nd2  1  0.026921  0.312733  0.103958  1
  Nd  Nd3  1  0.103867  0.026896  0.312571  1
  Nd  Nd4  1  0.896133  0.973104  0.687430  1
  Nd  Nd5  1  0.973079  0.687268  0.896043  1
  Nd  Nd6  1  0.687447  0.896182  0.973060  1
  Ni  Ni7  1  0.000000  0.000000  0.000000  1
  Br  Br8  1  0.682930  0.220552  0.068722  1
  Br  Br9  1  0.380839  0.456462  0.165773  1
  Br  Br10  1  0.068765  0.682924  0.220427  1
  Br  Br11  1  0.779487  0.931240  0.316989  1
  Br  Br12  1  0.456501  0.165728  0.380774  1
  Br  Br13  1  0.165703  0.380792  0.456424  1
  Br  Br14  1  0.834297  0.619209  0.543576  1
  Br  Br15  1  0.543499  0.834273  0.619226  1
  Br  Br16  1  0.220514  0.068761  0.683011  1
  Br  Br17  1  0.931235  0.317076  0.779574  1
  Br  Br18  1  0.619162  0.543538  0.834227  1
  Br  Br19  1  0.317071  0.779448  0.931278  1
