# generated using pymatgen
data_Cs2U(SO5)2
_symmetry_space_group_name_H-M   'P 1'
_cell_length_a   9.16904300
_cell_length_b   11.05993158
_cell_length_c   12.05219600
_cell_angle_alpha   110.24968543
_cell_angle_beta   90.00000000
_cell_angle_gamma   90.00000000
_symmetry_Int_Tables_number   1
_chemical_formula_structural   Cs2U(SO5)2
_chemical_formula_sum   'Cs8 U4 S8 O40'
_cell_volume   1146.66071356
_cell_formula_units_Z   4
loop_
 _symmetry_equiv_pos_site_id
 _symmetry_equiv_pos_as_xyz
  1  'x, y, z'
loop_
 _atom_site_type_symbol
 _atom_site_label
 _atom_site_symmetry_multiplicity
 _atom_site_fract_x
 _atom_site_fract_y
 _atom_site_fract_z
 _atom_site_occupancy
  Cs  Cs0  1  0.077992  0.468266  0.198553  1
  Cs  Cs1  1  0.577985  0.031732  0.301454  1
  Cs  Cs2  1  0.400512  0.720692  0.932225  1
  Cs  Cs3  1  0.900504  0.779305  0.567771  1
  Cs  Cs4  1  0.922008  0.531734  0.801447  1
  Cs  Cs5  1  0.599488  0.279308  0.067775  1
  Cs  Cs6  1  0.099496  0.220696  0.432229  1
  Cs  Cs7  1  0.422014  0.968267  0.698546  1
  U  U8  1  0.509854  0.639858  0.356876  1
  U  U9  1  0.990136  0.139868  0.856886  1
  U  U10  1  0.009866  0.860130  0.143114  1
  U  U11  1  0.490146  0.360143  0.643123  1
  S  S12  1  0.258551  0.584804  0.561921  1
  S  S13  1  0.810005  0.154904  0.640252  1
  S  S14  1  0.741449  0.415197  0.438079  1
  S  S15  1  0.241447  0.084802  0.061923  1
  S  S16  1  0.189994  0.845096  0.359748  1
  S  S17  1  0.310002  0.345095  0.859747  1
  S  S18  1  0.689997  0.654905  0.140253  1
  S  S19  1  0.758553  0.915197  0.938077  1
  O  O20  1  0.645463  0.940942  0.028917  1
  O  O21  1  0.145455  0.559058  0.471083  1
  O  O22  1  0.790122  0.769855  0.172700  1
  O  O23  1  0.790677  0.337047  0.319228  1
  O  O24  1  0.038062  0.795134  0.322381  1
  O  O25  1  0.699394  0.579564  0.014896  1
  O  O26  1  0.225700  0.922211  0.281804  1
  O  O27  1  0.569647  0.515909  0.724513  1
  O  O28  1  0.887999  0.847007  0.970537  1
  O  O29  1  0.587072  0.797157  0.440366  1
  O  O30  1  0.087078  0.702816  0.059621  1
  O  O31  1  0.199388  0.920435  0.485105  1
  O  O32  1  0.538074  0.704866  0.177617  1
  O  O33  1  0.300605  0.420436  0.985104  1
  O  O34  1  0.961937  0.204866  0.677619  1
  O  O35  1  0.800611  0.079565  0.514895  1
  O  O36  1  0.209877  0.230146  0.827301  1
  O  O37  1  0.412928  0.202843  0.559635  1
  O  O38  1  0.274297  0.422205  0.781806  1
  O  O39  1  0.183518  0.955137  0.061647  1
  O  O40  1  0.854545  0.440942  0.528917  1
  O  O41  1  0.683520  0.544853  0.438349  1
  O  O42  1  0.774300  0.077789  0.718196  1
  O  O43  1  0.725703  0.577795  0.218194  1
  O  O44  1  0.709325  0.837057  0.819232  1
  O  O45  1  0.069643  0.984100  0.775498  1
  O  O46  1  0.209323  0.662953  0.680772  1
  O  O47  1  0.612008  0.347015  0.470541  1
  O  O48  1  0.816483  0.044862  0.938352  1
  O  O49  1  0.430353  0.484092  0.275487  1
  O  O50  1  0.290674  0.162943  0.180768  1
  O  O51  1  0.290116  0.730155  0.327302  1
  O  O52  1  0.930358  0.015898  0.224501  1
  O  O53  1  0.112001  0.152992  0.029463  1
  O  O54  1  0.709884  0.269845  0.672698  1
  O  O55  1  0.354538  0.059058  0.971083  1
  O  O56  1  0.387992  0.652986  0.529459  1
  O  O57  1  0.461925  0.295134  0.822383  1
  O  O58  1  0.912923  0.297183  0.940379  1
  O  O59  1  0.316480  0.455147  0.561651  1
