# generated using pymatgen
data_LiHfF5
_symmetry_space_group_name_H-M   'P 1'
_cell_length_a   10.56866500
_cell_length_b   5.48283034
_cell_length_c   6.71256909
_cell_angle_alpha   73.36315195
_cell_angle_beta   90.00000000
_cell_angle_gamma   90.00000000
_symmetry_Int_Tables_number   1
_chemical_formula_structural   LiHfF5
_chemical_formula_sum   'Li4 Hf4 F20'
_cell_volume   372.68513001
_cell_formula_units_Z   4
loop_
 _symmetry_equiv_pos_site_id
 _symmetry_equiv_pos_as_xyz
  1  'x, y, z'
loop_
 _atom_site_type_symbol
 _atom_site_label
 _atom_site_symmetry_multiplicity
 _atom_site_fract_x
 _atom_site_fract_y
 _atom_site_fract_z
 _atom_site_occupancy
  Li  Li0  1  0.738579  0.972605  0.879455  1
  Li  Li1  1  0.761421  0.972605  0.379455  1
  Li  Li2  1  0.238579  0.027395  0.620545  1
  Li  Li3  1  0.261421  0.027395  0.120545  1
  Hf  Hf4  1  0.957351  0.566734  0.735916  1
  Hf  Hf5  1  0.457351  0.433266  0.764084  1
  Hf  Hf6  1  0.542649  0.566734  0.235916  1
  Hf  Hf7  1  0.042649  0.433266  0.264084  1
  F  F8  1  0.085230  0.840236  0.683426  1
  F  F9  1  0.810629  0.814638  0.675873  1
  F  F10  1  0.352892  0.745989  0.679378  1
  F  F11  1  0.587339  0.619545  0.917856  1
  F  F12  1  0.414770  0.840236  0.183426  1
  F  F13  1  0.689371  0.814638  0.175873  1
  F  F14  1  0.147108  0.745989  0.179378  1
  F  F15  1  0.583305  0.634037  0.524956  1
  F  F16  1  0.083305  0.365963  0.975044  1
  F  F17  1  0.912661  0.619545  0.417856  1
  F  F18  1  0.087339  0.380455  0.582144  1
  F  F19  1  0.916695  0.634037  0.024956  1
  F  F20  1  0.416695  0.365963  0.475044  1
  F  F21  1  0.852892  0.254011  0.820622  1
  F  F22  1  0.310629  0.185362  0.824127  1
  F  F23  1  0.585230  0.159764  0.816574  1
  F  F24  1  0.412661  0.380455  0.082144  1
  F  F25  1  0.647108  0.254011  0.320622  1
  F  F26  1  0.189371  0.185362  0.324127  1
  F  F27  1  0.914770  0.159764  0.316574  1
