# generated using pymatgen
data_Dy6Y9Th(CdNi)4
_symmetry_space_group_name_H-M   'P 1'
_cell_length_a   9.58613262
_cell_length_b   9.55692817
_cell_length_c   9.59950335
_cell_angle_alpha   60.01511529
_cell_angle_beta   60.03408172
_cell_angle_gamma   60.12277569
_symmetry_Int_Tables_number   1
_chemical_formula_structural   Dy6Y9Th(CdNi)4
_chemical_formula_sum   'Dy6 Y9 Th1 Cd4 Ni4'
_cell_volume   622.67083382
_cell_formula_units_Z   1
loop_
 _symmetry_equiv_pos_site_id
 _symmetry_equiv_pos_as_xyz
  1  'x, y, z'
loop_
 _atom_site_type_symbol
 _atom_site_label
 _atom_site_symmetry_multiplicity
 _atom_site_fract_x
 _atom_site_fract_y
 _atom_site_fract_z
 _atom_site_occupancy
  Dy  Dy0  1  0.598810  0.598578  0.201022  1
  Dy  Dy1  1  0.597909  0.203212  0.598078  1
  Dy  Dy2  1  0.201094  0.598291  0.598792  1
  Dy  Dy3  1  0.062522  0.438702  0.438948  1
  Dy  Dy4  1  0.440307  0.061087  0.061918  1
  Dy  Dy5  1  0.439278  0.061021  0.439279  1
  Y  Y6  1  0.061814  0.440490  0.061867  1
  Y  Y7  1  0.439104  0.438880  0.062121  1
  Y  Y8  1  0.061585  0.061054  0.440591  1
  Y  Y9  1  0.187768  0.814617  0.813202  1
  Y  Y10  1  0.813654  0.185302  0.187085  1
  Y  Y11  1  0.814245  0.186744  0.814319  1
  Y  Y12  1  0.186721  0.813967  0.186785  1
  Y  Y13  1  0.813082  0.814475  0.187952  1
  Y  Y14  1  0.187292  0.185480  0.813449  1
  Th  Th15  1  0.594920  0.595573  0.594623  1
  Cd  Cd16  1  0.830989  0.831200  0.830832  1
  Cd  Cd17  1  0.831337  0.832194  0.505810  1
  Cd  Cd18  1  0.831240  0.507075  0.831388  1
  Cd  Cd19  1  0.505838  0.832085  0.831287  1
  Ni  Ni20  1  0.391916  0.393275  0.393956  1
  Ni  Ni21  1  0.394193  0.392559  0.819827  1
  Ni  Ni22  1  0.394539  0.819782  0.392780  1
  Ni  Ni23  1  0.819843  0.394357  0.394090  1
