# generated using pymatgen
data_Eu3DyMgRh
_symmetry_space_group_name_H-M   'P 1'
_cell_length_a   10.22409921
_cell_length_b   10.22409909
_cell_length_c   10.22409900
_cell_angle_alpha   60.00000354
_cell_angle_beta   60.00000393
_cell_angle_gamma   59.99999850
_symmetry_Int_Tables_number   1
_chemical_formula_structural   Eu3DyMgRh
_chemical_formula_sum   'Eu12 Dy4 Mg4 Rh4'
_cell_volume   755.71870757
_cell_formula_units_Z   4
loop_
 _symmetry_equiv_pos_site_id
 _symmetry_equiv_pos_as_xyz
  1  'x, y, z'
loop_
 _atom_site_type_symbol
 _atom_site_label
 _atom_site_symmetry_multiplicity
 _atom_site_fract_x
 _atom_site_fract_y
 _atom_site_fract_z
 _atom_site_occupancy
  Eu  Eu0  1  0.944754  0.555246  0.555246  1
  Eu  Eu1  1  0.555246  0.944754  0.944754  1
  Eu  Eu2  1  0.555246  0.944754  0.555246  1
  Eu  Eu3  1  0.555246  0.555246  0.944754  1
  Eu  Eu4  1  0.944754  0.555246  0.944754  1
  Eu  Eu5  1  0.944754  0.944754  0.555246  1
  Eu  Eu6  1  0.807594  0.192406  0.192406  1
  Eu  Eu7  1  0.192406  0.807594  0.807594  1
  Eu  Eu8  1  0.192406  0.807594  0.192406  1
  Eu  Eu9  1  0.192406  0.192406  0.807594  1
  Eu  Eu10  1  0.807594  0.192406  0.807594  1
  Eu  Eu11  1  0.807594  0.807594  0.192406  1
  Dy  Dy12  1  0.338603  0.338603  0.338603  1
  Dy  Dy13  1  0.338603  0.338603  0.984189  1
  Dy  Dy14  1  0.984189  0.338603  0.338603  1
  Dy  Dy15  1  0.338603  0.984189  0.338603  1
  Mg  Mg16  1  0.576913  0.576913  0.576913  1
  Mg  Mg17  1  0.576913  0.576913  0.269260  1
  Mg  Mg18  1  0.269260  0.576913  0.576913  1
  Mg  Mg19  1  0.576913  0.269260  0.576913  1
  Rh  Rh20  1  0.144781  0.144781  0.144781  1
  Rh  Rh21  1  0.144781  0.144781  0.565657  1
  Rh  Rh22  1  0.565657  0.144781  0.144781  1
  Rh  Rh23  1  0.144781  0.565657  0.144781  1
