# generated using pymatgen
data_Pr3Sn3HgIrRh
_symmetry_space_group_name_H-M   'P 1'
_cell_length_a   7.76364600
_cell_length_b   7.76364629
_cell_length_c   4.17217300
_cell_angle_alpha   90.00000000
_cell_angle_beta   90.00000000
_cell_angle_gamma   119.99999875
_symmetry_Int_Tables_number   1
_chemical_formula_structural   Pr3Sn3HgIrRh
_chemical_formula_sum   'Pr3 Sn3 Hg1 Ir1 Rh1'
_cell_volume   217.78321811
_cell_formula_units_Z   1
loop_
 _symmetry_equiv_pos_site_id
 _symmetry_equiv_pos_as_xyz
  1  'x, y, z'
loop_
 _atom_site_type_symbol
 _atom_site_label
 _atom_site_symmetry_multiplicity
 _atom_site_fract_x
 _atom_site_fract_y
 _atom_site_fract_z
 _atom_site_occupancy
  Pr  Pr0  1  0.601176  0.019260  0.500000  1
  Pr  Pr1  1  0.418084  0.398824  0.500000  1
  Pr  Pr2  1  0.980740  0.581916  0.500000  1
  Sn  Sn3  1  0.248223  0.010043  0.000000  1
  Sn  Sn4  1  0.761820  0.751777  0.000000  1
  Sn  Sn5  1  0.989957  0.238180  0.000000  1
  Hg  Hg6  1  0.333333  0.666667  0.000000  1
  Ir  Ir7  1  0.666667  0.333333  0.000000  1
  Rh  Rh8  1  0.000000  0.000000  0.500000  1
