# generated using pymatgen
data_Zr12Ti4Pd5Rh3N4
_symmetry_space_group_name_H-M   'P 1'
_cell_length_a   8.68769282
_cell_length_b   8.69566931
_cell_length_c   8.69566900
_cell_angle_alpha   60.00000499
_cell_angle_beta   59.96962862
_cell_angle_gamma   59.96962419
_symmetry_Int_Tables_number   1
_chemical_formula_structural   Zr12Ti4Pd5Rh3N4
_chemical_formula_sum   'Zr12 Ti4 Pd5 Rh3 N4'
_cell_volume   464.29708282
_cell_formula_units_Z   1
loop_
 _symmetry_equiv_pos_site_id
 _symmetry_equiv_pos_as_xyz
  1  'x, y, z'
loop_
 _atom_site_type_symbol
 _atom_site_label
 _atom_site_symmetry_multiplicity
 _atom_site_fract_x
 _atom_site_fract_y
 _atom_site_fract_z
 _atom_site_occupancy
  Zr  Zr0  1  0.814712  0.814599  0.185344  1
  Zr  Zr1  1  0.182995  0.187466  0.814770  1
  Zr  Zr2  1  0.814712  0.185344  0.814599  1
  Zr  Zr3  1  0.182995  0.814770  0.187466  1
  Zr  Zr4  1  0.182995  0.814770  0.814770  1
  Zr  Zr5  1  0.814712  0.185344  0.185344  1
  Zr  Zr6  1  0.435608  0.435004  0.064694  1
  Zr  Zr7  1  0.064425  0.064148  0.435714  1
  Zr  Zr8  1  0.435608  0.064694  0.435004  1
  Zr  Zr9  1  0.064425  0.435714  0.064148  1
  Zr  Zr10  1  0.064425  0.435714  0.435714  1
  Zr  Zr11  1  0.435608  0.064694  0.064694  1
  Ti  Ti12  1  0.109487  0.630171  0.630171  1
  Ti  Ti13  1  0.631302  0.115977  0.626361  1
  Ti  Ti14  1  0.631302  0.626361  0.115977  1
  Ti  Ti15  1  0.631302  0.626361  0.626361  1
  Pd  Pd16  1  0.754531  0.415156  0.415156  1
  Pd  Pd17  1  0.415140  0.753680  0.415590  1
  Pd  Pd18  1  0.415140  0.415590  0.753680  1
  Pd  Pd19  1  0.415140  0.415590  0.415590  1
  Pd  Pd20  1  0.492580  0.835807  0.835807  1
  Rh  Rh21  1  0.836409  0.488096  0.837747  1
  Rh  Rh22  1  0.836409  0.837747  0.488096  1
  Rh  Rh23  1  0.836409  0.837747  0.837747  1
  N  N24  1  0.625318  0.124894  0.124894  1
  N  N25  1  0.125436  0.625079  0.124742  1
  N  N26  1  0.125436  0.124742  0.625079  1
  N  N27  1  0.125436  0.124742  0.124742  1
