# generated using pymatgen
data_Sm3DyTh6(Si3C)2
_symmetry_space_group_name_H-M   'P 1'
_cell_length_a   8.79951200
_cell_length_b   8.79951206
_cell_length_c   6.40859100
_cell_angle_alpha   90.00000000
_cell_angle_beta   90.00000000
_cell_angle_gamma   119.99999978
_symmetry_Int_Tables_number   1
_chemical_formula_structural   Sm3DyTh6(Si3C)2
_chemical_formula_sum   'Sm3 Dy1 Th6 Si6 C2'
_cell_volume   429.74453924
_cell_formula_units_Z   1
loop_
 _symmetry_equiv_pos_site_id
 _symmetry_equiv_pos_as_xyz
  1  'x, y, z'
loop_
 _atom_site_type_symbol
 _atom_site_label
 _atom_site_symmetry_multiplicity
 _atom_site_fract_x
 _atom_site_fract_y
 _atom_site_fract_z
 _atom_site_occupancy
  Sm  Sm0  1  0.666667  0.333333  0.000000  1
  Sm  Sm1  1  0.333333  0.666667  0.000000  1
  Sm  Sm2  1  0.333333  0.666667  0.500000  1
  Dy  Dy3  1  0.666667  0.333333  0.500000  1
  Th  Th4  1  0.768189  0.768052  0.749672  1
  Th  Th5  1  0.231948  0.000137  0.749672  1
  Th  Th6  1  0.999863  0.231811  0.749672  1
  Th  Th7  1  0.231948  0.231811  0.250328  1
  Th  Th8  1  0.768189  0.000137  0.250328  1
  Th  Th9  1  0.999863  0.768052  0.250328  1
  Si  Si10  1  0.401383  0.399368  0.747794  1
  Si  Si11  1  0.600632  0.002016  0.747794  1
  Si  Si12  1  0.997984  0.598617  0.747794  1
  Si  Si13  1  0.600632  0.598617  0.252206  1
  Si  Si14  1  0.401383  0.002016  0.252206  1
  Si  Si15  1  0.997984  0.399368  0.252206  1
  C  C16  1  0.000000  0.000000  0.000000  1
  C  C17  1  0.000000  0.000000  0.500000  1
