# generated using pymatgen
data_Tb8DySc(SiB4)4
_symmetry_space_group_name_H-M   'P 1'
_cell_length_a   7.22094500
_cell_length_b   7.22094500
_cell_length_c   8.06229900
_cell_angle_alpha   90.00000000
_cell_angle_beta   90.00000000
_cell_angle_gamma   90.00000000
_symmetry_Int_Tables_number   1
_chemical_formula_structural   Tb8DySc(SiB4)4
_chemical_formula_sum   'Tb8 Dy1 Sc1 Si4 B16'
_cell_volume   420.38477091
_cell_formula_units_Z   1
loop_
 _symmetry_equiv_pos_site_id
 _symmetry_equiv_pos_as_xyz
  1  'x, y, z'
loop_
 _atom_site_type_symbol
 _atom_site_label
 _atom_site_symmetry_multiplicity
 _atom_site_fract_x
 _atom_site_fract_y
 _atom_site_fract_z
 _atom_site_occupancy
  Tb  Tb0  1  0.681035  0.179578  0.226404  1
  Tb  Tb1  1  0.318965  0.820422  0.773596  1
  Tb  Tb2  1  0.318965  0.820422  0.226404  1
  Tb  Tb3  1  0.820422  0.681035  0.226404  1
  Tb  Tb4  1  0.820422  0.681035  0.773596  1
  Tb  Tb5  1  0.681035  0.179578  0.773596  1
  Tb  Tb6  1  0.179578  0.318965  0.773596  1
  Tb  Tb7  1  0.179578  0.318965  0.226404  1
  Dy  Dy8  1  0.500000  0.500000  0.500000  1
  Sc  Sc9  1  0.000000  0.000000  0.500000  1
  Si  Si10  1  0.109910  0.622133  0.500000  1
  Si  Si11  1  0.890090  0.377867  0.500000  1
  Si  Si12  1  0.377867  0.109910  0.500000  1
  Si  Si13  1  0.622133  0.890090  0.500000  1
  B  B14  1  0.172534  0.038962  0.000000  1
  B  B15  1  0.827466  0.961038  0.000000  1
  B  B16  1  0.961038  0.172534  0.000000  1
  B  B17  1  0.327804  0.539257  0.000000  1
  B  B18  1  0.038962  0.827466  0.000000  1
  B  B19  1  0.672196  0.460743  0.000000  1
  B  B20  1  0.539257  0.672196  0.000000  1
  B  B21  1  0.460743  0.327804  0.000000  1
  B  B22  1  0.089808  0.589662  0.000000  1
  B  B23  1  0.910192  0.410338  0.000000  1
  B  B24  1  0.410338  0.089808  0.000000  1
  B  B25  1  0.589662  0.910192  0.000000  1
  B  B26  1  0.000000  0.000000  0.163279  1
  B  B27  1  0.000000  0.000000  0.836721  1
  B  B28  1  0.500000  0.500000  0.837545  1
  B  B29  1  0.500000  0.500000  0.162455  1
