# generated using pymatgen
data_Ac3(Cd2Pt)2
_symmetry_space_group_name_H-M   'P 1'
_cell_length_a   8.24277500
_cell_length_b   8.24277701
_cell_length_c   4.17649400
_cell_angle_alpha   90.00000000
_cell_angle_beta   90.00000000
_cell_angle_gamma   120.00000398
_symmetry_Int_Tables_number   1
_chemical_formula_structural   Ac3(Cd2Pt)2
_chemical_formula_sum   'Ac3 Cd4 Pt2'
_cell_volume   245.74770592
_cell_formula_units_Z   1
loop_
 _symmetry_equiv_pos_site_id
 _symmetry_equiv_pos_as_xyz
  1  'x, y, z'
loop_
 _atom_site_type_symbol
 _atom_site_label
 _atom_site_symmetry_multiplicity
 _atom_site_fract_x
 _atom_site_fract_y
 _atom_site_fract_z
 _atom_site_occupancy
  Ac  Ac0  1  0.418435  0.000000  0.000000  1
  Ac  Ac1  1  0.581565  0.581565  0.000000  1
  Ac  Ac2  1  0.000000  0.418435  0.000000  1
  Cd  Cd3  1  0.741072  0.000000  0.500000  1
  Cd  Cd4  1  0.258928  0.258928  0.500000  1
  Cd  Cd5  1  0.000000  0.741072  0.500000  1
  Cd  Cd6  1  0.000000  0.000000  0.000000  1
  Pt  Pt7  1  0.666667  0.333333  0.500000  1
  Pt  Pt8  1  0.333333  0.666667  0.500000  1
