# generated using pymatgen
data_La2Ga12Ir
_symmetry_space_group_name_H-M   'P 1'
_cell_length_a   6.18003400
_cell_length_b   6.18003400
_cell_length_c   15.80029000
_cell_angle_alpha   90.00000000
_cell_angle_beta   90.00000000
_cell_angle_gamma   90.00000000
_symmetry_Int_Tables_number   1
_chemical_formula_structural   La2Ga12Ir
_chemical_formula_sum   'La4 Ga24 Ir2'
_cell_volume   603.45763573
_cell_formula_units_Z   2
loop_
 _symmetry_equiv_pos_site_id
 _symmetry_equiv_pos_as_xyz
  1  'x, y, z'
loop_
 _atom_site_type_symbol
 _atom_site_label
 _atom_site_symmetry_multiplicity
 _atom_site_fract_x
 _atom_site_fract_y
 _atom_site_fract_z
 _atom_site_occupancy
  La  La0  1  0.750000  0.250000  0.242595  1
  La  La1  1  0.250000  0.750000  0.242595  1
  La  La2  1  0.250000  0.750000  0.757405  1
  La  La3  1  0.750000  0.250000  0.757405  1
  Ga  Ga4  1  0.250000  0.250000  0.188692  1
  Ga  Ga5  1  0.750000  0.750000  0.188692  1
  Ga  Ga6  1  0.750000  0.750000  0.811308  1
  Ga  Ga7  1  0.250000  0.250000  0.811308  1
  Ga  Ga8  1  0.250000  0.250000  0.347130  1
  Ga  Ga9  1  0.750000  0.750000  0.347130  1
  Ga  Ga10  1  0.750000  0.750000  0.652870  1
  Ga  Ga11  1  0.250000  0.250000  0.652870  1
  Ga  Ga12  1  0.500046  0.000046  0.913916  1
  Ga  Ga13  1  0.000046  0.999954  0.913916  1
  Ga  Ga14  1  0.499954  0.500046  0.913916  1
  Ga  Ga15  1  0.999954  0.499954  0.913916  1
  Ga  Ga16  1  0.499954  0.999954  0.086084  1
  Ga  Ga17  1  0.999954  0.000046  0.086084  1
  Ga  Ga18  1  0.500046  0.499954  0.086084  1
  Ga  Ga19  1  0.000046  0.500046  0.086084  1
  Ga  Ga20  1  0.580979  0.080979  0.432242  1
  Ga  Ga21  1  0.080979  0.919021  0.432242  1
  Ga  Ga22  1  0.419021  0.580979  0.432242  1
  Ga  Ga23  1  0.919021  0.419021  0.432242  1
  Ga  Ga24  1  0.419021  0.919021  0.567758  1
  Ga  Ga25  1  0.919021  0.080979  0.567758  1
  Ga  Ga26  1  0.580979  0.419021  0.567758  1
  Ga  Ga27  1  0.080979  0.580979  0.567758  1
  Ir  Ir28  1  0.750000  0.250000  0.000000  1
  Ir  Ir29  1  0.250000  0.750000  0.000000  1
