# generated using pymatgen
data_YbHo5Pa2(ReB6)4
_symmetry_space_group_name_H-M   'P 1'
_cell_length_a   3.69627200
_cell_length_b   9.16337964
_cell_length_c   11.53198999
_cell_angle_alpha   90.39240622
_cell_angle_beta   90.00000000
_cell_angle_gamma   90.00000000
_symmetry_Int_Tables_number   1
_chemical_formula_structural   YbHo5Pa2(ReB6)4
_chemical_formula_sum   'Yb1 Ho5 Pa2 Re4 B24'
_cell_volume   390.58330288
_cell_formula_units_Z   1
loop_
 _symmetry_equiv_pos_site_id
 _symmetry_equiv_pos_as_xyz
  1  'x, y, z'
loop_
 _atom_site_type_symbol
 _atom_site_label
 _atom_site_symmetry_multiplicity
 _atom_site_fract_x
 _atom_site_fract_y
 _atom_site_fract_z
 _atom_site_occupancy
  Yb  Yb0  1  0.000000  0.824161  0.085868  1
  Ho  Ho1  1  0.000000  0.174565  0.915299  1
  Ho  Ho2  1  0.000000  0.943840  0.371120  1
  Ho  Ho3  1  0.000000  0.055325  0.627500  1
  Ho  Ho4  1  0.000000  0.443755  0.127197  1
  Ho  Ho5  1  0.000000  0.557633  0.873404  1
  Pa  Pa6  1  0.000000  0.321030  0.412631  1
  Pa  Pa7  1  0.000000  0.679257  0.586901  1
  Re  Re8  1  0.000000  0.634303  0.325646  1
  Re  Re9  1  0.000000  0.364900  0.675251  1
  Re  Re10  1  0.000000  0.142256  0.182306  1
  Re  Re11  1  0.000000  0.859282  0.817128  1
  B  B12  1  0.500000  0.553161  0.433007  1
  B  B13  1  0.500000  0.446565  0.567384  1
  B  B14  1  0.500000  0.053488  0.067282  1
  B  B15  1  0.500000  0.946633  0.932763  1
  B  B16  1  0.500000  0.748210  0.419128  1
  B  B17  1  0.500000  0.251436  0.580751  1
  B  B18  1  0.500000  0.248056  0.080414  1
  B  B19  1  0.500000  0.752332  0.919302  1
  B  B20  1  0.500000  0.791110  0.266111  1
  B  B21  1  0.500000  0.208356  0.734128  1
  B  B22  1  0.500000  0.292322  0.233736  1
  B  B23  1  0.500000  0.708351  0.765991  1
  B  B24  1  0.500000  0.631437  0.185958  1
  B  B25  1  0.500000  0.368577  0.814616  1
  B  B26  1  0.500000  0.132672  0.313713  1
  B  B27  1  0.500000  0.867771  0.685842  1
  B  B28  1  0.500000  0.983068  0.211731  1
  B  B29  1  0.500000  0.017352  0.787916  1
  B  B30  1  0.500000  0.482852  0.287554  1
  B  B31  1  0.500000  0.517119  0.713002  1
  B  B32  1  0.500000  0.601780  0.028774  1
  B  B33  1  0.500000  0.396971  0.970982  1
  B  B34  1  0.500000  0.111214  0.469296  1
  B  B35  1  0.500000  0.888858  0.530371  1
