# generated using pymatgen
data_Dy2Ho3ErTa2O14
_symmetry_space_group_name_H-M   'P 1'
_cell_length_a   6.35085846
_cell_length_b   6.47139913
_cell_length_c   7.57093203
_cell_angle_alpha   106.74742252
_cell_angle_beta   89.67798471
_cell_angle_gamma   97.51534888
_symmetry_Int_Tables_number   1
_chemical_formula_structural   Dy2Ho3ErTa2O14
_chemical_formula_sum   'Dy2 Ho3 Er1 Ta2 O14'
_cell_volume   295.23125024
_cell_formula_units_Z   1
loop_
 _symmetry_equiv_pos_site_id
 _symmetry_equiv_pos_as_xyz
  1  'x, y, z'
loop_
 _atom_site_type_symbol
 _atom_site_label
 _atom_site_symmetry_multiplicity
 _atom_site_fract_x
 _atom_site_fract_y
 _atom_site_fract_z
 _atom_site_occupancy
  Dy  Dy0  1  0.736984  0.462338  0.114978  1
  Dy  Dy1  1  0.733329  0.454723  0.608144  1
  Ho  Ho2  1  0.544820  0.992322  0.750753  1
  Ho  Ho3  1  0.454398  0.007605  0.249338  1
  Ho  Ho4  1  0.267918  0.547521  0.393385  1
  Er  Er5  1  0.263505  0.538037  0.885146  1
  Ta  Ta6  1  0.000779  0.000299  0.999777  1
  Ta  Ta7  1  0.000516  0.000849  0.500475  1
  O  O8  1  0.707858  0.068159  0.481765  1
  O  O9  1  0.923357  0.677877  0.952207  1
  O  O10  1  0.707413  0.072059  0.051583  1
  O  O11  1  0.928313  0.668232  0.390930  1
  O  O12  1  0.908549  0.950654  0.736927  1
  O  O13  1  0.554416  0.347072  0.834261  1
  O  O14  1  0.539223  0.361380  0.341518  1
  O  O15  1  0.457613  0.638943  0.659582  1
  O  O16  1  0.441057  0.652523  0.165098  1
  O  O17  1  0.090336  0.049553  0.262960  1
  O  O18  1  0.074070  0.331170  0.610876  1
  O  O19  1  0.293364  0.926753  0.948918  1
  O  O20  1  0.079317  0.320624  0.043709  1
  O  O21  1  0.292867  0.931308  0.517667  1
