# generated using pymatgen
data_Re4MoAs14W
_symmetry_space_group_name_H-M   'P 1'
_cell_length_a   7.67482999
_cell_length_b   7.67483041
_cell_length_c   7.67537625
_cell_angle_alpha   109.54958649
_cell_angle_beta   109.59359174
_cell_angle_gamma   109.26775976
_symmetry_Int_Tables_number   1
_chemical_formula_structural   Re4MoAs14W
_chemical_formula_sum   'Re4 Mo1 As14 W1'
_cell_volume   348.03813667
_cell_formula_units_Z   1
loop_
 _symmetry_equiv_pos_site_id
 _symmetry_equiv_pos_as_xyz
  1  'x, y, z'
loop_
 _atom_site_type_symbol
 _atom_site_label
 _atom_site_symmetry_multiplicity
 _atom_site_fract_x
 _atom_site_fract_y
 _atom_site_fract_z
 _atom_site_occupancy
  Re  Re0  1  0.000020  0.662299  0.662319  1
  Re  Re1  1  0.340511  0.340456  0.000121  1
  Re  Re2  1  0.659665  0.659610  0.000121  1
  Re  Re3  1  0.662405  0.999973  0.662379  1
  Mo  Mo4  1  0.000152  0.341168  0.341319  1
  As  As5  1  0.749939  0.499363  0.249302  1
  As  As6  1  0.499382  0.749831  0.249213  1
  As  As7  1  0.499454  0.250935  0.750391  1
  As  As8  1  0.749558  0.249544  0.498967  1
  As  As9  1  0.249421  0.749407  0.498967  1
  As  As10  1  0.250913  0.499439  0.750353  1
  As  As11  1  0.999435  0.999590  0.330945  1
  As  As12  1  0.668080  0.999692  0.999591  1
  As  As13  1  0.999550  0.667938  0.999430  1
  As  As14  1  0.331355  0.331509  0.330945  1
  As  As15  1  0.999899  0.331511  0.999591  1
  As  As16  1  0.667868  0.667884  0.667737  1
  As  As17  1  0.331493  0.999880  0.999430  1
  As  As18  1  0.999852  0.999869  0.667737  1
  W  W19  1  0.341046  0.000100  0.341145  1
