# generated using pymatgen
data_TbDyB24
_symmetry_space_group_name_H-M   'P 1'
_cell_length_a   5.30318800
_cell_length_b   5.30318722
_cell_length_c   9.18534200
_cell_angle_alpha   73.22124969
_cell_angle_beta   90.00000000
_cell_angle_gamma   120.00000489
_symmetry_Int_Tables_number   1
_chemical_formula_structural   TbDyB24
_chemical_formula_sum   'Tb1 Dy1 B24'
_cell_volume   210.92271847
_cell_formula_units_Z   1
loop_
 _symmetry_equiv_pos_site_id
 _symmetry_equiv_pos_as_xyz
  1  'x, y, z'
loop_
 _atom_site_type_symbol
 _atom_site_label
 _atom_site_symmetry_multiplicity
 _atom_site_fract_x
 _atom_site_fract_y
 _atom_site_fract_z
 _atom_site_occupancy
  Tb  Tb0  1  0.500000  0.000000  0.500000  1
  Dy  Dy1  1  0.000000  0.000000  0.000000  1
  B  B2  1  0.912161  0.500107  0.249898  1
  B  B3  1  0.412053  0.499893  0.750102  1
  B  B4  1  0.081144  0.500198  0.418657  1
  B  B5  1  0.581145  0.500099  0.918756  1
  B  B6  1  0.249995  0.837941  0.249898  1
  B  B7  1  0.750005  0.837844  0.750102  1
  B  B8  1  0.081144  0.162288  0.418657  1
  B  B9  1  0.581145  0.162290  0.918756  1
  B  B10  1  0.912161  0.162156  0.249898  1
  B  B11  1  0.412053  0.162059  0.750102  1
  B  B12  1  0.249995  0.162156  0.249898  1
  B  B13  1  0.750005  0.162059  0.750102  1
  B  B14  1  0.418855  0.837710  0.081244  1
  B  B15  1  0.918856  0.837712  0.581343  1
  B  B16  1  0.418855  0.499901  0.081244  1
  B  B17  1  0.918856  0.499802  0.581343  1
  B  B18  1  0.081046  0.499901  0.081244  1
  B  B19  1  0.580946  0.499802  0.581343  1
  B  B20  1  0.587947  0.500107  0.249898  1
  B  B21  1  0.087839  0.499893  0.750102  1
  B  B22  1  0.587947  0.837941  0.249898  1
  B  B23  1  0.087839  0.837844  0.750102  1
  B  B24  1  0.419054  0.500198  0.418657  1
  B  B25  1  0.918954  0.500099  0.918756  1
