# generated using pymatgen
data_Pr8LuHfIr6
_symmetry_space_group_name_H-M   'P 1'
_cell_length_a   11.26065400
_cell_length_b   11.26065400
_cell_length_c   6.48000500
_cell_angle_alpha   90.00000000
_cell_angle_beta   90.00000000
_cell_angle_gamma   90.00000000
_symmetry_Int_Tables_number   1
_chemical_formula_structural   Pr8LuHfIr6
_chemical_formula_sum   'Pr16 Lu2 Hf2 Ir12'
_cell_volume   821.67972274
_cell_formula_units_Z   2
loop_
 _symmetry_equiv_pos_site_id
 _symmetry_equiv_pos_as_xyz
  1  'x, y, z'
loop_
 _atom_site_type_symbol
 _atom_site_label
 _atom_site_symmetry_multiplicity
 _atom_site_fract_x
 _atom_site_fract_y
 _atom_site_fract_z
 _atom_site_occupancy
  Pr  Pr0  1  0.286063  0.086607  0.379498  1
  Pr  Pr1  1  0.286063  0.913393  0.879498  1
  Pr  Pr2  1  0.713937  0.086607  0.879498  1
  Pr  Pr3  1  0.713937  0.913393  0.379498  1
  Pr  Pr4  1  0.585937  0.787421  0.881363  1
  Pr  Pr5  1  0.585937  0.212579  0.381363  1
  Pr  Pr6  1  0.414063  0.787421  0.381363  1
  Pr  Pr7  1  0.414063  0.212579  0.881363  1
  Pr  Pr8  1  0.212579  0.414063  0.618637  1
  Pr  Pr9  1  0.212579  0.585937  0.118637  1
  Pr  Pr10  1  0.787421  0.414063  0.118637  1
  Pr  Pr11  1  0.787421  0.585937  0.618637  1
  Pr  Pr12  1  0.913393  0.713937  0.120502  1
  Pr  Pr13  1  0.913393  0.286063  0.620502  1
  Pr  Pr14  1  0.086607  0.713937  0.620502  1
  Pr  Pr15  1  0.086607  0.286063  0.120502  1
  Lu  Lu16  1  0.500000  0.500000  0.000000  1
  Lu  Lu17  1  0.500000  0.500000  0.500000  1
  Hf  Hf18  1  0.000000  0.000000  0.500000  1
  Hf  Hf19  1  0.000000  0.000000  0.000000  1
  Ir  Ir20  1  0.865208  0.134792  0.250000  1
  Ir  Ir21  1  0.865208  0.865208  0.750000  1
  Ir  Ir22  1  0.134792  0.134792  0.750000  1
  Ir  Ir23  1  0.134792  0.865208  0.250000  1
  Ir  Ir24  1  0.646511  0.353489  0.750000  1
  Ir  Ir25  1  0.646511  0.646511  0.250000  1
  Ir  Ir26  1  0.353489  0.353489  0.250000  1
  Ir  Ir27  1  0.353489  0.646511  0.750000  1
  Ir  Ir28  1  0.500000  0.000000  0.118193  1
  Ir  Ir29  1  0.500000  0.000000  0.618193  1
  Ir  Ir30  1  0.000000  0.500000  0.881807  1
  Ir  Ir31  1  0.000000  0.500000  0.381807  1
