# generated using pymatgen
data_YbPrAl3Os
_symmetry_space_group_name_H-M   'P 1'
_cell_length_a   5.61442700
_cell_length_b   5.61442640
_cell_length_c   8.86703900
_cell_angle_alpha   90.00000000
_cell_angle_beta   90.00000000
_cell_angle_gamma   119.99999767
_symmetry_Int_Tables_number   1
_chemical_formula_structural   YbPrAl3Os
_chemical_formula_sum   'Yb2 Pr2 Al6 Os2'
_cell_volume   242.05836337
_cell_formula_units_Z   2
loop_
 _symmetry_equiv_pos_site_id
 _symmetry_equiv_pos_as_xyz
  1  'x, y, z'
loop_
 _atom_site_type_symbol
 _atom_site_label
 _atom_site_symmetry_multiplicity
 _atom_site_fract_x
 _atom_site_fract_y
 _atom_site_fract_z
 _atom_site_occupancy
  Yb  Yb0  1  0.333334  0.666667  0.553400  1
  Yb  Yb1  1  0.333334  0.666667  0.946600  1
  Pr  Pr2  1  0.666666  0.333333  0.048918  1
  Pr  Pr3  1  0.666666  0.333333  0.451082  1
  Al  Al4  1  0.158941  0.317882  0.250000  1
  Al  Al5  1  0.158941  0.841059  0.250000  1
  Al  Al6  1  0.682117  0.841059  0.250000  1
  Al  Al7  1  0.314860  0.157430  0.750000  1
  Al  Al8  1  0.842570  0.157430  0.750000  1
  Al  Al9  1  0.842570  0.685140  0.750000  1
  Os  Os10  1  0.000000  0.000000  0.997664  1
  Os  Os11  1  0.000000  0.000000  0.502336  1
