# generated using pymatgen
data_Ta12Al8Pd3WC4
_symmetry_space_group_name_H-M   'P 1'
_cell_length_a   8.40498778
_cell_length_b   8.40498724
_cell_length_c   8.40498603
_cell_angle_alpha   59.47023698
_cell_angle_beta   59.47024021
_cell_angle_gamma   59.47024381
_symmetry_Int_Tables_number   1
_chemical_formula_structural   Ta12Al8Pd3WC4
_chemical_formula_sum   'Ta12 Al8 Pd3 W1 C4'
_cell_volume   414.79256584
_cell_formula_units_Z   1
loop_
 _symmetry_equiv_pos_site_id
 _symmetry_equiv_pos_as_xyz
  1  'x, y, z'
loop_
 _atom_site_type_symbol
 _atom_site_label
 _atom_site_symmetry_multiplicity
 _atom_site_fract_x
 _atom_site_fract_y
 _atom_site_fract_z
 _atom_site_occupancy
  Ta  Ta0  1  0.568511  0.932764  0.568511  1
  Ta  Ta1  1  0.317236  0.681489  0.681489  1
  Ta  Ta2  1  0.699086  0.311375  0.311375  1
  Ta  Ta3  1  0.311375  0.699086  0.311375  1
  Ta  Ta4  1  0.681489  0.681489  0.317236  1
  Ta  Ta5  1  0.311375  0.311375  0.699086  1
  Ta  Ta6  1  0.568511  0.568511  0.932764  1
  Ta  Ta7  1  0.932764  0.568511  0.568511  1
  Ta  Ta8  1  0.550914  0.938625  0.938625  1
  Ta  Ta9  1  0.938625  0.938625  0.550914  1
  Ta  Ta10  1  0.681489  0.317236  0.681489  1
  Ta  Ta11  1  0.938625  0.550914  0.938625  1
  Al  Al12  1  0.912777  0.912777  0.912777  1
  Al  Al13  1  0.999415  0.336599  0.336599  1
  Al  Al14  1  0.336599  0.999415  0.336599  1
  Al  Al15  1  0.336599  0.336599  0.999415  1
  Al  Al16  1  0.913401  0.250585  0.913401  1
  Al  Al17  1  0.913401  0.913401  0.250585  1
  Al  Al18  1  0.250585  0.913401  0.913401  1
  Al  Al19  1  0.337223  0.337223  0.337223  1
  Pd  Pd20  1  0.625000  0.125000  0.125000  1
  Pd  Pd21  1  0.125000  0.625000  0.125000  1
  Pd  Pd22  1  0.125000  0.125000  0.625000  1
  W  W23  1  0.125000  0.125000  0.125000  1
  C  C24  1  0.625000  0.625000  0.625000  1
  C  C25  1  0.125000  0.625000  0.625000  1
  C  C26  1  0.625000  0.125000  0.625000  1
  C  C27  1  0.625000  0.625000  0.125000  1
