# generated using pymatgen
data_V4H3
_symmetry_space_group_name_H-M   'P 1'
_cell_length_a   2.71098390
_cell_length_b   5.20513853
_cell_length_c   5.42870519
_cell_angle_alpha   58.37155458
_cell_angle_beta   109.30923283
_cell_angle_gamma   99.90567254
_symmetry_Int_Tables_number   1
_chemical_formula_structural   V4H3
_chemical_formula_sum   'V4 H3'
_cell_volume   61.55713639
_cell_formula_units_Z   1
loop_
 _symmetry_equiv_pos_site_id
 _symmetry_equiv_pos_as_xyz
  1  'x, y, z'
loop_
 _atom_site_type_symbol
 _atom_site_label
 _atom_site_symmetry_multiplicity
 _atom_site_fract_x
 _atom_site_fract_y
 _atom_site_fract_z
 _atom_site_occupancy
  V  V0  1  0.261454  0.240183  0.079091  1
  V  V1  1  0.766134  0.732301  0.096709  1
  V  V2  1  0.745654  0.730110  0.569329  1
  V  V3  1  0.253532  0.259289  0.568310  1
  H  H4  1  0.132948  0.621410  0.947423  1
  H  H5  1  0.877951  0.112487  0.828697  1
  H  H6  1  0.260002  0.989702  0.460461  1
