# generated using pymatgen
data_TiNb2(ReSi)3
_symmetry_space_group_name_H-M   'P 1'
_cell_length_a   6.89233369
_cell_length_b   6.80523218
_cell_length_c   3.30183700
_cell_angle_alpha   90.00000000
_cell_angle_beta   90.00000000
_cell_angle_gamma   119.58282554
_symmetry_Int_Tables_number   1
_chemical_formula_structural   TiNb2(ReSi)3
_chemical_formula_sum   'Ti1 Nb2 Re3 Si3'
_cell_volume   134.68085142
_cell_formula_units_Z   1
loop_
 _symmetry_equiv_pos_site_id
 _symmetry_equiv_pos_as_xyz
  1  'x, y, z'
loop_
 _atom_site_type_symbol
 _atom_site_label
 _atom_site_symmetry_multiplicity
 _atom_site_fract_x
 _atom_site_fract_y
 _atom_site_fract_z
 _atom_site_occupancy
  Ti  Ti0  1  0.000000  0.599609  0.500000  1
  Nb  Nb1  1  0.406028  0.401241  0.500000  1
  Nb  Nb2  1  0.593972  0.995213  0.500000  1
  Re  Re3  1  0.745413  0.743897  0.000000  1
  Re  Re4  1  0.254587  0.998484  0.000000  1
  Re  Re5  1  0.000000  0.260839  0.000000  1
  Si  Si6  1  0.672111  0.335519  0.000000  1
  Si  Si7  1  0.327889  0.663409  0.000000  1
  Si  Si8  1  0.000000  0.001788  0.500000  1
