# generated using pymatgen
data_TiNb8CuSe16
_symmetry_space_group_name_H-M   'P 1'
_cell_length_a   7.00895900
_cell_length_b   7.00896014
_cell_length_c   12.89591200
_cell_angle_alpha   90.00000000
_cell_angle_beta   90.00000000
_cell_angle_gamma   120.00000877
_symmetry_Int_Tables_number   1
_chemical_formula_structural   TiNb8CuSe16
_chemical_formula_sum   'Ti1 Nb8 Cu1 Se16'
_cell_volume   548.64290077
_cell_formula_units_Z   1
loop_
 _symmetry_equiv_pos_site_id
 _symmetry_equiv_pos_as_xyz
  1  'x, y, z'
loop_
 _atom_site_type_symbol
 _atom_site_label
 _atom_site_symmetry_multiplicity
 _atom_site_fract_x
 _atom_site_fract_y
 _atom_site_fract_z
 _atom_site_occupancy
  Ti  Ti0  1  0.000000  0.000000  0.500000  1
  Nb  Nb1  1  0.000000  0.000000  0.248953  1
  Nb  Nb2  1  0.000000  0.000000  0.751047  1
  Nb  Nb3  1  0.508465  0.016930  0.250409  1
  Nb  Nb4  1  0.491535  0.983070  0.749591  1
  Nb  Nb5  1  0.983070  0.491535  0.250409  1
  Nb  Nb6  1  0.016930  0.508465  0.749591  1
  Nb  Nb7  1  0.508465  0.491535  0.250409  1
  Nb  Nb8  1  0.491535  0.508465  0.749591  1
  Cu  Cu9  1  0.000000  0.000000  0.000000  1
  Se  Se10  1  0.333333  0.666667  0.613902  1
  Se  Se11  1  0.666667  0.333333  0.386098  1
  Se  Se12  1  0.666667  0.333333  0.116574  1
  Se  Se13  1  0.333333  0.666667  0.883426  1
  Se  Se14  1  0.170291  0.340580  0.121745  1
  Se  Se15  1  0.829709  0.659420  0.878255  1
  Se  Se16  1  0.659420  0.829709  0.121745  1
  Se  Se17  1  0.832330  0.664661  0.621026  1
  Se  Se18  1  0.340580  0.170291  0.878255  1
  Se  Se19  1  0.167670  0.335339  0.378974  1
  Se  Se20  1  0.170291  0.829709  0.121745  1
  Se  Se21  1  0.335339  0.167670  0.621026  1
  Se  Se22  1  0.829709  0.170291  0.878255  1
  Se  Se23  1  0.664661  0.832330  0.378974  1
  Se  Se24  1  0.832330  0.167670  0.621026  1
  Se  Se25  1  0.167670  0.832330  0.378974  1
