# generated using pymatgen
data_V5Sb(O5F)2
_symmetry_space_group_name_H-M   'P 1'
_cell_length_a   5.58914367
_cell_length_b   5.58914372
_cell_length_c   7.34167486
_cell_angle_alpha   71.73479668
_cell_angle_beta   71.73479706
_cell_angle_gamma   71.35678683
_symmetry_Int_Tables_number   1
_chemical_formula_structural   V5Sb(O5F)2
_chemical_formula_sum   'V5 Sb1 O10 F2'
_cell_volume   200.48214064
_cell_formula_units_Z   1
loop_
 _symmetry_equiv_pos_site_id
 _symmetry_equiv_pos_as_xyz
  1  'x, y, z'
loop_
 _atom_site_type_symbol
 _atom_site_label
 _atom_site_symmetry_multiplicity
 _atom_site_fract_x
 _atom_site_fract_y
 _atom_site_fract_z
 _atom_site_occupancy
  V  V0  1  0.169942  0.169942  0.837384  1
  V  V1  1  0.500000  0.500000  0.500000  1
  V  V2  1  0.148890  0.148890  0.316582  1
  V  V3  1  0.851110  0.851110  0.683418  1
  V  V4  1  0.830058  0.830058  0.162616  1
  Sb  Sb5  1  0.500000  0.500000  0.000000  1
  O  O6  1  0.475596  0.864287  0.827464  1
  O  O7  1  0.808704  0.191296  0.500000  1
  O  O8  1  0.063198  0.063198  0.135002  1
  O  O9  1  0.399812  0.399812  0.796285  1
  O  O10  1  0.936802  0.936802  0.864998  1
  O  O11  1  0.600188  0.600188  0.203715  1
  O  O12  1  0.524404  0.135713  0.172536  1
  O  O13  1  0.864287  0.475596  0.827464  1
  O  O14  1  0.191296  0.808704  0.500000  1
  O  O15  1  0.135713  0.524404  0.172536  1
  F  F16  1  0.736303  0.736303  0.468141  1
  F  F17  1  0.263697  0.263697  0.531859  1
