# generated using pymatgen
data_TbZnGePtRh
_symmetry_space_group_name_H-M   'P 1'
_cell_length_a   4.09138800
_cell_length_b   4.09138800
_cell_length_c   10.96860800
_cell_angle_alpha   90.00000000
_cell_angle_beta   90.00000000
_cell_angle_gamma   90.00000000
_symmetry_Int_Tables_number   1
_chemical_formula_structural   TbZnGePtRh
_chemical_formula_sum   'Tb2 Zn2 Ge2 Pt2 Rh2'
_cell_volume   183.60852844
_cell_formula_units_Z   2
loop_
 _symmetry_equiv_pos_site_id
 _symmetry_equiv_pos_as_xyz
  1  'x, y, z'
loop_
 _atom_site_type_symbol
 _atom_site_label
 _atom_site_symmetry_multiplicity
 _atom_site_fract_x
 _atom_site_fract_y
 _atom_site_fract_z
 _atom_site_occupancy
  Tb  Tb0  1  0.000000  0.500000  0.246296  1
  Tb  Tb1  1  0.500000  0.000000  0.753704  1
  Zn  Zn2  1  0.000000  0.000000  0.500000  1
  Zn  Zn3  1  0.500000  0.500000  0.500000  1
  Ge  Ge4  1  0.000000  0.500000  0.875784  1
  Ge  Ge5  1  0.500000  0.000000  0.124216  1
  Pt  Pt6  1  0.000000  0.500000  0.650626  1
  Pt  Pt7  1  0.500000  0.000000  0.349374  1
  Rh  Rh8  1  0.000000  0.000000  0.000000  1
  Rh  Rh9  1  0.500000  0.500000  0.000000  1
