# generated using pymatgen
data_Tb19YSn11Bi5
_symmetry_space_group_name_H-M   'P 1'
_cell_length_a   8.22505170
_cell_length_b   8.23112924
_cell_length_c   15.62388130
_cell_angle_alpha   90.10956323
_cell_angle_beta   90.37229875
_cell_angle_gamma   89.89060406
_symmetry_Int_Tables_number   1
_chemical_formula_structural   Tb19YSn11Bi5
_chemical_formula_sum   'Tb19 Y1 Sn11 Bi5'
_cell_volume   1057.73346352
_cell_formula_units_Z   1
loop_
 _symmetry_equiv_pos_site_id
 _symmetry_equiv_pos_as_xyz
  1  'x, y, z'
loop_
 _atom_site_type_symbol
 _atom_site_label
 _atom_site_symmetry_multiplicity
 _atom_site_fract_x
 _atom_site_fract_y
 _atom_site_fract_z
 _atom_site_occupancy
  Tb  Tb0  1  0.391525  0.838396  0.877538  1
  Tb  Tb1  1  0.891623  0.660957  0.621731  1
  Tb  Tb2  1  0.608504  0.159601  0.377613  1
  Tb  Tb3  1  0.105465  0.337979  0.121890  1
  Tb  Tb4  1  0.610828  0.164859  0.122438  1
  Tb  Tb5  1  0.114931  0.336234  0.380139  1
  Tb  Tb6  1  0.383509  0.837790  0.620680  1
  Tb  Tb7  1  0.888079  0.658354  0.878902  1
  Tb  Tb8  1  0.562451  0.335694  0.889404  1
  Tb  Tb9  1  0.060520  0.172599  0.608405  1
  Tb  Tb10  1  0.440310  0.672475  0.392087  1
  Tb  Tb11  1  0.940567  0.824565  0.111879  1
  Tb  Tb12  1  0.449389  0.664079  0.110725  1
  Tb  Tb13  1  0.958188  0.829247  0.393175  1
  Tb  Tb14  1  0.541068  0.330340  0.606129  1
  Tb  Tb15  1  0.053607  0.173576  0.889171  1
  Tb  Tb16  1  0.221418  0.501351  0.745895  1
  Tb  Tb17  1  0.721625  0.001000  0.748730  1
  Tb  Tb18  1  0.778476  0.498648  0.248120  1
  Y  Y19  1  0.278591  0.999138  0.253753  1
  Sn  Sn20  1  0.224738  0.526119  0.543800  1
  Sn  Sn21  1  0.275084  0.025081  0.456287  1
  Sn  Sn22  1  0.770575  0.478960  0.044802  1
  Sn  Sn23  1  0.586933  0.628515  0.748746  1
  Sn  Sn24  1  0.085638  0.873753  0.751802  1
  Sn  Sn25  1  0.411832  0.372349  0.249961  1
  Sn  Sn26  1  0.913531  0.125725  0.250975  1
  Sn  Sn27  1  0.359584  0.144103  0.751065  1
  Sn  Sn28  1  0.857563  0.356957  0.747978  1
  Sn  Sn29  1  0.642224  0.855777  0.251161  1
  Sn  Sn30  1  0.142213  0.641108  0.250319  1
  Bi  Bi31  1  0.266515  0.014991  0.045559  1
  Bi  Bi32  1  0.768926  0.479259  0.455231  1
  Bi  Bi33  1  0.730478  0.980169  0.544030  1
  Bi  Bi34  1  0.232096  0.518204  0.954794  1
  Bi  Bi35  1  0.731395  0.982051  0.955083  1
