# generated using pymatgen
data_Pr4DyGa2Sn
_symmetry_space_group_name_H-M   'P 1'
_cell_length_a   8.02265400
_cell_length_b   8.02265400
_cell_length_c   14.58996100
_cell_angle_alpha   90.00000000
_cell_angle_beta   90.00000000
_cell_angle_gamma   90.00000000
_symmetry_Int_Tables_number   1
_chemical_formula_structural   Pr4DyGa2Sn
_chemical_formula_sum   'Pr16 Dy4 Ga8 Sn4'
_cell_volume   939.05332725
_cell_formula_units_Z   4
loop_
 _symmetry_equiv_pos_site_id
 _symmetry_equiv_pos_as_xyz
  1  'x, y, z'
loop_
 _atom_site_type_symbol
 _atom_site_label
 _atom_site_symmetry_multiplicity
 _atom_site_fract_x
 _atom_site_fract_y
 _atom_site_fract_z
 _atom_site_occupancy
  Pr  Pr0  1  0.825173  0.839468  0.606301  1
  Pr  Pr1  1  0.174827  0.839468  0.106301  1
  Pr  Pr2  1  0.160532  0.825173  0.393699  1
  Pr  Pr3  1  0.839468  0.174827  0.393699  1
  Pr  Pr4  1  0.674827  0.660532  0.393699  1
  Pr  Pr5  1  0.660532  0.325173  0.606301  1
  Pr  Pr6  1  0.339468  0.674827  0.606301  1
  Pr  Pr7  1  0.660532  0.674827  0.106301  1
  Pr  Pr8  1  0.674827  0.339468  0.893699  1
  Pr  Pr9  1  0.839468  0.825173  0.893699  1
  Pr  Pr10  1  0.325173  0.339468  0.393699  1
  Pr  Pr11  1  0.174827  0.160532  0.606301  1
  Pr  Pr12  1  0.825173  0.160532  0.106301  1
  Pr  Pr13  1  0.325173  0.660532  0.893699  1
  Pr  Pr14  1  0.339468  0.325173  0.106301  1
  Pr  Pr15  1  0.160532  0.174827  0.893699  1
  Dy  Dy16  1  0.000000  0.500000  0.732182  1
  Dy  Dy17  1  0.000000  0.500000  0.232182  1
  Dy  Dy18  1  0.500000  0.000000  0.267818  1
  Dy  Dy19  1  0.500000  0.000000  0.767818  1
  Ga  Ga20  1  0.626543  0.373457  0.250000  1
  Ga  Ga21  1  0.126543  0.873457  0.750000  1
  Ga  Ga22  1  0.373457  0.373457  0.750000  1
  Ga  Ga23  1  0.373457  0.626543  0.250000  1
  Ga  Ga24  1  0.873457  0.873457  0.250000  1
  Ga  Ga25  1  0.626543  0.626543  0.750000  1
  Ga  Ga26  1  0.873457  0.126543  0.750000  1
  Ga  Ga27  1  0.126543  0.126543  0.250000  1
  Sn  Sn28  1  0.000000  0.500000  0.507679  1
  Sn  Sn29  1  0.500000  0.000000  0.492321  1
  Sn  Sn30  1  0.500000  0.000000  0.992321  1
  Sn  Sn31  1  0.000000  0.500000  0.007679  1
