# generated using pymatgen
data_LuPa2(GaPt)3
_symmetry_space_group_name_H-M   'P 1'
_cell_length_a   7.15144453
_cell_length_b   7.19773777
_cell_length_c   4.00713200
_cell_angle_alpha   90.00000000
_cell_angle_beta   90.00000000
_cell_angle_gamma   120.21438483
_symmetry_Int_Tables_number   1
_chemical_formula_structural   LuPa2(GaPt)3
_chemical_formula_sum   'Lu1 Pa2 Ga3 Pt3'
_cell_volume   178.24272619
_cell_formula_units_Z   1
loop_
 _symmetry_equiv_pos_site_id
 _symmetry_equiv_pos_as_xyz
  1  'x, y, z'
loop_
 _atom_site_type_symbol
 _atom_site_label
 _atom_site_symmetry_multiplicity
 _atom_site_fract_x
 _atom_site_fract_y
 _atom_site_fract_z
 _atom_site_occupancy
  Lu  Lu0  1  0.000000  0.591521  0.500000  1
  Pa  Pa1  1  0.416249  0.414992  0.500000  1
  Pa  Pa2  1  0.583751  0.998743  0.500000  1
  Ga  Ga3  1  0.760994  0.750720  0.000000  1
  Ga  Ga4  1  0.239006  0.989726  0.000000  1
  Ga  Ga5  1  0.000000  0.254023  0.000000  1
  Pt  Pt6  1  0.657011  0.325693  0.000000  1
  Pt  Pt7  1  0.342989  0.668682  0.000000  1
  Pt  Pt8  1  0.000000  0.005901  0.500000  1
