# generated using pymatgen
data_Ho3Tm9Os4
_symmetry_space_group_name_H-M   'P 1'
_cell_length_a   7.36117717
_cell_length_b   8.91548900
_cell_length_c   6.24781607
_cell_angle_alpha   90.00000000
_cell_angle_beta   90.04114611
_cell_angle_gamma   90.00000000
_symmetry_Int_Tables_number   1
_chemical_formula_structural   Ho3Tm9Os4
_chemical_formula_sum   'Ho3 Tm9 Os4'
_cell_volume   410.03465448
_cell_formula_units_Z   1
loop_
 _symmetry_equiv_pos_site_id
 _symmetry_equiv_pos_as_xyz
  1  'x, y, z'
loop_
 _atom_site_type_symbol
 _atom_site_label
 _atom_site_symmetry_multiplicity
 _atom_site_fract_x
 _atom_site_fract_y
 _atom_site_fract_z
 _atom_site_occupancy
  Ho  Ho0  1  0.040101  0.250000  0.630182  1
  Ho  Ho1  1  0.959924  0.750000  0.370019  1
  Ho  Ho2  1  0.459969  0.750000  0.130071  1
  Tm  Tm3  1  0.540179  0.250000  0.869677  1
  Tm  Tm4  1  0.174805  0.062795  0.166585  1
  Tm  Tm5  1  0.825146  0.937446  0.833304  1
  Tm  Tm6  1  0.325682  0.937514  0.666962  1
  Tm  Tm7  1  0.825146  0.562554  0.833304  1
  Tm  Tm8  1  0.674481  0.062945  0.332837  1
  Tm  Tm9  1  0.174805  0.437205  0.166585  1
  Tm  Tm10  1  0.674481  0.437055  0.332837  1
  Tm  Tm11  1  0.325682  0.562486  0.666962  1
  Os  Os12  1  0.383242  0.250000  0.460746  1
  Os  Os13  1  0.617050  0.750000  0.540398  1
  Os  Os14  1  0.117143  0.750000  0.959618  1
  Os  Os15  1  0.882165  0.250000  0.039916  1
