# generated using pymatgen
data_Y9Ho7MgCd2Co4Ag
_symmetry_space_group_name_H-M   'P 1'
_cell_length_a   9.48853925
_cell_length_b   9.46821307
_cell_length_c   9.52294300
_cell_angle_alpha   60.12172889
_cell_angle_beta   59.88096696
_cell_angle_gamma   60.05822555
_symmetry_Int_Tables_number   1
_chemical_formula_structural   Y9Ho7MgCd2Co4Ag
_chemical_formula_sum   'Y9 Ho7 Mg1 Cd2 Co4 Ag1'
_cell_volume   605.22845522
_cell_formula_units_Z   1
loop_
 _symmetry_equiv_pos_site_id
 _symmetry_equiv_pos_as_xyz
  1  'x, y, z'
loop_
 _atom_site_type_symbol
 _atom_site_label
 _atom_site_symmetry_multiplicity
 _atom_site_fract_x
 _atom_site_fract_y
 _atom_site_fract_z
 _atom_site_occupancy
  Y  Y0  1  0.940655  0.937182  0.560354  1
  Y  Y1  1  0.813214  0.186841  0.185243  1
  Y  Y2  1  0.939548  0.561636  0.563326  1
  Y  Y3  1  0.937477  0.563159  0.933637  1
  Y  Y4  1  0.813025  0.812966  0.185211  1
  Y  Y5  1  0.346906  0.343869  0.348406  1
  Y  Y6  1  0.560104  0.939084  0.938045  1
  Y  Y7  1  0.564667  0.934626  0.566215  1
  Y  Y8  1  0.187357  0.811591  0.810341  1
  Ho  Ho9  1  0.187401  0.187906  0.811322  1
  Ho  Ho10  1  0.346193  0.348590  0.958336  1
  Ho  Ho11  1  0.347295  0.964819  0.347323  1
  Ho  Ho12  1  0.810283  0.189012  0.809958  1
  Ho  Ho13  1  0.560286  0.560287  0.938541  1
  Ho  Ho14  1  0.188097  0.812466  0.185714  1
  Ho  Ho15  1  0.965101  0.346956  0.344882  1
  Mg  Mg16  1  0.573432  0.574207  0.276092  1
  Cd  Cd17  1  0.579238  0.580643  0.580064  1
  Cd  Cd18  1  0.579253  0.258515  0.580223  1
  Co  Co19  1  0.575757  0.145388  0.135142  1
  Co  Co20  1  0.146082  0.139132  0.140347  1
  Co  Co21  1  0.145645  0.576674  0.141048  1
  Co  Co22  1  0.137326  0.143964  0.578242  1
  Ag  Ag23  1  0.255668  0.580494  0.581994  1
