# generated using pymatgen
data_SmEr4In2(HgPt)2
_symmetry_space_group_name_H-M   'P 1'
_cell_length_a   3.62763200
_cell_length_b   8.02236300
_cell_length_c   18.40510700
_cell_angle_alpha   90.00000000
_cell_angle_beta   90.00000000
_cell_angle_gamma   90.00000000
_symmetry_Int_Tables_number   1
_chemical_formula_structural   SmEr4In2(HgPt)2
_chemical_formula_sum   'Sm2 Er8 In4 Hg4 Pt4'
_cell_volume   535.62875035
_cell_formula_units_Z   2
loop_
 _symmetry_equiv_pos_site_id
 _symmetry_equiv_pos_as_xyz
  1  'x, y, z'
loop_
 _atom_site_type_symbol
 _atom_site_label
 _atom_site_symmetry_multiplicity
 _atom_site_fract_x
 _atom_site_fract_y
 _atom_site_fract_z
 _atom_site_occupancy
  Sm  Sm0  1  0.000000  0.500000  0.500000  1
  Sm  Sm1  1  0.000000  0.000000  0.000000  1
  Er  Er2  1  0.000000  0.744615  0.283210  1
  Er  Er3  1  0.000000  0.255385  0.716790  1
  Er  Er4  1  0.000000  0.755385  0.783210  1
  Er  Er5  1  0.000000  0.244615  0.216790  1
  Er  Er6  1  0.000000  0.608534  0.086078  1
  Er  Er7  1  0.000000  0.391466  0.913922  1
  Er  Er8  1  0.000000  0.891466  0.586078  1
  Er  Er9  1  0.000000  0.108534  0.413922  1
  In  In10  1  0.500000  0.579455  0.649925  1
  In  In11  1  0.500000  0.420545  0.350075  1
  In  In12  1  0.500000  0.920545  0.149925  1
  In  In13  1  0.500000  0.079455  0.850075  1
  Hg  Hg14  1  0.500000  0.710050  0.933288  1
  Hg  Hg15  1  0.500000  0.289950  0.066712  1
  Hg  Hg16  1  0.500000  0.789950  0.433288  1
  Hg  Hg17  1  0.500000  0.210050  0.566712  1
  Pt  Pt18  1  0.500000  0.532023  0.198361  1
  Pt  Pt19  1  0.500000  0.467977  0.801639  1
  Pt  Pt20  1  0.500000  0.967977  0.698361  1
  Pt  Pt21  1  0.500000  0.032023  0.301639  1
