# generated using pymatgen
data_RbSc2FeH8
_symmetry_space_group_name_H-M   'P 1'
_cell_length_a   4.46802000
_cell_length_b   4.46802102
_cell_length_c   8.38266100
_cell_angle_alpha   90.00000000
_cell_angle_beta   90.00000000
_cell_angle_gamma   119.99999246
_symmetry_Int_Tables_number   1
_chemical_formula_structural   RbSc2FeH8
_chemical_formula_sum   'Rb1 Sc2 Fe1 H8'
_cell_volume   144.92485813
_cell_formula_units_Z   1
loop_
 _symmetry_equiv_pos_site_id
 _symmetry_equiv_pos_as_xyz
  1  'x, y, z'
loop_
 _atom_site_type_symbol
 _atom_site_label
 _atom_site_symmetry_multiplicity
 _atom_site_fract_x
 _atom_site_fract_y
 _atom_site_fract_z
 _atom_site_occupancy
  Rb  Rb0  1  0.000000  0.000000  0.500000  1
  Sc  Sc1  1  0.666667  0.333333  0.885311  1
  Sc  Sc2  1  0.333333  0.666667  0.114689  1
  Fe  Fe3  1  0.000000  0.000000  0.000000  1
  H  H4  1  0.341507  0.170753  0.111103  1
  H  H5  1  0.829247  0.658493  0.111103  1
  H  H6  1  0.829247  0.170753  0.111103  1
  H  H7  1  0.658493  0.829247  0.888897  1
  H  H8  1  0.170753  0.341507  0.888897  1
  H  H9  1  0.170753  0.829247  0.888897  1
  H  H10  1  0.666667  0.333333  0.654766  1
  H  H11  1  0.333333  0.666667  0.345234  1
