# generated using pymatgen
data_HfZr9Sn3Ge2Sb3
_symmetry_space_group_name_H-M   'P 1'
_cell_length_a   8.71018100
_cell_length_b   8.71018160
_cell_length_c   5.88866700
_cell_angle_alpha   90.00000000
_cell_angle_beta   90.00000000
_cell_angle_gamma   119.99999392
_symmetry_Int_Tables_number   1
_chemical_formula_structural   HfZr9Sn3Ge2Sb3
_chemical_formula_sum   'Hf1 Zr9 Sn3 Ge2 Sb3'
_cell_volume   386.90295256
_cell_formula_units_Z   1
loop_
 _symmetry_equiv_pos_site_id
 _symmetry_equiv_pos_as_xyz
  1  'x, y, z'
loop_
 _atom_site_type_symbol
 _atom_site_label
 _atom_site_symmetry_multiplicity
 _atom_site_fract_x
 _atom_site_fract_y
 _atom_site_fract_z
 _atom_site_occupancy
  Hf  Hf0  1  0.666667  0.333333  0.997700  1
  Zr  Zr1  1  0.333333  0.666667  0.998114  1
  Zr  Zr2  1  0.333333  0.666667  0.501922  1
  Zr  Zr3  1  0.666667  0.333333  0.501964  1
  Zr  Zr4  1  0.733365  0.733254  0.750118  1
  Zr  Zr5  1  0.266746  0.000111  0.750118  1
  Zr  Zr6  1  0.999889  0.266635  0.750118  1
  Zr  Zr7  1  0.261380  0.261229  0.249961  1
  Zr  Zr8  1  0.738771  0.000151  0.249961  1
  Zr  Zr9  1  0.999849  0.738620  0.249961  1
  Sn  Sn10  1  0.390317  0.390063  0.750272  1
  Sn  Sn11  1  0.609937  0.000254  0.750272  1
  Sn  Sn12  1  0.999746  0.609683  0.750272  1
  Ge  Ge13  1  0.000000  0.000000  0.996255  1
  Ge  Ge14  1  0.000000  0.000000  0.503756  1
  Sb  Sb15  1  0.603858  0.603556  0.249745  1
  Sb  Sb16  1  0.396444  0.000302  0.249745  1
  Sb  Sb17  1  0.999698  0.396142  0.249745  1
