# generated using pymatgen
data_Dy7Er(TcBr4)2
_symmetry_space_group_name_H-M   'P 1'
_cell_length_a   9.02309094
_cell_length_b   9.00956192
_cell_length_c   6.56277827
_cell_angle_alpha   89.45721043
_cell_angle_beta   89.49305534
_cell_angle_gamma   89.21649528
_symmetry_Int_Tables_number   1
_chemical_formula_structural   Dy7Er(TcBr4)2
_chemical_formula_sum   'Dy7 Er1 Tc2 Br8'
_cell_volume   533.42103069
_cell_formula_units_Z   1
loop_
 _symmetry_equiv_pos_site_id
 _symmetry_equiv_pos_as_xyz
  1  'x, y, z'
loop_
 _atom_site_type_symbol
 _atom_site_label
 _atom_site_symmetry_multiplicity
 _atom_site_fract_x
 _atom_site_fract_y
 _atom_site_fract_z
 _atom_site_occupancy
  Dy  Dy0  1  0.246314  0.900879  0.011489  1
  Dy  Dy1  1  0.753402  0.099124  0.989159  1
  Dy  Dy2  1  0.098249  0.753075  0.489351  1
  Dy  Dy3  1  0.901421  0.247106  0.510978  1
  Dy  Dy4  1  0.753214  0.902621  0.506500  1
  Dy  Dy5  1  0.246585  0.097124  0.494199  1
  Dy  Dy6  1  0.097023  0.247143  0.994008  1
  Er  Er7  1  0.903473  0.754936  0.006416  1
  Tc  Tc8  1  0.995055  0.005021  0.249918  1
  Tc  Tc9  1  0.004601  0.995084  0.750511  1
  Br  Br10  1  0.417236  0.816776  0.417110  1
  Br  Br11  1  0.582298  0.182160  0.584373  1
  Br  Br12  1  0.180959  0.582268  0.084316  1
  Br  Br13  1  0.818429  0.418865  0.913329  1
  Br  Br14  1  0.412871  0.186640  0.087050  1
  Br  Br15  1  0.588612  0.811056  0.914203  1
  Br  Br16  1  0.812714  0.586717  0.409614  1
  Br  Br17  1  0.187545  0.413403  0.587475  1
