# generated using pymatgen
data_Ce8Zn5Cu3Rh8
_symmetry_space_group_name_H-M   'P 1'
_cell_length_a   3.88394300
_cell_length_b   7.35677140
_cell_length_c   16.24857368
_cell_angle_alpha   90.06826761
_cell_angle_beta   90.00000000
_cell_angle_gamma   90.00000000
_symmetry_Int_Tables_number   1
_chemical_formula_structural   Ce8Zn5Cu3Rh8
_chemical_formula_sum   'Ce8 Zn5 Cu3 Rh8'
_cell_volume   464.27472856
_cell_formula_units_Z   1
loop_
 _symmetry_equiv_pos_site_id
 _symmetry_equiv_pos_as_xyz
  1  'x, y, z'
loop_
 _atom_site_type_symbol
 _atom_site_label
 _atom_site_symmetry_multiplicity
 _atom_site_fract_x
 _atom_site_fract_y
 _atom_site_fract_z
 _atom_site_occupancy
  Ce  Ce0  1  0.250000  0.679874  0.559294  1
  Ce  Ce1  1  0.750000  0.829642  0.058284  1
  Ce  Ce2  1  0.250000  0.055799  0.714139  1
  Ce  Ce3  1  0.250000  0.179571  0.940926  1
  Ce  Ce4  1  0.750000  0.944698  0.280559  1
  Ce  Ce5  1  0.250000  0.555959  0.786411  1
  Ce  Ce6  1  0.750000  0.437157  0.215219  1
  Ce  Ce7  1  0.750000  0.323557  0.442740  1
  Zn  Zn8  1  0.750000  0.385966  0.652080  1
  Zn  Zn9  1  0.750000  0.885574  0.848337  1
  Zn  Zn10  1  0.250000  0.497867  0.057928  1
  Zn  Zn11  1  0.250000  0.612470  0.347444  1
  Zn  Zn12  1  0.250000  0.996929  0.441661  1
  Cu  Cu13  1  0.250000  0.111746  0.152269  1
  Cu  Cu14  1  0.750000  0.504923  0.941160  1
  Cu  Cu15  1  0.750000  0.002961  0.559405  1
  Rh  Rh16  1  0.750000  0.745890  0.439004  1
  Rh  Rh17  1  0.750000  0.255181  0.811958  1
  Rh  Rh18  1  0.750000  0.754399  0.688035  1
  Rh  Rh19  1  0.250000  0.734292  0.187256  1
  Rh  Rh20  1  0.250000  0.761004  0.940429  1
  Rh  Rh21  1  0.250000  0.259325  0.560508  1
  Rh  Rh22  1  0.750000  0.245071  0.059306  1
  Rh  Rh23  1  0.250000  0.240145  0.315646  1
