# generated using pymatgen
data_YPa(IN)2
_symmetry_space_group_name_H-M   'P 1'
_cell_length_a   3.99634600
_cell_length_b   3.99634600
_cell_length_c   9.69723100
_cell_angle_alpha   90.00000000
_cell_angle_beta   90.00000000
_cell_angle_gamma   90.00000000
_symmetry_Int_Tables_number   1
_chemical_formula_structural   YPa(IN)2
_chemical_formula_sum   'Y1 Pa1 I2 N2'
_cell_volume   154.87235602
_cell_formula_units_Z   1
loop_
 _symmetry_equiv_pos_site_id
 _symmetry_equiv_pos_as_xyz
  1  'x, y, z'
loop_
 _atom_site_type_symbol
 _atom_site_label
 _atom_site_symmetry_multiplicity
 _atom_site_fract_x
 _atom_site_fract_y
 _atom_site_fract_z
 _atom_site_occupancy
  Y  Y0  1  0.000000  0.500000  0.882171  1
  Pa  Pa1  1  0.500000  0.000000  0.102055  1
  I  I2  1  0.000000  0.500000  0.313941  1
  I  I3  1  0.500000  0.000000  0.687482  1
  N  N4  1  0.000000  0.000000  0.007175  1
  N  N5  1  0.500000  0.500000  0.007175  1
