# generated using pymatgen
data_Rb8ZrPa2VTe12
_symmetry_space_group_name_H-M   'P 1'
_cell_length_a   14.76188203
_cell_length_b   7.12299409
_cell_length_c   9.90148273
_cell_angle_alpha   71.90695443
_cell_angle_beta   89.99979817
_cell_angle_gamma   89.99269879
_symmetry_Int_Tables_number   1
_chemical_formula_structural   Rb8ZrPa2VTe12
_chemical_formula_sum   'Rb8 Zr1 Pa2 V1 Te12'
_cell_volume   989.64874923
_cell_formula_units_Z   1
loop_
 _symmetry_equiv_pos_site_id
 _symmetry_equiv_pos_as_xyz
  1  'x, y, z'
loop_
 _atom_site_type_symbol
 _atom_site_label
 _atom_site_symmetry_multiplicity
 _atom_site_fract_x
 _atom_site_fract_y
 _atom_site_fract_z
 _atom_site_occupancy
  Rb  Rb0  1  0.957950  0.673494  0.655152  1
  Rb  Rb1  1  0.455097  0.827910  0.346154  1
  Rb  Rb2  1  0.044381  0.327090  0.346932  1
  Rb  Rb3  1  0.543199  0.173269  0.654840  1
  Rb  Rb4  1  0.869512  0.082841  0.903709  1
  Rb  Rb5  1  0.366080  0.416267  0.096167  1
  Rb  Rb6  1  0.133653  0.922885  0.098736  1
  Rb  Rb7  1  0.630184  0.574998  0.902209  1
  Zr  Zr8  1  0.749957  0.156761  0.294652  1
  Pa  Pa9  1  0.749826  0.655845  0.296335  1
  Pa  Pa10  1  0.249654  0.845217  0.702055  1
  V  V11  1  0.251391  0.341406  0.709168  1
  Te  Te12  1  0.913786  0.919633  0.280607  1
  Te  Te13  1  0.408088  0.571857  0.718745  1
  Te  Te14  1  0.092284  0.105503  0.720719  1
  Te  Te15  1  0.585972  0.404138  0.279104  1
  Te  Te16  1  0.817683  0.297009  0.526845  1
  Te  Te17  1  0.312838  0.213199  0.480329  1
  Te  Te18  1  0.186949  0.669777  0.480592  1
  Te  Te19  1  0.681519  0.815092  0.526490  1
  Te  Te20  1  0.845188  0.492832  0.081910  1
  Te  Te21  1  0.343531  0.020593  0.909229  1
  Te  Te22  1  0.156687  0.486463  0.906875  1
  Te  Te23  1  0.654590  0.005921  0.082445  1
