# generated using pymatgen
data_Ho8Ta6Ti3Nb3Si15Ge
_symmetry_space_group_name_H-M   'P 1'
_cell_length_a   7.06045707
_cell_length_b   7.04773440
_cell_length_c   12.97291995
_cell_angle_alpha   90.03040130
_cell_angle_beta   90.04867245
_cell_angle_gamma   89.93428915
_symmetry_Int_Tables_number   1
_chemical_formula_structural   Ho8Ta6Ti3Nb3Si15Ge
_chemical_formula_sum   'Ho8 Ta6 Ti3 Nb3 Si15 Ge1'
_cell_volume   645.53468282
_cell_formula_units_Z   1
loop_
 _symmetry_equiv_pos_site_id
 _symmetry_equiv_pos_as_xyz
  1  'x, y, z'
loop_
 _atom_site_type_symbol
 _atom_site_label
 _atom_site_symmetry_multiplicity
 _atom_site_fract_x
 _atom_site_fract_y
 _atom_site_fract_z
 _atom_site_occupancy
  Ho  Ho0  1  0.341951  0.001365  0.465922  1
  Ho  Ho1  1  0.499923  0.841553  0.717931  1
  Ho  Ho2  1  0.500682  0.157648  0.217276  1
  Ho  Ho3  1  0.842987  0.499377  0.282770  1
  Ho  Ho4  1  0.157703  0.501499  0.783033  1
  Ho  Ho5  1  0.658876  0.997861  0.968028  1
  Ho  Ho6  1  0.999437  0.342945  0.531341  1
  Ho  Ho7  1  0.998095  0.659736  0.032681  1
  Ta  Ta8  1  0.329455  0.329301  0.000249  1
  Ta  Ta9  1  0.174071  0.826292  0.249708  1
  Ta  Ta10  1  0.823975  0.173454  0.750761  1
  Ta  Ta11  1  0.670655  0.670163  0.499882  1
  Ta  Ta12  1  0.152853  0.008182  0.875083  1
  Ta  Ta13  1  0.491669  0.652426  0.123970  1
  Ti  Ti14  1  0.846747  0.992288  0.373480  1
  Ti  Ti15  1  0.008374  0.152793  0.126764  1
  Ti  Ti16  1  0.988262  0.842344  0.625249  1
  Nb  Nb17  1  0.509686  0.349275  0.624088  1
  Nb  Nb18  1  0.652868  0.492365  0.876549  1
  Nb  Nb19  1  0.348134  0.508315  0.376125  1
  Si  Si20  1  0.366049  0.705226  0.932079  1
  Si  Si21  1  0.635107  0.294002  0.431488  1
  Si  Si22  1  0.705924  0.365171  0.069408  1
  Si  Si23  1  0.293705  0.635695  0.568014  1
  Si  Si24  1  0.799259  0.867903  0.183268  1
  Si  Si25  1  0.131708  0.201164  0.316824  1
  Si  Si26  1  0.866426  0.798372  0.817513  1
  Si  Si27  1  0.292477  0.954626  0.064539  1
  Si  Si28  1  0.548727  0.794620  0.313885  1
  Si  Si29  1  0.455279  0.206020  0.814745  1
  Si  Si30  1  0.796122  0.547268  0.685918  1
  Si  Si31  1  0.205199  0.452340  0.185981  1
  Si  Si32  1  0.708508  0.045046  0.562781  1
  Si  Si33  1  0.954751  0.293765  0.937659  1
  Si  Si34  1  0.044985  0.709454  0.436485  1
  Ge  Ge35  1  0.199368  0.130147  0.678526  1
