# generated using pymatgen
data_Nd2Y3Ho3(WO6)4
_symmetry_space_group_name_H-M   'P 1'
_cell_length_a   5.45259536
_cell_length_b   7.77357692
_cell_length_c   11.54367854
_cell_angle_alpha   75.60366139
_cell_angle_beta   89.98340625
_cell_angle_gamma   90.03282904
_symmetry_Int_Tables_number   1
_chemical_formula_structural   Nd2Y3Ho3(WO6)4
_chemical_formula_sum   'Nd2 Y3 Ho3 W4 O24'
_cell_volume   473.92794678
_cell_formula_units_Z   1
loop_
 _symmetry_equiv_pos_site_id
 _symmetry_equiv_pos_as_xyz
  1  'x, y, z'
loop_
 _atom_site_type_symbol
 _atom_site_label
 _atom_site_symmetry_multiplicity
 _atom_site_fract_x
 _atom_site_fract_y
 _atom_site_fract_z
 _atom_site_occupancy
  Nd  Nd0  1  0.684889  0.499731  0.750421  1
  Nd  Nd1  1  0.315441  0.499805  0.249856  1
  Y  Y2  1  0.741357  0.000256  0.750565  1
  Y  Y3  1  0.258784  0.000154  0.249547  1
  Y  Y4  1  0.186597  0.797087  0.576983  1
  Ho  Ho5  1  0.814126  0.796857  0.077119  1
  Ho  Ho6  1  0.186150  0.203148  0.922877  1
  Ho  Ho7  1  0.813469  0.203271  0.422756  1
  W  W8  1  0.253662  0.726818  0.885244  1
  W  W9  1  0.746707  0.726951  0.384258  1
  W  W10  1  0.253295  0.272890  0.615178  1
  W  W11  1  0.746670  0.272995  0.115211  1
  O  O12  1  0.043605  0.941121  0.896572  1
  O  O13  1  0.532473  0.845523  0.931935  1
  O  O14  1  0.956242  0.941505  0.395643  1
  O  O15  1  0.455610  0.793486  0.728314  1
  O  O16  1  0.468412  0.846406  0.430094  1
  O  O17  1  0.985349  0.717795  0.771086  1
  O  O18  1  0.545734  0.793467  0.226904  1
  O  O19  1  0.852839  0.640444  0.545704  1
  O  O20  1  0.349348  0.492686  0.887757  1
  O  O21  1  0.014717  0.718058  0.269956  1
  O  O22  1  0.350785  0.506511  0.612407  1
  O  O23  1  0.855023  0.358939  0.953983  1
  O  O24  1  0.145124  0.640670  0.046334  1
  O  O25  1  0.650588  0.492659  0.387091  1
  O  O26  1  0.986153  0.282346  0.730174  1
  O  O27  1  0.650882  0.507180  0.112295  1
  O  O28  1  0.145017  0.359162  0.453963  1
  O  O29  1  0.454321  0.206041  0.772749  1
  O  O30  1  0.014270  0.281855  0.229866  1
  O  O31  1  0.531702  0.153989  0.568691  1
  O  O32  1  0.545581  0.206347  0.272553  1
  O  O33  1  0.041246  0.060038  0.603729  1
  O  O34  1  0.467275  0.154868  0.068608  1
  O  O35  1  0.956558  0.058940  0.103578  1
