# generated using pymatgen
data_Li2Pr3ZnPd2Rh
_symmetry_space_group_name_H-M   'P 1'
_cell_length_a   7.40122188
_cell_length_b   7.39417742
_cell_length_c   4.10139400
_cell_angle_alpha   90.00000000
_cell_angle_beta   90.00000000
_cell_angle_gamma   119.53718528
_symmetry_Int_Tables_number   1
_chemical_formula_structural   Li2Pr3ZnPd2Rh
_chemical_formula_sum   'Li2 Pr3 Zn1 Pd2 Rh1'
_cell_volume   195.28188968
_cell_formula_units_Z   1
loop_
 _symmetry_equiv_pos_site_id
 _symmetry_equiv_pos_as_xyz
  1  'x, y, z'
loop_
 _atom_site_type_symbol
 _atom_site_label
 _atom_site_symmetry_multiplicity
 _atom_site_fract_x
 _atom_site_fract_y
 _atom_site_fract_z
 _atom_site_occupancy
  Li  Li0  1  0.768056  0.768080  0.000000  1
  Li  Li1  1  0.999191  0.231359  0.000000  1
  Pr  Pr2  1  0.576621  0.991440  0.500000  1
  Pr  Pr3  1  0.405485  0.410916  0.500000  1
  Pr  Pr4  1  0.012052  0.595364  0.500000  1
  Zn  Zn5  1  0.234746  0.997324  0.000000  1
  Pd  Pd6  1  0.006058  0.001010  0.500000  1
  Pd  Pd7  1  0.664680  0.332592  0.000000  1
  Rh  Rh8  1  0.333112  0.671916  0.000000  1
