# generated using pymatgen
data_Nb2FeSi2Ni
_symmetry_space_group_name_H-M   'P 1'
_cell_length_a   3.68147600
_cell_length_b   6.26535605
_cell_length_c   7.09398386
_cell_angle_alpha   89.07296536
_cell_angle_beta   90.00000000
_cell_angle_gamma   90.00000000
_symmetry_Int_Tables_number   1
_chemical_formula_structural   Nb2FeSi2Ni
_chemical_formula_sum   'Nb4 Fe2 Si4 Ni2'
_cell_volume   163.60669713
_cell_formula_units_Z   2
loop_
 _symmetry_equiv_pos_site_id
 _symmetry_equiv_pos_as_xyz
  1  'x, y, z'
loop_
 _atom_site_type_symbol
 _atom_site_label
 _atom_site_symmetry_multiplicity
 _atom_site_fract_x
 _atom_site_fract_y
 _atom_site_fract_z
 _atom_site_occupancy
  Nb  Nb0  1  0.250000  0.516724  0.186094  1
  Nb  Nb1  1  0.750000  0.483276  0.813906  1
  Nb  Nb2  1  0.750000  0.977734  0.671919  1
  Nb  Nb3  1  0.250000  0.022266  0.328081  1
  Fe  Fe4  1  0.250000  0.642182  0.563324  1
  Fe  Fe5  1  0.750000  0.357818  0.436676  1
  Si  Si6  1  0.250000  0.773248  0.878156  1
  Si  Si7  1  0.750000  0.226752  0.121844  1
  Si  Si8  1  0.750000  0.722910  0.383803  1
  Si  Si9  1  0.250000  0.277090  0.616197  1
  Ni  Ni10  1  0.750000  0.856827  0.062305  1
  Ni  Ni11  1  0.250000  0.143173  0.937695  1
