# generated using pymatgen
data_Ta4Nb8AlSi7(TcC)4
_symmetry_space_group_name_H-M   'P 1'
_cell_length_a   8.20520923
_cell_length_b   8.20543588
_cell_length_c   8.20535000
_cell_angle_alpha   60.12276975
_cell_angle_beta   60.12231955
_cell_angle_gamma   60.12276237
_symmetry_Int_Tables_number   1
_chemical_formula_structural   Ta4Nb8AlSi7(TcC)4
_chemical_formula_sum   'Ta4 Nb8 Al1 Si7 Tc4 C4'
_cell_volume   391.72219123
_cell_formula_units_Z   1
loop_
 _symmetry_equiv_pos_site_id
 _symmetry_equiv_pos_as_xyz
  1  'x, y, z'
loop_
 _atom_site_type_symbol
 _atom_site_label
 _atom_site_symmetry_multiplicity
 _atom_site_fract_x
 _atom_site_fract_y
 _atom_site_fract_z
 _atom_site_occupancy
  Ta  Ta0  1  0.557882  0.941650  0.942103  1
  Ta  Ta1  1  0.942107  0.941647  0.557882  1
  Ta  Ta2  1  0.692279  0.307732  0.692290  1
  Ta  Ta3  1  0.941703  0.558057  0.941700  1
  Nb  Nb4  1  0.557103  0.943128  0.557092  1
  Nb  Nb5  1  0.308146  0.692043  0.691967  1
  Nb  Nb6  1  0.698304  0.305732  0.305768  1
  Nb  Nb7  1  0.305548  0.698522  0.305549  1
  Nb  Nb8  1  0.691960  0.692052  0.308140  1
  Nb  Nb9  1  0.305771  0.305735  0.698303  1
  Nb  Nb10  1  0.556733  0.556598  0.943707  1
  Nb  Nb11  1  0.943701  0.556607  0.556727  1
  Al  Al12  1  0.333524  0.333364  0.333534  1
  Si  Si13  1  0.913615  0.913289  0.913606  1
  Si  Si14  1  0.994424  0.337416  0.337147  1
  Si  Si15  1  0.337397  0.994286  0.337411  1
  Si  Si16  1  0.337137  0.337416  0.994432  1
  Si  Si17  1  0.914288  0.257905  0.914274  1
  Si  Si18  1  0.914066  0.914250  0.257902  1
  Si  Si19  1  0.257907  0.914254  0.914054  1
  Tc  Tc20  1  0.125988  0.126128  0.125989  1
  Tc  Tc21  1  0.631046  0.120989  0.118411  1
  Tc  Tc22  1  0.120144  0.630840  0.120140  1
  Tc  Tc23  1  0.118395  0.120991  0.631043  1
  C  C24  1  0.625221  0.623200  0.625219  1
  C  C25  1  0.124291  0.625435  0.625498  1
  C  C26  1  0.625823  0.125303  0.625822  1
  C  C27  1  0.625498  0.625434  0.124291  1
