# generated using pymatgen
data_Ho5TmAl24Ru7Pt
_symmetry_space_group_name_H-M   'P 1'
_cell_length_a   8.77930201
_cell_length_b   8.78084664
_cell_length_c   9.58126314
_cell_angle_alpha   89.89332390
_cell_angle_beta   90.11270971
_cell_angle_gamma   119.88821689
_symmetry_Int_Tables_number   1
_chemical_formula_structural   Ho5TmAl24Ru7Pt
_chemical_formula_sum   'Ho5 Tm1 Al24 Ru7 Pt1'
_cell_volume   640.37859089
_cell_formula_units_Z   1
loop_
 _symmetry_equiv_pos_site_id
 _symmetry_equiv_pos_as_xyz
  1  'x, y, z'
loop_
 _atom_site_type_symbol
 _atom_site_label
 _atom_site_symmetry_multiplicity
 _atom_site_fract_x
 _atom_site_fract_y
 _atom_site_fract_z
 _atom_site_occupancy
  Ho  Ho0  1  0.805964  0.193973  0.748310  1
  Ho  Ho1  1  0.194015  0.805914  0.251695  1
  Ho  Ho2  1  0.386125  0.190998  0.749056  1
  Ho  Ho3  1  0.613873  0.808976  0.250930  1
  Ho  Ho4  1  0.808946  0.613778  0.749047  1
  Tm  Tm5  1  0.191281  0.386912  0.251066  1
  Al  Al6  1  0.669272  0.330691  0.978432  1
  Al  Al7  1  0.330627  0.669071  0.021708  1
  Al  Al8  1  0.333374  0.666330  0.479334  1
  Al  Al9  1  0.666511  0.333447  0.520521  1
  Al  Al10  1  0.836895  0.163328  0.422352  1
  Al  Al11  1  0.163287  0.836761  0.577543  1
  Al  Al12  1  0.325474  0.163492  0.422402  1
  Al  Al13  1  0.162709  0.837315  0.921427  1
  Al  Al14  1  0.674433  0.836605  0.577487  1
  Al  Al15  1  0.837458  0.162775  0.078674  1
  Al  Al16  1  0.836574  0.674442  0.422451  1
  Al  Al17  1  0.675857  0.842157  0.921164  1
  Al  Al18  1  0.163411  0.325558  0.577349  1
  Al  Al19  1  0.324081  0.157923  0.078930  1
  Al  Al20  1  0.157870  0.324144  0.921280  1
  Al  Al21  1  0.842135  0.675868  0.078900  1
  Al  Al22  1  0.437385  0.562582  0.746721  1
  Al  Al23  1  0.562302  0.437365  0.253260  1
  Al  Al24  1  0.123335  0.561173  0.750220  1
  Al  Al25  1  0.876933  0.438758  0.249789  1
  Al  Al26  1  0.438823  0.876687  0.750205  1
  Al  Al27  1  0.561184  0.123332  0.249796  1
  Al  Al28  1  0.000368  0.999601  0.749872  1
  Al  Al29  1  0.999793  0.000700  0.250130  1
  Ru  Ru30  1  0.000123  0.499894  0.000166  1
  Ru  Ru31  1  0.499758  0.499892  0.499859  1
  Ru  Ru32  1  0.499933  0.999885  0.000040  1
  Ru  Ru33  1  0.000123  0.499903  0.499844  1
  Ru  Ru34  1  0.499938  0.999882  0.499950  1
  Ru  Ru35  1  0.999992  0.999988  0.000005  1
  Ru  Ru36  1  0.999988  0.999978  0.499992  1
  Pt  Pt37  1  0.499851  0.499921  0.000092  1
