# generated using pymatgen
data_Tb3YbIr8
_symmetry_space_group_name_H-M   'P 1'
_cell_length_a   5.36060300
_cell_length_b   5.36060156
_cell_length_c   8.71744600
_cell_angle_alpha   90.00000000
_cell_angle_beta   90.00000000
_cell_angle_gamma   120.00000273
_symmetry_Int_Tables_number   1
_chemical_formula_structural   Tb3YbIr8
_chemical_formula_sum   'Tb3 Yb1 Ir8'
_cell_volume   216.94370798
_cell_formula_units_Z   1
loop_
 _symmetry_equiv_pos_site_id
 _symmetry_equiv_pos_as_xyz
  1  'x, y, z'
loop_
 _atom_site_type_symbol
 _atom_site_label
 _atom_site_symmetry_multiplicity
 _atom_site_fract_x
 _atom_site_fract_y
 _atom_site_fract_z
 _atom_site_occupancy
  Tb  Tb0  1  0.333334  0.666667  0.062675  1
  Tb  Tb1  1  0.333334  0.666667  0.431468  1
  Tb  Tb2  1  0.666666  0.333334  0.574128  1
  Yb  Yb3  1  0.666666  0.333334  0.934235  1
  Ir  Ir4  1  0.000000  0.000000  0.999136  1
  Ir  Ir5  1  0.339750  0.169875  0.250321  1
  Ir  Ir6  1  0.830126  0.169875  0.250321  1
  Ir  Ir7  1  0.830124  0.660249  0.250321  1
  Ir  Ir8  1  0.000000  0.000000  0.499538  1
  Ir  Ir9  1  0.169645  0.339289  0.749284  1
  Ir  Ir10  1  0.169645  0.830354  0.749284  1
  Ir  Ir11  1  0.660710  0.830354  0.749284  1
