# generated using pymatgen
data_Tb2Th(InPt)3
_symmetry_space_group_name_H-M   'P 1'
_cell_length_a   7.71742100
_cell_length_b   7.69294855
_cell_length_c   3.97309300
_cell_angle_alpha   90.00000000
_cell_angle_beta   90.00000000
_cell_angle_gamma   120.10529192
_symmetry_Int_Tables_number   1
_chemical_formula_structural   Tb2Th(InPt)3
_chemical_formula_sum   'Tb2 Th1 In3 Pt3'
_cell_volume   204.06222702
_cell_formula_units_Z   1
loop_
 _symmetry_equiv_pos_site_id
 _symmetry_equiv_pos_as_xyz
  1  'x, y, z'
loop_
 _atom_site_type_symbol
 _atom_site_label
 _atom_site_symmetry_multiplicity
 _atom_site_fract_x
 _atom_site_fract_y
 _atom_site_fract_z
 _atom_site_occupancy
  Tb  Tb0  1  0.998144  0.406741  0.000000  1
  Tb  Tb1  1  0.591403  0.593259  0.000000  1
  Th  Th2  1  0.411423  0.000000  0.000000  1
  In  In3  1  0.255391  0.266362  0.500000  1
  In  In4  1  0.989029  0.733638  0.500000  1
  In  In5  1  0.753431  0.000000  0.500000  1
  Pt  Pt6  1  0.009246  0.000000  0.000000  1
  Pt  Pt7  1  0.657866  0.323798  0.500000  1
  Pt  Pt8  1  0.334067  0.676202  0.500000  1
