# generated using pymatgen
data_Hf6Ti16Tc3Ir4
_symmetry_space_group_name_H-M   'P 1'
_cell_length_a   8.93185881
_cell_length_b   8.93171272
_cell_length_c   8.94769800
_cell_angle_alpha   59.94170957
_cell_angle_beta   59.94233789
_cell_angle_gamma   60.11672273
_symmetry_Int_Tables_number   1
_chemical_formula_structural   Hf6Ti16Tc3Ir4
_chemical_formula_sum   'Hf6 Ti16 Tc3 Ir4'
_cell_volume   504.74583987
_cell_formula_units_Z   1
loop_
 _symmetry_equiv_pos_site_id
 _symmetry_equiv_pos_as_xyz
  1  'x, y, z'
loop_
 _atom_site_type_symbol
 _atom_site_label
 _atom_site_symmetry_multiplicity
 _atom_site_fract_x
 _atom_site_fract_y
 _atom_site_fract_z
 _atom_site_occupancy
  Hf  Hf0  1  0.684350  0.315646  0.315650  1
  Hf  Hf1  1  0.315650  0.684354  0.684350  1
  Hf  Hf2  1  0.315648  0.684352  0.315648  1
  Hf  Hf3  1  0.684352  0.315648  0.684352  1
  Hf  Hf4  1  0.311880  0.311876  0.688120  1
  Hf  Hf5  1  0.688120  0.688124  0.311880  1
  Ti  Ti6  1  0.332236  0.332246  0.330288  1
  Ti  Ti7  1  0.667764  0.667754  0.669712  1
  Ti  Ti8  1  0.332235  0.332244  0.005229  1
  Ti  Ti9  1  0.330296  0.005230  0.332233  1
  Ti  Ti10  1  0.667765  0.667756  0.994771  1
  Ti  Ti11  1  0.669704  0.994770  0.667767  1
  Ti  Ti12  1  0.005230  0.330301  0.332230  1
  Ti  Ti13  1  0.994770  0.669699  0.667770  1
  Ti  Ti14  1  0.116593  0.116606  0.118109  1
  Ti  Ti15  1  0.883407  0.883394  0.881891  1
  Ti  Ti16  1  0.116588  0.116597  0.648702  1
  Ti  Ti17  1  0.118118  0.648687  0.116592  1
  Ti  Ti18  1  0.883412  0.883403  0.351298  1
  Ti  Ti19  1  0.881882  0.351313  0.883408  1
  Ti  Ti20  1  0.648699  0.118120  0.116586  1
  Ti  Ti21  1  0.351301  0.881880  0.883414  1
  Tc  Tc22  1  0.000000  0.000000  0.500000  1
  Tc  Tc23  1  0.500000  0.500000  0.000000  1
  Tc  Tc24  1  0.000000  0.000000  0.000000  1
  Ir  Ir25  1  0.500000  0.000000  0.000000  1
  Ir  Ir26  1  0.000000  0.500000  0.500000  1
  Ir  Ir27  1  0.000000  0.500000  0.000000  1
  Ir  Ir28  1  0.500000  0.000000  0.500000  1
