# generated using pymatgen
data_Li2GePIr2
_symmetry_space_group_name_H-M   'P 1'
_cell_length_a   3.90311000
_cell_length_b   6.73106400
_cell_length_c   6.89484500
_cell_angle_alpha   90.00000000
_cell_angle_beta   90.00000000
_cell_angle_gamma   90.00000000
_symmetry_Int_Tables_number   1
_chemical_formula_structural   Li2GePIr2
_chemical_formula_sum   'Li4 Ge2 P2 Ir4'
_cell_volume   181.14194155
_cell_formula_units_Z   2
loop_
 _symmetry_equiv_pos_site_id
 _symmetry_equiv_pos_as_xyz
  1  'x, y, z'
loop_
 _atom_site_type_symbol
 _atom_site_label
 _atom_site_symmetry_multiplicity
 _atom_site_fract_x
 _atom_site_fract_y
 _atom_site_fract_z
 _atom_site_occupancy
  Li  Li0  1  0.250000  0.023064  0.339433  1
  Li  Li1  1  0.250000  0.523064  0.160567  1
  Li  Li2  1  0.750000  0.982894  0.660593  1
  Li  Li3  1  0.750000  0.482894  0.839407  1
  Ge  Ge4  1  0.750000  0.716861  0.369127  1
  Ge  Ge5  1  0.750000  0.216861  0.130873  1
  P  P6  1  0.250000  0.291825  0.633842  1
  P  P7  1  0.250000  0.791825  0.866158  1
  Ir  Ir8  1  0.250000  0.139005  0.929943  1
  Ir  Ir9  1  0.250000  0.639005  0.570057  1
  Ir  Ir10  1  0.750000  0.846350  0.036076  1
  Ir  Ir11  1  0.750000  0.346350  0.463924  1
