# generated using pymatgen
data_Hf3Sc(Al3Ir)6
_symmetry_space_group_name_H-M   'P 1'
_cell_length_a   7.46184000
_cell_length_b   7.46584721
_cell_length_c   9.24465200
_cell_angle_alpha   90.00000000
_cell_angle_beta   90.00000000
_cell_angle_gamma   119.83506766
_symmetry_Int_Tables_number   1
_chemical_formula_structural   Hf3Sc(Al3Ir)6
_chemical_formula_sum   'Hf3 Sc1 Al18 Ir6'
_cell_volume   446.75108550
_cell_formula_units_Z   1
loop_
 _symmetry_equiv_pos_site_id
 _symmetry_equiv_pos_as_xyz
  1  'x, y, z'
loop_
 _atom_site_type_symbol
 _atom_site_label
 _atom_site_symmetry_multiplicity
 _atom_site_fract_x
 _atom_site_fract_y
 _atom_site_fract_z
 _atom_site_occupancy
  Hf  Hf0  1  0.005655  0.328977  0.750000  1
  Hf  Hf1  1  0.670818  0.994485  0.250000  1
  Hf  Hf2  1  0.328282  0.005163  0.750000  1
  Sc  Sc3  1  0.994728  0.671404  0.250000  1
  Al  Al4  1  0.123584  0.124522  0.250000  1
  Al  Al5  1  0.875660  0.875713  0.750000  1
  Al  Al6  1  0.997932  0.334604  0.077649  1
  Al  Al7  1  0.001643  0.665428  0.922986  1
  Al  Al8  1  0.001643  0.665428  0.577014  1
  Al  Al9  1  0.334530  0.997782  0.422344  1
  Al  Al10  1  0.997932  0.334604  0.422351  1
  Al  Al11  1  0.665480  0.001865  0.577222  1
  Al  Al12  1  0.665480  0.001865  0.922778  1
  Al  Al13  1  0.334530  0.997782  0.077656  1
  Al  Al14  1  0.331870  0.331804  0.559345  1
  Al  Al15  1  0.668573  0.668470  0.440215  1
  Al  Al16  1  0.668573  0.668470  0.059785  1
  Al  Al17  1  0.331870  0.331804  0.940655  1
  Al  Al18  1  0.340184  0.553092  0.250000  1
  Al  Al19  1  0.661303  0.447579  0.750000  1
  Al  Al20  1  0.551967  0.337577  0.250000  1
  Al  Al21  1  0.447820  0.661331  0.750000  1
  Ir  Ir22  1  0.672044  0.326341  0.998932  1
  Ir  Ir23  1  0.327220  0.672530  0.998720  1
  Ir  Ir24  1  0.327220  0.672530  0.501280  1
  Ir  Ir25  1  0.672044  0.326341  0.501068  1
  Ir  Ir26  1  0.000709  0.001256  0.998810  1
  Ir  Ir27  1  0.000709  0.001256  0.501190  1
