# generated using pymatgen
data_Sr9Ca(Si2Pb)2
_symmetry_space_group_name_H-M   'P 1'
_cell_length_a   10.00645048
_cell_length_b   10.00645057
_cell_length_c   10.00645057
_cell_angle_alpha   131.71920915
_cell_angle_beta   131.71920276
_cell_angle_gamma   70.67287004
_symmetry_Int_Tables_number   1
_chemical_formula_structural   Sr9Ca(Si2Pb)2
_chemical_formula_sum   'Sr9 Ca1 Si4 Pb2'
_cell_volume   546.83861960
_cell_formula_units_Z   1
loop_
 _symmetry_equiv_pos_site_id
 _symmetry_equiv_pos_as_xyz
  1  'x, y, z'
loop_
 _atom_site_type_symbol
 _atom_site_label
 _atom_site_symmetry_multiplicity
 _atom_site_fract_x
 _atom_site_fract_y
 _atom_site_fract_z
 _atom_site_occupancy
  Sr  Sr0  1  0.540416  0.045039  0.854810  1
  Sr  Sr1  1  0.190228  0.685605  0.145190  1
  Sr  Sr2  1  0.045039  0.190228  0.504623  1
  Sr  Sr3  1  0.685605  0.540416  0.495377  1
  Sr  Sr4  1  0.459584  0.954961  0.145190  1
  Sr  Sr5  1  0.809772  0.314395  0.854810  1
  Sr  Sr6  1  0.954961  0.809772  0.495377  1
  Sr  Sr7  1  0.314395  0.459584  0.504623  1
  Sr  Sr8  1  0.000000  0.000000  0.000000  1
  Ca  Ca9  1  0.500000  0.500000  0.000000  1
  Si  Si10  1  0.887457  0.393248  0.280705  1
  Si  Si11  1  0.112543  0.606752  0.719295  1
  Si  Si12  1  0.393248  0.112543  0.505791  1
  Si  Si13  1  0.606752  0.887457  0.494209  1
  Pb  Pb14  1  0.248990  0.248990  0.000000  1
  Pb  Pb15  1  0.751010  0.751010  0.000000  1
