# generated using pymatgen
data_LiCaTa(SbPt)3
_symmetry_space_group_name_H-M   'P 1'
_cell_length_a   7.84666744
_cell_length_b   7.83396554
_cell_length_c   7.88645292
_cell_angle_alpha   99.88774977
_cell_angle_beta   99.77272186
_cell_angle_gamma   119.87448487
_symmetry_Int_Tables_number   1
_chemical_formula_structural   LiCaTa(SbPt)3
_chemical_formula_sum   'Li2 Ca2 Ta2 Sb6 Pt6'
_cell_volume   395.19855023
_cell_formula_units_Z   2
loop_
 _symmetry_equiv_pos_site_id
 _symmetry_equiv_pos_as_xyz
  1  'x, y, z'
loop_
 _atom_site_type_symbol
 _atom_site_label
 _atom_site_symmetry_multiplicity
 _atom_site_fract_x
 _atom_site_fract_y
 _atom_site_fract_z
 _atom_site_occupancy
  Li  Li0  1  0.329023  0.164216  0.498309  1
  Li  Li1  1  0.996282  0.501615  0.499196  1
  Ca  Ca2  1  0.166966  0.331249  0.999712  1
  Ca  Ca3  1  0.503674  0.999504  0.000383  1
  Ta  Ta4  1  0.668947  0.829625  0.498636  1
  Ta  Ta5  1  0.829359  0.669706  0.000441  1
  Sb  Sb6  1  0.927143  0.104848  0.255584  1
  Sb  Sb7  1  0.257163  0.754715  0.256888  1
  Sb  Sb8  1  0.579587  0.405552  0.269273  1
  Sb  Sb9  1  0.095585  0.913643  0.735469  1
  Sb  Sb10  1  0.747697  0.260374  0.739616  1
  Sb  Sb11  1  0.401603  0.567775  0.743436  1
  Pt  Pt12  1  0.179125  0.012425  0.121256  1
  Pt  Pt13  1  0.872908  0.405386  0.121859  1
  Pt  Pt14  1  0.572169  0.712715  0.143468  1
  Pt  Pt15  1  0.016208  0.182540  0.612566  1
  Pt  Pt16  1  0.393586  0.869168  0.612678  1
  Pt  Pt17  1  0.712931  0.564906  0.641229  1
