# generated using pymatgen
data_Zr6Zn4CuAuC2
_symmetry_space_group_name_H-M   'P 1'
_cell_length_a   8.70371500
_cell_length_b   8.69478607
_cell_length_c   8.69511090
_cell_angle_alpha   59.96201726
_cell_angle_beta   59.96671650
_cell_angle_gamma   59.96887668
_symmetry_Int_Tables_number   1
_chemical_formula_structural   Zr6Zn4CuAuC2
_chemical_formula_sum   'Zr12 Zn8 Cu2 Au2 C4'
_cell_volume   464.92984312
_cell_formula_units_Z   2
loop_
 _symmetry_equiv_pos_site_id
 _symmetry_equiv_pos_as_xyz
  1  'x, y, z'
loop_
 _atom_site_type_symbol
 _atom_site_label
 _atom_site_symmetry_multiplicity
 _atom_site_fract_x
 _atom_site_fract_y
 _atom_site_fract_z
 _atom_site_occupancy
  Zr  Zr0  1  0.438565  0.438451  0.061190  1
  Zr  Zr1  1  0.061772  0.438470  0.061176  1
  Zr  Zr2  1  0.439074  0.060929  0.060927  1
  Zr  Zr3  1  0.061783  0.061195  0.438459  1
  Zr  Zr4  1  0.438582  0.061171  0.438475  1
  Zr  Zr5  1  0.061891  0.438099  0.438107  1
  Zr  Zr6  1  0.811422  0.811551  0.188824  1
  Zr  Zr7  1  0.188214  0.811545  0.188822  1
  Zr  Zr8  1  0.810907  0.189088  0.189093  1
  Zr  Zr9  1  0.188216  0.188818  0.811541  1
  Zr  Zr10  1  0.811424  0.188823  0.811540  1
  Zr  Zr11  1  0.188106  0.811902  0.811895  1
  Zn  Zn12  1  0.827179  0.840752  0.504896  1
  Zn  Zn13  1  0.827179  0.504891  0.840750  1
  Zn  Zn14  1  0.507317  0.835179  0.835188  1
  Zn  Zn15  1  0.822314  0.835196  0.835177  1
  Zn  Zn16  1  0.422813  0.409257  0.745108  1
  Zn  Zn17  1  0.422816  0.745113  0.409259  1
  Zn  Zn18  1  0.742683  0.414816  0.414809  1
  Zn  Zn19  1  0.427695  0.414801  0.414817  1
  Cu  Cu20  1  0.624985  0.625009  0.125003  1
  Cu  Cu21  1  0.625007  0.125002  0.625006  1
  Au  Au22  1  0.124997  0.624997  0.625013  1
  Au  Au23  1  0.624994  0.625012  0.624997  1
  C  C24  1  0.125002  0.124987  0.624981  1
  C  C25  1  0.125029  0.624982  0.124987  1
  C  C26  1  0.625016  0.124993  0.124970  1
  C  C27  1  0.125021  0.124971  0.124993  1
