# generated using pymatgen
data_Zr13Ta7(Si7Ge)2
_symmetry_space_group_name_H-M   'P 1'
_cell_length_a   7.01080691
_cell_length_b   6.99671136
_cell_length_c   12.91608542
_cell_angle_alpha   90.18815880
_cell_angle_beta   90.21840500
_cell_angle_gamma   90.15069881
_symmetry_Int_Tables_number   1
_chemical_formula_structural   Zr13Ta7(Si7Ge)2
_chemical_formula_sum   'Zr13 Ta7 Si14 Ge2'
_cell_volume   633.55724055
_cell_formula_units_Z   1
loop_
 _symmetry_equiv_pos_site_id
 _symmetry_equiv_pos_as_xyz
  1  'x, y, z'
loop_
 _atom_site_type_symbol
 _atom_site_label
 _atom_site_symmetry_multiplicity
 _atom_site_fract_x
 _atom_site_fract_y
 _atom_site_fract_z
 _atom_site_occupancy
  Zr  Zr0  1  0.999121  0.851712  0.625839  1
  Zr  Zr1  1  0.646422  0.496252  0.877033  1
  Zr  Zr2  1  0.502248  0.350032  0.622426  1
  Zr  Zr3  1  0.499625  0.648207  0.125500  1
  Zr  Zr4  1  0.147809  0.997721  0.873300  1
  Zr  Zr5  1  0.002054  0.656856  0.037037  1
  Zr  Zr6  1  0.000137  0.342187  0.529306  1
  Zr  Zr7  1  0.652139  0.997804  0.970307  1
  Zr  Zr8  1  0.154295  0.500008  0.781535  1
  Zr  Zr9  1  0.843451  0.495596  0.278977  1
  Zr  Zr10  1  0.500842  0.155030  0.221476  1
  Zr  Zr11  1  0.501202  0.847757  0.714548  1
  Zr  Zr12  1  0.345774  0.002695  0.464982  1
  Ta  Ta13  1  0.354016  0.505025  0.373833  1
  Ta  Ta14  1  0.850055  0.999830  0.372834  1
  Ta  Ta15  1  0.008239  0.148199  0.128890  1
  Ta  Ta16  1  0.669578  0.673506  0.497288  1
  Ta  Ta17  1  0.825235  0.171672  0.748430  1
  Ta  Ta18  1  0.172361  0.831972  0.250393  1
  Ta  Ta19  1  0.329602  0.323870  0.003052  1
  Si  Si20  1  0.701436  0.046185  0.560995  1
  Si  Si21  1  0.201171  0.450739  0.187402  1
  Si  Si22  1  0.801491  0.545405  0.684630  1
  Si  Si23  1  0.453230  0.196963  0.814968  1
  Si  Si24  1  0.548930  0.799732  0.315209  1
  Si  Si25  1  0.298752  0.955780  0.066060  1
  Si  Si26  1  0.850673  0.797081  0.820599  1
  Si  Si27  1  0.138329  0.208638  0.323046  1
  Si  Si28  1  0.798427  0.863928  0.180135  1
  Si  Si29  1  0.299821  0.643539  0.568563  1
  Si  Si30  1  0.707607  0.352593  0.076791  1
  Si  Si31  1  0.639620  0.294661  0.424449  1
  Si  Si32  1  0.354241  0.701309  0.930644  1
  Si  Si33  1  0.201148  0.147504  0.679288  1
  Ge  Ge34  1  0.044085  0.699331  0.432656  1
  Ge  Ge35  1  0.956834  0.300681  0.937578  1
