# generated using pymatgen
data_YbSm7TaPd24
_symmetry_space_group_name_H-M   'P 1'
_cell_length_a   8.46614539
_cell_length_b   8.46614478
_cell_length_c   8.46614500
_cell_angle_alpha   90.05837763
_cell_angle_beta   90.05837763
_cell_angle_gamma   89.94162383
_symmetry_Int_Tables_number   1
_chemical_formula_structural   YbSm7TaPd24
_chemical_formula_sum   'Yb1 Sm7 Ta1 Pd24'
_cell_volume   606.81518527
_cell_formula_units_Z   1
loop_
 _symmetry_equiv_pos_site_id
 _symmetry_equiv_pos_as_xyz
  1  'x, y, z'
loop_
 _atom_site_type_symbol
 _atom_site_label
 _atom_site_symmetry_multiplicity
 _atom_site_fract_x
 _atom_site_fract_y
 _atom_site_fract_z
 _atom_site_occupancy
  Yb  Yb0  1  0.747351  0.747351  0.252649  1
  Sm  Sm1  1  0.747029  0.253398  0.746602  1
  Sm  Sm2  1  0.253398  0.747029  0.746602  1
  Sm  Sm3  1  0.746799  0.746799  0.746910  1
  Sm  Sm4  1  0.746799  0.253090  0.253201  1
  Sm  Sm5  1  0.252644  0.252644  0.747356  1
  Sm  Sm6  1  0.253090  0.746799  0.253201  1
  Sm  Sm7  1  0.253398  0.253398  0.252971  1
  Ta  Ta8  1  0.999708  0.999708  0.000292  1
  Pd  Pd9  1  0.998313  0.998313  0.302259  1
  Pd  Pd10  1  0.735529  0.998559  0.499155  1
  Pd  Pd11  1  0.735529  0.500845  0.001441  1
  Pd  Pd12  1  0.500345  0.000348  0.735607  1
  Pd  Pd13  1  0.998559  0.735529  0.499155  1
  Pd  Pd14  1  0.500845  0.998559  0.264471  1
  Pd  Pd15  1  0.000348  0.264393  0.499655  1
  Pd  Pd16  1  0.500845  0.735529  0.001441  1
  Pd  Pd17  1  0.254384  0.499988  0.500012  1
  Pd  Pd18  1  0.499988  0.499988  0.745616  1
  Pd  Pd19  1  0.501281  0.501281  0.254186  1
  Pd  Pd20  1  0.499988  0.254384  0.500012  1
  Pd  Pd21  1  0.501281  0.745814  0.498719  1
  Pd  Pd22  1  0.745814  0.501281  0.498719  1
  Pd  Pd23  1  0.303120  0.999761  0.000239  1
  Pd  Pd24  1  0.999761  0.999761  0.696880  1
  Pd  Pd25  1  0.998559  0.500845  0.264471  1
  Pd  Pd26  1  0.999761  0.303120  0.000239  1
  Pd  Pd27  1  0.998313  0.697741  0.001687  1
  Pd  Pd28  1  0.697741  0.998313  0.001687  1
  Pd  Pd29  1  0.264393  0.500345  0.999652  1
  Pd  Pd30  1  0.264393  0.000348  0.499655  1
  Pd  Pd31  1  0.000348  0.500345  0.735607  1
  Pd  Pd32  1  0.500345  0.264393  0.999652  1
