# generated using pymatgen
data_Tb8Sc12Ga7Sn9
_symmetry_space_group_name_H-M   'P 1'
_cell_length_a   7.46067843
_cell_length_b   7.84949583
_cell_length_c   14.78695072
_cell_angle_alpha   89.95255882
_cell_angle_beta   89.67407801
_cell_angle_gamma   90.52418487
_symmetry_Int_Tables_number   1
_chemical_formula_structural   Tb8Sc12Ga7Sn9
_chemical_formula_sum   'Tb8 Sc12 Ga7 Sn9'
_cell_volume   865.91116645
_cell_formula_units_Z   1
loop_
 _symmetry_equiv_pos_site_id
 _symmetry_equiv_pos_as_xyz
  1  'x, y, z'
loop_
 _atom_site_type_symbol
 _atom_site_label
 _atom_site_symmetry_multiplicity
 _atom_site_fract_x
 _atom_site_fract_y
 _atom_site_fract_z
 _atom_site_occupancy
  Tb  Tb0  1  0.010442  0.178836  0.097350  1
  Tb  Tb1  1  0.000910  0.818215  0.901670  1
  Tb  Tb2  1  0.496547  0.683491  0.902209  1
  Tb  Tb3  1  0.000137  0.815471  0.599908  1
  Tb  Tb4  1  0.498767  0.317101  0.099357  1
  Tb  Tb5  1  0.999792  0.185039  0.399583  1
  Tb  Tb6  1  0.499485  0.319326  0.399426  1
  Tb  Tb7  1  0.500533  0.680394  0.600043  1
  Sc  Sc8  1  0.171175  0.504631  0.749718  1
  Sc  Sc9  1  0.830257  0.493981  0.249529  1
  Sc  Sc10  1  0.337702  0.007347  0.247126  1
  Sc  Sc11  1  0.661438  0.992428  0.750716  1
  Sc  Sc12  1  0.345812  0.168198  0.631095  1
  Sc  Sc13  1  0.654849  0.831600  0.368641  1
  Sc  Sc14  1  0.176029  0.658259  0.369359  1
  Sc  Sc15  1  0.648970  0.832896  0.129904  1
  Sc  Sc16  1  0.822405  0.342226  0.630852  1
  Sc  Sc17  1  0.338859  0.161104  0.873522  1
  Sc  Sc18  1  0.822274  0.340390  0.870795  1
  Sc  Sc19  1  0.185038  0.669342  0.125881  1
  Ga  Ga20  1  0.469205  0.611475  0.250017  1
  Ga  Ga21  1  0.529624  0.385704  0.751968  1
  Ga  Ga22  1  0.298153  0.861699  0.749801  1
  Ga  Ga23  1  0.702743  0.137215  0.249930  1
  Ga  Ga24  1  0.209078  0.370076  0.248459  1
  Ga  Ga25  1  0.789580  0.632290  0.751339  1
  Ga  Ga26  1  0.329356  0.961776  0.041691  1
  Sn  Sn27  1  0.031949  0.119183  0.750443  1
  Sn  Sn28  1  0.967101  0.880226  0.248001  1
  Sn  Sn29  1  0.176888  0.454849  0.541643  1
  Sn  Sn30  1  0.822826  0.545050  0.458172  1
  Sn  Sn31  1  0.317425  0.957452  0.460047  1
  Sn  Sn32  1  0.824167  0.543829  0.042499  1
  Sn  Sn33  1  0.682180  0.042864  0.539451  1
  Sn  Sn34  1  0.175304  0.455713  0.957801  1
  Sn  Sn35  1  0.673003  0.040327  0.962056  1
