# generated using pymatgen
data_Hf6BeCl14
_symmetry_space_group_name_H-M   'P 1'
_cell_length_a   9.63689700
_cell_length_b   9.63689773
_cell_length_c   11.61068400
_cell_angle_alpha   90.00000000
_cell_angle_beta   90.00000000
_cell_angle_gamma   95.14699490
_symmetry_Int_Tables_number   1
_chemical_formula_structural   Hf6BeCl14
_chemical_formula_sum   'Hf12 Be2 Cl28'
_cell_volume   1073.93396546
_cell_formula_units_Z   2
loop_
 _symmetry_equiv_pos_site_id
 _symmetry_equiv_pos_as_xyz
  1  'x, y, z'
loop_
 _atom_site_type_symbol
 _atom_site_label
 _atom_site_symmetry_multiplicity
 _atom_site_fract_x
 _atom_site_fract_y
 _atom_site_fract_z
 _atom_site_occupancy
  Hf  Hf0  1  0.188115  0.949481  0.119195  1
  Hf  Hf1  1  0.811885  0.050519  0.880805  1
  Hf  Hf2  1  0.311885  0.550519  0.619195  1
  Hf  Hf3  1  0.449481  0.688115  0.380805  1
  Hf  Hf4  1  0.688115  0.449481  0.380805  1
  Hf  Hf5  1  0.550519  0.311885  0.619195  1
  Hf  Hf6  1  0.050519  0.811885  0.880805  1
  Hf  Hf7  1  0.949481  0.188115  0.119195  1
  Hf  Hf8  1  0.349672  0.349672  0.391283  1
  Hf  Hf9  1  0.650328  0.650328  0.608717  1
  Hf  Hf10  1  0.150328  0.150328  0.891283  1
  Hf  Hf11  1  0.849672  0.849672  0.108717  1
  Be  Be12  1  0.000000  0.000000  0.000000  1
  Be  Be13  1  0.500000  0.500000  0.500000  1
  Cl  Cl14  1  0.534316  0.287571  0.252289  1
  Cl  Cl15  1  0.465684  0.712429  0.747711  1
  Cl  Cl16  1  0.965684  0.212429  0.752289  1
  Cl  Cl17  1  0.787571  0.034316  0.247711  1
  Cl  Cl18  1  0.034316  0.787571  0.247711  1
  Cl  Cl19  1  0.212429  0.965684  0.752289  1
  Cl  Cl20  1  0.712429  0.465684  0.747711  1
  Cl  Cl21  1  0.287571  0.534316  0.252289  1
  Cl  Cl22  1  0.362247  0.114729  0.011070  1
  Cl  Cl23  1  0.637753  0.885271  0.988930  1
  Cl  Cl24  1  0.137753  0.385271  0.511070  1
  Cl  Cl25  1  0.614729  0.862247  0.488930  1
  Cl  Cl26  1  0.862247  0.614729  0.488930  1
  Cl  Cl27  1  0.385271  0.137753  0.511070  1
  Cl  Cl28  1  0.885271  0.637753  0.988930  1
  Cl  Cl29  1  0.114729  0.362247  0.011070  1
  Cl  Cl30  1  0.395184  0.895184  0.250000  1
  Cl  Cl31  1  0.604816  0.104816  0.750000  1
  Cl  Cl32  1  0.104816  0.604816  0.750000  1
  Cl  Cl33  1  0.895184  0.395184  0.250000  1
  Cl  Cl34  1  0.251713  0.748287  0.000000  1
  Cl  Cl35  1  0.748287  0.251713  0.000000  1
  Cl  Cl36  1  0.248287  0.751713  0.500000  1
  Cl  Cl37  1  0.751713  0.248287  0.500000  1
  Cl  Cl38  1  0.154459  0.154459  0.262035  1
  Cl  Cl39  1  0.845541  0.845541  0.737965  1
  Cl  Cl40  1  0.345541  0.345541  0.762035  1
  Cl  Cl41  1  0.654459  0.654459  0.237965  1
