# generated using pymatgen
data_Re3Tc4B3
_symmetry_space_group_name_H-M   'P 1'
_cell_length_a   7.52592900
_cell_length_b   7.52592901
_cell_length_c   4.90599600
_cell_angle_alpha   90.00000000
_cell_angle_beta   90.00000000
_cell_angle_gamma   119.99999557
_symmetry_Int_Tables_number   1
_chemical_formula_structural   Re3Tc4B3
_chemical_formula_sum   'Re6 Tc8 B6'
_cell_volume   240.64568295
_cell_formula_units_Z   2
loop_
 _symmetry_equiv_pos_site_id
 _symmetry_equiv_pos_as_xyz
  1  'x, y, z'
loop_
 _atom_site_type_symbol
 _atom_site_label
 _atom_site_symmetry_multiplicity
 _atom_site_fract_x
 _atom_site_fract_y
 _atom_site_fract_z
 _atom_site_occupancy
  Re  Re0  1  0.545848  0.454152  0.048826  1
  Re  Re1  1  0.454152  0.545848  0.548826  1
  Re  Re2  1  0.545848  0.091694  0.048826  1
  Re  Re3  1  0.908306  0.454152  0.048826  1
  Re  Re4  1  0.091694  0.545848  0.548826  1
  Re  Re5  1  0.454152  0.908306  0.548826  1
  Tc  Tc6  1  0.122897  0.877103  0.253021  1
  Tc  Tc7  1  0.877103  0.122897  0.753021  1
  Tc  Tc8  1  0.122897  0.245794  0.253021  1
  Tc  Tc9  1  0.754206  0.877103  0.253021  1
  Tc  Tc10  1  0.245794  0.122897  0.753021  1
  Tc  Tc11  1  0.877103  0.754206  0.753021  1
  Tc  Tc12  1  0.333333  0.666667  0.084618  1
  Tc  Tc13  1  0.666667  0.333333  0.584618  1
  B  B14  1  0.811099  0.622199  0.340606  1
  B  B15  1  0.188901  0.811099  0.840606  1
  B  B16  1  0.811099  0.188901  0.340606  1
  B  B17  1  0.377801  0.188901  0.340606  1
  B  B18  1  0.622199  0.811099  0.840606  1
  B  B19  1  0.188901  0.377801  0.840606  1
