# generated using pymatgen
data_Hf3Mn4Co5P6
_symmetry_space_group_name_H-M   'P 1'
_cell_length_a   3.63030800
_cell_length_b   10.27365500
_cell_length_c   12.05642600
_cell_angle_alpha   90.00000000
_cell_angle_beta   90.00000000
_cell_angle_gamma   90.00000000
_symmetry_Int_Tables_number   1
_chemical_formula_structural   Hf3Mn4Co5P6
_chemical_formula_sum   'Hf6 Mn8 Co10 P12'
_cell_volume   449.66287734
_cell_formula_units_Z   2
loop_
 _symmetry_equiv_pos_site_id
 _symmetry_equiv_pos_as_xyz
  1  'x, y, z'
loop_
 _atom_site_type_symbol
 _atom_site_label
 _atom_site_symmetry_multiplicity
 _atom_site_fract_x
 _atom_site_fract_y
 _atom_site_fract_z
 _atom_site_occupancy
  Hf  Hf0  1  0.000000  0.500000  0.528062  1
  Hf  Hf1  1  0.500000  0.000000  0.471938  1
  Hf  Hf2  1  0.500000  0.824741  0.210066  1
  Hf  Hf3  1  0.500000  0.175259  0.210066  1
  Hf  Hf4  1  0.000000  0.675259  0.789934  1
  Hf  Hf5  1  0.000000  0.324741  0.789934  1
  Mn  Mn6  1  0.500000  0.500000  0.163943  1
  Mn  Mn7  1  0.000000  0.000000  0.836057  1
  Mn  Mn8  1  0.000000  0.500000  0.988993  1
  Mn  Mn9  1  0.500000  0.000000  0.011007  1
  Mn  Mn10  1  0.500000  0.330411  0.995177  1
  Mn  Mn11  1  0.500000  0.669589  0.995177  1
  Mn  Mn12  1  0.000000  0.169589  0.004823  1
  Mn  Mn13  1  0.000000  0.830411  0.004823  1
  Co  Co14  1  0.500000  0.500000  0.698163  1
  Co  Co15  1  0.000000  0.000000  0.301837  1
  Co  Co16  1  0.500000  0.299779  0.434045  1
  Co  Co17  1  0.500000  0.700221  0.434045  1
  Co  Co18  1  0.000000  0.200221  0.565955  1
  Co  Co19  1  0.000000  0.799779  0.565955  1
  Co  Co20  1  0.500000  0.876553  0.701947  1
  Co  Co21  1  0.500000  0.123447  0.701947  1
  Co  Co22  1  0.000000  0.623447  0.298053  1
  Co  Co23  1  0.000000  0.376553  0.298053  1
  P  P24  1  0.500000  0.500000  0.873426  1
  P  P25  1  0.000000  0.000000  0.126574  1
  P  P26  1  0.500000  0.500000  0.353920  1
  P  P27  1  0.000000  0.000000  0.646080  1
  P  P28  1  0.500000  0.316626  0.616097  1
  P  P29  1  0.500000  0.683374  0.616097  1
  P  P30  1  0.000000  0.183374  0.383903  1
  P  P31  1  0.000000  0.816626  0.383903  1
  P  P32  1  0.500000  0.845802  0.879420  1
  P  P33  1  0.500000  0.154198  0.879420  1
  P  P34  1  0.000000  0.654198  0.120580  1
  P  P35  1  0.000000  0.345802  0.120580  1
