# generated using pymatgen
data_SmEr4(In2Rh)2
_symmetry_space_group_name_H-M   'P 1'
_cell_length_a   3.62988000
_cell_length_b   7.99906900
_cell_length_c   18.33741500
_cell_angle_alpha   90.00000000
_cell_angle_beta   90.00000000
_cell_angle_gamma   90.00000000
_symmetry_Int_Tables_number   1
_chemical_formula_structural   SmEr4(In2Rh)2
_chemical_formula_sum   'Sm2 Er8 In8 Rh4'
_cell_volume   532.43895789
_cell_formula_units_Z   2
loop_
 _symmetry_equiv_pos_site_id
 _symmetry_equiv_pos_as_xyz
  1  'x, y, z'
loop_
 _atom_site_type_symbol
 _atom_site_label
 _atom_site_symmetry_multiplicity
 _atom_site_fract_x
 _atom_site_fract_y
 _atom_site_fract_z
 _atom_site_occupancy
  Sm  Sm0  1  0.000000  0.000000  0.000000  1
  Sm  Sm1  1  0.000000  0.500000  0.500000  1
  Er  Er2  1  0.000000  0.117161  0.410427  1
  Er  Er3  1  0.000000  0.882839  0.589573  1
  Er  Er4  1  0.000000  0.382839  0.910427  1
  Er  Er5  1  0.000000  0.617161  0.089573  1
  Er  Er6  1  0.000000  0.245160  0.220900  1
  Er  Er7  1  0.000000  0.754840  0.779100  1
  Er  Er8  1  0.000000  0.254840  0.720900  1
  Er  Er9  1  0.000000  0.745160  0.279100  1
  In  In10  1  0.500000  0.425553  0.348220  1
  In  In11  1  0.500000  0.574447  0.651780  1
  In  In12  1  0.500000  0.074447  0.848220  1
  In  In13  1  0.500000  0.925553  0.151780  1
  In  In14  1  0.500000  0.296865  0.068542  1
  In  In15  1  0.500000  0.703135  0.931458  1
  In  In16  1  0.500000  0.203135  0.568542  1
  In  In17  1  0.500000  0.796865  0.431458  1
  Rh  Rh18  1  0.500000  0.023496  0.304606  1
  Rh  Rh19  1  0.500000  0.976504  0.695394  1
  Rh  Rh20  1  0.500000  0.476504  0.804606  1
  Rh  Rh21  1  0.500000  0.523496  0.195394  1
