# generated using pymatgen
data_Hf3BeGeAsOs3
_symmetry_space_group_name_H-M   'P 1'
_cell_length_a   6.75034400
_cell_length_b   6.75034366
_cell_length_c   3.56064500
_cell_angle_alpha   90.00000000
_cell_angle_beta   90.00000000
_cell_angle_gamma   120.00000165
_symmetry_Int_Tables_number   1
_chemical_formula_structural   Hf3BeGeAsOs3
_chemical_formula_sum   'Hf3 Be1 Ge1 As1 Os3'
_cell_volume   140.51124746
_cell_formula_units_Z   1
loop_
 _symmetry_equiv_pos_site_id
 _symmetry_equiv_pos_as_xyz
  1  'x, y, z'
loop_
 _atom_site_type_symbol
 _atom_site_label
 _atom_site_symmetry_multiplicity
 _atom_site_fract_x
 _atom_site_fract_y
 _atom_site_fract_z
 _atom_site_occupancy
  Hf  Hf0  1  0.394928  0.002523  0.500000  1
  Hf  Hf1  1  0.997477  0.392405  0.500000  1
  Hf  Hf2  1  0.607595  0.605072  0.500000  1
  Be  Be3  1  0.000000  0.000000  0.500000  1
  Ge  Ge4  1  0.666667  0.333333  0.000000  1
  As  As5  1  0.333333  0.666667  0.000000  1
  Os  Os6  1  0.762462  0.000162  0.000000  1
  Os  Os7  1  0.999838  0.762300  0.000000  1
  Os  Os8  1  0.237700  0.237538  0.000000  1
