# generated using pymatgen
data_Ta8ReTc4Os3
_symmetry_space_group_name_H-M   'P 1'
_cell_length_a   6.37134200
_cell_length_b   4.50576500
_cell_length_c   9.02275200
_cell_angle_alpha   90.00000000
_cell_angle_beta   90.00079574
_cell_angle_gamma   90.00000000
_symmetry_Int_Tables_number   1
_chemical_formula_structural   Ta8ReTc4Os3
_chemical_formula_sum   'Ta8 Re1 Tc4 Os3'
_cell_volume   259.02308725
_cell_formula_units_Z   1
loop_
 _symmetry_equiv_pos_site_id
 _symmetry_equiv_pos_as_xyz
  1  'x, y, z'
loop_
 _atom_site_type_symbol
 _atom_site_label
 _atom_site_symmetry_multiplicity
 _atom_site_fract_x
 _atom_site_fract_y
 _atom_site_fract_z
 _atom_site_occupancy
  Ta  Ta0  1  0.498149  0.749999  0.125002  1
  Ta  Ta1  1  0.001867  0.749999  0.125003  1
  Ta  Ta2  1  0.498788  0.250000  0.373551  1
  Ta  Ta3  1  0.001236  0.250000  0.373568  1
  Ta  Ta4  1  0.000067  0.749999  0.625008  1
  Ta  Ta5  1  0.499923  0.749999  0.625005  1
  Ta  Ta6  1  0.001235  0.250000  0.876444  1
  Ta  Ta7  1  0.498785  0.250000  0.876460  1
  Re  Re8  1  0.249935  0.250000  0.124994  1
  Tc  Tc9  1  0.750014  0.250000  0.124987  1
  Tc  Tc10  1  0.249989  0.749999  0.377137  1
  Tc  Tc11  1  0.750006  0.250000  0.625011  1
  Tc  Tc12  1  0.249991  0.749999  0.872871  1
  Os  Os13  1  0.750003  0.749999  0.375577  1
  Os  Os14  1  0.250000  0.250000  0.624988  1
  Os  Os15  1  0.750012  0.749999  0.874394  1
