# generated using pymatgen
data_Dy3Th(ScSb5)4
_symmetry_space_group_name_H-M   'P 1'
_cell_length_a   4.22151400
_cell_length_b   13.07217554
_cell_length_c   14.23352194
_cell_angle_alpha   78.55414234
_cell_angle_beta   90.00000000
_cell_angle_gamma   90.00000000
_symmetry_Int_Tables_number   1
_chemical_formula_structural   Dy3Th(ScSb5)4
_chemical_formula_sum   'Dy3 Th1 Sc4 Sb20'
_cell_volume   769.84710391
_cell_formula_units_Z   1
loop_
 _symmetry_equiv_pos_site_id
 _symmetry_equiv_pos_as_xyz
  1  'x, y, z'
loop_
 _atom_site_type_symbol
 _atom_site_label
 _atom_site_symmetry_multiplicity
 _atom_site_fract_x
 _atom_site_fract_y
 _atom_site_fract_z
 _atom_site_occupancy
  Dy  Dy0  1  0.750000  0.326278  0.424068  1
  Dy  Dy1  1  0.250000  0.953073  0.351704  1
  Dy  Dy2  1  0.750000  0.049116  0.645739  1
  Th  Th3  1  0.250000  0.671817  0.574232  1
  Sc  Sc4  1  0.250000  0.393842  0.774198  1
  Sc  Sc5  1  0.750000  0.602471  0.224910  1
  Sc  Sc6  1  0.250000  0.658432  0.860415  1
  Sc  Sc7  1  0.750000  0.342211  0.141174  1
  Sb  Sb8  1  0.250000  0.149904  0.781189  1
  Sb  Sb9  1  0.750000  0.849994  0.218726  1
  Sb  Sb10  1  0.250000  0.139129  0.482171  1
  Sb  Sb11  1  0.750000  0.863351  0.516057  1
  Sb  Sb12  1  0.250000  0.163716  0.157689  1
  Sb  Sb13  1  0.750000  0.838629  0.845051  1
  Sb  Sb14  1  0.250000  0.422343  0.975520  1
  Sb  Sb15  1  0.750000  0.578338  0.023362  1
  Sb  Sb16  1  0.750000  0.033224  0.915682  1
  Sb  Sb17  1  0.250000  0.970100  0.086934  1
  Sb  Sb18  1  0.750000  0.142350  0.311743  1
  Sb  Sb19  1  0.250000  0.860275  0.693221  1
  Sb  Sb20  1  0.750000  0.280601  0.937982  1
  Sb  Sb21  1  0.250000  0.720151  0.061403  1
  Sb  Sb22  1  0.750000  0.288452  0.661288  1
  Sb  Sb23  1  0.250000  0.710066  0.337260  1
  Sb  Sb24  1  0.750000  0.572613  0.742953  1
  Sb  Sb25  1  0.250000  0.426322  0.258066  1
  Sb  Sb26  1  0.750000  0.566309  0.441265  1
  Sb  Sb27  1  0.250000  0.426895  0.555998  1
