# generated using pymatgen
data_Yb5VN5
_symmetry_space_group_name_H-M   'P 1'
_cell_length_a   6.70554607
_cell_length_b   6.70554597
_cell_length_c   8.53802784
_cell_angle_alpha   82.84118986
_cell_angle_beta   82.84118882
_cell_angle_gamma   60.65598052
_symmetry_Int_Tables_number   1
_chemical_formula_structural   Yb5VN5
_chemical_formula_sum   'Yb10 V2 N10'
_cell_volume   331.14266340
_cell_formula_units_Z   2
loop_
 _symmetry_equiv_pos_site_id
 _symmetry_equiv_pos_as_xyz
  1  'x, y, z'
loop_
 _atom_site_type_symbol
 _atom_site_label
 _atom_site_symmetry_multiplicity
 _atom_site_fract_x
 _atom_site_fract_y
 _atom_site_fract_z
 _atom_site_occupancy
  Yb  Yb0  1  0.893102  0.361878  0.852082  1
  Yb  Yb1  1  0.883057  0.883057  0.816500  1
  Yb  Yb2  1  0.731457  0.731457  0.541152  1
  Yb  Yb3  1  0.734664  0.264130  0.504417  1
  Yb  Yb4  1  0.615724  0.121037  0.134856  1
  Yb  Yb5  1  0.361878  0.893102  0.852082  1
  Yb  Yb6  1  0.264130  0.734664  0.504417  1
  Yb  Yb7  1  0.240338  0.240338  0.489212  1
  Yb  Yb8  1  0.138398  0.138398  0.179382  1
  Yb  Yb9  1  0.121037  0.615724  0.134856  1
  V  V10  1  0.635338  0.635338  0.224674  1
  V  V11  1  0.368539  0.368539  0.769581  1
  N  N12  1  0.904829  0.477109  0.329150  1
  N  N13  1  0.996869  0.996869  0.024740  1
  N  N14  1  0.703350  0.703350  0.020183  1
  N  N15  1  0.533022  0.533022  0.705246  1
  N  N16  1  0.477109  0.904829  0.329150  1
  N  N17  1  0.532176  0.099165  0.673347  1
  N  N18  1  0.473380  0.473380  0.277048  1
  N  N19  1  0.295422  0.295422  0.972371  1
  N  N20  1  0.059307  0.059307  0.638015  1
  N  N21  1  0.099165  0.532176  0.673347  1
