# generated using pymatgen
data_Tb4Nd6In8Pd3Ru
_symmetry_space_group_name_H-M   'P 1'
_cell_length_a   8.28019616
_cell_length_b   18.57296174
_cell_length_c   3.72819800
_cell_angle_alpha   90.00000000
_cell_angle_beta   90.00000000
_cell_angle_gamma   90.16167408
_symmetry_Int_Tables_number   1
_chemical_formula_structural   Tb4Nd6In8Pd3Ru
_chemical_formula_sum   'Tb4 Nd6 In8 Pd3 Ru1'
_cell_volume   573.34896084
_cell_formula_units_Z   1
loop_
 _symmetry_equiv_pos_site_id
 _symmetry_equiv_pos_as_xyz
  1  'x, y, z'
loop_
 _atom_site_type_symbol
 _atom_site_label
 _atom_site_symmetry_multiplicity
 _atom_site_fract_x
 _atom_site_fract_y
 _atom_site_fract_z
 _atom_site_occupancy
  Tb  Tb0  1  0.617276  0.088715  0.000000  1
  Tb  Tb1  1  0.381311  0.915641  0.000000  1
  Tb  Tb2  1  0.880179  0.583600  0.000000  1
  Tb  Tb3  1  0.120440  0.413949  0.000000  1
  Nd  Nd4  1  0.500278  0.499514  0.000000  1
  Nd  Nd5  1  0.000816  0.001411  0.000000  1
  Nd  Nd6  1  0.729096  0.279483  0.000000  1
  Nd  Nd7  1  0.258836  0.716734  0.000000  1
  Nd  Nd8  1  0.758905  0.782633  0.000000  1
  Nd  Nd9  1  0.252219  0.218134  0.000000  1
  In  In10  1  0.700516  0.934662  0.500000  1
  In  In11  1  0.303957  0.066980  0.500000  1
  In  In12  1  0.800796  0.434017  0.500000  1
  In  In13  1  0.198929  0.564455  0.500000  1
  In  In14  1  0.581554  0.650927  0.500000  1
  In  In15  1  0.423434  0.348901  0.500000  1
  In  In16  1  0.921850  0.151722  0.500000  1
  In  In17  1  0.081730  0.849330  0.500000  1
  Pd  Pd18  1  0.474666  0.806174  0.500000  1
  Pd  Pd19  1  0.974279  0.693325  0.500000  1
  Pd  Pd20  1  0.021018  0.305566  0.500000  1
  Ru  Ru21  1  0.517917  0.194123  0.500000  1
