# generated using pymatgen
data_NdSmYCd(Mo2O7)2
_symmetry_space_group_name_H-M   'P 1'
_cell_length_a   7.33697648
_cell_length_b   7.52243353
_cell_length_c   7.52279442
_cell_angle_alpha   120.53113739
_cell_angle_beta   119.98910998
_cell_angle_gamma   90.20354988
_symmetry_Int_Tables_number   1
_chemical_formula_structural   NdSmYCd(Mo2O7)2
_chemical_formula_sum   'Nd1 Sm1 Y1 Cd1 Mo4 O14'
_cell_volume   290.72040363
_cell_formula_units_Z   1
loop_
 _symmetry_equiv_pos_site_id
 _symmetry_equiv_pos_as_xyz
  1  'x, y, z'
loop_
 _atom_site_type_symbol
 _atom_site_label
 _atom_site_symmetry_multiplicity
 _atom_site_fract_x
 _atom_site_fract_y
 _atom_site_fract_z
 _atom_site_occupancy
  Nd  Nd0  1  0.375000  0.625000  0.750000  1
  Sm  Sm1  1  0.375000  0.625000  0.250000  1
  Y  Y2  1  0.375000  0.125000  0.750000  1
  Cd  Cd3  1  0.875000  0.625000  0.250000  1
  Mo  Mo4  1  0.875000  0.625000  0.750000  1
  Mo  Mo5  1  0.375000  0.125000  0.250000  1
  Mo  Mo6  1  0.875000  0.125000  0.250000  1
  Mo  Mo7  1  0.875000  0.125000  0.750000  1
  O  O8  1  0.784146  0.183771  0.982712  1
  O  O9  1  0.537317  0.462800  0.487379  1
  O  O10  1  0.206047  0.211116  0.998972  1
  O  O11  1  0.956395  0.452705  0.502991  1
  O  O12  1  0.799744  0.807664  0.599195  1
  O  O13  1  0.527903  0.041237  0.070440  1
  O  O14  1  0.243195  0.755394  0.497193  1
  O  O15  1  0.950256  0.442336  0.900805  1
  O  O16  1  0.965854  0.066229  0.517288  1
  O  O17  1  0.543953  0.038884  0.501028  1
  O  O18  1  0.222097  0.208763  0.429560  1
  O  O19  1  0.506805  0.494606  0.002807  1
  O  O20  1  0.793605  0.797295  0.997009  1
  O  O21  1  0.212683  0.787200  0.012621  1
