# generated using pymatgen
data_Zr4UPaTc6
_symmetry_space_group_name_H-M   'P 1'
_cell_length_a   5.28607924
_cell_length_b   5.28607840
_cell_length_c   8.99600700
_cell_angle_alpha   90.00000000
_cell_angle_beta   90.00000000
_cell_angle_gamma   116.04907429
_symmetry_Int_Tables_number   1
_chemical_formula_structural   Zr4UPaTc6
_chemical_formula_sum   'Zr4 U1 Pa1 Tc6'
_cell_volume   225.83727142
_cell_formula_units_Z   1
loop_
 _symmetry_equiv_pos_site_id
 _symmetry_equiv_pos_as_xyz
  1  'x, y, z'
loop_
 _atom_site_type_symbol
 _atom_site_label
 _atom_site_symmetry_multiplicity
 _atom_site_fract_x
 _atom_site_fract_y
 _atom_site_fract_z
 _atom_site_occupancy
  Zr  Zr0  1  0.334521  0.665479  0.434361  1
  Zr  Zr1  1  0.666184  0.333816  0.562516  1
  Zr  Zr2  1  0.666184  0.333816  0.937484  1
  Zr  Zr3  1  0.334521  0.665479  0.065639  1
  U  U4  1  0.845918  0.154082  0.250000  1
  Pa  Pa5  1  0.155869  0.844131  0.750000  1
  Tc  Tc6  1  0.993218  0.006782  0.490485  1
  Tc  Tc7  1  0.993218  0.006782  0.009515  1
  Tc  Tc8  1  0.836921  0.632645  0.250000  1
  Tc  Tc9  1  0.367355  0.163079  0.250000  1
  Tc  Tc10  1  0.163559  0.357466  0.750000  1
  Tc  Tc11  1  0.642534  0.836441  0.750000  1
