# generated using pymatgen
data_Zr3Ta2Nb5N12
_symmetry_space_group_name_H-M   'P 1'
_cell_length_a   5.32463914
_cell_length_b   5.33290361
_cell_length_c   10.58711604
_cell_angle_alpha   89.99011118
_cell_angle_beta   90.00225561
_cell_angle_gamma   120.07312018
_symmetry_Int_Tables_number   1
_chemical_formula_structural   Zr3Ta2Nb5N12
_chemical_formula_sum   'Zr3 Ta2 Nb5 N12'
_cell_volume   260.16073420
_cell_formula_units_Z   1
loop_
 _symmetry_equiv_pos_site_id
 _symmetry_equiv_pos_as_xyz
  1  'x, y, z'
loop_
 _atom_site_type_symbol
 _atom_site_label
 _atom_site_symmetry_multiplicity
 _atom_site_fract_x
 _atom_site_fract_y
 _atom_site_fract_z
 _atom_site_occupancy
  Zr  Zr0  1  0.665679  0.332170  0.999883  1
  Zr  Zr1  1  0.334400  0.666440  0.999821  1
  Zr  Zr2  1  0.334437  0.666625  0.499753  1
  Ta  Ta3  1  0.001727  0.679734  0.252248  1
  Ta  Ta4  1  0.665904  0.332646  0.500355  1
  Nb  Nb5  1  0.676720  0.678133  0.747460  1
  Nb  Nb6  1  0.321707  0.998111  0.747421  1
  Nb  Nb7  1  0.001716  0.323686  0.747400  1
  Nb  Nb8  1  0.321130  0.323093  0.252732  1
  Nb  Nb9  1  0.677050  0.998570  0.252738  1
  N  N10  1  0.665558  0.651489  0.377957  1
  N  N11  1  0.344593  0.006828  0.377875  1
  N  N12  1  0.989344  0.343032  0.377288  1
  N  N13  1  0.348824  0.338066  0.621542  1
  N  N14  1  0.661779  0.010509  0.621502  1
  N  N15  1  0.989364  0.650367  0.621537  1
  N  N16  1  0.342662  0.342283  0.870840  1
  N  N17  1  0.657501  0.000025  0.870825  1
  N  N18  1  0.999881  0.656627  0.870868  1
  N  N19  1  0.661657  0.657563  0.129803  1
  N  N20  1  0.338628  0.996427  0.129790  1
  N  N21  1  0.999741  0.347578  0.130361  1
