# generated using pymatgen
data_Hf4Mg(Re3Tc)6
_symmetry_space_group_name_H-M   'P 1'
_cell_length_a   8.46411384
_cell_length_b   8.46411533
_cell_length_c   8.44603221
_cell_angle_alpha   109.47215926
_cell_angle_beta   109.47215943
_cell_angle_gamma   109.55591836
_symmetry_Int_Tables_number   1
_chemical_formula_structural   Hf4Mg(Re3Tc)6
_chemical_formula_sum   'Hf4 Mg1 Re18 Tc6'
_cell_volume   465.29542933
_cell_formula_units_Z   1
loop_
 _symmetry_equiv_pos_site_id
 _symmetry_equiv_pos_as_xyz
  1  'x, y, z'
loop_
 _atom_site_type_symbol
 _atom_site_label
 _atom_site_symmetry_multiplicity
 _atom_site_fract_x
 _atom_site_fract_y
 _atom_site_fract_z
 _atom_site_occupancy
  Hf  Hf0  1  0.630086  0.999805  0.000000  1
  Hf  Hf1  1  0.999805  0.630086  0.000000  1
  Hf  Hf2  1  0.999787  0.999787  0.631922  1
  Hf  Hf3  1  0.367865  0.367865  0.368078  1
  Mg  Mg4  1  0.999329  0.999329  0.000000  1
  Re  Re5  1  0.325049  0.325049  0.720977  1
  Re  Re6  1  0.000836  0.675241  0.395655  1
  Re  Re7  1  0.675241  0.000836  0.395655  1
  Re  Re8  1  0.604073  0.604073  0.279023  1
  Re  Re9  1  0.279585  0.605180  0.604345  1
  Re  Re10  1  0.605180  0.279585  0.604345  1
  Re  Re11  1  0.375412  0.194084  0.000000  1
  Re  Re12  1  0.181127  0.806996  0.806457  1
  Re  Re13  1  0.374669  0.000538  0.193543  1
  Re  Re14  1  0.194084  0.375412  0.000000  1
  Re  Re15  1  0.000538  0.374669  0.193543  1
  Re  Re16  1  0.806996  0.181127  0.806457  1
  Re  Re17  1  0.807766  0.807766  0.182929  1
  Re  Re18  1  0.000627  0.193363  0.376600  1
  Re  Re19  1  0.193363  0.000627  0.376600  1
  Re  Re20  1  0.624838  0.624838  0.817071  1
  Re  Re21  1  0.816763  0.624026  0.623400  1
  Re  Re22  1  0.624026  0.816763  0.623400  1
  Tc  Tc23  1  0.395569  0.676070  0.000000  1
  Tc  Tc24  1  0.719878  0.323875  0.323094  1
  Tc  Tc25  1  0.396783  0.000781  0.676906  1
  Tc  Tc26  1  0.676070  0.395569  0.000000  1
  Tc  Tc27  1  0.000781  0.396783  0.676906  1
  Tc  Tc28  1  0.323875  0.719878  0.323094  1
