# generated using pymatgen
data_Cs6NbVSe8
_symmetry_space_group_name_H-M   'P 1'
_cell_length_a   10.35006700
_cell_length_b   12.11844300
_cell_length_c   10.41635200
_cell_angle_alpha   90.00000000
_cell_angle_beta   90.00000000
_cell_angle_gamma   90.00000000
_symmetry_Int_Tables_number   1
_chemical_formula_structural   Cs6NbVSe8
_chemical_formula_sum   'Cs12 Nb2 V2 Se16'
_cell_volume   1306.48862600
_cell_formula_units_Z   2
loop_
 _symmetry_equiv_pos_site_id
 _symmetry_equiv_pos_as_xyz
  1  'x, y, z'
loop_
 _atom_site_type_symbol
 _atom_site_label
 _atom_site_symmetry_multiplicity
 _atom_site_fract_x
 _atom_site_fract_y
 _atom_site_fract_z
 _atom_site_occupancy
  Cs  Cs0  1  0.855487  0.750000  0.089490  1
  Cs  Cs1  1  0.452897  0.045539  0.207858  1
  Cs  Cs2  1  0.452897  0.454461  0.207858  1
  Cs  Cs3  1  0.952897  0.045539  0.292142  1
  Cs  Cs4  1  0.952897  0.454461  0.292142  1
  Cs  Cs5  1  0.355488  0.750000  0.410510  1
  Cs  Cs6  1  0.644535  0.250000  0.586941  1
  Cs  Cs7  1  0.047431  0.540038  0.707071  1
  Cs  Cs8  1  0.047431  0.959962  0.707071  1
  Cs  Cs9  1  0.547431  0.540038  0.792928  1
  Cs  Cs10  1  0.547431  0.959962  0.792928  1
  Cs  Cs11  1  0.144535  0.250000  0.913059  1
  Nb  Nb12  1  0.778264  0.750000  0.518024  1
  Nb  Nb13  1  0.278265  0.750000  0.981975  1
  V  V14  1  0.721100  0.250000  0.018012  1
  V  V15  1  0.221099  0.250000  0.481988  1
  Se  Se16  1  0.166045  0.584108  0.048218  1
  Se  Se17  1  0.166045  0.915892  0.048218  1
  Se  Se18  1  0.494429  0.750000  0.072343  1
  Se  Se19  1  0.707255  0.250000  0.238479  1
  Se  Se20  1  0.207254  0.250000  0.261522  1
  Se  Se21  1  0.994429  0.750000  0.427657  1
  Se  Se22  1  0.666045  0.584108  0.451783  1
  Se  Se23  1  0.666045  0.915892  0.451783  1
  Se  Se24  1  0.328067  0.093646  0.546033  1
  Se  Se25  1  0.328067  0.406354  0.546033  1
  Se  Se26  1  0.015567  0.250000  0.567819  1
  Se  Se27  1  0.794482  0.750000  0.750076  1
  Se  Se28  1  0.294483  0.750000  0.749923  1
  Se  Se29  1  0.515567  0.250000  0.932181  1
  Se  Se30  1  0.828067  0.093646  0.953966  1
  Se  Se31  1  0.828067  0.406354  0.953966  1
