# generated using pymatgen
data_BeNb4Fe7
_symmetry_space_group_name_H-M   'P 1'
_cell_length_a   4.79484700
_cell_length_b   4.79484785
_cell_length_c   7.80897400
_cell_angle_alpha   90.00000000
_cell_angle_beta   90.00000000
_cell_angle_gamma   120.00000105
_symmetry_Int_Tables_number   1
_chemical_formula_structural   BeNb4Fe7
_chemical_formula_sum   'Be1 Nb4 Fe7'
_cell_volume   155.47987694
_cell_formula_units_Z   1
loop_
 _symmetry_equiv_pos_site_id
 _symmetry_equiv_pos_as_xyz
  1  'x, y, z'
loop_
 _atom_site_type_symbol
 _atom_site_label
 _atom_site_symmetry_multiplicity
 _atom_site_fract_x
 _atom_site_fract_y
 _atom_site_fract_z
 _atom_site_occupancy
  Be  Be0  1  0.000000  0.000000  0.000000  1
  Nb  Nb1  1  0.333333  0.666667  0.065280  1
  Nb  Nb2  1  0.666667  0.333333  0.554333  1
  Nb  Nb3  1  0.666667  0.333333  0.934720  1
  Nb  Nb4  1  0.333333  0.666667  0.445667  1
  Fe  Fe5  1  0.000000  0.000000  0.500000  1
  Fe  Fe6  1  0.832899  0.665797  0.244590  1
  Fe  Fe7  1  0.167101  0.832899  0.755410  1
  Fe  Fe8  1  0.665797  0.832899  0.755410  1
  Fe  Fe9  1  0.334203  0.167101  0.244590  1
  Fe  Fe10  1  0.832899  0.167101  0.244590  1
  Fe  Fe11  1  0.167101  0.334203  0.755410  1
