# generated using pymatgen
data_LiHfScZnPt2
_symmetry_space_group_name_H-M   'P 1'
_cell_length_a   5.06693099
_cell_length_b   5.06693095
_cell_length_c   5.21564440
_cell_angle_alpha   89.65436617
_cell_angle_beta   90.34563366
_cell_angle_gamma   129.49292890
_symmetry_Int_Tables_number   1
_chemical_formula_structural   LiHfScZnPt2
_chemical_formula_sum   'Li1 Hf1 Sc1 Zn1 Pt2'
_cell_volume   103.33287704
_cell_formula_units_Z   1
loop_
 _symmetry_equiv_pos_site_id
 _symmetry_equiv_pos_as_xyz
  1  'x, y, z'
loop_
 _atom_site_type_symbol
 _atom_site_label
 _atom_site_symmetry_multiplicity
 _atom_site_fract_x
 _atom_site_fract_y
 _atom_site_fract_z
 _atom_site_occupancy
  Li  Li0  1  0.002794  0.997206  0.500554  1
  Hf  Hf1  1  0.709216  0.290784  0.249835  1
  Sc  Sc2  1  0.289623  0.710377  0.747756  1
  Zn  Zn3  1  0.003490  0.996510  0.003595  1
  Pt  Pt4  1  0.393555  0.606445  0.251732  1
  Pt  Pt5  1  0.601322  0.398678  0.746527  1
