# generated using pymatgen
data_Cs4Ba4Sc5In3(PO4)12
_symmetry_space_group_name_H-M   'P 1'
_cell_length_a   10.42292100
_cell_length_b   10.42292100
_cell_length_c   10.42292100
_cell_angle_alpha   90.00000000
_cell_angle_beta   90.00000000
_cell_angle_gamma   90.00000000
_symmetry_Int_Tables_number   1
_chemical_formula_structural   Cs4Ba4Sc5In3(PO4)12
_chemical_formula_sum   'Cs4 Ba4 Sc5 In3 P12 O48'
_cell_volume   1132.31780974
_cell_formula_units_Z   1
loop_
 _symmetry_equiv_pos_site_id
 _symmetry_equiv_pos_as_xyz
  1  'x, y, z'
loop_
 _atom_site_type_symbol
 _atom_site_label
 _atom_site_symmetry_multiplicity
 _atom_site_fract_x
 _atom_site_fract_y
 _atom_site_fract_z
 _atom_site_occupancy
  Cs  Cs0  1  0.047172  0.046151  0.047592  1
  Cs  Cs1  1  0.452659  0.952941  0.547275  1
  Cs  Cs2  1  0.545439  0.452916  0.953642  1
  Cs  Cs3  1  0.953276  0.546608  0.454511  1
  Ba  Ba4  1  0.185122  0.314338  0.684563  1
  Ba  Ba5  1  0.314280  0.684762  0.184815  1
  Ba  Ba6  1  0.684563  0.184813  0.313864  1
  Ba  Ba7  1  0.815232  0.815495  0.814705  1
  Sc  Sc8  1  0.102370  0.898415  0.398250  1
  Sc  Sc9  1  0.167826  0.666931  0.832685  1
  Sc  Sc10  1  0.332066  0.332918  0.333147  1
  Sc  Sc11  1  0.398336  0.101734  0.897682  1
  Sc  Sc12  1  0.601835  0.602590  0.601802  1
  In  In13  1  0.668089  0.830599  0.168867  1
  In  In14  1  0.831422  0.168970  0.668816  1
  In  In15  1  0.900778  0.400612  0.099472  1
  P  P16  1  0.016536  0.211700  0.378133  1
  P  P17  1  0.122905  0.983126  0.712343  1
  P  P18  1  0.213268  0.377548  0.015140  1
  P  P19  1  0.288469  0.621728  0.516063  1
  P  P20  1  0.377039  0.016992  0.212062  1
  P  P21  1  0.483489  0.787928  0.877138  1
  P  P22  1  0.515114  0.289351  0.621100  1
  P  P23  1  0.620140  0.514805  0.289693  1
  P  P24  1  0.711172  0.121238  0.984433  1
  P  P25  1  0.788716  0.877711  0.484393  1
  P  P26  1  0.878137  0.486124  0.787667  1
  P  P27  1  0.985880  0.712670  0.121799  1
  O  O28  1  0.001340  0.568971  0.771859  1
  O  O29  1  0.015136  0.068628  0.339885  1
  O  O30  1  0.049491  0.795455  0.227653  1
  O  O31  1  0.069137  0.728543  0.998907  1
  O  O32  1  0.072199  0.330972  0.009810  1
  O  O33  1  0.096809  0.844325  0.760174  1
  O  O34  1  0.155127  0.260465  0.402691  1
  O  O35  1  0.161060  0.984843  0.569042  1
  O  O36  1  0.209515  0.728726  0.448135  1
  O  O37  1  0.231404  0.050011  0.789996  1
  O  O38  1  0.229608  0.502362  0.934434  1
  O  O39  1  0.239140  0.594557  0.654219  1
  O  O40  1  0.259115  0.404839  0.154196  1
  O  O41  1  0.269881  0.497875  0.434338  1
  O  O42  1  0.268699  0.950371  0.289988  1
  O  O43  1  0.295039  0.272665  0.947899  1
  O  O44  1  0.338987  0.015431  0.068703  1
  O  O45  1  0.344801  0.739820  0.903026  1
  O  O46  1  0.403369  0.155716  0.260074  1
  O  O47  1  0.431040  0.662369  0.516203  1
  O  O48  1  0.430350  0.271603  0.499347  1
  O  O49  1  0.451088  0.208918  0.728811  1
  O  O50  1  0.485244  0.931146  0.839185  1
  O  O51  1  0.496852  0.432210  0.272608  1
  O  O52  1  0.499919  0.935469  0.236336  1
  O  O53  1  0.516644  0.431485  0.662962  1
  O  O54  1  0.550622  0.710220  0.768840  1
  O  O55  1  0.564345  0.763433  0.000370  1
  O  O56  1  0.568525  0.160799  0.984619  1
  O  O57  1  0.586963  0.651944  0.240151  1
  O  O58  1  0.652289  0.240533  0.586547  1
  O  O59  1  0.662352  0.516489  0.431496  1
  O  O60  1  0.709528  0.768559  0.547377  1
  O  O61  1  0.725792  0.447241  0.209615  1
  O  O62  1  0.734373  0.998916  0.066749  1
  O  O63  1  0.741311  0.911328  0.346660  1
  O  O64  1  0.759111  0.088987  0.846652  1
  O  O65  1  0.765031  0.998467  0.568905  1
  O  O66  1  0.772512  0.550075  0.704832  1
  O  O67  1  0.789595  0.228667  0.050855  1
  O  O68  1  0.830580  0.490011  0.928265  1
  O  O69  1  0.847603  0.757625  0.087661  1
  O  O70  1  0.912105  0.347935  0.742341  1
  O  O71  1  0.931569  0.838513  0.484795  1
  O  O72  1  0.937712  0.235550  0.502856  1
  O  O73  1  0.945971  0.288957  0.271985  1
  O  O74  1  0.989915  0.572003  0.169546  1
  O  O75  1  0.999869  0.064258  0.736751  1
