# generated using pymatgen
data_Y3Cr(P3Ir4)2
_symmetry_space_group_name_H-M   'P 1'
_cell_length_a   3.96363300
_cell_length_b   11.19059700
_cell_length_c   12.75584300
_cell_angle_alpha   90.00000000
_cell_angle_beta   90.00000000
_cell_angle_gamma   90.00000000
_symmetry_Int_Tables_number   1
_chemical_formula_structural   Y3Cr(P3Ir4)2
_chemical_formula_sum   'Y6 Cr2 P12 Ir16'
_cell_volume   565.79076809
_cell_formula_units_Z   2
loop_
 _symmetry_equiv_pos_site_id
 _symmetry_equiv_pos_as_xyz
  1  'x, y, z'
loop_
 _atom_site_type_symbol
 _atom_site_label
 _atom_site_symmetry_multiplicity
 _atom_site_fract_x
 _atom_site_fract_y
 _atom_site_fract_z
 _atom_site_occupancy
  Y  Y0  1  0.000000  0.500000  0.518709  1
  Y  Y1  1  0.500000  0.000000  0.481291  1
  Y  Y2  1  0.500000  0.817308  0.203216  1
  Y  Y3  1  0.500000  0.182692  0.203216  1
  Y  Y4  1  0.000000  0.682692  0.796784  1
  Y  Y5  1  0.000000  0.317308  0.796784  1
  Cr  Cr6  1  0.500000  0.500000  0.158347  1
  Cr  Cr7  1  0.000000  0.000000  0.841653  1
  P  P8  1  0.500000  0.500000  0.875789  1
  P  P9  1  0.000000  0.000000  0.124211  1
  P  P10  1  0.500000  0.500000  0.339068  1
  P  P11  1  0.000000  0.000000  0.660932  1
  P  P12  1  0.500000  0.314394  0.618191  1
  P  P13  1  0.500000  0.685606  0.618191  1
  P  P14  1  0.000000  0.185606  0.381809  1
  P  P15  1  0.000000  0.814394  0.381809  1
  P  P16  1  0.500000  0.846165  0.888325  1
  P  P17  1  0.500000  0.153835  0.888325  1
  P  P18  1  0.000000  0.653835  0.111675  1
  P  P19  1  0.000000  0.346165  0.111675  1
  Ir  Ir20  1  0.500000  0.500000  0.697223  1
  Ir  Ir21  1  0.000000  0.000000  0.302777  1
  Ir  Ir22  1  0.000000  0.500000  0.993867  1
  Ir  Ir23  1  0.500000  0.000000  0.006133  1
  Ir  Ir24  1  0.500000  0.332172  0.983590  1
  Ir  Ir25  1  0.500000  0.667828  0.983590  1
  Ir  Ir26  1  0.000000  0.167828  0.016410  1
  Ir  Ir27  1  0.000000  0.832172  0.016410  1
  Ir  Ir28  1  0.500000  0.293661  0.430093  1
  Ir  Ir29  1  0.500000  0.706339  0.430093  1
  Ir  Ir30  1  0.000000  0.206339  0.569907  1
  Ir  Ir31  1  0.000000  0.793661  0.569907  1
  Ir  Ir32  1  0.500000  0.874086  0.712357  1
  Ir  Ir33  1  0.500000  0.125914  0.712357  1
  Ir  Ir34  1  0.000000  0.625914  0.287643  1
  Ir  Ir35  1  0.000000  0.374086  0.287643  1
