# generated using pymatgen
data_CePr4P12Ru19
_symmetry_space_group_name_H-M   'P 1'
_cell_length_a   12.65077500
_cell_length_b   12.65077479
_cell_length_c   4.02548900
_cell_angle_alpha   90.00000000
_cell_angle_beta   90.00000000
_cell_angle_gamma   120.00000316
_symmetry_Int_Tables_number   1
_chemical_formula_structural   CePr4P12Ru19
_chemical_formula_sum   'Ce1 Pr4 P12 Ru19'
_cell_volume   557.93488724
_cell_formula_units_Z   1
loop_
 _symmetry_equiv_pos_site_id
 _symmetry_equiv_pos_as_xyz
  1  'x, y, z'
loop_
 _atom_site_type_symbol
 _atom_site_label
 _atom_site_symmetry_multiplicity
 _atom_site_fract_x
 _atom_site_fract_y
 _atom_site_fract_z
 _atom_site_occupancy
  Ce  Ce0  1  0.666667  0.333333  0.000000  1
  Pr  Pr1  1  0.184452  0.184416  0.500000  1
  Pr  Pr2  1  0.815584  0.000037  0.500000  1
  Pr  Pr3  1  0.999963  0.815548  0.500000  1
  Pr  Pr4  1  0.333333  0.666667  0.000000  1
  P  P5  1  0.812258  0.812120  0.000000  1
  P  P6  1  0.187880  0.000138  0.000000  1
  P  P7  1  0.999862  0.187742  0.000000  1
  P  P8  1  0.170523  0.475699  0.500000  1
  P  P9  1  0.524301  0.694824  0.500000  1
  P  P10  1  0.305176  0.829477  0.500000  1
  P  P11  1  0.694940  0.523370  0.500000  1
  P  P12  1  0.828430  0.305060  0.500000  1
  P  P13  1  0.476630  0.171570  0.500000  1
  P  P14  1  0.374670  0.375312  0.000000  1
  P  P15  1  0.624688  0.999358  0.000000  1
  P  P16  1  0.000642  0.625330  0.000000  1
  Ru  Ru17  1  0.554779  0.554358  0.000000  1
  Ru  Ru18  1  0.445642  0.000421  0.000000  1
  Ru  Ru19  1  0.999579  0.445221  0.000000  1
  Ru  Ru20  1  0.714830  0.714191  0.500000  1
  Ru  Ru21  1  0.285809  0.000638  0.500000  1
  Ru  Ru22  1  0.999362  0.285170  0.500000  1
  Ru  Ru23  1  0.183904  0.378239  0.000000  1
  Ru  Ru24  1  0.621761  0.805664  0.000000  1
  Ru  Ru25  1  0.194336  0.816096  0.000000  1
  Ru  Ru26  1  0.804763  0.619277  0.000000  1
  Ru  Ru27  1  0.814515  0.195237  0.000000  1
  Ru  Ru28  1  0.380723  0.185485  0.000000  1
  Ru  Ru29  1  0.366927  0.490539  0.500000  1
  Ru  Ru30  1  0.509461  0.876387  0.500000  1
  Ru  Ru31  1  0.123613  0.633073  0.500000  1
  Ru  Ru32  1  0.872765  0.505886  0.500000  1
  Ru  Ru33  1  0.633121  0.127235  0.500000  1
  Ru  Ru34  1  0.494114  0.366879  0.500000  1
  Ru  Ru35  1  0.000000  0.000000  0.000000  1
