# generated using pymatgen
data_LiNd2GaPt2
_symmetry_space_group_name_H-M   'P 1'
_cell_length_a   4.37874800
_cell_length_b   7.09454600
_cell_length_c   8.18374900
_cell_angle_alpha   90.00000000
_cell_angle_beta   90.00000000
_cell_angle_gamma   90.00000000
_symmetry_Int_Tables_number   1
_chemical_formula_structural   LiNd2GaPt2
_chemical_formula_sum   'Li2 Nd4 Ga2 Pt4'
_cell_volume   254.23003765
_cell_formula_units_Z   2
loop_
 _symmetry_equiv_pos_site_id
 _symmetry_equiv_pos_as_xyz
  1  'x, y, z'
loop_
 _atom_site_type_symbol
 _atom_site_label
 _atom_site_symmetry_multiplicity
 _atom_site_fract_x
 _atom_site_fract_y
 _atom_site_fract_z
 _atom_site_occupancy
  Li  Li0  1  0.250000  0.136664  0.065445  1
  Li  Li1  1  0.250000  0.636664  0.434555  1
  Nd  Nd2  1  0.250000  0.035089  0.687267  1
  Nd  Nd3  1  0.250000  0.535089  0.812733  1
  Nd  Nd4  1  0.750000  0.968813  0.311386  1
  Nd  Nd5  1  0.750000  0.468813  0.188614  1
  Ga  Ga6  1  0.750000  0.862034  0.937861  1
  Ga  Ga7  1  0.750000  0.362034  0.562139  1
  Pt  Pt8  1  0.250000  0.263396  0.392091  1
  Pt  Pt9  1  0.250000  0.763396  0.107909  1
  Pt  Pt10  1  0.750000  0.734004  0.616703  1
  Pt  Pt11  1  0.750000  0.234004  0.883297  1
