# generated using pymatgen
data_La8Pr9Nd3Si16
_symmetry_space_group_name_H-M   'P 1'
_cell_length_a   7.95884103
_cell_length_b   7.95877903
_cell_length_c   15.43967200
_cell_angle_alpha   90.00097938
_cell_angle_beta   89.99997451
_cell_angle_gamma   89.99031009
_symmetry_Int_Tables_number   1
_chemical_formula_structural   La8Pr9Nd3Si16
_chemical_formula_sum   'La8 Pr9 Nd3 Si16'
_cell_volume   977.98983468
_cell_formula_units_Z   1
loop_
 _symmetry_equiv_pos_site_id
 _symmetry_equiv_pos_as_xyz
  1  'x, y, z'
loop_
 _atom_site_type_symbol
 _atom_site_label
 _atom_site_symmetry_multiplicity
 _atom_site_fract_x
 _atom_site_fract_y
 _atom_site_fract_z
 _atom_site_occupancy
  La  La0  1  0.987179  0.621703  0.052636  1
  La  La1  1  0.012813  0.378302  0.552633  1
  La  La2  1  0.621708  0.987179  0.947363  1
  La  La3  1  0.121679  0.512853  0.802625  1
  La  La4  1  0.878341  0.487147  0.302609  1
  La  La5  1  0.512852  0.121675  0.197376  1
  La  La6  1  0.487149  0.878342  0.697391  1
  La  La7  1  0.378303  0.012811  0.447365  1
  Pr  Pr8  1  0.373719  0.480733  0.373263  1
  Pr  Pr9  1  0.873747  0.019262  0.376658  1
  Pr  Pr10  1  0.980786  0.126265  0.123270  1
  Pr  Pr11  1  0.019262  0.873742  0.623345  1
  Pr  Pr12  1  0.626306  0.519240  0.873351  1
  Pr  Pr13  1  0.480742  0.373716  0.626741  1
  Pr  Pr14  1  0.519230  0.626299  0.126642  1
  Pr  Pr15  1  0.126268  0.980786  0.876731  1
  Pr  Pr16  1  0.691996  0.692006  0.500005  1
  Nd  Nd17  1  0.808119  0.191790  0.750012  1
  Nd  Nd18  1  0.191790  0.808113  0.249986  1
  Nd  Nd19  1  0.308157  0.308165  0.999998  1
  Si  Si20  1  0.080350  0.713158  0.439564  1
  Si  Si21  1  0.920181  0.286892  0.939668  1
  Si  Si22  1  0.713158  0.080355  0.560434  1
  Si  Si23  1  0.213065  0.420194  0.189635  1
  Si  Si24  1  0.787068  0.579580  0.689988  1
  Si  Si25  1  0.420196  0.213066  0.810367  1
  Si  Si26  1  0.579580  0.787070  0.310012  1
  Si  Si27  1  0.286893  0.920184  0.060332  1
  Si  Si28  1  0.830257  0.805847  0.795822  1
  Si  Si29  1  0.169747  0.194161  0.295786  1
  Si  Si30  1  0.805848  0.830260  0.204180  1
  Si  Si31  1  0.305354  0.669693  0.545871  1
  Si  Si32  1  0.694105  0.330202  0.045785  1
  Si  Si33  1  0.669693  0.305357  0.454130  1
  Si  Si34  1  0.330198  0.694103  0.954216  1
  Si  Si35  1  0.194160  0.169751  0.704212  1
