# generated using pymatgen
data_Tm3Ga6Co7Cu2
_symmetry_space_group_name_H-M   'P 1'
_cell_length_a   4.05925400
_cell_length_b   8.68529511
_cell_length_c   8.78947278
_cell_angle_alpha   59.62317084
_cell_angle_beta   90.00000000
_cell_angle_gamma   90.00000000
_symmetry_Int_Tables_number   1
_chemical_formula_structural   Tm3Ga6Co7Cu2
_chemical_formula_sum   'Tm3 Ga6 Co7 Cu2'
_cell_volume   267.33918139
_cell_formula_units_Z   1
loop_
 _symmetry_equiv_pos_site_id
 _symmetry_equiv_pos_as_xyz
  1  'x, y, z'
loop_
 _atom_site_type_symbol
 _atom_site_label
 _atom_site_symmetry_multiplicity
 _atom_site_fract_x
 _atom_site_fract_y
 _atom_site_fract_z
 _atom_site_occupancy
  Tm  Tm0  1  0.500000  0.325413  0.335650  1
  Tm  Tm1  1  0.500000  0.674753  0.660784  1
  Tm  Tm2  1  0.000000  0.999837  0.999113  1
  Ga  Ga3  1  0.000000  0.493960  0.508576  1
  Ga  Ga4  1  0.000000  0.505775  0.002982  1
  Ga  Ga5  1  0.000000  0.000014  0.490614  1
  Ga  Ga6  1  0.500000  0.727877  0.276306  1
  Ga  Ga7  1  0.500000  0.272129  0.004120  1
  Ga  Ga8  1  0.500000  0.000082  0.723032  1
  Co  Co9  1  0.000000  0.181946  0.177693  1
  Co  Co10  1  0.000000  0.179423  0.631717  1
  Co  Co11  1  0.000000  0.631314  0.190905  1
  Co  Co12  1  0.000000  0.820482  0.811258  1
  Co  Co13  1  0.000000  0.368655  0.822158  1
  Co  Co14  1  0.000000  0.817826  0.359832  1
  Co  Co15  1  0.500000  0.000288  0.297889  1
  Cu  Cu16  1  0.500000  0.297141  0.705133  1
  Cu  Cu17  1  0.500000  0.702981  0.002337  1
