# generated using pymatgen
data_Sr2EuAlGaP4
_symmetry_space_group_name_H-M   'P 1'
_cell_length_a   8.28827012
_cell_length_b   8.28827065
_cell_length_c   6.65340363
_cell_angle_alpha   89.43217893
_cell_angle_beta   89.43218651
_cell_angle_gamma   76.34215827
_symmetry_Int_Tables_number   1
_chemical_formula_structural   Sr2EuAlGaP4
_chemical_formula_sum   'Sr4 Eu2 Al2 Ga2 P8'
_cell_volume   444.09892449
_cell_formula_units_Z   2
loop_
 _symmetry_equiv_pos_site_id
 _symmetry_equiv_pos_as_xyz
  1  'x, y, z'
loop_
 _atom_site_type_symbol
 _atom_site_label
 _atom_site_symmetry_multiplicity
 _atom_site_fract_x
 _atom_site_fract_y
 _atom_site_fract_z
 _atom_site_occupancy
  Sr  Sr0  1  0.006963  0.749524  0.540184  1
  Sr  Sr1  1  0.250476  0.993037  0.959816  1
  Sr  Sr2  1  0.996736  0.253901  0.454538  1
  Sr  Sr3  1  0.746099  0.003264  0.045462  1
  Eu  Eu4  1  0.402223  0.597777  0.250000  1
  Eu  Eu5  1  0.602103  0.397897  0.750000  1
  Al  Al6  1  0.173297  0.421175  0.919447  1
  Al  Al7  1  0.578825  0.826703  0.580553  1
  Ga  Ga8  1  0.822128  0.578908  0.082421  1
  Ga  Ga9  1  0.421092  0.177872  0.417579  1
  P  P10  1  0.060305  0.704573  0.028999  1
  P  P11  1  0.295427  0.939695  0.471001  1
  P  P12  1  0.940724  0.292454  0.970207  1
  P  P13  1  0.707546  0.059276  0.529793  1
  P  P14  1  0.735072  0.576149  0.427547  1
  P  P15  1  0.423851  0.264928  0.072453  1
  P  P16  1  0.265600  0.428467  0.579411  1
  P  P17  1  0.571533  0.734400  0.920589  1
