# generated using pymatgen
data_Nd2Ga3Tc14C3
_symmetry_space_group_name_H-M   'P 1'
_cell_length_a   6.97648521
_cell_length_b   6.97648451
_cell_length_c   6.97648461
_cell_angle_alpha   82.53656843
_cell_angle_beta   82.53656381
_cell_angle_gamma   82.53657095
_symmetry_Int_Tables_number   1
_chemical_formula_structural   Nd2Ga3Tc14C3
_chemical_formula_sum   'Nd2 Ga3 Tc14 C3'
_cell_volume   331.61253799
_cell_formula_units_Z   1
loop_
 _symmetry_equiv_pos_site_id
 _symmetry_equiv_pos_as_xyz
  1  'x, y, z'
loop_
 _atom_site_type_symbol
 _atom_site_label
 _atom_site_symmetry_multiplicity
 _atom_site_fract_x
 _atom_site_fract_y
 _atom_site_fract_z
 _atom_site_occupancy
  Nd  Nd0  1  0.656735  0.656735  0.656735  1
  Nd  Nd1  1  0.343265  0.343265  0.343265  1
  Ga  Ga2  1  0.000000  0.000000  0.500000  1
  Ga  Ga3  1  0.500000  0.000000  0.000000  1
  Ga  Ga4  1  0.000000  0.500000  0.000000  1
  Tc  Tc5  1  0.723522  0.276478  0.000000  1
  Tc  Tc6  1  0.000000  0.723522  0.276478  1
  Tc  Tc7  1  0.276478  0.000000  0.723522  1
  Tc  Tc8  1  0.000000  0.276478  0.723522  1
  Tc  Tc9  1  0.723522  0.000000  0.276478  1
  Tc  Tc10  1  0.276478  0.723522  0.000000  1
  Tc  Tc11  1  0.351035  0.850164  0.351035  1
  Tc  Tc12  1  0.351035  0.351035  0.850164  1
  Tc  Tc13  1  0.850164  0.351035  0.351035  1
  Tc  Tc14  1  0.648965  0.149836  0.648965  1
  Tc  Tc15  1  0.648965  0.648965  0.149836  1
  Tc  Tc16  1  0.149836  0.648965  0.648965  1
  Tc  Tc17  1  0.905248  0.905248  0.905248  1
  Tc  Tc18  1  0.094752  0.094752  0.094752  1
  C  C19  1  0.500000  0.500000  0.000000  1
  C  C20  1  0.000000  0.500000  0.500000  1
  C  C21  1  0.500000  0.000000  0.500000  1
