# generated using pymatgen
data_Y7ThGePt24
_symmetry_space_group_name_H-M   'P 1'
_cell_length_a   8.36765696
_cell_length_b   8.36765691
_cell_length_c   8.36765600
_cell_angle_alpha   89.97261084
_cell_angle_beta   89.97261084
_cell_angle_gamma   89.97260459
_symmetry_Int_Tables_number   1
_chemical_formula_structural   Y7ThGePt24
_chemical_formula_sum   'Y7 Th1 Ge1 Pt24'
_cell_volume   585.88368081
_cell_formula_units_Z   1
loop_
 _symmetry_equiv_pos_site_id
 _symmetry_equiv_pos_as_xyz
  1  'x, y, z'
loop_
 _atom_site_type_symbol
 _atom_site_label
 _atom_site_symmetry_multiplicity
 _atom_site_fract_x
 _atom_site_fract_y
 _atom_site_fract_z
 _atom_site_occupancy
  Y  Y0  1  0.747300  0.747300  0.747300  1
  Y  Y1  1  0.747340  0.747340  0.252663  1
  Y  Y2  1  0.747340  0.252663  0.747340  1
  Y  Y3  1  0.252592  0.252592  0.747387  1
  Y  Y4  1  0.252592  0.747387  0.252592  1
  Y  Y5  1  0.252663  0.747340  0.747340  1
  Y  Y6  1  0.747387  0.252592  0.252592  1
  Th  Th7  1  0.253255  0.253255  0.253255  1
  Ge  Ge8  1  0.999659  0.999659  0.999659  1
  Pt  Pt9  1  0.260240  0.500910  0.998539  1
  Pt  Pt10  1  0.739557  0.500458  0.999654  1
  Pt  Pt11  1  0.998539  0.260240  0.500910  1
  Pt  Pt12  1  0.500910  0.260240  0.998539  1
  Pt  Pt13  1  0.999654  0.739557  0.500458  1
  Pt  Pt14  1  0.500458  0.739557  0.999654  1
  Pt  Pt15  1  0.500910  0.998539  0.260240  1
  Pt  Pt16  1  0.260240  0.998539  0.500910  1
  Pt  Pt17  1  0.500458  0.999654  0.739557  1
  Pt  Pt18  1  0.739557  0.999654  0.500458  1
  Pt  Pt19  1  0.998539  0.500910  0.260240  1
  Pt  Pt20  1  0.999654  0.500458  0.739557  1
  Pt  Pt21  1  0.253141  0.501706  0.501706  1
  Pt  Pt22  1  0.747085  0.500430  0.500430  1
  Pt  Pt23  1  0.501706  0.253141  0.501706  1
  Pt  Pt24  1  0.500430  0.747085  0.500430  1
  Pt  Pt25  1  0.501706  0.501706  0.253141  1
  Pt  Pt26  1  0.500430  0.500430  0.747085  1
  Pt  Pt27  1  0.291474  0.998291  0.998291  1
  Pt  Pt28  1  0.709082  0.999759  0.999759  1
  Pt  Pt29  1  0.998291  0.291474  0.998291  1
  Pt  Pt30  1  0.999759  0.709082  0.999759  1
  Pt  Pt31  1  0.998291  0.998291  0.291474  1
  Pt  Pt32  1  0.999759  0.999759  0.709082  1
