# generated using pymatgen
data_Th2Si2P4Pd21
_symmetry_space_group_name_H-M   'P 1'
_cell_length_a   8.68664744
_cell_length_b   8.68665100
_cell_length_c   8.68516800
_cell_angle_alpha   60.00564726
_cell_angle_beta   60.00569463
_cell_angle_gamma   60.06292087
_symmetry_Int_Tables_number   1
_chemical_formula_structural   Th2Si2P4Pd21
_chemical_formula_sum   'Th2 Si2 P4 Pd21'
_cell_volume   463.67229037
_cell_formula_units_Z   1
loop_
 _symmetry_equiv_pos_site_id
 _symmetry_equiv_pos_as_xyz
  1  'x, y, z'
loop_
 _atom_site_type_symbol
 _atom_site_label
 _atom_site_symmetry_multiplicity
 _atom_site_fract_x
 _atom_site_fract_y
 _atom_site_fract_z
 _atom_site_occupancy
  Th  Th0  1  0.749954  0.749953  0.751433  1
  Th  Th1  1  0.250046  0.250045  0.251343  1
  Si  Si2  1  0.740250  0.259750  0.742015  1
  Si  Si3  1  0.259749  0.740251  0.742016  1
  P  P4  1  0.739562  0.739563  0.262453  1
  P  P5  1  0.259266  0.740734  0.261338  1
  P  P6  1  0.740734  0.259266  0.261337  1
  P  P7  1  0.260437  0.260438  0.741579  1
  Pd  Pd8  1  0.000001  0.999999  0.994906  1
  Pd  Pd9  1  0.614117  0.614116  0.157989  1
  Pd  Pd10  1  0.614380  0.156187  0.614549  1
  Pd  Pd11  1  0.156188  0.614380  0.614548  1
  Pd  Pd12  1  0.615397  0.615396  0.614454  1
  Pd  Pd13  1  0.384603  0.384603  0.845248  1
  Pd  Pd14  1  0.385620  0.843812  0.385116  1
  Pd  Pd15  1  0.843812  0.385620  0.385117  1
  Pd  Pd16  1  0.385885  0.385884  0.386221  1
  Pd  Pd17  1  0.000000  0.000000  0.343818  1
  Pd  Pd18  1  0.654327  0.001467  0.342511  1
  Pd  Pd19  1  0.001467  0.654327  0.342512  1
  Pd  Pd20  1  0.653671  0.346328  0.002387  1
  Pd  Pd21  1  0.998533  0.345674  0.998305  1
  Pd  Pd22  1  0.003905  0.345275  0.652022  1
  Pd  Pd23  1  0.346330  0.653671  0.002386  1
  Pd  Pd24  1  0.345275  0.003906  0.652022  1
  Pd  Pd25  1  0.345673  0.998533  0.998304  1
  Pd  Pd26  1  0.000000  0.000000  0.651664  1
  Pd  Pd27  1  0.996095  0.654726  0.001203  1
  Pd  Pd28  1  0.654725  0.996095  0.001204  1
