# generated using pymatgen
data_HoLu15(Tl3Cu)2
_symmetry_space_group_name_H-M   'P 1'
_cell_length_a   10.32908300
_cell_length_b   10.32908251
_cell_length_c   6.73191800
_cell_angle_alpha   90.00000000
_cell_angle_beta   90.00000000
_cell_angle_gamma   119.99999836
_symmetry_Int_Tables_number   1
_chemical_formula_structural   HoLu15(Tl3Cu)2
_chemical_formula_sum   'Ho1 Lu15 Tl6 Cu2'
_cell_volume   622.00370282
_cell_formula_units_Z   1
loop_
 _symmetry_equiv_pos_site_id
 _symmetry_equiv_pos_as_xyz
  1  'x, y, z'
loop_
 _atom_site_type_symbol
 _atom_site_label
 _atom_site_symmetry_multiplicity
 _atom_site_fract_x
 _atom_site_fract_y
 _atom_site_fract_z
 _atom_site_occupancy
  Ho  Ho0  1  0.000000  0.000000  0.988767  1
  Lu  Lu1  1  0.525638  0.051277  0.509992  1
  Lu  Lu2  1  0.948723  0.474362  0.509992  1
  Lu  Lu3  1  0.525638  0.474362  0.509992  1
  Lu  Lu4  1  0.474301  0.948603  0.010160  1
  Lu  Lu5  1  0.051397  0.525699  0.010160  1
  Lu  Lu6  1  0.474301  0.525699  0.010160  1
  Lu  Lu7  1  0.176284  0.352567  0.719427  1
  Lu  Lu8  1  0.647433  0.823716  0.719427  1
  Lu  Lu9  1  0.176284  0.823716  0.719427  1
  Lu  Lu10  1  0.823671  0.647344  0.220897  1
  Lu  Lu11  1  0.352656  0.176329  0.220897  1
  Lu  Lu12  1  0.823671  0.176329  0.220897  1
  Lu  Lu13  1  0.666667  0.333333  0.881026  1
  Lu  Lu14  1  0.333333  0.666667  0.382117  1
  Lu  Lu15  1  0.000000  0.000000  0.488544  1
  Tl  Tl16  1  0.836157  0.672316  0.743722  1
  Tl  Tl17  1  0.327684  0.163843  0.743722  1
  Tl  Tl18  1  0.836157  0.163843  0.743722  1
  Tl  Tl19  1  0.163805  0.327609  0.245688  1
  Tl  Tl20  1  0.672391  0.836195  0.245688  1
  Tl  Tl21  1  0.163805  0.836195  0.245688  1
  Cu  Cu22  1  0.666667  0.333333  0.282712  1
  Cu  Cu23  1  0.333333  0.666667  0.785221  1
