# generated using pymatgen
data_Hf3ScCo7Si6
_symmetry_space_group_name_H-M   'P 1'
_cell_length_a   6.65953811
_cell_length_b   6.67016254
_cell_length_c   6.65953803
_cell_angle_alpha   109.50354591
_cell_angle_beta   109.43888493
_cell_angle_gamma   109.50354002
_symmetry_Int_Tables_number   1
_chemical_formula_structural   Hf3ScCo7Si6
_chemical_formula_sum   'Hf3 Sc1 Co7 Si6'
_cell_volume   227.62990137
_cell_formula_units_Z   1
loop_
 _symmetry_equiv_pos_site_id
 _symmetry_equiv_pos_as_xyz
  1  'x, y, z'
loop_
 _atom_site_type_symbol
 _atom_site_label
 _atom_site_symmetry_multiplicity
 _atom_site_fract_x
 _atom_site_fract_y
 _atom_site_fract_z
 _atom_site_occupancy
  Hf  Hf0  1  0.000000  0.000000  0.500000  1
  Hf  Hf1  1  0.500000  0.000000  0.000000  1
  Hf  Hf2  1  0.500000  0.500000  0.500000  1
  Sc  Sc3  1  0.000000  0.500000  0.000000  1
  Co  Co4  1  0.749061  0.249061  0.498123  1
  Co  Co5  1  0.749061  0.500000  0.250939  1
  Co  Co6  1  0.498123  0.249061  0.749061  1
  Co  Co7  1  0.250939  0.500000  0.749061  1
  Co  Co8  1  0.250939  0.750939  0.501877  1
  Co  Co9  1  0.501877  0.750939  0.250939  1
  Co  Co10  1  0.000000  0.000000  0.000000  1
  Si  Si11  1  0.676672  0.674411  0.000000  1
  Si  Si12  1  0.323328  0.997740  0.323328  1
  Si  Si13  1  0.000000  0.325589  0.323328  1
  Si  Si14  1  0.323328  0.325589  0.000000  1
  Si  Si15  1  0.676672  0.002260  0.676672  1
  Si  Si16  1  0.000000  0.674411  0.676672  1
