# generated using pymatgen
data_Ho3Fe5Co3P6Ru
_symmetry_space_group_name_H-M   'P 1'
_cell_length_a   3.74786100
_cell_length_b   10.47675900
_cell_length_c   12.16940100
_cell_angle_alpha   90.00000000
_cell_angle_beta   90.00000000
_cell_angle_gamma   90.00000000
_symmetry_Int_Tables_number   1
_chemical_formula_structural   Ho3Fe5Co3P6Ru
_chemical_formula_sum   'Ho6 Fe10 Co6 P12 Ru2'
_cell_volume   477.83684175
_cell_formula_units_Z   2
loop_
 _symmetry_equiv_pos_site_id
 _symmetry_equiv_pos_as_xyz
  1  'x, y, z'
loop_
 _atom_site_type_symbol
 _atom_site_label
 _atom_site_symmetry_multiplicity
 _atom_site_fract_x
 _atom_site_fract_y
 _atom_site_fract_z
 _atom_site_occupancy
  Ho  Ho0  1  0.000000  0.500000  0.526172  1
  Ho  Ho1  1  0.500000  0.000000  0.473828  1
  Ho  Ho2  1  0.500000  0.818334  0.205990  1
  Ho  Ho3  1  0.500000  0.181666  0.205990  1
  Ho  Ho4  1  0.000000  0.681666  0.794010  1
  Ho  Ho5  1  0.000000  0.318334  0.794010  1
  Fe  Fe6  1  0.000000  0.500000  0.985785  1
  Fe  Fe7  1  0.500000  0.000000  0.014215  1
  Fe  Fe8  1  0.500000  0.299034  0.429571  1
  Fe  Fe9  1  0.500000  0.700966  0.429571  1
  Fe  Fe10  1  0.000000  0.200966  0.570429  1
  Fe  Fe11  1  0.000000  0.799034  0.570429  1
  Fe  Fe12  1  0.500000  0.881480  0.709138  1
  Fe  Fe13  1  0.500000  0.118520  0.709138  1
  Fe  Fe14  1  0.000000  0.618520  0.290862  1
  Fe  Fe15  1  0.000000  0.381480  0.290862  1
  Co  Co16  1  0.500000  0.330204  0.989922  1
  Co  Co17  1  0.500000  0.669796  0.989922  1
  Co  Co18  1  0.000000  0.169796  0.010078  1
  Co  Co19  1  0.000000  0.830204  0.010078  1
  Co  Co20  1  0.500000  0.500000  0.698142  1
  Co  Co21  1  0.000000  0.000000  0.301858  1
  P  P22  1  0.500000  0.305073  0.614322  1
  P  P23  1  0.500000  0.694927  0.614322  1
  P  P24  1  0.000000  0.194927  0.385678  1
  P  P25  1  0.000000  0.805073  0.385678  1
  P  P26  1  0.500000  0.500000  0.881351  1
  P  P27  1  0.000000  0.000000  0.118649  1
  P  P28  1  0.500000  0.847860  0.893045  1
  P  P29  1  0.500000  0.152140  0.893045  1
  P  P30  1  0.000000  0.652140  0.106955  1
  P  P31  1  0.000000  0.347860  0.106955  1
  P  P32  1  0.500000  0.500000  0.344704  1
  P  P33  1  0.000000  0.000000  0.655296  1
  Ru  Ru34  1  0.500000  0.500000  0.152732  1
  Ru  Ru35  1  0.000000  0.000000  0.847268  1
