# generated using pymatgen
data_Co(AgBr2)2
_symmetry_space_group_name_H-M   'P 1'
_cell_length_a   6.98231000
_cell_length_b   7.30492600
_cell_length_c   8.86946500
_cell_angle_alpha   90.00000000
_cell_angle_beta   90.00000000
_cell_angle_gamma   90.00000000
_symmetry_Int_Tables_number   1
_chemical_formula_structural   Co(AgBr2)2
_chemical_formula_sum   'Co2 Ag4 Br8'
_cell_volume   452.38934940
_cell_formula_units_Z   2
loop_
 _symmetry_equiv_pos_site_id
 _symmetry_equiv_pos_as_xyz
  1  'x, y, z'
loop_
 _atom_site_type_symbol
 _atom_site_label
 _atom_site_symmetry_multiplicity
 _atom_site_fract_x
 _atom_site_fract_y
 _atom_site_fract_z
 _atom_site_occupancy
  Co  Co0  1  0.377447  0.672087  0.500000  1
  Co  Co1  1  0.877447  0.327913  0.000000  1
  Ag  Ag2  1  0.375407  0.178631  0.747260  1
  Ag  Ag3  1  0.375407  0.178631  0.252740  1
  Ag  Ag4  1  0.875407  0.821369  0.752740  1
  Ag  Ag5  1  0.875407  0.821369  0.247260  1
  Br  Br6  1  0.501841  0.364056  0.500000  1
  Br  Br7  1  0.001841  0.635944  0.000000  1
  Br  Br8  1  0.031830  0.668679  0.500000  1
  Br  Br9  1  0.531830  0.331321  0.000000  1
  Br  Br10  1  0.485235  0.819103  0.728088  1
  Br  Br11  1  0.485235  0.819103  0.271912  1
  Br  Br12  1  0.985235  0.180897  0.771912  1
  Br  Br13  1  0.985235  0.180897  0.228088  1
