# generated using pymatgen
data_AuBrF10
_symmetry_space_group_name_H-M   'P 1'
_cell_length_a   5.56618690
_cell_length_b   5.56618788
_cell_length_c   6.54626141
_cell_angle_alpha   90.20771890
_cell_angle_beta   89.79228155
_cell_angle_gamma   90.48018035
_symmetry_Int_Tables_number   1
_chemical_formula_structural   AuBrF10
_chemical_formula_sum   'Au1 Br1 F10'
_cell_volume   202.80939880
_cell_formula_units_Z   1
loop_
 _symmetry_equiv_pos_site_id
 _symmetry_equiv_pos_as_xyz
  1  'x, y, z'
loop_
 _atom_site_type_symbol
 _atom_site_label
 _atom_site_symmetry_multiplicity
 _atom_site_fract_x
 _atom_site_fract_y
 _atom_site_fract_z
 _atom_site_occupancy
  Au  Au0  1  0.828789  0.171211  0.761031  1
  Br  Br1  1  0.171109  0.828891  0.260133  1
  F  F2  1  0.078961  0.417265  0.760224  1
  F  F3  1  0.950826  0.590241  0.259579  1
  F  F4  1  0.318657  0.681343  0.062237  1
  F  F5  1  0.672147  0.327853  0.538004  1
  F  F6  1  0.331375  0.668625  0.440855  1
  F  F7  1  0.647137  0.352863  0.957121  1
  F  F8  1  0.987485  0.012515  0.999427  1
  F  F9  1  0.021020  0.978980  0.561590  1
  F  F10  1  0.409759  0.049174  0.259579  1
  F  F11  1  0.582735  0.921038  0.760224  1
