# generated using pymatgen
data_Sc12InNi4Rh
_symmetry_space_group_name_H-M   'P 1'
_cell_length_a   7.77019609
_cell_length_b   7.77019592
_cell_length_c   7.77019522
_cell_angle_alpha   110.97514752
_cell_angle_beta   111.25946506
_cell_angle_gamma   106.22708793
_symmetry_Int_Tables_number   1
_chemical_formula_structural   Sc12InNi4Rh
_chemical_formula_sum   'Sc12 In1 Ni4 Rh1'
_cell_volume   360.27424469
_cell_formula_units_Z   1
loop_
 _symmetry_equiv_pos_site_id
 _symmetry_equiv_pos_as_xyz
  1  'x, y, z'
loop_
 _atom_site_type_symbol
 _atom_site_label
 _atom_site_symmetry_multiplicity
 _atom_site_fract_x
 _atom_site_fract_y
 _atom_site_fract_z
 _atom_site_occupancy
  Sc  Sc0  1  0.420019  0.224632  0.195386  1
  Sc  Sc1  1  0.579981  0.775368  0.804614  1
  Sc  Sc2  1  0.029247  0.224632  0.804614  1
  Sc  Sc3  1  0.970753  0.775368  0.195386  1
  Sc  Sc4  1  0.321831  0.622119  0.300287  1
  Sc  Sc5  1  0.678169  0.377881  0.699713  1
  Sc  Sc6  1  0.321831  0.021543  0.699713  1
  Sc  Sc7  1  0.678169  0.978457  0.300287  1
  Sc  Sc8  1  0.184274  0.283749  0.468024  1
  Sc  Sc9  1  0.815726  0.716250  0.531976  1
  Sc  Sc10  1  0.184274  0.716250  0.900524  1
  Sc  Sc11  1  0.815726  0.283749  0.099476  1
  In  In12  1  0.500000  0.500000  0.000000  1
  Ni  Ni13  1  0.354627  0.000000  0.354627  1
  Ni  Ni14  1  0.645373  0.000000  0.645373  1
  Ni  Ni15  1  0.126675  0.626675  0.500000  1
  Ni  Ni16  1  0.873325  0.373325  0.500000  1
  Rh  Rh17  1  0.000000  0.000000  0.000000  1
