# generated using pymatgen
data_SmDy2Y3(Si3Ru)8
_symmetry_space_group_name_H-M   'P 1'
_cell_length_a   10.13635943
_cell_length_b   10.13635909
_cell_length_c   8.16334223
_cell_angle_alpha   90.07326503
_cell_angle_beta   89.92673071
_cell_angle_gamma   132.52051384
_symmetry_Int_Tables_number   1
_chemical_formula_structural   SmDy2Y3(Si3Ru)8
_chemical_formula_sum   'Sm1 Dy2 Y3 Si24 Ru8'
_cell_volume   618.18707456
_cell_formula_units_Z   1
loop_
 _symmetry_equiv_pos_site_id
 _symmetry_equiv_pos_as_xyz
  1  'x, y, z'
loop_
 _atom_site_type_symbol
 _atom_site_label
 _atom_site_symmetry_multiplicity
 _atom_site_fract_x
 _atom_site_fract_y
 _atom_site_fract_z
 _atom_site_occupancy
  Sm  Sm0  1  0.502619  0.002619  0.750000  1
  Dy  Dy1  1  0.497400  0.997400  0.250000  1
  Dy  Dy2  1  0.002798  0.502798  0.750000  1
  Y  Y3  1  0.500046  0.500080  0.499936  1
  Y  Y4  1  0.000080  0.000046  0.000064  1
  Y  Y5  1  0.997890  0.497890  0.250000  1
  Si  Si6  1  0.795158  0.206132  0.499090  1
  Si  Si7  1  0.294078  0.705075  0.000944  1
  Si  Si8  1  0.205075  0.794078  0.499056  1
  Si  Si9  1  0.706132  0.295158  0.000910  1
  Si  Si10  1  0.332880  0.332505  0.833056  1
  Si  Si11  1  0.667304  0.667276  0.166719  1
  Si  Si12  1  0.167276  0.167304  0.333281  1
  Si  Si13  1  0.832505  0.832880  0.666944  1
  Si  Si14  1  0.121405  0.886938  0.728026  1
  Si  Si15  1  0.113263  0.879340  0.272019  1
  Si  Si16  1  0.610909  0.376853  0.227925  1
  Si  Si17  1  0.622763  0.388295  0.771284  1
  Si  Si18  1  0.876853  0.110909  0.272075  1
  Si  Si19  1  0.888295  0.122763  0.728716  1
  Si  Si20  1  0.386938  0.621405  0.771974  1
  Si  Si21  1  0.379340  0.613263  0.227981  1
  Si  Si22  1  0.345859  0.111874  0.503669  1
  Si  Si23  1  0.889071  0.656052  0.495809  1
  Si  Si24  1  0.387993  0.153576  0.006470  1
  Si  Si25  1  0.844152  0.611201  0.994561  1
  Si  Si26  1  0.653576  0.887993  0.493530  1
  Si  Si27  1  0.111201  0.344152  0.505439  1
  Si  Si28  1  0.611874  0.845859  0.996331  1
  Si  Si29  1  0.156052  0.389071  0.004191  1
  Ru  Ru30  1  0.671015  0.333607  0.498556  1
  Ru  Ru31  1  0.166269  0.828962  0.000714  1
  Ru  Ru32  1  0.328962  0.666269  0.499286  1
  Ru  Ru33  1  0.833607  0.171015  0.001444  1
  Ru  Ru34  1  0.126236  0.125813  0.627050  1
  Ru  Ru35  1  0.873597  0.873715  0.373279  1
  Ru  Ru36  1  0.373715  0.373597  0.126721  1
  Ru  Ru37  1  0.625813  0.626236  0.872950  1
