# generated using pymatgen
data_TbHo(TcRu)2
_symmetry_space_group_name_H-M   'P 1'
_cell_length_a   5.19905324
_cell_length_b   5.19904293
_cell_length_c   9.12175301
_cell_angle_alpha   89.99607764
_cell_angle_beta   90.00403620
_cell_angle_gamma   117.10069972
_symmetry_Int_Tables_number   1
_chemical_formula_structural   TbHo(TcRu)2
_chemical_formula_sum   'Tb2 Ho2 Tc4 Ru4'
_cell_volume   219.49119251
_cell_formula_units_Z   2
loop_
 _symmetry_equiv_pos_site_id
 _symmetry_equiv_pos_as_xyz
  1  'x, y, z'
loop_
 _atom_site_type_symbol
 _atom_site_label
 _atom_site_symmetry_multiplicity
 _atom_site_fract_x
 _atom_site_fract_y
 _atom_site_fract_z
 _atom_site_occupancy
  Tb  Tb0  1  0.670660  0.329338  0.933044  1
  Tb  Tb1  1  0.332470  0.667536  0.063223  1
  Ho  Ho2  1  0.332116  0.667891  0.436782  1
  Ho  Ho3  1  0.670987  0.329017  0.566827  1
  Tc  Tc4  1  0.827116  0.172885  0.251014  1
  Tc  Tc5  1  0.829858  0.659927  0.251031  1
  Tc  Tc6  1  0.340058  0.170141  0.251035  1
  Tc  Tc7  1  0.162676  0.837315  0.748935  1
  Ru  Ru8  1  0.007084  0.992924  0.502511  1
  Ru  Ru9  1  0.007104  0.992905  0.997653  1
  Ru  Ru10  1  0.170128  0.350253  0.748972  1
  Ru  Ru11  1  0.649743  0.829868  0.748973  1
