# generated using pymatgen
data_Dy2ZnP6(IrRh)6
_symmetry_space_group_name_H-M   'P 1'
_cell_length_a   9.64398100
_cell_length_b   9.64398042
_cell_length_c   3.94761000
_cell_angle_alpha   90.00000000
_cell_angle_beta   90.00000000
_cell_angle_gamma   120.00000635
_symmetry_Int_Tables_number   1
_chemical_formula_structural   Dy2ZnP6(IrRh)6
_chemical_formula_sum   'Dy2 Zn1 P6 Ir6 Rh6'
_cell_volume   317.96367674
_cell_formula_units_Z   1
loop_
 _symmetry_equiv_pos_site_id
 _symmetry_equiv_pos_as_xyz
  1  'x, y, z'
loop_
 _atom_site_type_symbol
 _atom_site_label
 _atom_site_symmetry_multiplicity
 _atom_site_fract_x
 _atom_site_fract_y
 _atom_site_fract_z
 _atom_site_occupancy
  Dy  Dy0  1  0.333333  0.666667  0.752980  1
  Dy  Dy1  1  0.666667  0.333333  0.247020  1
  Zn  Zn2  1  0.000000  0.000000  0.500000  1
  P  P3  1  0.402984  0.282543  0.748727  1
  P  P4  1  0.717457  0.120441  0.748727  1
  P  P5  1  0.879559  0.597016  0.748727  1
  P  P6  1  0.597016  0.717457  0.251273  1
  P  P7  1  0.282543  0.879559  0.251273  1
  P  P8  1  0.120441  0.402984  0.251273  1
  Ir  Ir9  1  0.454362  0.067401  0.749168  1
  Ir  Ir10  1  0.932599  0.386961  0.749168  1
  Ir  Ir11  1  0.613039  0.545638  0.749168  1
  Ir  Ir12  1  0.545638  0.932599  0.250832  1
  Ir  Ir13  1  0.067401  0.613039  0.250832  1
  Ir  Ir14  1  0.386961  0.454362  0.250832  1
  Rh  Rh15  1  0.160753  0.283856  0.753959  1
  Rh  Rh16  1  0.716144  0.876898  0.753959  1
  Rh  Rh17  1  0.123102  0.839247  0.753959  1
  Rh  Rh18  1  0.839247  0.716144  0.246041  1
  Rh  Rh19  1  0.283856  0.123102  0.246041  1
  Rh  Rh20  1  0.876898  0.160753  0.246041  1
