# generated using pymatgen
data_NpPaB6Os
_symmetry_space_group_name_H-M   'P 1'
_cell_length_a   3.61637200
_cell_length_b   9.34546300
_cell_length_c   11.37335300
_cell_angle_alpha   90.00000000
_cell_angle_beta   90.00000000
_cell_angle_gamma   90.00000000
_symmetry_Int_Tables_number   1
_chemical_formula_structural   NpPaB6Os
_chemical_formula_sum   'Np4 Pa4 B24 Os4'
_cell_volume   384.38146633
_cell_formula_units_Z   4
loop_
 _symmetry_equiv_pos_site_id
 _symmetry_equiv_pos_as_xyz
  1  'x, y, z'
loop_
 _atom_site_type_symbol
 _atom_site_label
 _atom_site_symmetry_multiplicity
 _atom_site_fract_x
 _atom_site_fract_y
 _atom_site_fract_z
 _atom_site_occupancy
  Np  Np0  1  0.000000  0.959565  0.402164  1
  Np  Np1  1  0.000000  0.040435  0.597836  1
  Np  Np2  1  0.000000  0.459565  0.097836  1
  Np  Np3  1  0.000000  0.540435  0.902164  1
  Pa  Pa4  1  0.000000  0.336692  0.406772  1
  Pa  Pa5  1  0.000000  0.663308  0.593228  1
  Pa  Pa6  1  0.000000  0.836692  0.093228  1
  Pa  Pa7  1  0.000000  0.163308  0.906772  1
  B  B8  1  0.500000  0.550967  0.432644  1
  B  B9  1  0.500000  0.449033  0.567356  1
  B  B10  1  0.500000  0.050967  0.067356  1
  B  B11  1  0.500000  0.949033  0.932644  1
  B  B12  1  0.500000  0.744015  0.423350  1
  B  B13  1  0.500000  0.255985  0.576650  1
  B  B14  1  0.500000  0.244015  0.076650  1
  B  B15  1  0.500000  0.755985  0.923350  1
  B  B16  1  0.500000  0.807066  0.274148  1
  B  B17  1  0.500000  0.192934  0.725852  1
  B  B18  1  0.500000  0.307066  0.225852  1
  B  B19  1  0.500000  0.692934  0.774148  1
  B  B20  1  0.500000  0.646040  0.188203  1
  B  B21  1  0.500000  0.353960  0.811797  1
  B  B22  1  0.500000  0.146040  0.311797  1
  B  B23  1  0.500000  0.853960  0.688203  1
  B  B24  1  0.500000  0.987043  0.221400  1
  B  B25  1  0.500000  0.012957  0.778600  1
  B  B26  1  0.500000  0.487043  0.278600  1
  B  B27  1  0.500000  0.512957  0.721400  1
  B  B28  1  0.500000  0.643098  0.039691  1
  B  B29  1  0.500000  0.356902  0.960309  1
  B  B30  1  0.500000  0.143098  0.460309  1
  B  B31  1  0.500000  0.856902  0.539691  1
  Os  Os32  1  0.000000  0.646843  0.319081  1
  Os  Os33  1  0.000000  0.353157  0.680919  1
  Os  Os34  1  0.000000  0.146843  0.180919  1
  Os  Os35  1  0.000000  0.853157  0.819081  1
