# generated using pymatgen
data_Ho4Fe13Co
_symmetry_space_group_name_H-M   'P 1'
_cell_length_a   5.06402360
_cell_length_b   5.06402338
_cell_length_c   12.35052371
_cell_angle_alpha   78.16975844
_cell_angle_beta   78.16975908
_cell_angle_gamma   59.99999804
_symmetry_Int_Tables_number   1
_chemical_formula_structural   Ho4Fe13Co
_chemical_formula_sum   'Ho4 Fe13 Co1'
_cell_volume   266.49198709
_cell_formula_units_Z   1
loop_
 _symmetry_equiv_pos_site_id
 _symmetry_equiv_pos_as_xyz
  1  'x, y, z'
loop_
 _atom_site_type_symbol
 _atom_site_label
 _atom_site_symmetry_multiplicity
 _atom_site_fract_x
 _atom_site_fract_y
 _atom_site_fract_z
 _atom_site_occupancy
  Ho  Ho0  1  0.947549  0.947549  0.157354  1
  Ho  Ho1  1  0.052451  0.052451  0.842646  1
  Ho  Ho2  1  0.850466  0.850466  0.448603  1
  Ho  Ho3  1  0.149534  0.149534  0.551397  1
  Fe  Fe4  1  0.721304  0.721304  0.836087  1
  Fe  Fe5  1  0.278696  0.278696  0.163913  1
  Fe  Fe6  1  0.612307  0.612307  0.163078  1
  Fe  Fe7  1  0.387693  0.387693  0.836922  1
  Fe  Fe8  1  0.000000  0.500000  0.000000  1
  Fe  Fe9  1  0.500000  0.000000  0.000000  1
  Fe  Fe10  1  0.500000  0.500000  0.000000  1
  Fe  Fe11  1  0.390127  0.390127  0.328368  1
  Fe  Fe12  1  0.891376  0.390127  0.328368  1
  Fe  Fe13  1  0.390127  0.891376  0.328368  1
  Fe  Fe14  1  0.609873  0.609873  0.671632  1
  Fe  Fe15  1  0.108624  0.609873  0.671632  1
  Fe  Fe16  1  0.609873  0.108624  0.671632  1
  Co  Co17  1  0.500000  0.500000  0.500000  1
