# generated using pymatgen
data_Ta3Tc2B3Os
_symmetry_space_group_name_H-M   'P 1'
_cell_length_a   3.15514600
_cell_length_b   9.07653600
_cell_length_c   15.74085900
_cell_angle_alpha   90.00000000
_cell_angle_beta   90.00000000
_cell_angle_gamma   90.00000000
_symmetry_Int_Tables_number   1
_chemical_formula_structural   Ta3Tc2B3Os
_chemical_formula_sum   'Ta12 Tc8 B12 Os4'
_cell_volume   450.78351291
_cell_formula_units_Z   4
loop_
 _symmetry_equiv_pos_site_id
 _symmetry_equiv_pos_as_xyz
  1  'x, y, z'
loop_
 _atom_site_type_symbol
 _atom_site_label
 _atom_site_symmetry_multiplicity
 _atom_site_fract_x
 _atom_site_fract_y
 _atom_site_fract_z
 _atom_site_occupancy
  Ta  Ta0  1  0.000000  0.804068  0.493690  1
  Ta  Ta1  1  0.000000  0.195932  0.506310  1
  Ta  Ta2  1  0.000000  0.304068  0.006310  1
  Ta  Ta3  1  0.000000  0.695932  0.993690  1
  Ta  Ta4  1  0.000000  0.515605  0.594971  1
  Ta  Ta5  1  0.000000  0.484395  0.405029  1
  Ta  Ta6  1  0.000000  0.015605  0.905029  1
  Ta  Ta7  1  0.000000  0.984395  0.094971  1
  Ta  Ta8  1  0.000000  0.680258  0.205351  1
  Ta  Ta9  1  0.000000  0.319742  0.794649  1
  Ta  Ta10  1  0.000000  0.180258  0.294649  1
  Ta  Ta11  1  0.000000  0.819742  0.705351  1
  Tc  Tc12  1  0.500000  0.716512  0.357334  1
  Tc  Tc13  1  0.500000  0.283488  0.642666  1
  Tc  Tc14  1  0.500000  0.216512  0.142666  1
  Tc  Tc15  1  0.500000  0.783488  0.857334  1
  Tc  Tc16  1  0.500000  0.518158  0.095553  1
  Tc  Tc17  1  0.500000  0.481842  0.904447  1
  Tc  Tc18  1  0.500000  0.018158  0.404447  1
  Tc  Tc19  1  0.500000  0.981842  0.595553  1
  B  B20  1  0.500000  0.605177  0.494976  1
  B  B21  1  0.500000  0.394823  0.505024  1
  B  B22  1  0.500000  0.105177  0.005024  1
  B  B23  1  0.500000  0.894823  0.994976  1
  B  B24  1  0.000000  0.610500  0.833908  1
  B  B25  1  0.000000  0.389500  0.166092  1
  B  B26  1  0.000000  0.110500  0.666092  1
  B  B27  1  0.000000  0.889500  0.333908  1
  B  B28  1  0.500000  0.716940  0.601440  1
  B  B29  1  0.500000  0.283060  0.398560  1
  B  B30  1  0.500000  0.216940  0.898560  1
  B  B31  1  0.500000  0.783060  0.101440  1
  Os  Os32  1  0.500000  0.568965  0.732494  1
  Os  Os33  1  0.500000  0.431035  0.267506  1
  Os  Os34  1  0.500000  0.068965  0.767506  1
  Os  Os35  1  0.500000  0.931035  0.232494  1
