# generated using pymatgen
data_Th3Mg3Ga2Ag
_symmetry_space_group_name_H-M   'P 1'
_cell_length_a   7.40336400
_cell_length_b   7.40336324
_cell_length_c   4.60722800
_cell_angle_alpha   90.00000000
_cell_angle_beta   90.00000000
_cell_angle_gamma   119.99999445
_symmetry_Int_Tables_number   1
_chemical_formula_structural   Th3Mg3Ga2Ag
_chemical_formula_sum   'Th3 Mg3 Ga2 Ag1'
_cell_volume   218.68979730
_cell_formula_units_Z   1
loop_
 _symmetry_equiv_pos_site_id
 _symmetry_equiv_pos_as_xyz
  1  'x, y, z'
loop_
 _atom_site_type_symbol
 _atom_site_label
 _atom_site_symmetry_multiplicity
 _atom_site_fract_x
 _atom_site_fract_y
 _atom_site_fract_z
 _atom_site_occupancy
  Th  Th0  1  0.000000  0.572682  0.000000  1
  Th  Th1  1  0.427318  0.427318  0.000000  1
  Th  Th2  1  0.572682  0.000000  0.000000  1
  Mg  Mg3  1  0.000000  0.239171  0.500000  1
  Mg  Mg4  1  0.760829  0.760829  0.500000  1
  Mg  Mg5  1  0.239171  0.000000  0.500000  1
  Ga  Ga6  1  0.666667  0.333333  0.500000  1
  Ga  Ga7  1  0.333333  0.666667  0.500000  1
  Ag  Ag8  1  0.000000  0.000000  0.000000  1
