# generated using pymatgen
data_DyU9(Re3C8)2
_symmetry_space_group_name_H-M   'P 1'
_cell_length_a   11.37359435
_cell_length_b   11.37359435
_cell_length_c   3.26762200
_cell_angle_alpha   90.00000000
_cell_angle_beta   90.00000000
_cell_angle_gamma   89.86973735
_symmetry_Int_Tables_number   1
_chemical_formula_structural   DyU9(Re3C8)2
_chemical_formula_sum   'Dy1 U9 Re6 C16'
_cell_volume   422.69407300
_cell_formula_units_Z   1
loop_
 _symmetry_equiv_pos_site_id
 _symmetry_equiv_pos_as_xyz
  1  'x, y, z'
loop_
 _atom_site_type_symbol
 _atom_site_label
 _atom_site_symmetry_multiplicity
 _atom_site_fract_x
 _atom_site_fract_y
 _atom_site_fract_z
 _atom_site_occupancy
  Dy  Dy0  1  0.000000  0.500000  0.000000  1
  U  U1  1  0.271135  0.542095  0.500000  1
  U  U2  1  0.728865  0.457905  0.500000  1
  U  U3  1  0.542296  0.727983  0.500000  1
  U  U4  1  0.772017  0.957704  0.500000  1
  U  U5  1  0.227983  0.042296  0.500000  1
  U  U6  1  0.957905  0.228865  0.500000  1
  U  U7  1  0.457704  0.272017  0.500000  1
  U  U8  1  0.500000  0.000000  0.000000  1
  U  U9  1  0.042095  0.771135  0.500000  1
  Re  Re10  1  0.204672  0.295328  0.000000  1
  Re  Re11  1  0.702431  0.202431  0.000000  1
  Re  Re12  1  0.297569  0.797569  0.000000  1
  Re  Re13  1  0.500000  0.500000  0.000000  1
  Re  Re14  1  0.795328  0.704672  0.000000  1
  Re  Re15  1  0.000000  0.000000  0.000000  1
  C  C16  1  0.347119  0.403116  0.000000  1
  C  C17  1  0.616559  0.116559  0.500000  1
  C  C18  1  0.903116  0.847119  0.000000  1
  C  C19  1  0.653496  0.846504  0.000000  1
  C  C20  1  0.346504  0.153496  0.000000  1
  C  C21  1  0.119579  0.380421  0.500000  1
  C  C22  1  0.152213  0.902217  0.000000  1
  C  C23  1  0.844034  0.344034  0.000000  1
  C  C24  1  0.652881  0.596884  0.000000  1
  C  C25  1  0.597783  0.347787  0.000000  1
  C  C26  1  0.880421  0.619579  0.500000  1
  C  C27  1  0.847787  0.097783  0.000000  1
  C  C28  1  0.383441  0.883441  0.500000  1
  C  C29  1  0.155966  0.655966  0.000000  1
  C  C30  1  0.096884  0.152881  0.000000  1
  C  C31  1  0.402217  0.652213  0.000000  1
