# generated using pymatgen
data_SmEr9In8Pd3Ru
_symmetry_space_group_name_H-M   'P 1'
_cell_length_a   3.61606100
_cell_length_b   8.09042928
_cell_length_c   18.22204610
_cell_angle_alpha   90.07052126
_cell_angle_beta   90.00000000
_cell_angle_gamma   90.00000000
_symmetry_Int_Tables_number   1
_chemical_formula_structural   SmEr9In8Pd3Ru
_chemical_formula_sum   'Sm1 Er9 In8 Pd3 Ru1'
_cell_volume   533.09440704
_cell_formula_units_Z   1
loop_
 _symmetry_equiv_pos_site_id
 _symmetry_equiv_pos_as_xyz
  1  'x, y, z'
loop_
 _atom_site_type_symbol
 _atom_site_label
 _atom_site_symmetry_multiplicity
 _atom_site_fract_x
 _atom_site_fract_y
 _atom_site_fract_z
 _atom_site_occupancy
  Sm  Sm0  1  0.000000  0.499483  0.499641  1
  Er  Er1  1  0.000000  0.999875  0.000813  1
  Er  Er2  1  0.000000  0.727207  0.276841  1
  Er  Er3  1  0.000000  0.259650  0.720416  1
  Er  Er4  1  0.000000  0.759920  0.779803  1
  Er  Er5  1  0.000000  0.252796  0.220227  1
  Er  Er6  1  0.000000  0.614666  0.087291  1
  Er  Er7  1  0.000000  0.384235  0.915987  1
  Er  Er8  1  0.000000  0.883004  0.584043  1
  Er  Er9  1  0.000000  0.119083  0.414617  1
  In  In10  1  0.500000  0.710243  0.931852  1
  In  In11  1  0.500000  0.291986  0.069047  1
  In  In12  1  0.500000  0.794866  0.431412  1
  In  In13  1  0.500000  0.205720  0.568477  1
  In  In14  1  0.500000  0.580600  0.650695  1
  In  In15  1  0.500000  0.424841  0.348690  1
  In  In16  1  0.500000  0.920664  0.149995  1
  In  In17  1  0.500000  0.078899  0.851236  1
  Pd  Pd18  1  0.500000  0.477284  0.804278  1
  Pd  Pd19  1  0.500000  0.977392  0.695875  1
  Pd  Pd20  1  0.500000  0.019358  0.303754  1
  Ru  Ru21  1  0.500000  0.518232  0.195007  1
