# generated using pymatgen
data_Nd8Ga3Ru
_symmetry_space_group_name_H-M   'P 1'
_cell_length_a   10.41193100
_cell_length_b   10.41198827
_cell_length_c   7.26045600
_cell_angle_alpha   90.00000000
_cell_angle_beta   90.00000000
_cell_angle_gamma   120.00016338
_symmetry_Int_Tables_number   1
_chemical_formula_structural   Nd8Ga3Ru
_chemical_formula_sum   'Nd16 Ga6 Ru2'
_cell_volume   681.64580459
_cell_formula_units_Z   2
loop_
 _symmetry_equiv_pos_site_id
 _symmetry_equiv_pos_as_xyz
  1  'x, y, z'
loop_
 _atom_site_type_symbol
 _atom_site_label
 _atom_site_symmetry_multiplicity
 _atom_site_fract_x
 _atom_site_fract_y
 _atom_site_fract_z
 _atom_site_occupancy
  Nd  Nd0  1  0.830178  0.660351  0.486435  1
  Nd  Nd1  1  0.339643  0.169822  0.486430  1
  Nd  Nd2  1  0.830179  0.169825  0.486433  1
  Nd  Nd3  1  0.169822  0.339649  0.986435  1
  Nd  Nd4  1  0.660357  0.830178  0.986430  1
  Nd  Nd5  1  0.169821  0.830175  0.986433  1
  Nd  Nd6  1  0.666668  0.333336  0.166517  1
  Nd  Nd7  1  0.333332  0.666664  0.666517  1
  Nd  Nd8  1  0.537626  0.075258  0.795513  1
  Nd  Nd9  1  0.924740  0.462368  0.795516  1
  Nd  Nd10  1  0.537628  0.462370  0.795516  1
  Nd  Nd11  1  0.462374  0.924742  0.295513  1
  Nd  Nd12  1  0.075260  0.537632  0.295516  1
  Nd  Nd13  1  0.462372  0.537630  0.295516  1
  Nd  Nd14  1  0.000001  0.000003  0.766793  1
  Nd  Nd15  1  0.999999  0.999997  0.266793  1
  Ga  Ga16  1  0.835350  0.670702  0.045384  1
  Ga  Ga17  1  0.329292  0.164648  0.045387  1
  Ga  Ga18  1  0.835350  0.164648  0.045395  1
  Ga  Ga19  1  0.164650  0.329298  0.545384  1
  Ga  Ga20  1  0.670708  0.835352  0.545387  1
  Ga  Ga21  1  0.164650  0.835352  0.545395  1
  Ru  Ru22  1  0.666663  0.333331  0.547802  1
  Ru  Ru23  1  0.333337  0.666669  0.047802  1
