# generated using pymatgen
data_TbY2Tm3MnSb2
_symmetry_space_group_name_H-M   'P 1'
_cell_length_a   8.10950000
_cell_length_b   8.11780089
_cell_length_c   4.26270900
_cell_angle_alpha   90.00000000
_cell_angle_beta   90.00000000
_cell_angle_gamma   119.96617179
_symmetry_Int_Tables_number   1
_chemical_formula_structural   TbY2Tm3MnSb2
_chemical_formula_sum   'Tb1 Y2 Tm3 Mn1 Sb2'
_cell_volume   243.10658921
_cell_formula_units_Z   1
loop_
 _symmetry_equiv_pos_site_id
 _symmetry_equiv_pos_as_xyz
  1  'x, y, z'
loop_
 _atom_site_type_symbol
 _atom_site_label
 _atom_site_symmetry_multiplicity
 _atom_site_fract_x
 _atom_site_fract_y
 _atom_site_fract_z
 _atom_site_occupancy
  Tb  Tb0  1  0.604128  0.000000  0.000000  1
  Y  Y1  1  0.999792  0.602600  0.000000  1
  Y  Y2  1  0.397191  0.397400  0.000000  1
  Tm  Tm3  1  0.234300  0.000000  0.500000  1
  Tm  Tm4  1  0.000200  0.234580  0.500000  1
  Tm  Tm5  1  0.765619  0.765420  0.500000  1
  Mn  Mn6  1  0.998951  0.000000  0.000000  1
  Sb  Sb7  1  0.333223  0.666628  0.500000  1
  Sb  Sb8  1  0.666598  0.333372  0.500000  1
