# generated using pymatgen
data_Ta18NbOs11
_symmetry_space_group_name_H-M   'P 1'
_cell_length_a   9.93372616
_cell_length_b   9.93372619
_cell_length_c   5.11925032
_cell_angle_alpha   90.27642218
_cell_angle_beta   90.27642327
_cell_angle_gamma   89.86199079
_symmetry_Int_Tables_number   1
_chemical_formula_structural   Ta18NbOs11
_chemical_formula_sum   'Ta18 Nb1 Os11'
_cell_volume   505.14887566
_cell_formula_units_Z   1
loop_
 _symmetry_equiv_pos_site_id
 _symmetry_equiv_pos_as_xyz
  1  'x, y, z'
loop_
 _atom_site_type_symbol
 _atom_site_label
 _atom_site_symmetry_multiplicity
 _atom_site_fract_x
 _atom_site_fract_y
 _atom_site_fract_z
 _atom_site_occupancy
  Ta  Ta0  1  0.102308  0.102308  0.500602  1
  Ta  Ta1  1  0.896481  0.896481  0.503888  1
  Ta  Ta2  1  0.602258  0.398025  0.996464  1
  Ta  Ta3  1  0.398025  0.602258  0.996464  1
  Ta  Ta4  1  0.035917  0.370840  0.500559  1
  Ta  Ta5  1  0.962059  0.630322  0.500896  1
  Ta  Ta6  1  0.536215  0.128835  0.001520  1
  Ta  Ta7  1  0.464808  0.869430  0.999484  1
  Ta  Ta8  1  0.630322  0.962059  0.500896  1
  Ta  Ta9  1  0.370840  0.035917  0.500559  1
  Ta  Ta10  1  0.869430  0.464808  0.999484  1
  Ta  Ta11  1  0.128835  0.536215  0.001520  1
  Ta  Ta12  1  0.818329  0.181533  0.750173  1
  Ta  Ta13  1  0.181533  0.818329  0.750173  1
  Ta  Ta14  1  0.681176  0.681176  0.750364  1
  Ta  Ta15  1  0.318050  0.318050  0.750444  1
  Ta  Ta16  1  0.181078  0.817806  0.250447  1
  Ta  Ta17  1  0.817806  0.181078  0.250447  1
  Nb  Nb18  1  0.319166  0.319166  0.251504  1
  Os  Os19  1  0.503608  0.503608  0.491626  1
  Os  Os20  1  0.999847  0.999847  0.001426  1
  Os  Os21  1  0.758748  0.434411  0.497758  1
  Os  Os22  1  0.241931  0.567694  0.501349  1
  Os  Os23  1  0.259108  0.066614  0.000206  1
  Os  Os24  1  0.740625  0.930755  0.002056  1
  Os  Os25  1  0.567694  0.241931  0.501349  1
  Os  Os26  1  0.434411  0.758748  0.497758  1
  Os  Os27  1  0.930755  0.740625  0.002056  1
  Os  Os28  1  0.066614  0.259108  0.000206  1
  Os  Os29  1  0.682022  0.682022  0.248324  1
