# generated using pymatgen
data_DyHo19(Bi3Sb)3
_symmetry_space_group_name_H-M   'P 1'
_cell_length_a   8.18184652
_cell_length_b   9.45029600
_cell_length_c   11.96029804
_cell_angle_alpha   90.00000000
_cell_angle_beta   90.02526775
_cell_angle_gamma   90.00000000
_symmetry_Int_Tables_number   1
_chemical_formula_structural   DyHo19(Bi3Sb)3
_chemical_formula_sum   'Dy1 Ho19 Bi9 Sb3'
_cell_volume   924.78057705
_cell_formula_units_Z   1
loop_
 _symmetry_equiv_pos_site_id
 _symmetry_equiv_pos_as_xyz
  1  'x, y, z'
loop_
 _atom_site_type_symbol
 _atom_site_label
 _atom_site_symmetry_multiplicity
 _atom_site_fract_x
 _atom_site_fract_y
 _atom_site_fract_z
 _atom_site_occupancy
  Dy  Dy0  1  0.811458  0.250000  0.278939  1
  Ho  Ho1  1  0.352700  0.750000  0.213011  1
  Ho  Ho2  1  0.852963  0.750000  0.286540  1
  Ho  Ho3  1  0.647231  0.250000  0.786792  1
  Ho  Ho4  1  0.148164  0.250000  0.716501  1
  Ho  Ho5  1  0.689090  0.562826  0.057383  1
  Ho  Ho6  1  0.190317  0.933767  0.442566  1
  Ho  Ho7  1  0.311077  0.062410  0.942765  1
  Ho  Ho8  1  0.808370  0.440008  0.558950  1
  Ho  Ho9  1  0.311077  0.437590  0.942765  1
  Ho  Ho10  1  0.808370  0.059992  0.558950  1
  Ho  Ho11  1  0.689090  0.937174  0.057383  1
  Ho  Ho12  1  0.190317  0.566233  0.442566  1
  Ho  Ho13  1  0.475515  0.250000  0.487993  1
  Ho  Ho14  1  0.972675  0.250000  0.011930  1
  Ho  Ho15  1  0.528658  0.750000  0.512672  1
  Ho  Ho16  1  0.027833  0.750000  0.987894  1
  Ho  Ho17  1  0.318010  0.250000  0.216173  1
  Ho  Ho18  1  0.683314  0.750000  0.782183  1
  Ho  Ho19  1  0.183820  0.750000  0.717805  1
  Bi  Bi20  1  0.092263  0.250000  0.456588  1
  Bi  Bi21  1  0.565310  0.995123  0.325587  1
  Bi  Bi22  1  0.065742  0.504093  0.174322  1
  Bi  Bi23  1  0.434082  0.495598  0.674583  1
  Bi  Bi24  1  0.934154  0.003966  0.825858  1
  Bi  Bi25  1  0.434082  0.004402  0.674583  1
  Bi  Bi26  1  0.934154  0.496034  0.825858  1
  Bi  Bi27  1  0.565310  0.504877  0.325587  1
  Bi  Bi28  1  0.065742  0.995907  0.174322  1
  Sb  Sb29  1  0.407730  0.750000  0.958018  1
  Sb  Sb30  1  0.908410  0.750000  0.541677  1
  Sb  Sb31  1  0.592977  0.250000  0.041252  1
