# generated using pymatgen
data_HfZrReW3
_symmetry_space_group_name_H-M   'P 1'
_cell_length_a   5.39811995
_cell_length_b   5.39812038
_cell_length_c   5.36227809
_cell_angle_alpha   59.77864669
_cell_angle_beta   59.77864497
_cell_angle_gamma   60.00000245
_symmetry_Int_Tables_number   1
_chemical_formula_structural   HfZrReW3
_chemical_formula_sum   'Hf1 Zr1 Re1 W3'
_cell_volume   110.11798608
_cell_formula_units_Z   1
loop_
 _symmetry_equiv_pos_site_id
 _symmetry_equiv_pos_as_xyz
  1  'x, y, z'
loop_
 _atom_site_type_symbol
 _atom_site_label
 _atom_site_symmetry_multiplicity
 _atom_site_fract_x
 _atom_site_fract_y
 _atom_site_fract_z
 _atom_site_occupancy
  Hf  Hf0  1  0.250230  0.250230  0.249310  1
  Zr  Zr1  1  0.999747  0.999747  0.000759  1
  Re  Re2  1  0.624970  0.624970  0.125091  1
  W  W3  1  0.624992  0.125069  0.624946  1
  W  W4  1  0.125069  0.624992  0.624946  1
  W  W5  1  0.624992  0.624992  0.624946  1
