# generated using pymatgen
data_Tb4Er2Al24Ru7Pt
_symmetry_space_group_name_H-M   'P 1'
_cell_length_a   8.81198434
_cell_length_b   8.81198400
_cell_length_c   9.54649153
_cell_angle_alpha   89.83293960
_cell_angle_beta   90.16706818
_cell_angle_gamma   119.91172125
_symmetry_Int_Tables_number   1
_chemical_formula_structural   Tb4Er2Al24Ru7Pt
_chemical_formula_sum   'Tb4 Er2 Al24 Ru7 Pt1'
_cell_volume   642.54717501
_cell_formula_units_Z   1
loop_
 _symmetry_equiv_pos_site_id
 _symmetry_equiv_pos_as_xyz
  1  'x, y, z'
loop_
 _atom_site_type_symbol
 _atom_site_label
 _atom_site_symmetry_multiplicity
 _atom_site_fract_x
 _atom_site_fract_y
 _atom_site_fract_z
 _atom_site_occupancy
  Tb  Tb0  1  0.192141  0.386741  0.250317  1
  Tb  Tb1  1  0.807859  0.613259  0.749683  1
  Tb  Tb2  1  0.613259  0.807859  0.250317  1
  Tb  Tb3  1  0.386741  0.192141  0.749683  1
  Er  Er4  1  0.194754  0.805246  0.250149  1
  Er  Er5  1  0.805246  0.194754  0.749851  1
  Al  Al6  1  0.330629  0.669371  0.020050  1
  Al  Al7  1  0.669371  0.330629  0.979950  1
  Al  Al8  1  0.667010  0.332990  0.516646  1
  Al  Al9  1  0.332990  0.667010  0.483354  1
  Al  Al10  1  0.162388  0.323950  0.578988  1
  Al  Al11  1  0.837612  0.676050  0.421012  1
  Al  Al12  1  0.676050  0.837612  0.578988  1
  Al  Al13  1  0.842635  0.676535  0.078229  1
  Al  Al14  1  0.323950  0.162388  0.421012  1
  Al  Al15  1  0.157365  0.323465  0.921771  1
  Al  Al16  1  0.162612  0.837388  0.578350  1
  Al  Al17  1  0.323465  0.157365  0.078229  1
  Al  Al18  1  0.837388  0.162612  0.421650  1
  Al  Al19  1  0.676535  0.842635  0.921771  1
  Al  Al20  1  0.837502  0.162498  0.077843  1
  Al  Al21  1  0.162498  0.837502  0.922157  1
  Al  Al22  1  0.560255  0.121708  0.248714  1
  Al  Al23  1  0.439745  0.878292  0.751286  1
  Al  Al24  1  0.878292  0.439745  0.248714  1
  Al  Al25  1  0.121708  0.560255  0.751286  1
  Al  Al26  1  0.562159  0.437841  0.252040  1
  Al  Al27  1  0.437841  0.562159  0.747960  1
  Al  Al28  1  0.999882  0.000118  0.249981  1
  Al  Al29  1  0.000118  0.999882  0.750019  1
  Ru  Ru30  1  0.500000  0.000000  0.000000  1
  Ru  Ru31  1  0.000000  0.500000  0.000000  1
  Ru  Ru32  1  0.500000  0.000000  0.500000  1
  Ru  Ru33  1  0.000000  0.500000  0.500000  1
  Ru  Ru34  1  0.500000  0.500000  0.500000  1
  Ru  Ru35  1  0.000000  0.000000  0.000000  1
  Ru  Ru36  1  0.000000  0.000000  0.500000  1
  Pt  Pt37  1  0.500000  0.500000  0.000000  1
