# generated using pymatgen
data_Ho2Tm4TcIr
_symmetry_space_group_name_H-M   'P 1'
_cell_length_a   6.26763000
_cell_length_b   7.32411400
_cell_length_c   9.00896100
_cell_angle_alpha   90.00000000
_cell_angle_beta   90.00000000
_cell_angle_gamma   90.00000000
_symmetry_Int_Tables_number   1
_chemical_formula_structural   Ho2Tm4TcIr
_chemical_formula_sum   'Ho4 Tm8 Tc2 Ir2'
_cell_volume   413.55488291
_cell_formula_units_Z   2
loop_
 _symmetry_equiv_pos_site_id
 _symmetry_equiv_pos_as_xyz
  1  'x, y, z'
loop_
 _atom_site_type_symbol
 _atom_site_label
 _atom_site_symmetry_multiplicity
 _atom_site_fract_x
 _atom_site_fract_y
 _atom_site_fract_z
 _atom_site_occupancy
  Ho  Ho0  1  0.874425  0.539517  0.250000  1
  Ho  Ho1  1  0.625575  0.039517  0.250000  1
  Ho  Ho2  1  0.132501  0.459761  0.750000  1
  Ho  Ho3  1  0.367499  0.959761  0.750000  1
  Tm  Tm4  1  0.332569  0.676057  0.065481  1
  Tm  Tm5  1  0.167431  0.176057  0.434519  1
  Tm  Tm6  1  0.665546  0.324102  0.560700  1
  Tm  Tm7  1  0.834454  0.824102  0.939300  1
  Tm  Tm8  1  0.665546  0.324102  0.939300  1
  Tm  Tm9  1  0.834454  0.824102  0.560700  1
  Tm  Tm10  1  0.332569  0.676057  0.434519  1
  Tm  Tm11  1  0.167431  0.176057  0.065481  1
  Tc  Tc12  1  0.036766  0.884709  0.250000  1
  Tc  Tc13  1  0.463234  0.384709  0.250000  1
  Ir  Ir14  1  0.954946  0.115696  0.750000  1
  Ir  Ir15  1  0.545054  0.615696  0.750000  1
