# generated using pymatgen
data_Ca3TbIr8
_symmetry_space_group_name_H-M   'P 1'
_cell_length_a   5.35834800
_cell_length_b   5.35834758
_cell_length_c   8.75001100
_cell_angle_alpha   90.00000000
_cell_angle_beta   90.00000000
_cell_angle_gamma   120.00000262
_symmetry_Int_Tables_number   1
_chemical_formula_structural   Ca3TbIr8
_chemical_formula_sum   'Ca3 Tb1 Ir8'
_cell_volume   217.57100410
_cell_formula_units_Z   1
loop_
 _symmetry_equiv_pos_site_id
 _symmetry_equiv_pos_as_xyz
  1  'x, y, z'
loop_
 _atom_site_type_symbol
 _atom_site_label
 _atom_site_symmetry_multiplicity
 _atom_site_fract_x
 _atom_site_fract_y
 _atom_site_fract_z
 _atom_site_occupancy
  Ca  Ca0  1  0.333334  0.666667  0.437078  1
  Ca  Ca1  1  0.666666  0.333334  0.568187  1
  Ca  Ca2  1  0.666666  0.333334  0.927819  1
  Tb  Tb3  1  0.333334  0.666667  0.069325  1
  Ir  Ir4  1  0.000000  0.000000  0.998988  1
  Ir  Ir5  1  0.341086  0.170543  0.248520  1
  Ir  Ir6  1  0.829457  0.170543  0.248520  1
  Ir  Ir7  1  0.829457  0.658913  0.248520  1
  Ir  Ir8  1  0.000000  0.000000  0.499832  1
  Ir  Ir9  1  0.170432  0.340863  0.751071  1
  Ir  Ir10  1  0.170433  0.829567  0.751071  1
  Ir  Ir11  1  0.659135  0.829567  0.751071  1
