# generated using pymatgen
data_Rb3Ta2Ag3S8
_symmetry_space_group_name_H-M   'P 1'
_cell_length_a   13.09017370
_cell_length_b   13.09017351
_cell_length_c   14.79786613
_cell_angle_alpha   62.03103593
_cell_angle_beta   62.03103619
_cell_angle_gamma   26.58411035
_symmetry_Int_Tables_number   1
_chemical_formula_structural   Rb3Ta2Ag3S8
_chemical_formula_sum   'Rb6 Ta4 Ag6 S16'
_cell_volume   994.28098826
_cell_formula_units_Z   2
loop_
 _symmetry_equiv_pos_site_id
 _symmetry_equiv_pos_as_xyz
  1  'x, y, z'
loop_
 _atom_site_type_symbol
 _atom_site_label
 _atom_site_symmetry_multiplicity
 _atom_site_fract_x
 _atom_site_fract_y
 _atom_site_fract_z
 _atom_site_occupancy
  Rb  Rb0  1  0.628572  0.763637  0.397811  1
  Rb  Rb1  1  0.000000  0.000000  0.000000  1
  Rb  Rb2  1  0.763637  0.628572  0.897811  1
  Rb  Rb3  1  0.000000  0.000000  0.500000  1
  Rb  Rb4  1  0.236363  0.371428  0.102189  1
  Rb  Rb5  1  0.371428  0.236363  0.602189  1
  Ta  Ta6  1  0.582300  0.165224  0.277973  1
  Ta  Ta7  1  0.165224  0.582300  0.777973  1
  Ta  Ta8  1  0.834776  0.417700  0.222027  1
  Ta  Ta9  1  0.417700  0.834776  0.722027  1
  Ag  Ag10  1  0.291591  0.708409  0.750000  1
  Ag  Ag11  1  0.334797  0.917997  0.214069  1
  Ag  Ag12  1  0.917997  0.334797  0.714069  1
  Ag  Ag13  1  0.082003  0.665203  0.285931  1
  Ag  Ag14  1  0.708409  0.291591  0.250000  1
  Ag  Ag15  1  0.665203  0.082003  0.785931  1
  S  S16  1  0.459686  0.444170  0.657999  1
  S  S17  1  0.225164  0.087641  0.814648  1
  S  S18  1  0.444170  0.459686  0.157999  1
  S  S19  1  0.774836  0.912359  0.185352  1
  S  S20  1  0.555830  0.540314  0.842001  1
  S  S21  1  0.295020  0.290344  0.885088  1
  S  S22  1  0.709656  0.704980  0.614912  1
  S  S23  1  0.290344  0.295020  0.385088  1
  S  S24  1  0.912359  0.774836  0.685352  1
  S  S25  1  0.182634  0.010860  0.620733  1
  S  S26  1  0.704980  0.709656  0.114912  1
  S  S27  1  0.540314  0.555830  0.342001  1
  S  S28  1  0.989140  0.817366  0.879267  1
  S  S29  1  0.087641  0.225164  0.314648  1
  S  S30  1  0.817366  0.989140  0.379267  1
  S  S31  1  0.010860  0.182634  0.120733  1
