# generated using pymatgen
data_Yb3Ag3Sn2Pb
_symmetry_space_group_name_H-M   'P 1'
_cell_length_a   4.85317600
_cell_length_b   4.85317626
_cell_length_c   10.93815600
_cell_angle_alpha   90.00000000
_cell_angle_beta   90.00000000
_cell_angle_gamma   119.99999826
_symmetry_Int_Tables_number   1
_chemical_formula_structural   Yb3Ag3Sn2Pb
_chemical_formula_sum   'Yb3 Ag3 Sn2 Pb1'
_cell_volume   223.11401815
_cell_formula_units_Z   1
loop_
 _symmetry_equiv_pos_site_id
 _symmetry_equiv_pos_as_xyz
  1  'x, y, z'
loop_
 _atom_site_type_symbol
 _atom_site_label
 _atom_site_symmetry_multiplicity
 _atom_site_fract_x
 _atom_site_fract_y
 _atom_site_fract_z
 _atom_site_occupancy
  Yb  Yb0  1  0.666667  0.333333  0.004642  1
  Yb  Yb1  1  0.666667  0.333333  0.664813  1
  Yb  Yb2  1  0.666667  0.333333  0.333942  1
  Ag  Ag3  1  0.000000  0.000000  0.792766  1
  Ag  Ag4  1  0.000000  0.000000  0.193128  1
  Ag  Ag5  1  0.333333  0.666667  0.497321  1
  Sn  Sn6  1  0.000000  0.000000  0.504119  1
  Sn  Sn7  1  0.333333  0.666667  0.154287  1
  Pb  Pb8  1  0.333333  0.666667  0.854982  1
