# generated using pymatgen
data_LaDy3Zr4F28
_symmetry_space_group_name_H-M   'P 1'
_cell_length_a   5.81053404
_cell_length_b   9.19793501
_cell_length_c   12.36136810
_cell_angle_alpha   62.35319576
_cell_angle_beta   89.97073850
_cell_angle_gamma   90.01419943
_symmetry_Int_Tables_number   1
_chemical_formula_structural   LaDy3Zr4F28
_chemical_formula_sum   'La1 Dy3 Zr4 F28'
_cell_volume   585.22200705
_cell_formula_units_Z   1
loop_
 _symmetry_equiv_pos_site_id
 _symmetry_equiv_pos_as_xyz
  1  'x, y, z'
loop_
 _atom_site_type_symbol
 _atom_site_label
 _atom_site_symmetry_multiplicity
 _atom_site_fract_x
 _atom_site_fract_y
 _atom_site_fract_z
 _atom_site_occupancy
  La  La0  1  0.756853  0.817341  0.766693  1
  Dy  Dy1  1  0.743918  0.817588  0.266262  1
  Dy  Dy2  1  0.243623  0.184894  0.233824  1
  Dy  Dy3  1  0.257000  0.190955  0.733008  1
  Zr  Zr4  1  0.743538  0.278960  0.452015  1
  Zr  Zr5  1  0.244749  0.725469  0.050785  1
  Zr  Zr6  1  0.255060  0.725569  0.539281  1
  Zr  Zr7  1  0.755298  0.268606  0.957620  1
  F  F8  1  0.457817  0.707487  0.927445  1
  F  F9  1  0.965597  0.288653  0.576502  1
  F  F10  1  0.532142  0.286306  0.078387  1
  F  F11  1  0.030926  0.710755  0.418536  1
  F  F12  1  0.456629  0.281364  0.549092  1
  F  F13  1  0.957514  0.714366  0.959969  1
  F  F14  1  0.547042  0.719500  0.447618  1
  F  F15  1  0.043145  0.277729  0.051879  1
  F  F16  1  0.770278  0.516153  0.861094  1
  F  F17  1  0.267652  0.475315  0.639079  1
  F  F18  1  0.235167  0.474413  0.143836  1
  F  F19  1  0.732873  0.527662  0.356515  1
  F  F20  1  0.759203  0.020329  0.059832  1
  F  F21  1  0.258880  0.974903  0.439901  1
  F  F22  1  0.240432  0.973440  0.943201  1
  F  F23  1  0.739381  0.030309  0.551031  1
  F  F24  1  0.987244  0.730216  0.642988  1
  F  F25  1  0.486558  0.265731  0.851592  1
  F  F26  1  0.010304  0.265317  0.348485  1
  F  F27  1  0.513612  0.735489  0.153316  1
  F  F28  1  0.032025  0.747422  0.175264  1
  F  F29  1  0.530223  0.254438  0.327641  1
  F  F30  1  0.967060  0.250566  0.829866  1
  F  F31  1  0.455362  0.742231  0.668896  1
  F  F32  1  0.433890  0.976441  0.235996  1
  F  F33  1  0.934925  0.025059  0.264066  1
  F  F34  1  0.566614  0.038937  0.765529  1
  F  F35  1  0.087467  0.980086  0.732955  1
