# generated using pymatgen
data_PrTi2O5
_symmetry_space_group_name_H-M   'P 1'
_cell_length_a   5.86835200
_cell_length_b   7.79599300
_cell_length_c   8.85492000
_cell_angle_alpha   90.00000000
_cell_angle_beta   90.00000000
_cell_angle_gamma   90.00000000
_symmetry_Int_Tables_number   1
_chemical_formula_structural   PrTi2O5
_chemical_formula_sum   'Pr4 Ti8 O20'
_cell_volume   405.10932354
_cell_formula_units_Z   4
loop_
 _symmetry_equiv_pos_site_id
 _symmetry_equiv_pos_as_xyz
  1  'x, y, z'
loop_
 _atom_site_type_symbol
 _atom_site_label
 _atom_site_symmetry_multiplicity
 _atom_site_fract_x
 _atom_site_fract_y
 _atom_site_fract_z
 _atom_site_occupancy
  Pr  Pr0  1  0.000000  0.357525  0.672303  1
  Pr  Pr1  1  0.000000  0.642475  0.327697  1
  Pr  Pr2  1  0.000000  0.857525  0.827697  1
  Pr  Pr3  1  0.000000  0.142475  0.172303  1
  Ti  Ti4  1  0.500000  0.114481  0.858744  1
  Ti  Ti5  1  0.500000  0.885519  0.141256  1
  Ti  Ti6  1  0.500000  0.614481  0.641256  1
  Ti  Ti7  1  0.500000  0.385519  0.358744  1
  Ti  Ti8  1  0.254359  0.500000  0.000000  1
  Ti  Ti9  1  0.745641  0.000000  0.500000  1
  Ti  Ti10  1  0.745641  0.500000  0.000000  1
  Ti  Ti11  1  0.254359  0.000000  0.500000  1
  O  O12  1  0.256457  0.901145  0.289058  1
  O  O13  1  0.256457  0.098855  0.710942  1
  O  O14  1  0.743543  0.401145  0.210942  1
  O  O15  1  0.743543  0.598855  0.789058  1
  O  O16  1  0.743543  0.098855  0.710942  1
  O  O17  1  0.743543  0.901145  0.289058  1
  O  O18  1  0.256457  0.598855  0.789058  1
  O  O19  1  0.256457  0.401145  0.210942  1
  O  O20  1  0.500000  0.333369  0.926258  1
  O  O21  1  0.500000  0.666631  0.073742  1
  O  O22  1  0.500000  0.833369  0.573742  1
  O  O23  1  0.500000  0.166631  0.426258  1
  O  O24  1  0.280435  0.000000  0.000000  1
  O  O25  1  0.719565  0.500000  0.500000  1
  O  O26  1  0.719565  0.000000  0.000000  1
  O  O27  1  0.280435  0.500000  0.500000  1
  O  O28  1  0.000000  0.161905  0.447459  1
  O  O29  1  0.000000  0.838095  0.552541  1
  O  O30  1  0.000000  0.661905  0.052541  1
  O  O31  1  0.000000  0.338095  0.947459  1
