# generated using pymatgen
data_Nd16Cd4TcPdPt2
_symmetry_space_group_name_H-M   'P 1'
_cell_length_a   10.05306024
_cell_length_b   10.05305972
_cell_length_c   10.04625680
_cell_angle_alpha   59.46563030
_cell_angle_beta   59.46562299
_cell_angle_gamma   59.47319968
_symmetry_Int_Tables_number   1
_chemical_formula_structural   Nd16Cd4TcPdPt2
_chemical_formula_sum   'Nd16 Cd4 Tc1 Pd1 Pt2'
_cell_volume   709.25054942
_cell_formula_units_Z   1
loop_
 _symmetry_equiv_pos_site_id
 _symmetry_equiv_pos_as_xyz
  1  'x, y, z'
loop_
 _atom_site_type_symbol
 _atom_site_label
 _atom_site_symmetry_multiplicity
 _atom_site_fract_x
 _atom_site_fract_y
 _atom_site_fract_z
 _atom_site_occupancy
  Nd  Nd0  1  0.352458  0.352458  0.351050  1
  Nd  Nd1  1  0.347498  0.347498  0.953402  1
  Nd  Nd2  1  0.348254  0.951972  0.346682  1
  Nd  Nd3  1  0.951972  0.348254  0.346682  1
  Nd  Nd4  1  0.815714  0.189057  0.188669  1
  Nd  Nd5  1  0.189724  0.806611  0.808851  1
  Nd  Nd6  1  0.189057  0.815714  0.188669  1
  Nd  Nd7  1  0.806611  0.189724  0.808851  1
  Nd  Nd8  1  0.189142  0.189142  0.816701  1
  Nd  Nd9  1  0.807970  0.807970  0.188677  1
  Nd  Nd10  1  0.935401  0.565055  0.563632  1
  Nd  Nd11  1  0.556089  0.938470  0.938288  1
  Nd  Nd12  1  0.565055  0.935401  0.563632  1
  Nd  Nd13  1  0.938470  0.556089  0.938288  1
  Nd  Nd14  1  0.563886  0.563886  0.935575  1
  Nd  Nd15  1  0.937910  0.937910  0.556351  1
  Cd  Cd16  1  0.579603  0.579603  0.579541  1
  Cd  Cd17  1  0.580610  0.580610  0.257260  1
  Cd  Cd18  1  0.580339  0.257555  0.580440  1
  Cd  Cd19  1  0.257555  0.580339  0.580440  1
  Tc  Tc20  1  0.142945  0.142945  0.142595  1
  Pd  Pd21  1  0.145353  0.145353  0.573061  1
  Pt  Pt22  1  0.145284  0.573102  0.146331  1
  Pt  Pt23  1  0.573102  0.145284  0.146331  1
