# generated using pymatgen
data_V4Te4P
_symmetry_space_group_name_H-M   'P 1'
_cell_length_a   4.59751000
_cell_length_b   10.55191800
_cell_length_c   18.28772900
_cell_angle_alpha   90.00000000
_cell_angle_beta   90.00000000
_cell_angle_gamma   90.00000000
_symmetry_Int_Tables_number   1
_chemical_formula_structural   V4Te4P
_chemical_formula_sum   'V16 Te16 P4'
_cell_volume   887.18434051
_cell_formula_units_Z   4
loop_
 _symmetry_equiv_pos_site_id
 _symmetry_equiv_pos_as_xyz
  1  'x, y, z'
loop_
 _atom_site_type_symbol
 _atom_site_label
 _atom_site_symmetry_multiplicity
 _atom_site_fract_x
 _atom_site_fract_y
 _atom_site_fract_z
 _atom_site_occupancy
  V  V0  1  0.500000  0.560052  0.390314  1
  V  V1  1  0.500000  0.439948  0.609686  1
  V  V2  1  0.500000  0.060052  0.109686  1
  V  V3  1  0.500000  0.939948  0.890314  1
  V  V4  1  0.500000  0.691593  0.533708  1
  V  V5  1  0.500000  0.308407  0.466292  1
  V  V6  1  0.500000  0.191593  0.966292  1
  V  V7  1  0.500000  0.808407  0.033708  1
  V  V8  1  0.000000  0.677467  0.446460  1
  V  V9  1  0.000000  0.322533  0.553540  1
  V  V10  1  0.000000  0.177467  0.053540  1
  V  V11  1  0.000000  0.822533  0.946460  1
  V  V12  1  0.000000  0.406351  0.398469  1
  V  V13  1  0.000000  0.593649  0.601531  1
  V  V14  1  0.000000  0.906351  0.101531  1
  V  V15  1  0.000000  0.093649  0.898469  1
  Te  Te16  1  0.000000  0.840508  0.561448  1
  Te  Te17  1  0.000000  0.159492  0.438552  1
  Te  Te18  1  0.000000  0.340508  0.938552  1
  Te  Te19  1  0.000000  0.659492  0.061448  1
  Te  Te20  1  0.500000  0.334958  0.319256  1
  Te  Te21  1  0.500000  0.665042  0.680744  1
  Te  Te22  1  0.500000  0.834958  0.180744  1
  Te  Te23  1  0.500000  0.165042  0.819256  1
  Te  Te24  1  0.500000  0.816011  0.404119  1
  Te  Te25  1  0.500000  0.183989  0.595881  1
  Te  Te26  1  0.500000  0.316011  0.095881  1
  Te  Te27  1  0.500000  0.683989  0.904119  1
  Te  Te28  1  0.000000  0.604129  0.304527  1
  Te  Te29  1  0.000000  0.395871  0.695473  1
  Te  Te30  1  0.000000  0.104129  0.195473  1
  Te  Te31  1  0.000000  0.895871  0.804527  1
  P  P32  1  0.250079  0.500000  0.500000  1
  P  P33  1  0.749921  0.000000  0.000000  1
  P  P34  1  0.749921  0.500000  0.500000  1
  P  P35  1  0.250079  0.000000  0.000000  1
