# generated using pymatgen
data_Ho4LuIn2Bi
_symmetry_space_group_name_H-M   'P 1'
_cell_length_a   8.99243632
_cell_length_b   8.95604259
_cell_length_c   6.57873336
_cell_angle_alpha   89.96180725
_cell_angle_beta   90.01901667
_cell_angle_gamma   119.86620959
_symmetry_Int_Tables_number   1
_chemical_formula_structural   Ho4LuIn2Bi
_chemical_formula_sum   'Ho8 Lu2 In4 Bi2'
_cell_volume   459.46270260
_cell_formula_units_Z   2
loop_
 _symmetry_equiv_pos_site_id
 _symmetry_equiv_pos_as_xyz
  1  'x, y, z'
loop_
 _atom_site_type_symbol
 _atom_site_label
 _atom_site_symmetry_multiplicity
 _atom_site_fract_x
 _atom_site_fract_y
 _atom_site_fract_z
 _atom_site_occupancy
  Ho  Ho0  1  0.328633  0.667577  0.492797  1
  Ho  Ho1  1  0.671367  0.338943  0.492797  1
  Ho  Ho2  1  0.770659  0.761304  0.751114  1
  Ho  Ho3  1  0.229341  0.990646  0.751114  1
  Ho  Ho4  1  0.000000  0.237889  0.751293  1
  Ho  Ho5  1  0.234983  0.235515  0.248915  1
  Ho  Ho6  1  0.765017  0.000532  0.248915  1
  Ho  Ho7  1  0.000000  0.763084  0.248650  1
  Lu  Lu8  1  0.671601  0.338962  0.007556  1
  Lu  Lu9  1  0.328399  0.667361  0.007556  1
  In  In10  1  0.000000  0.595605  0.753171  1
  In  In11  1  0.601301  0.604839  0.246856  1
  In  In12  1  0.398699  0.003537  0.246856  1
  In  In13  1  0.000000  0.397672  0.246883  1
  Bi  Bi14  1  0.396533  0.396535  0.752764  1
  Bi  Bi15  1  0.603467  0.000001  0.752764  1
