# generated using pymatgen
data_Hf3Sc5(Ni4P3)4
_symmetry_space_group_name_H-M   'P 1'
_cell_length_a   12.19794900
_cell_length_b   12.19794814
_cell_length_c   3.70022000
_cell_angle_alpha   90.00000000
_cell_angle_beta   90.00000000
_cell_angle_gamma   119.99999963
_symmetry_Int_Tables_number   1
_chemical_formula_structural   Hf3Sc5(Ni4P3)4
_chemical_formula_sum   'Hf3 Sc5 Ni16 P12'
_cell_volume   476.79509091
_cell_formula_units_Z   1
loop_
 _symmetry_equiv_pos_site_id
 _symmetry_equiv_pos_as_xyz
  1  'x, y, z'
loop_
 _atom_site_type_symbol
 _atom_site_label
 _atom_site_symmetry_multiplicity
 _atom_site_fract_x
 _atom_site_fract_y
 _atom_site_fract_z
 _atom_site_occupancy
  Hf  Hf0  1  0.558879  0.558879  0.000000  1
  Hf  Hf1  1  0.441121  0.000000  0.000000  1
  Hf  Hf2  1  0.000000  0.441121  0.000000  1
  Sc  Sc3  1  0.182515  0.182515  0.500000  1
  Sc  Sc4  1  0.817485  0.000000  0.500000  1
  Sc  Sc5  1  0.000000  0.817485  0.500000  1
  Sc  Sc6  1  0.333333  0.666667  0.000000  1
  Sc  Sc7  1  0.666667  0.333333  0.000000  1
  Ni  Ni8  1  0.726846  0.726846  0.500000  1
  Ni  Ni9  1  0.273154  0.000000  0.500000  1
  Ni  Ni10  1  0.000000  0.273154  0.500000  1
  Ni  Ni11  1  0.183089  0.374039  0.000000  1
  Ni  Ni12  1  0.625961  0.809051  0.000000  1
  Ni  Ni13  1  0.190949  0.816911  0.000000  1
  Ni  Ni14  1  0.809051  0.625961  0.000000  1
  Ni  Ni15  1  0.816911  0.190949  0.000000  1
  Ni  Ni16  1  0.374039  0.183089  0.000000  1
  Ni  Ni17  1  0.359017  0.484446  0.500000  1
  Ni  Ni18  1  0.515554  0.874573  0.500000  1
  Ni  Ni19  1  0.125427  0.640983  0.500000  1
  Ni  Ni20  1  0.874573  0.515554  0.500000  1
  Ni  Ni21  1  0.640983  0.125427  0.500000  1
  Ni  Ni22  1  0.484446  0.359017  0.500000  1
  Ni  Ni23  1  0.000000  0.000000  0.000000  1
  P  P24  1  0.825166  0.825166  0.000000  1
  P  P25  1  0.174834  0.000000  0.000000  1
  P  P26  1  0.000000  0.174834  0.000000  1
  P  P27  1  0.172775  0.481323  0.500000  1
  P  P28  1  0.518677  0.691453  0.500000  1
  P  P29  1  0.308547  0.827225  0.500000  1
  P  P30  1  0.691453  0.518677  0.500000  1
  P  P31  1  0.827225  0.308547  0.500000  1
  P  P32  1  0.481323  0.172775  0.500000  1
  P  P33  1  0.351248  0.351248  0.000000  1
  P  P34  1  0.648752  0.000000  0.000000  1
  P  P35  1  0.000000  0.648752  0.000000  1
