# generated using pymatgen
data_Dy2YEr(NiAs)4
_symmetry_space_group_name_H-M   'P 1'
_cell_length_a   4.04527300
_cell_length_b   4.04527223
_cell_length_c   15.53169600
_cell_angle_alpha   90.00000000
_cell_angle_beta   90.00000000
_cell_angle_gamma   120.00001451
_symmetry_Int_Tables_number   1
_chemical_formula_structural   Dy2YEr(NiAs)4
_chemical_formula_sum   'Dy2 Y1 Er1 Ni4 As4'
_cell_volume   220.11266813
_cell_formula_units_Z   1
loop_
 _symmetry_equiv_pos_site_id
 _symmetry_equiv_pos_as_xyz
  1  'x, y, z'
loop_
 _atom_site_type_symbol
 _atom_site_label
 _atom_site_symmetry_multiplicity
 _atom_site_fract_x
 _atom_site_fract_y
 _atom_site_fract_z
 _atom_site_occupancy
  Dy  Dy0  1  0.000000  0.000000  0.998370  1
  Dy  Dy1  1  0.000000  0.000000  0.501630  1
  Y  Y2  1  0.000000  0.000000  0.250000  1
  Er  Er3  1  0.000000  0.000000  0.750000  1
  Ni  Ni4  1  0.333333  0.666667  0.129868  1
  Ni  Ni5  1  0.666667  0.333333  0.863063  1
  Ni  Ni6  1  0.666667  0.333333  0.636937  1
  Ni  Ni7  1  0.333333  0.666667  0.370132  1
  As  As8  1  0.333333  0.666667  0.621797  1
  As  As9  1  0.666667  0.333333  0.379416  1
  As  As10  1  0.666667  0.333333  0.120584  1
  As  As11  1  0.333333  0.666667  0.878203  1
