# generated using pymatgen
data_Dy4MgPt10Au
_symmetry_space_group_name_H-M   'P 1'
_cell_length_a   4.23536600
_cell_length_b   5.85292881
_cell_length_c   11.71235300
_cell_angle_alpha   86.87906365
_cell_angle_beta   90.00000000
_cell_angle_gamma   90.00000000
_symmetry_Int_Tables_number   1
_chemical_formula_structural   Dy4MgPt10Au
_chemical_formula_sum   'Dy4 Mg1 Pt10 Au1'
_cell_volume   289.91036051
_cell_formula_units_Z   1
loop_
 _symmetry_equiv_pos_site_id
 _symmetry_equiv_pos_as_xyz
  1  'x, y, z'
loop_
 _atom_site_type_symbol
 _atom_site_label
 _atom_site_symmetry_multiplicity
 _atom_site_fract_x
 _atom_site_fract_y
 _atom_site_fract_z
 _atom_site_occupancy
  Dy  Dy0  1  0.500000  0.749918  0.370278  1
  Dy  Dy1  1  0.500000  0.719869  0.864725  1
  Dy  Dy2  1  0.500000  0.280131  0.135275  1
  Dy  Dy3  1  0.500000  0.250082  0.629722  1
  Mg  Mg4  1  0.000000  0.000000  0.000000  1
  Pt  Pt5  1  0.000000  0.013620  0.246912  1
  Pt  Pt6  1  0.000000  0.986380  0.753088  1
  Pt  Pt7  1  0.000000  0.500000  0.000000  1
  Pt  Pt8  1  0.000000  0.500000  0.500000  1
  Pt  Pt9  1  0.000000  0.514847  0.249773  1
  Pt  Pt10  1  0.000000  0.485153  0.750227  1
  Pt  Pt11  1  0.500000  0.253914  0.378316  1
  Pt  Pt12  1  0.500000  0.224938  0.882406  1
  Pt  Pt13  1  0.500000  0.775062  0.117594  1
  Pt  Pt14  1  0.500000  0.746086  0.621684  1
  Au  Au15  1  0.000000  0.000000  0.500000  1
