# generated using pymatgen
data_YHo(PaIr2)2
_symmetry_space_group_name_H-M   'P 1'
_cell_length_a   3.75287300
_cell_length_b   4.29929000
_cell_length_c   10.77428300
_cell_angle_alpha   90.00000000
_cell_angle_beta   90.00000000
_cell_angle_gamma   90.00000000
_symmetry_Int_Tables_number   1
_chemical_formula_structural   YHo(PaIr2)2
_chemical_formula_sum   'Y1 Ho1 Pa2 Ir4'
_cell_volume   173.83970928
_cell_formula_units_Z   1
loop_
 _symmetry_equiv_pos_site_id
 _symmetry_equiv_pos_as_xyz
  1  'x, y, z'
loop_
 _atom_site_type_symbol
 _atom_site_label
 _atom_site_symmetry_multiplicity
 _atom_site_fract_x
 _atom_site_fract_y
 _atom_site_fract_z
 _atom_site_occupancy
  Y  Y0  1  0.500000  0.750000  0.355239  1
  Ho  Ho1  1  0.000000  0.250000  0.143875  1
  Pa  Pa2  1  0.000000  0.750000  0.870591  1
  Pa  Pa3  1  0.500000  0.250000  0.630012  1
  Ir  Ir4  1  0.500000  0.750000  0.076214  1
  Ir  Ir5  1  0.000000  0.750000  0.606895  1
  Ir  Ir6  1  0.000000  0.250000  0.424193  1
  Ir  Ir7  1  0.500000  0.250000  0.892981  1
