# generated using pymatgen
data_K4Hf6BeBr18
_symmetry_space_group_name_H-M   'P 1'
_cell_length_a   10.38364855
_cell_length_b   10.53100507
_cell_length_c   10.63393900
_cell_angle_alpha   118.51579838
_cell_angle_beta   100.11311284
_cell_angle_gamma   103.86188774
_symmetry_Int_Tables_number   1
_chemical_formula_structural   K4Hf6BeBr18
_chemical_formula_sum   'K4 Hf6 Be1 Br18'
_cell_volume   932.93610070
_cell_formula_units_Z   1
loop_
 _symmetry_equiv_pos_site_id
 _symmetry_equiv_pos_as_xyz
  1  'x, y, z'
loop_
 _atom_site_type_symbol
 _atom_site_label
 _atom_site_symmetry_multiplicity
 _atom_site_fract_x
 _atom_site_fract_y
 _atom_site_fract_z
 _atom_site_occupancy
  K  K0  1  0.184846  0.725057  0.563854  1
  K  K1  1  0.849172  0.963312  0.773557  1
  K  K2  1  0.150828  0.036688  0.226443  1
  K  K3  1  0.815154  0.274943  0.436146  1
  Hf  Hf4  1  0.348917  0.442649  0.766287  1
  Hf  Hf5  1  0.361649  0.629481  0.136893  1
  Hf  Hf6  1  0.647265  0.741490  0.045529  1
  Hf  Hf7  1  0.651083  0.557351  0.233713  1
  Hf  Hf8  1  0.352735  0.258510  0.954471  1
  Hf  Hf9  1  0.638351  0.370519  0.863107  1
  Be  Be10  1  0.500000  0.500000  0.000000  1
  Br  Br11  1  0.821691  0.421327  0.109883  1
  Br  Br12  1  0.515839  0.706822  0.413234  1
  Br  Br13  1  0.176763  0.976971  0.899918  1
  Br  Br14  1  0.178309  0.578673  0.890117  1
  Br  Br15  1  0.832706  0.836051  0.313745  1
  Br  Br16  1  0.504165  0.293529  0.210821  1
  Br  Br17  1  0.795803  0.222482  0.709861  1
  Br  Br18  1  0.167294  0.163949  0.686255  1
  Br  Br19  1  0.508881  0.913662  0.198519  1
  Br  Br20  1  0.819213  0.627698  0.901916  1
  Br  Br21  1  0.204197  0.777518  0.290139  1
  Br  Br22  1  0.166064  0.378633  0.496749  1
  Br  Br23  1  0.495835  0.706471  0.789179  1
  Br  Br24  1  0.823237  0.023029  0.100082  1
  Br  Br25  1  0.484161  0.293178  0.586766  1
  Br  Br26  1  0.180787  0.372302  0.098084  1
  Br  Br27  1  0.833936  0.621367  0.503251  1
  Br  Br28  1  0.491119  0.086338  0.801481  1
