# generated using pymatgen
data_Eu2AlPdI
_symmetry_space_group_name_H-M   'P 1'
_cell_length_a   4.37727500
_cell_length_b   4.37727581
_cell_length_c   18.00150400
_cell_angle_alpha   90.00000000
_cell_angle_beta   90.00000000
_cell_angle_gamma   120.00000141
_symmetry_Int_Tables_number   1
_chemical_formula_structural   Eu2AlPdI
_chemical_formula_sum   'Eu4 Al2 Pd2 I2'
_cell_volume   298.70821122
_cell_formula_units_Z   2
loop_
 _symmetry_equiv_pos_site_id
 _symmetry_equiv_pos_as_xyz
  1  'x, y, z'
loop_
 _atom_site_type_symbol
 _atom_site_label
 _atom_site_symmetry_multiplicity
 _atom_site_fract_x
 _atom_site_fract_y
 _atom_site_fract_z
 _atom_site_occupancy
  Eu  Eu0  1  0.000000  0.000000  0.387022  1
  Eu  Eu1  1  0.000000  0.000000  0.887022  1
  Eu  Eu2  1  0.000000  0.000000  0.614261  1
  Eu  Eu3  1  0.000000  0.000000  0.114261  1
  Al  Al4  1  0.333333  0.666667  0.502090  1
  Al  Al5  1  0.666667  0.333333  0.002090  1
  Pd  Pd6  1  0.666667  0.333333  0.497540  1
  Pd  Pd7  1  0.333333  0.666667  0.997540  1
  I  I8  1  0.333333  0.666667  0.249086  1
  I  I9  1  0.666667  0.333333  0.749086  1
