# generated using pymatgen
data_Eu2NbW3F22
_symmetry_space_group_name_H-M   'P 1'
_cell_length_a   8.49003356
_cell_length_b   8.49003229
_cell_length_c   8.45637200
_cell_angle_alpha   124.95381586
_cell_angle_beta   106.58260100
_cell_angle_gamma   98.34247917
_symmetry_Int_Tables_number   1
_chemical_formula_structural   Eu2NbW3F22
_chemical_formula_sum   'Eu2 Nb1 W3 F22'
_cell_volume   440.31374481
_cell_formula_units_Z   1
loop_
 _symmetry_equiv_pos_site_id
 _symmetry_equiv_pos_as_xyz
  1  'x, y, z'
loop_
 _atom_site_type_symbol
 _atom_site_label
 _atom_site_symmetry_multiplicity
 _atom_site_fract_x
 _atom_site_fract_y
 _atom_site_fract_z
 _atom_site_occupancy
  Eu  Eu0  1  0.751531  0.253444  0.506828  1
  Eu  Eu1  1  0.253544  0.755223  0.506926  1
  Nb  Nb2  1  0.678466  0.631157  0.309599  1
  W  W3  1  0.315230  0.359239  0.674466  1
  W  W4  1  0.181950  0.859520  0.041611  1
  W  W5  1  0.822055  0.135674  0.957631  1
  F  F6  1  0.704163  0.879479  0.336268  1
  F  F7  1  0.297209  0.114492  0.669223  1
  F  F8  1  0.554627  0.371750  0.669174  1
  F  F9  1  0.944076  0.609439  0.809899  1
  F  F10  1  0.456826  0.632093  0.336272  1
  F  F11  1  0.053059  0.394269  0.192212  1
  F  F12  1  0.798097  0.139353  0.192254  1
  F  F13  1  0.200655  0.866130  0.810224  1
  F  F14  1  0.503932  0.504162  0.008042  1
  F  F15  1  0.998558  0.997055  0.995793  1
  F  F16  1  0.779171  0.862104  0.641421  1
  F  F17  1  0.214850  0.129657  0.344640  1
  F  F18  1  0.283633  0.628800  0.912394  1
  F  F19  1  0.714896  0.371741  0.086424  1
  F  F20  1  0.936108  0.732845  0.408010  1
  F  F21  1  0.048346  0.263961  0.587867  1
  F  F22  1  0.324108  0.539552  0.587975  1
  F  F23  1  0.181674  0.768662  0.219763  1
  F  F24  1  0.675147  0.471662  0.407778  1
  F  F25  1  0.822996  0.229605  0.783632  1
  F  F26  1  0.554129  0.960980  0.783909  1
  F  F27  1  0.450960  0.037954  0.219769  1
