# generated using pymatgen
data_Y4Re5IrRu2
_symmetry_space_group_name_H-M   'P 1'
_cell_length_a   5.32902651
_cell_length_b   5.32902606
_cell_length_c   9.25890434
_cell_angle_alpha   90.23152314
_cell_angle_beta   89.76847716
_cell_angle_gamma   121.76252750
_symmetry_Int_Tables_number   1
_chemical_formula_structural   Y4Re5IrRu2
_chemical_formula_sum   'Y4 Re5 Ir1 Ru2'
_cell_volume   223.55827659
_cell_formula_units_Z   1
loop_
 _symmetry_equiv_pos_site_id
 _symmetry_equiv_pos_as_xyz
  1  'x, y, z'
loop_
 _atom_site_type_symbol
 _atom_site_label
 _atom_site_symmetry_multiplicity
 _atom_site_fract_x
 _atom_site_fract_y
 _atom_site_fract_z
 _atom_site_occupancy
  Y  Y0  1  0.335956  0.664044  0.435656  1
  Y  Y1  1  0.664918  0.335082  0.563877  1
  Y  Y2  1  0.665401  0.334599  0.936700  1
  Y  Y3  1  0.335270  0.664730  0.063579  1
  Re  Re4  1  0.168123  0.338451  0.749668  1
  Re  Re5  1  0.170002  0.829998  0.750019  1
  Re  Re6  1  0.334088  0.171936  0.250876  1
  Re  Re7  1  0.828064  0.665912  0.250876  1
  Re  Re8  1  0.661549  0.831877  0.749668  1
  Ir  Ir9  1  0.005986  0.994014  0.002066  1
  Ru  Ru10  1  0.823802  0.176198  0.249404  1
  Ru  Ru11  1  0.006842  0.993158  0.497612  1
