# generated using pymatgen
data_EuZr(Ga3Rh)3
_symmetry_space_group_name_H-M   'P 1'
_cell_length_a   7.55203813
_cell_length_b   7.52398411
_cell_length_c   9.49819200
_cell_angle_alpha   90.00000000
_cell_angle_beta   90.00000000
_cell_angle_gamma   119.80974843
_symmetry_Int_Tables_number   1
_chemical_formula_structural   EuZr(Ga3Rh)3
_chemical_formula_sum   'Eu2 Zr2 Ga18 Rh6'
_cell_volume   468.28798797
_cell_formula_units_Z   2
loop_
 _symmetry_equiv_pos_site_id
 _symmetry_equiv_pos_as_xyz
  1  'x, y, z'
loop_
 _atom_site_type_symbol
 _atom_site_label
 _atom_site_symmetry_multiplicity
 _atom_site_fract_x
 _atom_site_fract_y
 _atom_site_fract_z
 _atom_site_occupancy
  Eu  Eu0  1  0.668414  0.996133  0.250000  1
  Eu  Eu1  1  0.331586  0.003867  0.750000  1
  Zr  Zr2  1  0.995935  0.669397  0.250000  1
  Zr  Zr3  1  0.004065  0.330603  0.750000  1
  Ga  Ga4  1  0.125438  0.123614  0.250000  1
  Ga  Ga5  1  0.874562  0.876386  0.750000  1
  Ga  Ga6  1  0.000178  0.338885  0.078697  1
  Ga  Ga7  1  0.999822  0.661115  0.921303  1
  Ga  Ga8  1  0.999822  0.661115  0.578697  1
  Ga  Ga9  1  0.329856  0.997271  0.417916  1
  Ga  Ga10  1  0.000178  0.338885  0.421303  1
  Ga  Ga11  1  0.670144  0.002729  0.582084  1
  Ga  Ga12  1  0.670144  0.002729  0.917916  1
  Ga  Ga13  1  0.329856  0.997271  0.082084  1
  Ga  Ga14  1  0.329990  0.333504  0.567499  1
  Ga  Ga15  1  0.670010  0.666496  0.432501  1
  Ga  Ga16  1  0.670010  0.666496  0.067499  1
  Ga  Ga17  1  0.329990  0.333504  0.932501  1
  Ga  Ga18  1  0.333534  0.545458  0.250000  1
  Ga  Ga19  1  0.666466  0.454542  0.750000  1
  Ga  Ga20  1  0.552917  0.342070  0.250000  1
  Ga  Ga21  1  0.447083  0.657930  0.750000  1
  Rh  Rh22  1  0.672621  0.330519  0.999354  1
  Rh  Rh23  1  0.327379  0.669481  0.000646  1
  Rh  Rh24  1  0.327379  0.669481  0.499354  1
  Rh  Rh25  1  0.672621  0.330519  0.500646  1
  Rh  Rh26  1  0.000000  0.000000  0.000000  1
  Rh  Rh27  1  0.000000  0.000000  0.500000  1
