# generated using pymatgen
data_YScReB6
_symmetry_space_group_name_H-M   'P 1'
_cell_length_a   3.58783000
_cell_length_b   9.01873600
_cell_length_c   11.39964200
_cell_angle_alpha   90.00000000
_cell_angle_beta   90.00000000
_cell_angle_gamma   90.00000000
_symmetry_Int_Tables_number   1
_chemical_formula_structural   YScReB6
_chemical_formula_sum   'Y4 Sc4 Re4 B24'
_cell_volume   368.86609999
_cell_formula_units_Z   4
loop_
 _symmetry_equiv_pos_site_id
 _symmetry_equiv_pos_as_xyz
  1  'x, y, z'
loop_
 _atom_site_type_symbol
 _atom_site_label
 _atom_site_symmetry_multiplicity
 _atom_site_fract_x
 _atom_site_fract_y
 _atom_site_fract_z
 _atom_site_occupancy
  Y  Y0  1  0.000000  0.321619  0.413861  1
  Y  Y1  1  0.000000  0.678381  0.586139  1
  Y  Y2  1  0.000000  0.821619  0.086139  1
  Y  Y3  1  0.000000  0.178381  0.913861  1
  Sc  Sc4  1  0.000000  0.944322  0.370444  1
  Sc  Sc5  1  0.000000  0.055678  0.629556  1
  Sc  Sc6  1  0.000000  0.444322  0.129556  1
  Sc  Sc7  1  0.000000  0.555678  0.870444  1
  Re  Re8  1  0.000000  0.640930  0.318649  1
  Re  Re9  1  0.000000  0.359070  0.681351  1
  Re  Re10  1  0.000000  0.140930  0.181351  1
  Re  Re11  1  0.000000  0.859070  0.818649  1
  B  B12  1  0.500000  0.554359  0.432499  1
  B  B13  1  0.500000  0.445641  0.567501  1
  B  B14  1  0.500000  0.054359  0.067501  1
  B  B15  1  0.500000  0.945641  0.932499  1
  B  B16  1  0.500000  0.754749  0.418402  1
  B  B17  1  0.500000  0.245251  0.581598  1
  B  B18  1  0.500000  0.254749  0.081598  1
  B  B19  1  0.500000  0.745251  0.918402  1
  B  B20  1  0.500000  0.795425  0.265145  1
  B  B21  1  0.500000  0.204575  0.734855  1
  B  B22  1  0.500000  0.295425  0.234855  1
  B  B23  1  0.500000  0.704575  0.765145  1
  B  B24  1  0.500000  0.629088  0.183288  1
  B  B25  1  0.500000  0.370912  0.816712  1
  B  B26  1  0.500000  0.129088  0.316712  1
  B  B27  1  0.500000  0.870912  0.683288  1
  B  B28  1  0.500000  0.981460  0.213792  1
  B  B29  1  0.500000  0.018540  0.786208  1
  B  B30  1  0.500000  0.481460  0.286208  1
  B  B31  1  0.500000  0.518540  0.713792  1
  B  B32  1  0.500000  0.595415  0.026060  1
  B  B33  1  0.500000  0.404585  0.973940  1
  B  B34  1  0.500000  0.095415  0.473940  1
  B  B35  1  0.500000  0.904585  0.526060  1
