# generated using pymatgen
data_La2Tb4Zn4Pt13
_symmetry_space_group_name_H-M   'P 1'
_cell_length_a   8.34162664
_cell_length_b   8.34162810
_cell_length_c   8.34194917
_cell_angle_alpha   109.55225952
_cell_angle_beta   109.55226136
_cell_angle_gamma   109.30770514
_symmetry_Int_Tables_number   1
_chemical_formula_structural   La2Tb4Zn4Pt13
_chemical_formula_sum   'La2 Tb4 Zn4 Pt13'
_cell_volume   446.84092103
_cell_formula_units_Z   1
loop_
 _symmetry_equiv_pos_site_id
 _symmetry_equiv_pos_as_xyz
  1  'x, y, z'
loop_
 _atom_site_type_symbol
 _atom_site_label
 _atom_site_symmetry_multiplicity
 _atom_site_fract_x
 _atom_site_fract_y
 _atom_site_fract_z
 _atom_site_occupancy
  La  La0  1  0.701718  0.000588  0.702305  1
  La  La1  1  0.000588  0.701718  0.702305  1
  Tb  Tb2  1  0.696714  0.696714  0.001653  1
  Tb  Tb3  1  0.303562  0.000522  0.304084  1
  Tb  Tb4  1  0.000522  0.303562  0.304084  1
  Tb  Tb5  1  0.304939  0.304939  0.001653  1
  Zn  Zn6  1  0.999703  0.999703  0.494756  1
  Zn  Zn7  1  0.999723  0.499723  0.999447  1
  Zn  Zn8  1  0.499723  0.999723  0.999447  1
  Zn  Zn9  1  0.495053  0.495053  0.494756  1
  Pt  Pt10  1  0.330491  0.330491  0.660983  1
  Pt  Pt11  1  0.671300  0.000484  0.326795  1
  Pt  Pt12  1  0.000484  0.671300  0.326795  1
  Pt  Pt13  1  0.668440  0.333108  0.001548  1
  Pt  Pt14  1  0.326311  0.655496  0.326795  1
  Pt  Pt15  1  0.001116  0.329070  0.669658  1
  Pt  Pt16  1  0.333108  0.668440  0.001548  1
  Pt  Pt17  1  0.329070  0.001116  0.669658  1
  Pt  Pt18  1  0.655496  0.326311  0.326795  1
  Pt  Pt19  1  0.666001  0.666001  0.332001  1
  Pt  Pt20  1  0.668542  0.340587  0.669658  1
  Pt  Pt21  1  0.340587  0.668542  0.669658  1
  Pt  Pt22  1  0.006809  0.006809  0.013618  1
