# generated using pymatgen
data_Cs2MnNbS4
_symmetry_space_group_name_H-M   'P 1'
_cell_length_a   14.70560194
_cell_length_b   13.05537169
_cell_length_c   7.86243032
_cell_angle_alpha   85.52837870
_cell_angle_beta   62.26135224
_cell_angle_gamma   32.21027264
_symmetry_Int_Tables_number   1
_chemical_formula_structural   Cs2MnNbS4
_chemical_formula_sum   'Cs4 Mn2 Nb2 S8'
_cell_volume   528.99474968
_cell_formula_units_Z   2
loop_
 _symmetry_equiv_pos_site_id
 _symmetry_equiv_pos_as_xyz
  1  'x, y, z'
loop_
 _atom_site_type_symbol
 _atom_site_label
 _atom_site_symmetry_multiplicity
 _atom_site_fract_x
 _atom_site_fract_y
 _atom_site_fract_z
 _atom_site_occupancy
  Cs  Cs0  1  0.573215  0.573215  0.926785  1
  Cs  Cs1  1  0.926785  0.926785  0.573215  1
  Cs  Cs2  1  0.676785  0.676785  0.323215  1
  Cs  Cs3  1  0.323215  0.323215  0.676785  1
  Mn  Mn4  1  0.250000  0.250000  0.250000  1
  Mn  Mn5  1  0.000000  0.000000  0.000000  1
  Nb  Nb6  1  0.500000  0.500000  0.500000  1
  Nb  Nb7  1  0.750000  0.750000  0.750000  1
  S  S8  1  0.215106  0.888213  0.600736  1
  S  S9  1  0.295944  0.600736  0.888213  1
  S  S10  1  0.600736  0.295944  0.215106  1
  S  S11  1  0.888213  0.215106  0.295944  1
  S  S12  1  0.649264  0.954056  0.034894  1
  S  S13  1  0.361787  0.034894  0.954056  1
  S  S14  1  0.954056  0.649264  0.361787  1
  S  S15  1  0.034894  0.361787  0.649264  1
