# generated using pymatgen
data_Pr2ThZrBi5
_symmetry_space_group_name_H-M   'P 1'
_cell_length_a   9.80149000
_cell_length_b   9.73400922
_cell_length_c   6.57040000
_cell_angle_alpha   90.00000000
_cell_angle_beta   90.00000000
_cell_angle_gamma   120.22959065
_symmetry_Int_Tables_number   1
_chemical_formula_structural   Pr2ThZrBi5
_chemical_formula_sum   'Pr4 Th2 Zr2 Bi10'
_cell_volume   541.62274773
_cell_formula_units_Z   2
loop_
 _symmetry_equiv_pos_site_id
 _symmetry_equiv_pos_as_xyz
  1  'x, y, z'
loop_
 _atom_site_type_symbol
 _atom_site_label
 _atom_site_symmetry_multiplicity
 _atom_site_fract_x
 _atom_site_fract_y
 _atom_site_fract_z
 _atom_site_occupancy
  Pr  Pr0  1  0.999609  0.617920  0.750000  1
  Pr  Pr1  1  0.000391  0.382080  0.250000  1
  Pr  Pr2  1  0.381689  0.382080  0.750000  1
  Pr  Pr3  1  0.618311  0.617920  0.250000  1
  Th  Th4  1  0.619276  0.000000  0.750000  1
  Th  Th5  1  0.380724  0.000000  0.250000  1
  Zr  Zr6  1  0.000000  0.000000  0.500000  1
  Zr  Zr7  1  0.000000  0.000000  0.000000  1
  Bi  Bi8  1  0.270120  0.000000  0.750000  1
  Bi  Bi9  1  0.729880  0.000000  0.250000  1
  Bi  Bi10  1  0.000064  0.265446  0.750000  1
  Bi  Bi11  1  0.999936  0.734554  0.250000  1
  Bi  Bi12  1  0.734618  0.734554  0.750000  1
  Bi  Bi13  1  0.265382  0.265446  0.250000  1
  Bi  Bi14  1  0.334757  0.669514  0.500000  1
  Bi  Bi15  1  0.665243  0.330486  0.500000  1
  Bi  Bi16  1  0.665243  0.330486  0.000000  1
  Bi  Bi17  1  0.334757  0.669514  0.000000  1
