# generated using pymatgen
data_Y7TmV4O20
_symmetry_space_group_name_H-M   'P 1'
_cell_length_a   3.73307900
_cell_length_b   10.38466315
_cell_length_c   11.27292269
_cell_angle_alpha   90.12473962
_cell_angle_beta   90.00000000
_cell_angle_gamma   90.00000000
_symmetry_Int_Tables_number   1
_chemical_formula_structural   Y7TmV4O20
_chemical_formula_sum   'Y7 Tm1 V4 O20'
_cell_volume   437.01374178
_cell_formula_units_Z   1
loop_
 _symmetry_equiv_pos_site_id
 _symmetry_equiv_pos_as_xyz
  1  'x, y, z'
loop_
 _atom_site_type_symbol
 _atom_site_label
 _atom_site_symmetry_multiplicity
 _atom_site_fract_x
 _atom_site_fract_y
 _atom_site_fract_z
 _atom_site_occupancy
  Y  Y0  1  0.250000  0.120200  0.773069  1
  Y  Y1  1  0.250000  0.135827  0.442769  1
  Y  Y2  1  0.750000  0.362566  0.944936  1
  Y  Y3  1  0.750000  0.379768  0.273113  1
  Y  Y4  1  0.250000  0.619994  0.727022  1
  Y  Y5  1  0.250000  0.638054  0.056692  1
  Y  Y6  1  0.750000  0.862746  0.555074  1
  Tm  Tm7  1  0.750000  0.878303  0.227719  1
  V  V8  1  0.250000  0.167657  0.117709  1
  V  V9  1  0.750000  0.330303  0.616824  1
  V  V10  1  0.250000  0.670409  0.381624  1
  V  V11  1  0.750000  0.831088  0.884018  1
  O  O12  1  0.250000  0.994574  0.604644  1
  O  O13  1  0.250000  0.005146  0.155781  1
  O  O14  1  0.750000  0.231531  0.114891  1
  O  O15  1  0.750000  0.243725  0.767551  1
  O  O16  1  0.250000  0.225014  0.956647  1
  O  O17  1  0.750000  0.272927  0.455934  1
  O  O18  1  0.250000  0.256487  0.267547  1
  O  O19  1  0.250000  0.267292  0.614245  1
  O  O20  1  0.750000  0.493510  0.652710  1
  O  O21  1  0.750000  0.505961  0.105851  1
  O  O22  1  0.250000  0.494930  0.894950  1
  O  O23  1  0.250000  0.507392  0.345416  1
  O  O24  1  0.750000  0.733396  0.383047  1
  O  O25  1  0.750000  0.743987  0.732800  1
  O  O26  1  0.250000  0.725719  0.543007  1
  O  O27  1  0.750000  0.776385  0.046016  1
  O  O28  1  0.250000  0.760495  0.232860  1
  O  O29  1  0.250000  0.767699  0.886451  1
  O  O30  1  0.750000  0.993634  0.847086  1
  O  O31  1  0.750000  0.003283  0.392001  1
