# generated using pymatgen
data_Cs2Pd(WO4)3
_symmetry_space_group_name_H-M   'P 1'
_cell_length_a   7.42009529
_cell_length_b   7.41983355
_cell_length_c   7.35483480
_cell_angle_alpha   89.99999713
_cell_angle_beta   59.70393056
_cell_angle_gamma   119.99883367
_symmetry_Int_Tables_number   1
_chemical_formula_structural   Cs2Pd(WO4)3
_chemical_formula_sum   'Cs2 Pd1 W3 O12'
_cell_volume   285.04354636
_cell_formula_units_Z   1
loop_
 _symmetry_equiv_pos_site_id
 _symmetry_equiv_pos_as_xyz
  1  'x, y, z'
loop_
 _atom_site_type_symbol
 _atom_site_label
 _atom_site_symmetry_multiplicity
 _atom_site_fract_x
 _atom_site_fract_y
 _atom_site_fract_z
 _atom_site_occupancy
  Cs  Cs0  1  0.255214  0.131548  0.117086  1
  Cs  Cs1  1  0.744786  0.876334  0.882914  1
  Pd  Pd2  1  0.000000  0.503727  0.000000  1
  W  W3  1  0.500039  0.003838  0.500041  1
  W  W4  1  0.499961  0.503799  0.499959  1
  W  W5  1  0.000000  0.503867  0.500000  1
  O  O6  1  0.621645  0.814582  0.437054  1
  O  O7  1  0.869074  0.438260  0.808809  1
  O  O8  1  0.256658  0.825819  0.808806  1
  O  O9  1  0.252111  0.445063  0.437050  1
  O  O10  1  0.256657  0.438241  0.808801  1
  O  O11  1  0.252104  0.814604  0.437095  1
  O  O12  1  0.378355  0.192937  0.562946  1
  O  O13  1  0.130926  0.569185  0.191191  1
  O  O14  1  0.743343  0.181584  0.191199  1
  O  O15  1  0.747896  0.562501  0.562905  1
  O  O16  1  0.743342  0.569161  0.191194  1
  O  O17  1  0.747889  0.192951  0.562950  1
