# generated using pymatgen
data_Tm2Lu3GaSb2
_symmetry_space_group_name_H-M   'P 1'
_cell_length_a   8.67349500
_cell_length_b   8.68437429
_cell_length_c   6.28351900
_cell_angle_alpha   90.00000000
_cell_angle_beta   90.00000000
_cell_angle_gamma   119.95856442
_symmetry_Int_Tables_number   1
_chemical_formula_structural   Tm2Lu3GaSb2
_chemical_formula_sum   'Tm4 Lu6 Ga2 Sb4'
_cell_volume   410.06000291
_cell_formula_units_Z   2
loop_
 _symmetry_equiv_pos_site_id
 _symmetry_equiv_pos_as_xyz
  1  'x, y, z'
loop_
 _atom_site_type_symbol
 _atom_site_label
 _atom_site_symmetry_multiplicity
 _atom_site_fract_x
 _atom_site_fract_y
 _atom_site_fract_z
 _atom_site_occupancy
  Tm  Tm0  1  0.986162  0.231299  0.250000  1
  Tm  Tm1  1  0.754865  0.768701  0.250000  1
  Tm  Tm2  1  0.245135  0.231299  0.750000  1
  Tm  Tm3  1  0.013838  0.768701  0.750000  1
  Lu  Lu4  1  0.342908  0.685818  0.000000  1
  Lu  Lu5  1  0.657092  0.314182  0.500000  1
  Lu  Lu6  1  0.657092  0.314182  0.000000  1
  Lu  Lu7  1  0.342908  0.685818  0.500000  1
  Lu  Lu8  1  0.245097  0.000000  0.250000  1
  Lu  Lu9  1  0.754903  0.000000  0.750000  1
  Ga  Ga10  1  0.602769  0.000000  0.250000  1
  Ga  Ga11  1  0.397231  0.000000  0.750000  1
  Sb  Sb12  1  0.993838  0.605646  0.250000  1
  Sb  Sb13  1  0.388192  0.394354  0.250000  1
  Sb  Sb14  1  0.611808  0.605646  0.750000  1
  Sb  Sb15  1  0.006162  0.394354  0.750000  1
