# generated using pymatgen
data_Y3Tm2(In2Ni)2
_symmetry_space_group_name_H-M   'P 1'
_cell_length_a   3.60204500
_cell_length_b   7.99596400
_cell_length_c   17.86443400
_cell_angle_alpha   90.00000000
_cell_angle_beta   90.00000000
_cell_angle_gamma   90.00000000
_symmetry_Int_Tables_number   1
_chemical_formula_structural   Y3Tm2(In2Ni)2
_chemical_formula_sum   'Y6 Tm4 In8 Ni4'
_cell_volume   514.52825081
_cell_formula_units_Z   2
loop_
 _symmetry_equiv_pos_site_id
 _symmetry_equiv_pos_as_xyz
  1  'x, y, z'
loop_
 _atom_site_type_symbol
 _atom_site_label
 _atom_site_symmetry_multiplicity
 _atom_site_fract_x
 _atom_site_fract_y
 _atom_site_fract_z
 _atom_site_occupancy
  Y  Y0  1  0.000000  0.500000  0.500000  1
  Y  Y1  1  0.000000  0.000000  0.000000  1
  Y  Y2  1  0.000000  0.745211  0.279432  1
  Y  Y3  1  0.000000  0.254789  0.720568  1
  Y  Y4  1  0.000000  0.754789  0.779432  1
  Y  Y5  1  0.000000  0.245211  0.220568  1
  Tm  Tm6  1  0.000000  0.617008  0.088801  1
  Tm  Tm7  1  0.000000  0.382992  0.911199  1
  Tm  Tm8  1  0.000000  0.882992  0.588801  1
  Tm  Tm9  1  0.000000  0.117008  0.411199  1
  In  In10  1  0.500000  0.702018  0.932429  1
  In  In11  1  0.500000  0.297982  0.067571  1
  In  In12  1  0.500000  0.797982  0.432429  1
  In  In13  1  0.500000  0.202018  0.567571  1
  In  In14  1  0.500000  0.575027  0.652201  1
  In  In15  1  0.500000  0.424973  0.347799  1
  In  In16  1  0.500000  0.924973  0.152201  1
  In  In17  1  0.500000  0.075027  0.847799  1
  Ni  Ni18  1  0.500000  0.525415  0.194218  1
  Ni  Ni19  1  0.500000  0.474585  0.805782  1
  Ni  Ni20  1  0.500000  0.974585  0.694218  1
  Ni  Ni21  1  0.500000  0.025415  0.305782  1
