# generated using pymatgen
data_Dy5HoEr10(Ga3Co)2
_symmetry_space_group_name_H-M   'P 1'
_cell_length_a   9.94770600
_cell_length_b   9.95421748
_cell_length_c   6.95331900
_cell_angle_alpha   90.00698032
_cell_angle_beta   90.00000000
_cell_angle_gamma   119.97836349
_symmetry_Int_Tables_number   1
_chemical_formula_structural   Dy5HoEr10(Ga3Co)2
_chemical_formula_sum   'Dy5 Ho1 Er10 Ga6 Co2'
_cell_volume   596.41353825
_cell_formula_units_Z   1
loop_
 _symmetry_equiv_pos_site_id
 _symmetry_equiv_pos_as_xyz
  1  'x, y, z'
loop_
 _atom_site_type_symbol
 _atom_site_label
 _atom_site_symmetry_multiplicity
 _atom_site_fract_x
 _atom_site_fract_y
 _atom_site_fract_z
 _atom_site_occupancy
  Dy  Dy0  1  0.536377  0.463605  0.708317  1
  Dy  Dy1  1  0.927229  0.463605  0.708317  1
  Dy  Dy2  1  0.536494  0.072988  0.708624  1
  Dy  Dy3  1  0.999977  0.999955  0.231965  1
  Dy  Dy4  1  0.999998  0.999997  0.731737  1
  Ho  Ho5  1  0.462970  0.925941  0.208114  1
  Er  Er6  1  0.173290  0.826026  0.511467  1
  Er  Er7  1  0.652736  0.826026  0.511467  1
  Er  Er8  1  0.173520  0.347041  0.510722  1
  Er  Er9  1  0.827146  0.173835  0.013416  1
  Er  Er10  1  0.346689  0.173835  0.013416  1
  Er  Er11  1  0.826588  0.653177  0.013566  1
  Er  Er12  1  0.333166  0.666331  0.827242  1
  Er  Er13  1  0.666864  0.333727  0.327191  1
  Er  Er14  1  0.462692  0.537416  0.207680  1
  Er  Er15  1  0.074723  0.537416  0.207680  1
  Ga  Ga16  1  0.163866  0.836383  0.957144  1
  Ga  Ga17  1  0.672517  0.836383  0.957144  1
  Ga  Ga18  1  0.164132  0.328265  0.957385  1
  Ga  Ga19  1  0.836062  0.163016  0.457026  1
  Ga  Ga20  1  0.326955  0.163016  0.457026  1
  Ga  Ga21  1  0.836325  0.672650  0.456483  1
  Co  Co22  1  0.332977  0.665956  0.445116  1
  Co  Co23  1  0.666706  0.333409  0.946592  1
