# generated using pymatgen
data_Tb2Al9Os2Au
_symmetry_space_group_name_H-M   'P 1'
_cell_length_a   7.62258253
_cell_length_b   7.62258227
_cell_length_c   9.55715600
_cell_angle_alpha   90.00000000
_cell_angle_beta   90.00000000
_cell_angle_gamma   119.27273998
_symmetry_Int_Tables_number   1
_chemical_formula_structural   Tb2Al9Os2Au
_chemical_formula_sum   'Tb4 Al18 Os4 Au2'
_cell_volume   484.39517007
_cell_formula_units_Z   2
loop_
 _symmetry_equiv_pos_site_id
 _symmetry_equiv_pos_as_xyz
  1  'x, y, z'
loop_
 _atom_site_type_symbol
 _atom_site_label
 _atom_site_symmetry_multiplicity
 _atom_site_fract_x
 _atom_site_fract_y
 _atom_site_fract_z
 _atom_site_occupancy
  Tb  Tb0  1  0.997858  0.675496  0.250000  1
  Tb  Tb1  1  0.002142  0.324504  0.750000  1
  Tb  Tb2  1  0.675496  0.997858  0.250000  1
  Tb  Tb3  1  0.324504  0.002142  0.750000  1
  Al  Al4  1  0.143000  0.143000  0.250000  1
  Al  Al5  1  0.857000  0.857000  0.750000  1
  Al  Al6  1  0.003626  0.347058  0.075242  1
  Al  Al7  1  0.996374  0.652942  0.924758  1
  Al  Al8  1  0.996374  0.652942  0.575242  1
  Al  Al9  1  0.347058  0.003626  0.424758  1
  Al  Al10  1  0.003626  0.347058  0.424758  1
  Al  Al11  1  0.652942  0.996374  0.575242  1
  Al  Al12  1  0.652942  0.996374  0.924758  1
  Al  Al13  1  0.347058  0.003626  0.075242  1
  Al  Al14  1  0.344383  0.344383  0.552931  1
  Al  Al15  1  0.655617  0.655617  0.447069  1
  Al  Al16  1  0.655617  0.655617  0.052931  1
  Al  Al17  1  0.344383  0.344383  0.947069  1
  Al  Al18  1  0.336861  0.553729  0.250000  1
  Al  Al19  1  0.663139  0.446271  0.750000  1
  Al  Al20  1  0.553729  0.336861  0.250000  1
  Al  Al21  1  0.446271  0.663139  0.750000  1
  Os  Os22  1  0.672496  0.327504  0.000000  1
  Os  Os23  1  0.327504  0.672496  0.000000  1
  Os  Os24  1  0.327504  0.672496  0.500000  1
  Os  Os25  1  0.672496  0.327504  0.500000  1
  Au  Au26  1  0.000000  0.000000  0.000000  1
  Au  Au27  1  0.000000  0.000000  0.500000  1
