# generated using pymatgen
data_Mg4B12IrOs
_symmetry_space_group_name_H-M   'P 1'
_cell_length_a   8.87151800
_cell_length_b   11.07299900
_cell_length_c   3.48424900
_cell_angle_alpha   90.00000000
_cell_angle_beta   90.00000000
_cell_angle_gamma   90.00000000
_symmetry_Int_Tables_number   1
_chemical_formula_structural   Mg4B12IrOs
_chemical_formula_sum   'Mg8 B24 Ir2 Os2'
_cell_volume   342.27279618
_cell_formula_units_Z   2
loop_
 _symmetry_equiv_pos_site_id
 _symmetry_equiv_pos_as_xyz
  1  'x, y, z'
loop_
 _atom_site_type_symbol
 _atom_site_label
 _atom_site_symmetry_multiplicity
 _atom_site_fract_x
 _atom_site_fract_y
 _atom_site_fract_z
 _atom_site_occupancy
  Mg  Mg0  1  0.826284  0.089866  0.000000  1
  Mg  Mg1  1  0.445152  0.128434  0.000000  1
  Mg  Mg2  1  0.945152  0.371566  0.000000  1
  Mg  Mg3  1  0.326284  0.410134  0.000000  1
  Mg  Mg4  1  0.674463  0.583302  0.000000  1
  Mg  Mg5  1  0.055128  0.626101  0.000000  1
  Mg  Mg6  1  0.555129  0.873899  0.000000  1
  Mg  Mg7  1  0.174464  0.916698  0.000000  1
  B  B8  1  0.593368  0.025551  0.500001  1
  B  B9  1  0.054093  0.064334  0.500001  1
  B  B10  1  0.257476  0.080039  0.500001  1
  B  B11  1  0.630633  0.181135  0.500001  1
  B  B12  1  0.979281  0.212360  0.500001  1
  B  B13  1  0.296275  0.239065  0.500001  1
  B  B14  1  0.796275  0.260935  0.500001  1
  B  B15  1  0.479280  0.287640  0.500001  1
  B  B16  1  0.130633  0.318865  0.500001  1
  B  B17  1  0.757476  0.419961  0.500001  1
  B  B18  1  0.554092  0.435666  0.500001  1
  B  B19  1  0.093367  0.474449  0.500001  1
  B  B20  1  0.908332  0.524732  0.500001  1
  B  B21  1  0.444188  0.564113  0.500001  1
  B  B22  1  0.244633  0.579305  0.500001  1
  B  B23  1  0.868566  0.680120  0.500001  1
  B  B24  1  0.519482  0.711190  0.500001  1
  B  B25  1  0.204036  0.739262  0.500001  1
  B  B26  1  0.704037  0.760738  0.500001  1
  B  B27  1  0.019483  0.788810  0.500001  1
  B  B28  1  0.368567  0.819880  0.500001  1
  B  B29  1  0.744633  0.920695  0.500001  1
  B  B30  1  0.944189  0.935887  0.500001  1
  B  B31  1  0.408333  0.975268  0.500001  1
  Ir  Ir32  1  0.358422  0.681697  0.000000  1
  Ir  Ir33  1  0.858423  0.818303  0.000000  1
  Os  Os34  1  0.140190  0.176566  0.000000  1
  Os  Os35  1  0.640189  0.323434  0.000000  1
