# generated using pymatgen
data_Ho2Tm(CdGa)3
_symmetry_space_group_name_H-M   'P 1'
_cell_length_a   7.23202353
_cell_length_b   7.24642718
_cell_length_c   4.40030000
_cell_angle_alpha   90.00000000
_cell_angle_beta   90.00000000
_cell_angle_gamma   120.06591461
_symmetry_Int_Tables_number   1
_chemical_formula_structural   Ho2Tm(CdGa)3
_chemical_formula_sum   'Ho2 Tm1 Cd3 Ga3'
_cell_volume   199.57578203
_cell_formula_units_Z   1
loop_
 _symmetry_equiv_pos_site_id
 _symmetry_equiv_pos_as_xyz
  1  'x, y, z'
loop_
 _atom_site_type_symbol
 _atom_site_label
 _atom_site_symmetry_multiplicity
 _atom_site_fract_x
 _atom_site_fract_y
 _atom_site_fract_z
 _atom_site_occupancy
  Ho  Ho0  1  0.424672  0.424943  0.500000  1
  Ho  Ho1  1  0.575328  0.000271  0.500000  1
  Tm  Tm2  1  0.000000  0.575428  0.500000  1
  Cd  Cd3  1  0.751018  0.750759  0.000000  1
  Cd  Cd4  1  0.248982  0.999741  0.000000  1
  Cd  Cd5  1  0.000000  0.249620  0.000000  1
  Ga  Ga6  1  0.667624  0.333803  0.000000  1
  Ga  Ga7  1  0.332376  0.666180  0.000000  1
  Ga  Ga8  1  0.000000  0.999257  0.500000  1
