# generated using pymatgen
data_DyFeP3(IrRu)2
_symmetry_space_group_name_H-M   'P 1'
_cell_length_a   3.88960400
_cell_length_b   10.74325300
_cell_length_c   12.27736200
_cell_angle_alpha   90.00000000
_cell_angle_beta   90.00000000
_cell_angle_gamma   90.00000000
_symmetry_Int_Tables_number   1
_chemical_formula_structural   DyFeP3(IrRu)2
_chemical_formula_sum   'Dy4 Fe4 P12 Ir8 Ru8'
_cell_volume   513.03412395
_cell_formula_units_Z   4
loop_
 _symmetry_equiv_pos_site_id
 _symmetry_equiv_pos_as_xyz
  1  'x, y, z'
loop_
 _atom_site_type_symbol
 _atom_site_label
 _atom_site_symmetry_multiplicity
 _atom_site_fract_x
 _atom_site_fract_y
 _atom_site_fract_z
 _atom_site_occupancy
  Dy  Dy0  1  0.250000  0.582539  0.706730  1
  Dy  Dy1  1  0.250000  0.917461  0.206730  1
  Dy  Dy2  1  0.750000  0.417461  0.293270  1
  Dy  Dy3  1  0.750000  0.082539  0.793270  1
  Fe  Fe4  1  0.250000  0.459484  0.935476  1
  Fe  Fe5  1  0.250000  0.040516  0.435476  1
  Fe  Fe6  1  0.750000  0.540516  0.064524  1
  Fe  Fe7  1  0.750000  0.959484  0.564524  1
  P  P8  1  0.250000  0.429891  0.107937  1
  P  P9  1  0.250000  0.070109  0.607937  1
  P  P10  1  0.750000  0.570109  0.892063  1
  P  P11  1  0.750000  0.929891  0.392063  1
  P  P12  1  0.250000  0.267761  0.873329  1
  P  P13  1  0.250000  0.232239  0.373329  1
  P  P14  1  0.750000  0.732239  0.126671  1
  P  P15  1  0.750000  0.767761  0.626671  1
  P  P16  1  0.250000  0.596231  0.396022  1
  P  P17  1  0.250000  0.903769  0.896022  1
  P  P18  1  0.750000  0.403769  0.603978  1
  P  P19  1  0.750000  0.096231  0.103978  1
  Ir  Ir20  1  0.250000  0.236340  0.180079  1
  Ir  Ir21  1  0.250000  0.263660  0.680079  1
  Ir  Ir22  1  0.750000  0.763660  0.819921  1
  Ir  Ir23  1  0.750000  0.736340  0.319921  1
  Ir  Ir24  1  0.250000  0.886410  0.703916  1
  Ir  Ir25  1  0.250000  0.613590  0.203916  1
  Ir  Ir26  1  0.750000  0.113590  0.296084  1
  Ir  Ir27  1  0.750000  0.386410  0.796084  1
  Ru  Ru28  1  0.250000  0.707565  0.984254  1
  Ru  Ru29  1  0.250000  0.792435  0.484254  1
  Ru  Ru30  1  0.750000  0.292435  0.015746  1
  Ru  Ru31  1  0.750000  0.207565  0.515746  1
  Ru  Ru32  1  0.250000  0.403428  0.488597  1
  Ru  Ru33  1  0.250000  0.096572  0.988597  1
  Ru  Ru34  1  0.750000  0.596572  0.511403  1
  Ru  Ru35  1  0.750000  0.903428  0.011403  1
