# generated using pymatgen
data_Lu4Ga20OsRu5
_symmetry_space_group_name_H-M   'P 1'
_cell_length_a   8.89798500
_cell_length_b   8.89798500
_cell_length_c   6.35646700
_cell_angle_alpha   90.00000000
_cell_angle_beta   90.00000000
_cell_angle_gamma   90.00000000
_symmetry_Int_Tables_number   1
_chemical_formula_structural   Lu4Ga20OsRu5
_chemical_formula_sum   'Lu4 Ga20 Os1 Ru5'
_cell_volume   503.26778948
_cell_formula_units_Z   1
loop_
 _symmetry_equiv_pos_site_id
 _symmetry_equiv_pos_as_xyz
  1  'x, y, z'
loop_
 _atom_site_type_symbol
 _atom_site_label
 _atom_site_symmetry_multiplicity
 _atom_site_fract_x
 _atom_site_fract_y
 _atom_site_fract_z
 _atom_site_occupancy
  Lu  Lu0  1  0.682615  0.183686  0.000000  1
  Lu  Lu1  1  0.317385  0.816314  0.000000  1
  Lu  Lu2  1  0.816314  0.682615  0.000000  1
  Lu  Lu3  1  0.183686  0.317385  0.000000  1
  Ga  Ga4  1  0.938571  0.206876  0.291868  1
  Ga  Ga5  1  0.707215  0.438480  0.292711  1
  Ga  Ga6  1  0.500000  0.000000  0.284057  1
  Ga  Ga7  1  0.561520  0.707215  0.707289  1
  Ga  Ga8  1  0.292785  0.561520  0.707289  1
  Ga  Ga9  1  0.793124  0.938571  0.291868  1
  Ga  Ga10  1  0.938571  0.206876  0.708132  1
  Ga  Ga11  1  0.292785  0.561520  0.292711  1
  Ga  Ga12  1  0.061429  0.793124  0.291868  1
  Ga  Ga13  1  0.707215  0.438480  0.707289  1
  Ga  Ga14  1  0.438480  0.292785  0.707289  1
  Ga  Ga15  1  0.061429  0.793124  0.708132  1
  Ga  Ga16  1  0.206876  0.061429  0.708132  1
  Ga  Ga17  1  0.793124  0.938571  0.708132  1
  Ga  Ga18  1  0.206876  0.061429  0.291868  1
  Ga  Ga19  1  0.000000  0.500000  0.715943  1
  Ga  Ga20  1  0.000000  0.500000  0.284057  1
  Ga  Ga21  1  0.561520  0.707215  0.292711  1
  Ga  Ga22  1  0.438480  0.292785  0.292711  1
  Ga  Ga23  1  0.500000  0.000000  0.715943  1
  Os  Os24  1  0.500000  0.500000  0.000000  1
  Ru  Ru25  1  0.677983  0.178107  0.500000  1
  Ru  Ru26  1  0.821893  0.677983  0.500000  1
  Ru  Ru27  1  0.178107  0.322017  0.500000  1
  Ru  Ru28  1  0.000000  0.000000  0.000000  1
  Ru  Ru29  1  0.322017  0.821893  0.500000  1
