# generated using pymatgen
data_Tb12InCo6
_symmetry_space_group_name_H-M   'P 1'
_cell_length_a   8.40004838
_cell_length_b   8.39827433
_cell_length_c   8.39827487
_cell_angle_alpha   109.43911080
_cell_angle_beta   109.53758325
_cell_angle_gamma   109.42844026
_symmetry_Int_Tables_number   1
_chemical_formula_structural   Tb12InCo6
_chemical_formula_sum   'Tb12 In1 Co6'
_cell_volume   456.12657494
_cell_formula_units_Z   1
loop_
 _symmetry_equiv_pos_site_id
 _symmetry_equiv_pos_as_xyz
  1  'x, y, z'
loop_
 _atom_site_type_symbol
 _atom_site_label
 _atom_site_symmetry_multiplicity
 _atom_site_fract_x
 _atom_site_fract_y
 _atom_site_fract_z
 _atom_site_occupancy
  Tb  Tb0  1  0.807016  0.696159  0.503802  1
  Tb  Tb1  1  0.193368  0.303283  0.495903  1
  Tb  Tb2  1  0.193368  0.697464  0.890085  1
  Tb  Tb3  1  0.807016  0.303214  0.110856  1
  Tb  Tb4  1  0.696439  0.503600  0.807171  1
  Tb  Tb5  1  0.303933  0.496687  0.193151  1
  Tb  Tb6  1  0.696439  0.889268  0.192840  1
  Tb  Tb7  1  0.303933  0.110783  0.807246  1
  Tb  Tb8  1  0.503814  0.807057  0.696758  1
  Tb  Tb9  1  0.495796  0.192702  0.303095  1
  Tb  Tb10  1  0.109686  0.806884  0.302802  1
  Tb  Tb11  1  0.890064  0.192804  0.697260  1
  In  In12  1  0.000019  0.999746  0.000273  1
  Co  Co13  1  0.887480  0.387152  0.500328  1
  Co  Co14  1  0.113525  0.613299  0.500225  1
  Co  Co15  1  0.387574  0.500726  0.886847  1
  Co  Co16  1  0.613083  0.499906  0.113178  1
  Co  Co17  1  0.498722  0.886638  0.386094  1
  Co  Co18  1  0.498722  0.112628  0.612084  1
