# generated using pymatgen
data_Tb7Sn22Ir6Au
_symmetry_space_group_name_H-M   'P 1'
_cell_length_a   9.85719000
_cell_length_b   9.85718968
_cell_length_c   10.12153100
_cell_angle_alpha   90.00000000
_cell_angle_beta   90.00000000
_cell_angle_gamma   120.00000779
_symmetry_Int_Tables_number   1
_chemical_formula_structural   Tb7Sn22Ir6Au
_chemical_formula_sum   'Tb7 Sn22 Ir6 Au1'
_cell_volume   851.69294253
_cell_formula_units_Z   1
loop_
 _symmetry_equiv_pos_site_id
 _symmetry_equiv_pos_as_xyz
  1  'x, y, z'
loop_
 _atom_site_type_symbol
 _atom_site_label
 _atom_site_symmetry_multiplicity
 _atom_site_fract_x
 _atom_site_fract_y
 _atom_site_fract_z
 _atom_site_occupancy
  Tb  Tb0  1  0.000000  0.000000  0.000000  1
  Tb  Tb1  1  0.480534  0.519466  0.307077  1
  Tb  Tb2  1  0.519466  0.480534  0.692923  1
  Tb  Tb3  1  0.480534  0.961068  0.307077  1
  Tb  Tb4  1  0.519466  0.038932  0.692923  1
  Tb  Tb5  1  0.038932  0.519466  0.307077  1
  Tb  Tb6  1  0.961068  0.480534  0.692923  1
  Sn  Sn7  1  0.352205  0.000000  0.000000  1
  Sn  Sn8  1  0.647795  0.000000  0.000000  1
  Sn  Sn9  1  0.000000  0.352205  0.000000  1
  Sn  Sn10  1  0.000000  0.647795  0.000000  1
  Sn  Sn11  1  0.647795  0.647795  0.000000  1
  Sn  Sn12  1  0.352205  0.352205  0.000000  1
  Sn  Sn13  1  0.333333  0.666667  0.823541  1
  Sn  Sn14  1  0.666667  0.333333  0.176459  1
  Sn  Sn15  1  0.780630  0.219370  0.457924  1
  Sn  Sn16  1  0.219370  0.780630  0.542076  1
  Sn  Sn17  1  0.780630  0.561260  0.457924  1
  Sn  Sn18  1  0.219370  0.438740  0.542076  1
  Sn  Sn19  1  0.438740  0.219370  0.457924  1
  Sn  Sn20  1  0.561260  0.780630  0.542076  1
  Sn  Sn21  1  0.333333  0.666667  0.121611  1
  Sn  Sn22  1  0.666667  0.333333  0.878389  1
  Sn  Sn23  1  0.113319  0.886681  0.287711  1
  Sn  Sn24  1  0.886681  0.113319  0.712289  1
  Sn  Sn25  1  0.113319  0.226638  0.287711  1
  Sn  Sn26  1  0.886681  0.773362  0.712289  1
  Sn  Sn27  1  0.773362  0.886681  0.287711  1
  Sn  Sn28  1  0.226638  0.113319  0.712289  1
  Ir  Ir29  1  0.830770  0.169230  0.197846  1
  Ir  Ir30  1  0.169230  0.830770  0.802154  1
  Ir  Ir31  1  0.830770  0.661541  0.197846  1
  Ir  Ir32  1  0.169230  0.338459  0.802154  1
  Ir  Ir33  1  0.338459  0.169230  0.197846  1
  Ir  Ir34  1  0.661541  0.830770  0.802154  1
  Au  Au35  1  0.000000  0.000000  0.500000  1
