# generated using pymatgen
data_TiNb(SiPt)2
_symmetry_space_group_name_H-M   'P 1'
_cell_length_a   3.83376800
_cell_length_b   6.42336800
_cell_length_c   7.42859900
_cell_angle_alpha   90.00000000
_cell_angle_beta   90.00000000
_cell_angle_gamma   90.00000000
_symmetry_Int_Tables_number   1
_chemical_formula_structural   TiNb(SiPt)2
_chemical_formula_sum   'Ti2 Nb2 Si4 Pt4'
_cell_volume   182.93447038
_cell_formula_units_Z   2
loop_
 _symmetry_equiv_pos_site_id
 _symmetry_equiv_pos_as_xyz
  1  'x, y, z'
loop_
 _atom_site_type_symbol
 _atom_site_label
 _atom_site_symmetry_multiplicity
 _atom_site_fract_x
 _atom_site_fract_y
 _atom_site_fract_z
 _atom_site_occupancy
  Ti  Ti0  1  0.750000  0.972422  0.670400  1
  Ti  Ti1  1  0.750000  0.472422  0.829600  1
  Nb  Nb2  1  0.250000  0.028390  0.327586  1
  Nb  Nb3  1  0.250000  0.528390  0.172414  1
  Si  Si4  1  0.250000  0.258637  0.623824  1
  Si  Si5  1  0.250000  0.758637  0.876176  1
  Si  Si6  1  0.750000  0.738609  0.373572  1
  Si  Si7  1  0.750000  0.238609  0.126428  1
  Pt  Pt8  1  0.250000  0.149636  0.930700  1
  Pt  Pt9  1  0.250000  0.649636  0.569300  1
  Pt  Pt10  1  0.750000  0.852306  0.058342  1
  Pt  Pt11  1  0.750000  0.352306  0.441658  1
