# generated using pymatgen
data_Dy3PaAl18PtRh5
_symmetry_space_group_name_H-M   'P 1'
_cell_length_a   7.59807361
_cell_length_b   7.58949401
_cell_length_c   9.43085105
_cell_angle_alpha   90.01207231
_cell_angle_beta   89.99336435
_cell_angle_gamma   119.52835860
_symmetry_Int_Tables_number   1
_chemical_formula_structural   Dy3PaAl18PtRh5
_chemical_formula_sum   'Dy3 Pa1 Al18 Pt1 Rh5'
_cell_volume   473.19733001
_cell_formula_units_Z   1
loop_
 _symmetry_equiv_pos_site_id
 _symmetry_equiv_pos_as_xyz
  1  'x, y, z'
loop_
 _atom_site_type_symbol
 _atom_site_label
 _atom_site_symmetry_multiplicity
 _atom_site_fract_x
 _atom_site_fract_y
 _atom_site_fract_z
 _atom_site_occupancy
  Dy  Dy0  1  0.005131  0.328409  0.249977  1
  Dy  Dy1  1  0.672464  0.994417  0.750004  1
  Dy  Dy2  1  0.329505  0.005430  0.249825  1
  Pa  Pa3  1  0.996094  0.672513  0.751005  1
  Al  Al4  1  0.132284  0.130035  0.750168  1
  Al  Al5  1  0.873503  0.874353  0.249624  1
  Al  Al6  1  0.003613  0.333495  0.575995  1
  Al  Al7  1  0.002803  0.667835  0.421205  1
  Al  Al8  1  0.999722  0.664105  0.078306  1
  Al  Al9  1  0.338907  0.002772  0.925157  1
  Al  Al10  1  0.000356  0.333089  0.925200  1
  Al  Al11  1  0.664838  0.000281  0.076251  1
  Al  Al12  1  0.664811  0.996617  0.422729  1
  Al  Al13  1  0.334831  0.999615  0.575882  1
  Al  Al14  1  0.331705  0.331837  0.053774  1
  Al  Al15  1  0.664120  0.666315  0.950893  1
  Al  Al16  1  0.663692  0.668874  0.550959  1
  Al  Al17  1  0.329171  0.332520  0.444744  1
  Al  Al18  1  0.339476  0.548792  0.750194  1
  Al  Al19  1  0.658479  0.450140  0.246690  1
  Al  Al20  1  0.547488  0.343864  0.752956  1
  Al  Al21  1  0.448811  0.659706  0.249585  1
  Pt  Pt22  1  0.673207  0.328298  0.501234  1
  Rh  Rh23  1  0.326611  0.671854  0.501623  1
  Rh  Rh24  1  0.326408  0.671911  0.998109  1
  Rh  Rh25  1  0.673590  0.328758  0.998312  1
  Rh  Rh26  1  0.999059  0.997333  0.502640  1
  Rh  Rh27  1  0.999321  0.996829  0.996958  1
