# generated using pymatgen
data_NpS4Br
_symmetry_space_group_name_H-M   'P 1'
_cell_length_a   7.18040984
_cell_length_b   7.74244315
_cell_length_c   7.37887668
_cell_angle_alpha   106.35729598
_cell_angle_beta   118.93751200
_cell_angle_gamma   88.83339903
_symmetry_Int_Tables_number   1
_chemical_formula_structural   NpS4Br
_chemical_formula_sum   'Np2 S8 Br2'
_cell_volume   341.17551376
_cell_formula_units_Z   2
loop_
 _symmetry_equiv_pos_site_id
 _symmetry_equiv_pos_as_xyz
  1  'x, y, z'
loop_
 _atom_site_type_symbol
 _atom_site_label
 _atom_site_symmetry_multiplicity
 _atom_site_fract_x
 _atom_site_fract_y
 _atom_site_fract_z
 _atom_site_occupancy
  Np  Np0  1  0.309808  0.999732  0.122510  1
  Np  Np1  1  0.690234  0.000162  0.877490  1
  S  S2  1  0.521226  0.268665  0.075424  1
  S  S3  1  0.046865  0.271759  0.120114  1
  S  S4  1  0.005223  0.857403  0.183793  1
  S  S5  1  0.730863  0.147032  0.287048  1
  S  S6  1  0.269437  0.853161  0.712905  1
  S  S7  1  0.994389  0.142463  0.816137  1
  S  S8  1  0.953015  0.728247  0.879923  1
  S  S9  1  0.478982  0.731488  0.924515  1
  Br  Br10  1  0.568404  0.785550  0.421926  1
  Br  Br11  1  0.431554  0.214335  0.578215  1
