# generated using pymatgen
data_Y16Cd3CoNi3Ag
_symmetry_space_group_name_H-M   'P 1'
_cell_length_a   9.54867054
_cell_length_b   9.54867099
_cell_length_c   9.54867058
_cell_angle_alpha   59.99301059
_cell_angle_beta   59.99300737
_cell_angle_gamma   59.99300857
_symmetry_Int_Tables_number   1
_chemical_formula_structural   Y16Cd3CoNi3Ag
_chemical_formula_sum   'Y16 Cd3 Co1 Ni3 Ag1'
_cell_volume   615.52387732
_cell_formula_units_Z   1
loop_
 _symmetry_equiv_pos_site_id
 _symmetry_equiv_pos_as_xyz
  1  'x, y, z'
loop_
 _atom_site_type_symbol
 _atom_site_label
 _atom_site_symmetry_multiplicity
 _atom_site_fract_x
 _atom_site_fract_y
 _atom_site_fract_z
 _atom_site_occupancy
  Y  Y0  1  0.598486  0.598486  0.598486  1
  Y  Y1  1  0.597688  0.597688  0.204563  1
  Y  Y2  1  0.597688  0.204563  0.597688  1
  Y  Y3  1  0.204563  0.597688  0.597688  1
  Y  Y4  1  0.064802  0.439087  0.439087  1
  Y  Y5  1  0.438101  0.060835  0.060835  1
  Y  Y6  1  0.439087  0.064802  0.439087  1
  Y  Y7  1  0.060835  0.438101  0.060835  1
  Y  Y8  1  0.439087  0.439087  0.064802  1
  Y  Y9  1  0.060835  0.060835  0.438101  1
  Y  Y10  1  0.184189  0.813209  0.813209  1
  Y  Y11  1  0.811580  0.186307  0.186307  1
  Y  Y12  1  0.813209  0.184189  0.813209  1
  Y  Y13  1  0.186307  0.811580  0.186307  1
  Y  Y14  1  0.813209  0.813209  0.184189  1
  Y  Y15  1  0.186307  0.186307  0.811580  1
  Cd  Cd16  1  0.831275  0.831275  0.508182  1
  Cd  Cd17  1  0.831275  0.508182  0.831275  1
  Cd  Cd18  1  0.508182  0.831275  0.831275  1
  Co  Co19  1  0.392628  0.392628  0.392628  1
  Ni  Ni20  1  0.392179  0.392179  0.824455  1
  Ni  Ni21  1  0.392179  0.824455  0.392179  1
  Ni  Ni22  1  0.824455  0.392179  0.392179  1
  Ag  Ag23  1  0.831856  0.831856  0.831856  1
