# generated using pymatgen
data_Lu3Mg3(Si2Rh5)2
_symmetry_space_group_name_H-M   'P 1'
_cell_length_a   9.80408319
_cell_length_b   9.80408325
_cell_length_c   3.35096300
_cell_angle_alpha   90.00000000
_cell_angle_beta   90.00000000
_cell_angle_gamma   88.98702534
_symmetry_Int_Tables_number   1
_chemical_formula_structural   Lu3Mg3(Si2Rh5)2
_chemical_formula_sum   'Lu3 Mg3 Si4 Rh10'
_cell_volume   322.04438573
_cell_formula_units_Z   1
loop_
 _symmetry_equiv_pos_site_id
 _symmetry_equiv_pos_as_xyz
  1  'x, y, z'
loop_
 _atom_site_type_symbol
 _atom_site_label
 _atom_site_symmetry_multiplicity
 _atom_site_fract_x
 _atom_site_fract_y
 _atom_site_fract_z
 _atom_site_occupancy
  Lu  Lu0  1  0.676617  0.171952  0.000000  1
  Lu  Lu1  1  0.328048  0.823383  0.000000  1
  Lu  Lu2  1  0.171743  0.328257  0.000000  1
  Mg  Mg3  1  0.825608  0.674392  0.000000  1
  Mg  Mg4  1  0.000959  0.002375  0.000000  1
  Mg  Mg5  1  0.497625  0.499041  0.000000  1
  Si  Si6  1  0.120021  0.628622  0.000000  1
  Si  Si7  1  0.871378  0.379979  0.000000  1
  Si  Si8  1  0.632285  0.867715  0.000000  1
  Si  Si9  1  0.376130  0.123870  0.000000  1
  Rh  Rh10  1  0.502616  0.997384  0.500000  1
  Rh  Rh11  1  0.995199  0.504801  0.500000  1
  Rh  Rh12  1  0.214657  0.069445  0.500000  1
  Rh  Rh13  1  0.790125  0.929197  0.500000  1
  Rh  Rh14  1  0.069798  0.790072  0.500000  1
  Rh  Rh15  1  0.709928  0.430202  0.500000  1
  Rh  Rh16  1  0.932375  0.216468  0.500000  1
  Rh  Rh17  1  0.283532  0.567625  0.500000  1
  Rh  Rh18  1  0.570803  0.709875  0.500000  1
  Rh  Rh19  1  0.430555  0.285343  0.500000  1
