# generated using pymatgen
data_Hf6Co16SiMo2P11
_symmetry_space_group_name_H-M   'P 1'
_cell_length_a   11.94700319
_cell_length_b   11.92868627
_cell_length_c   3.63048700
_cell_angle_alpha   90.00000000
_cell_angle_beta   90.00000000
_cell_angle_gamma   119.94929756
_symmetry_Int_Tables_number   1
_chemical_formula_structural   Hf6Co16SiMo2P11
_chemical_formula_sum   'Hf6 Co16 Si1 Mo2 P11'
_cell_volume   448.30003571
_cell_formula_units_Z   1
loop_
 _symmetry_equiv_pos_site_id
 _symmetry_equiv_pos_as_xyz
  1  'x, y, z'
loop_
 _atom_site_type_symbol
 _atom_site_label
 _atom_site_symmetry_multiplicity
 _atom_site_fract_x
 _atom_site_fract_y
 _atom_site_fract_z
 _atom_site_occupancy
  Hf  Hf0  1  0.821450  0.820071  0.500000  1
  Hf  Hf1  1  0.000000  0.173071  0.500000  1
  Hf  Hf2  1  0.333389  0.666923  0.000000  1
  Hf  Hf3  1  0.666611  0.333533  0.000000  1
  Hf  Hf4  1  0.000000  0.558192  0.000000  1
  Hf  Hf5  1  0.178550  0.998623  0.500000  1
  Co  Co6  1  0.627021  0.822961  0.000000  1
  Co  Co7  1  0.372979  0.195940  0.000000  1
  Co  Co8  1  0.000000  0.721938  0.500000  1
  Co  Co9  1  0.281352  0.279085  0.500000  1
  Co  Co10  1  0.869492  0.351723  0.500000  1
  Co  Co11  1  0.718648  0.997735  0.500000  1
  Co  Co12  1  0.817478  0.628072  0.000000  1
  Co  Co13  1  0.182522  0.810594  0.000000  1
  Co  Co14  1  0.356889  0.874565  0.500000  1
  Co  Co15  1  0.130508  0.482231  0.500000  1
  Co  Co16  1  0.643111  0.517675  0.500000  1
  Co  Co17  1  0.000000  0.999572  0.000000  1
  Co  Co18  1  0.514951  0.646888  0.500000  1
  Co  Co19  1  0.485049  0.131936  0.500000  1
  Co  Co20  1  0.199697  0.370692  0.000000  1
  Co  Co21  1  0.800303  0.170995  0.000000  1
  Si  Si22  1  0.000000  0.344757  0.000000  1
  Mo  Mo23  1  0.449597  0.449857  0.000000  1
  Mo  Mo24  1  0.550403  0.000260  0.000000  1
  P  P25  1  0.825223  0.516699  0.500000  1
  P  P26  1  0.685519  0.166979  0.500000  1
  P  P27  1  0.175964  0.173800  0.000000  1
  P  P28  1  0.643008  0.646624  0.000000  1
  P  P29  1  0.824036  0.997834  0.000000  1
  P  P30  1  0.516901  0.832990  0.500000  1
  P  P31  1  0.174777  0.691474  0.500000  1
  P  P32  1  0.356992  0.003616  0.000000  1
  P  P33  1  0.483099  0.316089  0.500000  1
  P  P34  1  0.000000  0.824549  0.000000  1
  P  P35  1  0.314481  0.481459  0.500000  1
