# generated using pymatgen
data_AcRhPbO
_symmetry_space_group_name_H-M   'P 1'
_cell_length_a   4.37507500
_cell_length_b   4.37507500
_cell_length_c   9.42417600
_cell_angle_alpha   90.00000000
_cell_angle_beta   90.00000000
_cell_angle_gamma   90.00000000
_symmetry_Int_Tables_number   1
_chemical_formula_structural   AcRhPbO
_chemical_formula_sum   'Ac2 Rh2 Pb2 O2'
_cell_volume   180.39080342
_cell_formula_units_Z   2
loop_
 _symmetry_equiv_pos_site_id
 _symmetry_equiv_pos_as_xyz
  1  'x, y, z'
loop_
 _atom_site_type_symbol
 _atom_site_label
 _atom_site_symmetry_multiplicity
 _atom_site_fract_x
 _atom_site_fract_y
 _atom_site_fract_z
 _atom_site_occupancy
  Ac  Ac0  1  0.000000  0.500000  0.128607  1
  Ac  Ac1  1  0.500000  0.000000  0.871392  1
  Rh  Rh2  1  0.000000  0.000000  0.500000  1
  Rh  Rh3  1  0.500000  0.500000  0.500000  1
  Pb  Pb4  1  0.500000  0.000000  0.332995  1
  Pb  Pb5  1  0.000000  0.500000  0.667005  1
  O  O6  1  0.000000  0.000000  0.000000  1
  O  O7  1  0.500000  0.500000  0.000000  1
