# generated using pymatgen
data_Ho3LuTc3Os5
_symmetry_space_group_name_H-M   'P 1'
_cell_length_a   5.30123842
_cell_length_b   5.30107724
_cell_length_c   8.92529611
_cell_angle_alpha   90.00000217
_cell_angle_beta   89.98410331
_cell_angle_gamma   119.99897825
_symmetry_Int_Tables_number   1
_chemical_formula_structural   Ho3LuTc3Os5
_chemical_formula_sum   'Ho3 Lu1 Tc3 Os5'
_cell_volume   217.21968679
_cell_formula_units_Z   1
loop_
 _symmetry_equiv_pos_site_id
 _symmetry_equiv_pos_as_xyz
  1  'x, y, z'
loop_
 _atom_site_type_symbol
 _atom_site_label
 _atom_site_symmetry_multiplicity
 _atom_site_fract_x
 _atom_site_fract_y
 _atom_site_fract_z
 _atom_site_occupancy
  Ho  Ho0  1  0.335683  0.667842  0.435027  1
  Ho  Ho1  1  0.668588  0.334294  0.563477  1
  Ho  Ho2  1  0.668534  0.334266  0.936795  1
  Lu  Lu3  1  0.335619  0.667810  0.064945  1
  Tc  Tc4  1  0.168305  0.340064  0.750548  1
  Tc  Tc5  1  0.168305  0.828242  0.750548  1
  Tc  Tc6  1  0.334789  0.167394  0.249236  1
  Os  Os7  1  0.823157  0.651655  0.249248  1
  Os  Os8  1  0.649998  0.824999  0.750590  1
  Os  Os9  1  0.011988  0.005994  0.000753  1
  Os  Os10  1  0.823157  0.171501  0.249248  1
  Os  Os11  1  0.011880  0.005940  0.499584  1
