# generated using pymatgen
data_TbYSi2Tc2C
_symmetry_space_group_name_H-M   'P 1'
_cell_length_a   5.85849433
_cell_length_b   5.85849348
_cell_length_c   6.96481208
_cell_angle_alpha   54.57660257
_cell_angle_beta   54.57660467
_cell_angle_gamma   40.11484822
_symmetry_Int_Tables_number   1
_chemical_formula_structural   TbYSi2Tc2C
_chemical_formula_sum   'Tb1 Y1 Si2 Tc2 C1'
_cell_volume   121.20549240
_cell_formula_units_Z   1
loop_
 _symmetry_equiv_pos_site_id
 _symmetry_equiv_pos_as_xyz
  1  'x, y, z'
loop_
 _atom_site_type_symbol
 _atom_site_label
 _atom_site_symmetry_multiplicity
 _atom_site_fract_x
 _atom_site_fract_y
 _atom_site_fract_z
 _atom_site_occupancy
  Tb  Tb0  1  0.430408  0.430408  0.299009  1
  Y  Y1  1  0.569617  0.569617  0.700976  1
  Si  Si2  1  0.854813  0.854813  0.690236  1
  Si  Si3  1  0.145163  0.145163  0.309820  1
  Tc  Tc4  1  0.793962  0.793962  0.095526  1
  Tc  Tc5  1  0.206037  0.206037  0.904436  1
  C  C6  1  0.999998  0.999998  0.999997  1
