# generated using pymatgen
data_La2Tb3Sn4
_symmetry_space_group_name_H-M   'P 1'
_cell_length_a   8.25461400
_cell_length_b   8.35771300
_cell_length_c   15.85220900
_cell_angle_alpha   90.00000000
_cell_angle_beta   90.00000000
_cell_angle_gamma   90.00000000
_symmetry_Int_Tables_number   1
_chemical_formula_structural   La2Tb3Sn4
_chemical_formula_sum   'La8 Tb12 Sn16'
_cell_volume   1093.63905983
_cell_formula_units_Z   4
loop_
 _symmetry_equiv_pos_site_id
 _symmetry_equiv_pos_as_xyz
  1  'x, y, z'
loop_
 _atom_site_type_symbol
 _atom_site_label
 _atom_site_symmetry_multiplicity
 _atom_site_fract_x
 _atom_site_fract_y
 _atom_site_fract_z
 _atom_site_occupancy
  La  La0  1  0.514691  0.321074  0.903134  1
  La  La1  1  0.014691  0.178926  0.596866  1
  La  La2  1  0.485309  0.678926  0.403134  1
  La  La3  1  0.985309  0.821074  0.096866  1
  La  La4  1  0.485309  0.678926  0.096866  1
  La  La5  1  0.985309  0.821074  0.403134  1
  La  La6  1  0.514691  0.321074  0.596866  1
  La  La7  1  0.014691  0.178926  0.903134  1
  Tb  Tb8  1  0.361253  0.836870  0.877312  1
  Tb  Tb9  1  0.861253  0.663130  0.622688  1
  Tb  Tb10  1  0.638747  0.163130  0.377312  1
  Tb  Tb11  1  0.138747  0.336870  0.122688  1
  Tb  Tb12  1  0.638747  0.163130  0.122688  1
  Tb  Tb13  1  0.138747  0.336870  0.377312  1
  Tb  Tb14  1  0.361253  0.836870  0.622688  1
  Tb  Tb15  1  0.861253  0.663130  0.877312  1
  Tb  Tb16  1  0.195618  0.502959  0.750000  1
  Tb  Tb17  1  0.695618  0.997041  0.750000  1
  Tb  Tb18  1  0.804382  0.497041  0.250000  1
  Tb  Tb19  1  0.304382  0.002959  0.250000  1
  Sn  Sn20  1  0.303323  0.040655  0.042745  1
  Sn  Sn21  1  0.803323  0.459345  0.457255  1
  Sn  Sn22  1  0.696677  0.959345  0.542745  1
  Sn  Sn23  1  0.196677  0.540655  0.957255  1
  Sn  Sn24  1  0.696677  0.959345  0.957255  1
  Sn  Sn25  1  0.196677  0.540655  0.542745  1
  Sn  Sn26  1  0.303323  0.040655  0.457255  1
  Sn  Sn27  1  0.803323  0.459345  0.042745  1
  Sn  Sn28  1  0.559595  0.625583  0.750000  1
  Sn  Sn29  1  0.059595  0.874417  0.750000  1
  Sn  Sn30  1  0.440405  0.374417  0.250000  1
  Sn  Sn31  1  0.940405  0.125583  0.250000  1
  Sn  Sn32  1  0.323329  0.140264  0.750000  1
  Sn  Sn33  1  0.823329  0.359736  0.750000  1
  Sn  Sn34  1  0.676671  0.859736  0.250000  1
  Sn  Sn35  1  0.176671  0.640264  0.250000  1
