# generated using pymatgen
data_Hf9Re3PtW
_symmetry_space_group_name_H-M   'P 1'
_cell_length_a   8.72322400
_cell_length_b   8.72322386
_cell_length_c   8.50782500
_cell_angle_alpha   90.00000000
_cell_angle_beta   90.00000000
_cell_angle_gamma   119.99999296
_symmetry_Int_Tables_number   1
_chemical_formula_structural   Hf9Re3PtW
_chemical_formula_sum   'Hf18 Re6 Pt2 W2'
_cell_volume   560.66475119
_cell_formula_units_Z   2
loop_
 _symmetry_equiv_pos_site_id
 _symmetry_equiv_pos_as_xyz
  1  'x, y, z'
loop_
 _atom_site_type_symbol
 _atom_site_label
 _atom_site_symmetry_multiplicity
 _atom_site_fract_x
 _atom_site_fract_y
 _atom_site_fract_z
 _atom_site_occupancy
  Hf  Hf0  1  0.195146  0.804854  0.448112  1
  Hf  Hf1  1  0.195146  0.390291  0.448112  1
  Hf  Hf2  1  0.609709  0.804854  0.448112  1
  Hf  Hf3  1  0.804854  0.195146  0.551888  1
  Hf  Hf4  1  0.804854  0.609709  0.551888  1
  Hf  Hf5  1  0.390291  0.195146  0.551888  1
  Hf  Hf6  1  0.804854  0.195146  0.948112  1
  Hf  Hf7  1  0.804854  0.609709  0.948112  1
  Hf  Hf8  1  0.390291  0.195146  0.948112  1
  Hf  Hf9  1  0.195146  0.804854  0.051888  1
  Hf  Hf10  1  0.195146  0.390291  0.051888  1
  Hf  Hf11  1  0.609709  0.804854  0.051888  1
  Hf  Hf12  1  0.541318  0.458682  0.250000  1
  Hf  Hf13  1  0.541318  0.082635  0.250000  1
  Hf  Hf14  1  0.917365  0.458682  0.250000  1
  Hf  Hf15  1  0.458682  0.541318  0.750000  1
  Hf  Hf16  1  0.458682  0.917365  0.750000  1
  Hf  Hf17  1  0.082635  0.541318  0.750000  1
  Re  Re18  1  0.889310  0.110690  0.250000  1
  Re  Re19  1  0.889310  0.778620  0.250000  1
  Re  Re20  1  0.221380  0.110690  0.250000  1
  Re  Re21  1  0.110690  0.889310  0.750000  1
  Re  Re22  1  0.110690  0.221380  0.750000  1
  Re  Re23  1  0.778620  0.889310  0.750000  1
  Pt  Pt24  1  0.333333  0.666667  0.250000  1
  Pt  Pt25  1  0.666667  0.333333  0.750000  1
  W  W26  1  0.000000  0.000000  0.500000  1
  W  W27  1  0.000000  0.000000  0.000000  1
