# generated using pymatgen
data_YHoSi5IrRh2
_symmetry_space_group_name_H-M   'P 1'
_cell_length_a   8.10456891
_cell_length_b   8.10709840
_cell_length_c   5.71462670
_cell_angle_alpha   71.21708528
_cell_angle_beta   71.23596928
_cell_angle_gamma   93.35352299
_symmetry_Int_Tables_number   1
_chemical_formula_structural   YHoSi5IrRh2
_chemical_formula_sum   'Y2 Ho2 Si10 Ir2 Rh4'
_cell_volume   331.04099087
_cell_formula_units_Z   2
loop_
 _symmetry_equiv_pos_site_id
 _symmetry_equiv_pos_as_xyz
  1  'x, y, z'
loop_
 _atom_site_type_symbol
 _atom_site_label
 _atom_site_symmetry_multiplicity
 _atom_site_fract_x
 _atom_site_fract_y
 _atom_site_fract_z
 _atom_site_occupancy
  Y  Y0  1  0.400566  0.132571  0.741735  1
  Y  Y1  1  0.598005  0.865792  0.262376  1
  Ho  Ho2  1  0.867400  0.598805  0.758901  1
  Ho  Ho3  1  0.134116  0.402581  0.237055  1
  Si  Si4  1  0.774598  0.226391  0.749583  1
  Si  Si5  1  0.224175  0.774907  0.250538  1
  Si  Si6  1  0.514014  0.486504  0.749650  1
  Si  Si7  1  0.485915  0.513623  0.250321  1
  Si  Si8  1  0.209548  0.789650  0.749963  1
  Si  Si9  1  0.792112  0.208616  0.249898  1
  Si  Si10  1  0.265158  0.057297  0.340222  1
  Si  Si11  1  0.732841  0.940061  0.664014  1
  Si  Si12  1  0.943701  0.734685  0.159693  1
  Si  Si13  1  0.058953  0.267516  0.835945  1
  Ir  Ir14  1  0.538388  0.258473  0.129726  1
  Ir  Ir15  1  0.742793  0.462222  0.369228  1
  Rh  Rh16  1  0.460414  0.738835  0.873766  1
  Rh  Rh17  1  0.259775  0.538850  0.627337  1
  Rh  Rh18  1  0.997350  0.003000  0.250218  1
  Rh  Rh19  1  0.000181  0.999618  0.749830  1
