# generated using pymatgen
data_Ba8Er3Lu(CoO5)4
_symmetry_space_group_name_H-M   'P 1'
_cell_length_a   6.13075422
_cell_length_b   7.92805816
_cell_length_c   12.43469088
_cell_angle_alpha   91.61134621
_cell_angle_beta   90.03020051
_cell_angle_gamma   89.99306182
_symmetry_Int_Tables_number   1
_chemical_formula_structural   Ba8Er3Lu(CoO5)4
_chemical_formula_sum   'Ba8 Er3 Lu1 Co4 O20'
_cell_volume   604.14876976
_cell_formula_units_Z   1
loop_
 _symmetry_equiv_pos_site_id
 _symmetry_equiv_pos_as_xyz
  1  'x, y, z'
loop_
 _atom_site_type_symbol
 _atom_site_label
 _atom_site_symmetry_multiplicity
 _atom_site_fract_x
 _atom_site_fract_y
 _atom_site_fract_z
 _atom_site_occupancy
  Ba  Ba0  1  0.757159  0.493003  0.361551  1
  Ba  Ba1  1  0.742934  0.993714  0.861495  1
  Ba  Ba2  1  0.242649  0.506671  0.638764  1
  Ba  Ba3  1  0.257119  0.007025  0.138022  1
  Ba  Ba4  1  0.753592  0.992664  0.383883  1
  Ba  Ba5  1  0.746636  0.492191  0.883674  1
  Ba  Ba6  1  0.246346  0.007439  0.616556  1
  Ba  Ba7  1  0.253497  0.507109  0.115933  1
  Er  Er8  1  0.747858  0.262366  0.629992  1
  Er  Er9  1  0.751935  0.762529  0.129206  1
  Er  Er10  1  0.252013  0.737450  0.370817  1
  Lu  Lu11  1  0.247990  0.238163  0.870009  1
  Co  Co12  1  0.741973  0.746020  0.592247  1
  Co  Co13  1  0.758129  0.245696  0.090449  1
  Co  Co14  1  0.257874  0.254003  0.408420  1
  Co  Co15  1  0.241845  0.753872  0.907544  1
  O  O16  1  0.754440  0.972262  0.633193  1
  O  O17  1  0.745766  0.471509  0.132431  1
  O  O18  1  0.245474  0.027547  0.368409  1
  O  O19  1  0.254259  0.526272  0.867559  1
  O  O20  1  0.739595  0.053592  0.168288  1
  O  O21  1  0.760546  0.552556  0.669146  1
  O  O22  1  0.260201  0.949262  0.832237  1
  O  O23  1  0.239499  0.447697  0.332008  1
  O  O24  1  0.535637  0.747107  0.267364  1
  O  O25  1  0.967873  0.246888  0.767717  1
  O  O26  1  0.463761  0.252881  0.734081  1
  O  O27  1  0.035873  0.753494  0.232383  1
  O  O28  1  0.524108  0.230775  0.986873  1
  O  O29  1  0.973077  0.730482  0.488458  1
  O  O30  1  0.472974  0.769246  0.011666  1
  O  O31  1  0.025162  0.269173  0.511494  1
  O  O32  1  0.028882  0.233634  0.013679  1
  O  O33  1  0.472313  0.733422  0.516093  1
  O  O34  1  0.972447  0.766190  0.984154  1
  O  O35  1  0.528565  0.266097  0.484204  1
