# generated using pymatgen
data_DyLu3B16(OsRh)2
_symmetry_space_group_name_H-M   'P 1'
_cell_length_a   3.54240300
_cell_length_b   5.92740843
_cell_length_c   11.48053704
_cell_angle_alpha   89.99436002
_cell_angle_beta   90.00000000
_cell_angle_gamma   90.00000000
_symmetry_Int_Tables_number   1
_chemical_formula_structural   DyLu3B16(OsRh)2
_chemical_formula_sum   'Dy1 Lu3 B16 Os2 Rh2'
_cell_volume   241.05992791
_cell_formula_units_Z   1
loop_
 _symmetry_equiv_pos_site_id
 _symmetry_equiv_pos_as_xyz
  1  'x, y, z'
loop_
 _atom_site_type_symbol
 _atom_site_label
 _atom_site_symmetry_multiplicity
 _atom_site_fract_x
 _atom_site_fract_y
 _atom_site_fract_z
 _atom_site_occupancy
  Dy  Dy0  1  0.000000  0.870172  0.850728  1
  Lu  Lu1  1  0.000000  0.630188  0.351077  1
  Lu  Lu2  1  0.000000  0.369848  0.648591  1
  Lu  Lu3  1  0.000000  0.129564  0.149616  1
  B  B4  1  0.500000  0.790548  0.188187  1
  B  B5  1  0.500000  0.212222  0.811430  1
  B  B6  1  0.500000  0.291620  0.312951  1
  B  B7  1  0.500000  0.708434  0.686032  1
  B  B8  1  0.500000  0.863406  0.030222  1
  B  B9  1  0.500000  0.136742  0.971922  1
  B  B10  1  0.500000  0.364793  0.470186  1
  B  B11  1  0.500000  0.635023  0.529121  1
  B  B12  1  0.500000  0.886749  0.452417  1
  B  B13  1  0.500000  0.113460  0.546593  1
  B  B14  1  0.500000  0.386000  0.049153  1
  B  B15  1  0.500000  0.611282  0.952996  1
  B  B16  1  0.500000  0.974374  0.307343  1
  B  B17  1  0.500000  0.026443  0.691448  1
  B  B18  1  0.500000  0.478735  0.194892  1
  B  B19  1  0.500000  0.520140  0.805389  1
  Os  Os20  1  0.000000  0.143862  0.405849  1
  Os  Os21  1  0.000000  0.856412  0.592465  1
  Rh  Rh22  1  0.000000  0.641452  0.096626  1
  Rh  Rh23  1  0.000000  0.358530  0.904767  1
