# generated using pymatgen
data_Zr5Ti3Co16(SiP)6
_symmetry_space_group_name_H-M   'P 1'
_cell_length_a   12.06353900
_cell_length_b   12.06353941
_cell_length_c   3.64867300
_cell_angle_alpha   90.00000000
_cell_angle_beta   90.00000000
_cell_angle_gamma   119.99999612
_symmetry_Int_Tables_number   1
_chemical_formula_structural   Zr5Ti3Co16(SiP)6
_chemical_formula_sum   'Zr5 Ti3 Co16 Si6 P6'
_cell_volume   459.84881496
_cell_formula_units_Z   1
loop_
 _symmetry_equiv_pos_site_id
 _symmetry_equiv_pos_as_xyz
  1  'x, y, z'
loop_
 _atom_site_type_symbol
 _atom_site_label
 _atom_site_symmetry_multiplicity
 _atom_site_fract_x
 _atom_site_fract_y
 _atom_site_fract_z
 _atom_site_occupancy
  Zr  Zr0  1  0.666667  0.333333  0.000000  1
  Zr  Zr1  1  0.333333  0.666667  0.000000  1
  Zr  Zr2  1  0.817969  0.816026  0.500000  1
  Zr  Zr3  1  0.183974  0.001943  0.500000  1
  Zr  Zr4  1  0.998057  0.182031  0.500000  1
  Ti  Ti5  1  0.437451  0.439913  0.000000  1
  Ti  Ti6  1  0.560087  0.997538  0.000000  1
  Ti  Ti7  1  0.002462  0.562549  0.000000  1
  Co  Co8  1  0.198161  0.375189  0.000000  1
  Co  Co9  1  0.177028  0.801839  0.000000  1
  Co  Co10  1  0.827235  0.630822  0.000000  1
  Co  Co11  1  0.803587  0.172765  0.000000  1
  Co  Co12  1  0.369178  0.196413  0.000000  1
  Co  Co13  1  0.130008  0.485931  0.500000  1
  Co  Co14  1  0.355924  0.869992  0.500000  1
  Co  Co15  1  0.514069  0.644076  0.500000  1
  Co  Co16  1  0.642993  0.522635  0.500000  1
  Co  Co17  1  0.879641  0.357007  0.500000  1
  Co  Co18  1  0.477365  0.120359  0.500000  1
  Co  Co19  1  0.000000  0.000000  0.000000  1
  Co  Co20  1  0.719694  0.995820  0.500000  1
  Co  Co21  1  0.004180  0.723873  0.500000  1
  Co  Co22  1  0.624811  0.822972  0.000000  1
  Co  Co23  1  0.276127  0.280306  0.500000  1
  Si  Si24  1  0.644756  0.644759  0.000000  1
  Si  Si25  1  0.355241  0.999997  0.000000  1
  Si  Si26  1  0.000003  0.355244  0.000000  1
  Si  Si27  1  0.482207  0.311418  0.500000  1
  Si  Si28  1  0.688582  0.170787  0.500000  1
  Si  Si29  1  0.829213  0.517793  0.500000  1
  P  P30  1  0.517721  0.829374  0.500000  1
  P  P31  1  0.170626  0.688349  0.500000  1
  P  P32  1  0.822389  0.998068  0.000000  1
  P  P33  1  0.001932  0.824321  0.000000  1
  P  P34  1  0.311651  0.482279  0.500000  1
  P  P35  1  0.175679  0.177611  0.000000  1
