# generated using pymatgen
data_Ca(MnS2)8
_symmetry_space_group_name_H-M   'P 1'
_cell_length_a   6.69415100
_cell_length_b   6.69415177
_cell_length_c   13.11431600
_cell_angle_alpha   90.00000000
_cell_angle_beta   90.00000000
_cell_angle_gamma   119.99999126
_symmetry_Int_Tables_number   1
_chemical_formula_structural   Ca(MnS2)8
_chemical_formula_sum   'Ca1 Mn8 S16'
_cell_volume   508.94092295
_cell_formula_units_Z   1
loop_
 _symmetry_equiv_pos_site_id
 _symmetry_equiv_pos_as_xyz
  1  'x, y, z'
loop_
 _atom_site_type_symbol
 _atom_site_label
 _atom_site_symmetry_multiplicity
 _atom_site_fract_x
 _atom_site_fract_y
 _atom_site_fract_z
 _atom_site_occupancy
  Ca  Ca0  1  0.000000  0.000000  0.000000  1
  Mn  Mn1  1  0.501887  0.498113  0.740370  1
  Mn  Mn2  1  0.498113  0.501887  0.259630  1
  Mn  Mn3  1  0.501887  0.003772  0.740370  1
  Mn  Mn4  1  0.498113  0.996228  0.259630  1
  Mn  Mn5  1  0.996228  0.498113  0.740370  1
  Mn  Mn6  1  0.003772  0.501887  0.259630  1
  Mn  Mn7  1  0.000000  0.000000  0.738724  1
  Mn  Mn8  1  0.000000  0.000000  0.261276  1
  S  S9  1  0.832935  0.665871  0.158097  1
  S  S10  1  0.832808  0.665616  0.640574  1
  S  S11  1  0.832935  0.167065  0.158097  1
  S  S12  1  0.832808  0.167192  0.640574  1
  S  S13  1  0.333333  0.666667  0.158350  1
  S  S14  1  0.333333  0.666667  0.641699  1
  S  S15  1  0.334129  0.167065  0.158097  1
  S  S16  1  0.334384  0.167192  0.640574  1
  S  S17  1  0.665871  0.832935  0.841903  1
  S  S18  1  0.665616  0.832808  0.359426  1
  S  S19  1  0.666667  0.333333  0.841650  1
  S  S20  1  0.666667  0.333333  0.358301  1
  S  S21  1  0.167065  0.832935  0.841903  1
  S  S22  1  0.167192  0.832808  0.359426  1
  S  S23  1  0.167065  0.334129  0.841903  1
  S  S24  1  0.167192  0.334384  0.359426  1
