# generated using pymatgen
data_YbCePa(SnIr)3
_symmetry_space_group_name_H-M   'P 1'
_cell_length_a   7.44220231
_cell_length_b   7.48192381
_cell_length_c   4.02325200
_cell_angle_alpha   90.00000000
_cell_angle_beta   90.00000000
_cell_angle_gamma   119.07823428
_symmetry_Int_Tables_number   1
_chemical_formula_structural   YbCePa(SnIr)3
_chemical_formula_sum   'Yb1 Ce1 Pa1 Sn3 Ir3'
_cell_volume   195.78616956
_cell_formula_units_Z   1
loop_
 _symmetry_equiv_pos_site_id
 _symmetry_equiv_pos_as_xyz
  1  'x, y, z'
loop_
 _atom_site_type_symbol
 _atom_site_label
 _atom_site_symmetry_multiplicity
 _atom_site_fract_x
 _atom_site_fract_y
 _atom_site_fract_z
 _atom_site_occupancy
  Yb  Yb0  1  0.592311  0.998827  0.000000  1
  Ce  Ce1  1  0.999523  0.588179  0.000000  1
  Pa  Pa2  1  0.413679  0.413832  0.000000  1
  Sn  Sn3  1  0.982082  0.246624  0.500000  1
  Sn  Sn4  1  0.752959  0.762572  0.500000  1
  Sn  Sn5  1  0.264189  0.992550  0.500000  1
  Ir  Ir6  1  0.022157  0.014895  0.000000  1
  Ir  Ir7  1  0.648542  0.349320  0.500000  1
  Ir  Ir8  1  0.324558  0.633201  0.500000  1
