# generated using pymatgen
data_Pr2Nd8Si5Rh
_symmetry_space_group_name_H-M   'P 1'
_cell_length_a   7.67099607
_cell_length_b   7.66610341
_cell_length_c   9.06435818
_cell_angle_alpha   114.97135167
_cell_angle_beta   114.98843765
_cell_angle_gamma   90.09557754
_symmetry_Int_Tables_number   1
_chemical_formula_structural   Pr2Nd8Si5Rh
_chemical_formula_sum   'Pr2 Nd8 Si5 Rh1'
_cell_volume   427.34325707
_cell_formula_units_Z   1
loop_
 _symmetry_equiv_pos_site_id
 _symmetry_equiv_pos_as_xyz
  1  'x, y, z'
loop_
 _atom_site_type_symbol
 _atom_site_label
 _atom_site_symmetry_multiplicity
 _atom_site_fract_x
 _atom_site_fract_y
 _atom_site_fract_z
 _atom_site_occupancy
  Pr  Pr0  1  0.165774  0.690320  0.712839  1
  Pr  Pr1  1  0.547065  0.022519  0.712839  1
  Nd  Nd2  1  0.472096  0.472096  0.944192  1
  Nd  Nd3  1  0.028141  0.028141  0.056282  1
  Nd  Nd4  1  0.951844  0.808888  0.285824  1
  Nd  Nd5  1  0.333981  0.476937  0.285824  1
  Nd  Nd6  1  0.808742  0.333742  0.286199  1
  Nd  Nd7  1  0.477457  0.952457  0.286199  1
  Nd  Nd8  1  0.022774  0.166349  0.714067  1
  Nd  Nd9  1  0.691293  0.547718  0.714067  1
  Si  Si10  1  0.249751  0.249751  0.499501  1
  Si  Si11  1  0.615593  0.885173  0.000852  1
  Si  Si12  1  0.385258  0.115678  0.000852  1
  Si  Si13  1  0.885325  0.385314  0.000468  1
  Si  Si14  1  0.115143  0.615153  0.000468  1
  Rh  Rh15  1  0.749763  0.749763  0.499526  1
