# generated using pymatgen
data_Hf18TiRe7AsRu
_symmetry_space_group_name_H-M   'P 1'
_cell_length_a   8.62523100
_cell_length_b   8.62522786
_cell_length_c   8.60357300
_cell_angle_alpha   90.00022024
_cell_angle_beta   89.99986758
_cell_angle_gamma   119.99641837
_symmetry_Int_Tables_number   1
_chemical_formula_structural   Hf18TiRe7AsRu
_chemical_formula_sum   'Hf18 Ti1 Re7 As1 Ru1'
_cell_volume   554.32755143
_cell_formula_units_Z   1
loop_
 _symmetry_equiv_pos_site_id
 _symmetry_equiv_pos_as_xyz
  1  'x, y, z'
loop_
 _atom_site_type_symbol
 _atom_site_label
 _atom_site_symmetry_multiplicity
 _atom_site_fract_x
 _atom_site_fract_y
 _atom_site_fract_z
 _atom_site_occupancy
  Hf  Hf0  1  0.802326  0.604653  0.552995  1
  Hf  Hf1  1  0.802270  0.197731  0.552954  1
  Hf  Hf2  1  0.395346  0.197677  0.552995  1
  Hf  Hf3  1  0.193970  0.387970  0.453292  1
  Hf  Hf4  1  0.194046  0.805956  0.453333  1
  Hf  Hf5  1  0.612029  0.806030  0.453291  1
  Hf  Hf6  1  0.191396  0.382836  0.047349  1
  Hf  Hf7  1  0.191484  0.808515  0.047322  1
  Hf  Hf8  1  0.617162  0.808603  0.047348  1
  Hf  Hf9  1  0.801884  0.603761  0.945540  1
  Hf  Hf10  1  0.801814  0.198185  0.945566  1
  Hf  Hf11  1  0.396239  0.198116  0.945540  1
  Hf  Hf12  1  0.458325  0.916618  0.750733  1
  Hf  Hf13  1  0.458274  0.541725  0.750745  1
  Hf  Hf14  1  0.083383  0.541673  0.750735  1
  Hf  Hf15  1  0.542047  0.084144  0.249714  1
  Hf  Hf16  1  0.542071  0.457928  0.249710  1
  Hf  Hf17  1  0.915856  0.457952  0.249714  1
  Ti  Ti18  1  0.000003  0.999998  0.502605  1
  Re  Re19  1  0.111415  0.222901  0.748244  1
  Re  Re20  1  0.111458  0.888543  0.748254  1
  Re  Re21  1  0.777101  0.888587  0.748237  1
  Re  Re22  1  0.889502  0.778900  0.251795  1
  Re  Re23  1  0.889462  0.110538  0.251793  1
  Re  Re24  1  0.221099  0.110497  0.251800  1
  Re  Re25  1  0.000000  0.000000  0.999974  1
  As  As26  1  0.333392  0.666606  0.247678  1
  Ru  Ru27  1  0.666651  0.333351  0.750746  1
