# generated using pymatgen
data_Ho5Mg2Ni17As12
_symmetry_space_group_name_H-M   'P 1'
_cell_length_a   12.58377148
_cell_length_b   12.63262786
_cell_length_c   3.90777900
_cell_angle_alpha   90.00000000
_cell_angle_beta   90.00000000
_cell_angle_gamma   120.12850948
_symmetry_Int_Tables_number   1
_chemical_formula_structural   Ho5Mg2Ni17As12
_chemical_formula_sum   'Ho5 Mg2 Ni17 As12'
_cell_volume   537.28078132
_cell_formula_units_Z   1
loop_
 _symmetry_equiv_pos_site_id
 _symmetry_equiv_pos_as_xyz
  1  'x, y, z'
loop_
 _atom_site_type_symbol
 _atom_site_label
 _atom_site_symmetry_multiplicity
 _atom_site_fract_x
 _atom_site_fract_y
 _atom_site_fract_z
 _atom_site_occupancy
  Ho  Ho0  1  0.668833  0.335108  0.000000  1
  Ho  Ho1  1  0.331167  0.666276  0.000000  1
  Ho  Ho2  1  0.815057  0.817154  0.500000  1
  Ho  Ho3  1  0.184943  0.002097  0.500000  1
  Ho  Ho4  1  0.000000  0.189522  0.500000  1
  Mg  Mg5  1  0.435297  0.435936  0.000000  1
  Mg  Mg6  1  0.564703  0.000640  0.000000  1
  Ni  Ni7  1  0.879313  0.362615  0.500000  1
  Ni  Ni8  1  0.643508  0.518962  0.500000  1
  Ni  Ni9  1  0.479586  0.118228  0.500000  1
  Ni  Ni10  1  0.356492  0.875454  0.500000  1
  Ni  Ni11  1  0.520414  0.638642  0.500000  1
  Ni  Ni12  1  0.120687  0.483301  0.500000  1
  Ni  Ni13  1  0.000000  0.556657  0.000000  1
  Ni  Ni14  1  0.806317  0.185916  0.000000  1
  Ni  Ni15  1  0.822119  0.619819  0.000000  1
  Ni  Ni16  1  0.379047  0.195478  0.000000  1
  Ni  Ni17  1  0.177881  0.797701  0.000000  1
  Ni  Ni18  1  0.620953  0.816432  0.000000  1
  Ni  Ni19  1  0.193683  0.379600  0.000000  1
  Ni  Ni20  1  0.281795  0.281832  0.500000  1
  Ni  Ni21  1  0.718205  0.000037  0.500000  1
  Ni  Ni22  1  0.000000  0.719438  0.500000  1
  Ni  Ni23  1  0.000000  0.000104  0.000000  1
  As  As24  1  0.692725  0.173956  0.500000  1
  As  As25  1  0.836289  0.520715  0.500000  1
  As  As26  1  0.481743  0.307465  0.500000  1
  As  As27  1  0.163711  0.684425  0.500000  1
  As  As28  1  0.518257  0.825722  0.500000  1
  As  As29  1  0.307275  0.481231  0.500000  1
  As  As30  1  0.176589  0.178805  0.000000  1
  As  As31  1  0.823411  0.002217  0.000000  1
  As  As32  1  0.000000  0.822723  0.000000  1
  As  As33  1  0.645392  0.641229  0.000000  1
  As  As34  1  0.354608  0.995837  0.000000  1
  As  As35  1  0.000000  0.368723  0.000000  1
