# generated using pymatgen
data_Tb6HoLuAl4
_symmetry_space_group_name_H-M   'P 1'
_cell_length_a   5.11692300
_cell_length_b   6.56027165
_cell_length_c   9.45200025
_cell_angle_alpha   90.35322051
_cell_angle_beta   90.00000000
_cell_angle_gamma   90.00000000
_symmetry_Int_Tables_number   1
_chemical_formula_structural   Tb6HoLuAl4
_chemical_formula_sum   'Tb6 Ho1 Lu1 Al4'
_cell_volume   317.28254224
_cell_formula_units_Z   1
loop_
 _symmetry_equiv_pos_site_id
 _symmetry_equiv_pos_as_xyz
  1  'x, y, z'
loop_
 _atom_site_type_symbol
 _atom_site_label
 _atom_site_symmetry_multiplicity
 _atom_site_fract_x
 _atom_site_fract_y
 _atom_site_fract_z
 _atom_site_occupancy
  Tb  Tb0  1  0.750000  0.690259  0.427875  1
  Tb  Tb1  1  0.250000  0.309387  0.573869  1
  Tb  Tb2  1  0.750000  0.186896  0.072414  1
  Tb  Tb3  1  0.250000  0.813261  0.925776  1
  Tb  Tb4  1  0.750000  0.527276  0.790684  1
  Tb  Tb5  1  0.250000  0.472632  0.209412  1
  Ho  Ho6  1  0.250000  0.971915  0.288973  1
  Lu  Lu7  1  0.750000  0.027427  0.709949  1
  Al  Al8  1  0.750000  0.207205  0.399111  1
  Al  Al9  1  0.250000  0.793543  0.602073  1
  Al  Al10  1  0.750000  0.708453  0.102957  1
  Al  Al11  1  0.250000  0.291746  0.896907  1
