# generated using pymatgen
data_NaLi7Hf3UBr24
_symmetry_space_group_name_H-M   'P 1'
_cell_length_a   6.86998900
_cell_length_b   6.86998986
_cell_length_c   27.32760700
_cell_angle_alpha   90.00000000
_cell_angle_beta   90.00000000
_cell_angle_gamma   120.00000404
_symmetry_Int_Tables_number   1
_chemical_formula_structural   NaLi7Hf3UBr24
_chemical_formula_sum   'Na1 Li7 Hf3 U1 Br24'
_cell_volume   1116.97732058
_cell_formula_units_Z   1
loop_
 _symmetry_equiv_pos_site_id
 _symmetry_equiv_pos_as_xyz
  1  'x, y, z'
loop_
 _atom_site_type_symbol
 _atom_site_label
 _atom_site_symmetry_multiplicity
 _atom_site_fract_x
 _atom_site_fract_y
 _atom_site_fract_z
 _atom_site_occupancy
  Na  Na0  1  0.000000  0.000000  0.250235  1
  Li  Li1  1  0.000000  0.000000  0.749835  1
  Li  Li2  1  0.333333  0.666667  0.000556  1
  Li  Li3  1  0.333333  0.666667  0.499386  1
  Li  Li4  1  0.333333  0.666667  0.250084  1
  Li  Li5  1  0.666667  0.333333  0.749897  1
  Li  Li6  1  0.666667  0.333333  0.999430  1
  Li  Li7  1  0.666667  0.333333  0.500570  1
  Hf  Hf8  1  0.000000  0.000000  0.500014  1
  Hf  Hf9  1  0.333333  0.666667  0.749731  1
  Hf  Hf10  1  0.666667  0.333333  0.250253  1
  U  U11  1  0.000000  0.000000  0.999891  1
  Br  Br12  1  0.367061  0.013329  0.306742  1
  Br  Br13  1  0.333316  0.980944  0.804681  1
  Br  Br14  1  0.999992  0.334574  0.057621  1
  Br  Br15  1  0.000169  0.314427  0.555191  1
  Br  Br16  1  0.986671  0.353733  0.306742  1
  Br  Br17  1  0.019056  0.352371  0.804681  1
  Br  Br18  1  0.366428  0.353081  0.193804  1
  Br  Br19  1  0.333557  0.352391  0.694881  1
  Br  Br20  1  0.314424  0.314201  0.444895  1
  Br  Br21  1  0.334668  0.334773  0.942223  1
  Br  Br22  1  0.685799  0.000223  0.444895  1
  Br  Br23  1  0.334583  0.000008  0.057621  1
  Br  Br24  1  0.314258  0.999831  0.555191  1
  Br  Br25  1  0.665426  0.665417  0.057621  1
  Br  Br26  1  0.685573  0.685742  0.555191  1
  Br  Br27  1  0.646267  0.632939  0.306742  1
  Br  Br28  1  0.647629  0.666684  0.804681  1
  Br  Br29  1  0.986653  0.633572  0.193804  1
  Br  Br30  1  0.018835  0.666443  0.694881  1
  Br  Br31  1  0.999777  0.685576  0.444895  1
  Br  Br32  1  0.000105  0.665332  0.942223  1
  Br  Br33  1  0.665227  0.999895  0.942223  1
  Br  Br34  1  0.646919  0.013347  0.193804  1
  Br  Br35  1  0.647609  0.981165  0.694881  1
