# generated using pymatgen
data_SrCeCuH6
_symmetry_space_group_name_H-M   'P 1'
_cell_length_a   7.39427492
_cell_length_b   7.39427505
_cell_length_c   5.28223800
_cell_angle_alpha   90.00000000
_cell_angle_beta   90.00000000
_cell_angle_gamma   138.21225663
_symmetry_Int_Tables_number   1
_chemical_formula_structural   SrCeCuH6
_chemical_formula_sum   'Sr2 Ce2 Cu2 H12'
_cell_volume   192.45382279
_cell_formula_units_Z   2
loop_
 _symmetry_equiv_pos_site_id
 _symmetry_equiv_pos_as_xyz
  1  'x, y, z'
loop_
 _atom_site_type_symbol
 _atom_site_label
 _atom_site_symmetry_multiplicity
 _atom_site_fract_x
 _atom_site_fract_y
 _atom_site_fract_z
 _atom_site_occupancy
  Sr  Sr0  1  0.856730  0.143270  0.500000  1
  Sr  Sr1  1  0.356730  0.643270  0.000000  1
  Ce  Ce2  1  0.138981  0.861019  0.500000  1
  Ce  Ce3  1  0.638981  0.361019  0.000000  1
  Cu  Cu4  1  0.500875  0.499125  0.500000  1
  Cu  Cu5  1  0.000875  0.999125  0.000000  1
  H  H6  1  0.990163  0.509961  0.750252  1
  H  H7  1  0.490039  0.009837  0.249748  1
  H  H8  1  0.990039  0.509837  0.250252  1
  H  H9  1  0.490163  0.009961  0.749748  1
  H  H10  1  0.377803  0.622197  0.500000  1
  H  H11  1  0.877803  0.122197  0.000000  1
  H  H12  1  0.624410  0.375590  0.500000  1
  H  H13  1  0.124410  0.875590  0.000000  1
  H  H14  1  0.260589  0.239591  0.750007  1
  H  H15  1  0.760409  0.739411  0.249993  1
  H  H16  1  0.260409  0.239411  0.250007  1
  H  H17  1  0.760589  0.739591  0.749993  1
