# generated using pymatgen
data_Nd2Bi(AsRh2)6
_symmetry_space_group_name_H-M   'P 1'
_cell_length_a   10.15169300
_cell_length_b   10.15169322
_cell_length_c   3.99560800
_cell_angle_alpha   90.00000000
_cell_angle_beta   90.00000000
_cell_angle_gamma   120.00000253
_symmetry_Int_Tables_number   1
_chemical_formula_structural   Nd2Bi(AsRh2)6
_chemical_formula_sum   'Nd2 Bi1 As6 Rh12'
_cell_volume   356.60748586
_cell_formula_units_Z   1
loop_
 _symmetry_equiv_pos_site_id
 _symmetry_equiv_pos_as_xyz
  1  'x, y, z'
loop_
 _atom_site_type_symbol
 _atom_site_label
 _atom_site_symmetry_multiplicity
 _atom_site_fract_x
 _atom_site_fract_y
 _atom_site_fract_z
 _atom_site_occupancy
  Nd  Nd0  1  0.333333  0.666667  0.247797  1
  Nd  Nd1  1  0.666667  0.333333  0.752203  1
  Bi  Bi2  1  0.000000  0.000000  0.500000  1
  As  As3  1  0.406087  0.115919  0.255441  1
  As  As4  1  0.709833  0.593913  0.255441  1
  As  As5  1  0.884081  0.290167  0.255441  1
  As  As6  1  0.593913  0.884081  0.744559  1
  As  As7  1  0.290167  0.406087  0.744559  1
  As  As8  1  0.115919  0.709833  0.744559  1
  Rh  Rh9  1  0.447258  0.384251  0.253412  1
  Rh  Rh10  1  0.936993  0.552742  0.253412  1
  Rh  Rh11  1  0.615749  0.063007  0.253412  1
  Rh  Rh12  1  0.552742  0.615749  0.746588  1
  Rh  Rh13  1  0.063007  0.447258  0.746588  1
  Rh  Rh14  1  0.384251  0.936993  0.746588  1
  Rh  Rh15  1  0.159455  0.875307  0.235846  1
  Rh  Rh16  1  0.715851  0.840545  0.235846  1
  Rh  Rh17  1  0.124693  0.284149  0.235846  1
  Rh  Rh18  1  0.840545  0.124693  0.764154  1
  Rh  Rh19  1  0.284149  0.159455  0.764154  1
  Rh  Rh20  1  0.875307  0.715851  0.764154  1
