# generated using pymatgen
data_Y15Th(CdPt)4
_symmetry_space_group_name_H-M   'P 1'
_cell_length_a   9.75525610
_cell_length_b   9.75525647
_cell_length_c   9.75525667
_cell_angle_alpha   60.10936973
_cell_angle_beta   60.10937169
_cell_angle_gamma   60.10936908
_symmetry_Int_Tables_number   1
_chemical_formula_structural   Y15Th(CdPt)4
_chemical_formula_sum   'Y15 Th1 Cd4 Pt4'
_cell_volume   658.07578668
_cell_formula_units_Z   1
loop_
 _symmetry_equiv_pos_site_id
 _symmetry_equiv_pos_as_xyz
  1  'x, y, z'
loop_
 _atom_site_type_symbol
 _atom_site_label
 _atom_site_symmetry_multiplicity
 _atom_site_fract_x
 _atom_site_fract_y
 _atom_site_fract_z
 _atom_site_occupancy
  Y  Y0  1  0.353814  0.353814  0.939222  1
  Y  Y1  1  0.353814  0.939222  0.353814  1
  Y  Y2  1  0.939222  0.353814  0.353814  1
  Y  Y3  1  0.812033  0.189862  0.189862  1
  Y  Y4  1  0.190651  0.810445  0.810445  1
  Y  Y5  1  0.189862  0.812033  0.189862  1
  Y  Y6  1  0.810445  0.190651  0.810445  1
  Y  Y7  1  0.189862  0.189862  0.812033  1
  Y  Y8  1  0.810445  0.810445  0.190651  1
  Y  Y9  1  0.936842  0.565537  0.565537  1
  Y  Y10  1  0.563121  0.936509  0.936509  1
  Y  Y11  1  0.565537  0.936842  0.565537  1
  Y  Y12  1  0.936509  0.563121  0.936509  1
  Y  Y13  1  0.565537  0.565537  0.936842  1
  Y  Y14  1  0.936509  0.936509  0.563121  1
  Th  Th15  1  0.348705  0.348705  0.348705  1
  Cd  Cd16  1  0.581455  0.581455  0.581455  1
  Cd  Cd17  1  0.582715  0.582715  0.252673  1
  Cd  Cd18  1  0.582715  0.252673  0.582715  1
  Cd  Cd19  1  0.252673  0.582715  0.582715  1
  Pt  Pt20  1  0.144035  0.144035  0.144035  1
  Pt  Pt21  1  0.141467  0.141467  0.570564  1
  Pt  Pt22  1  0.141467  0.570564  0.141467  1
  Pt  Pt23  1  0.570564  0.141467  0.141467  1
