# generated using pymatgen
data_Ho6ZrAl13Mo2Os7
_symmetry_space_group_name_H-M   'P 1'
_cell_length_a   9.01404647
_cell_length_b   9.01404695
_cell_length_c   9.04499007
_cell_angle_alpha   59.67478412
_cell_angle_beta   59.67478624
_cell_angle_gamma   59.69875345
_symmetry_Int_Tables_number   1
_chemical_formula_structural   Ho6ZrAl13Mo2Os7
_chemical_formula_sum   'Ho6 Zr1 Al13 Mo2 Os7'
_cell_volume   515.93094384
_cell_formula_units_Z   1
loop_
 _symmetry_equiv_pos_site_id
 _symmetry_equiv_pos_as_xyz
  1  'x, y, z'
loop_
 _atom_site_type_symbol
 _atom_site_label
 _atom_site_symmetry_multiplicity
 _atom_site_fract_x
 _atom_site_fract_y
 _atom_site_fract_z
 _atom_site_occupancy
  Ho  Ho0  1  0.708478  0.708478  0.282027  1
  Ho  Ho1  1  0.295804  0.708694  0.291050  1
  Ho  Ho2  1  0.708694  0.295804  0.291050  1
  Ho  Ho3  1  0.290860  0.290860  0.712748  1
  Ho  Ho4  1  0.710935  0.281285  0.711223  1
  Ho  Ho5  1  0.281285  0.710935  0.711223  1
  Zr  Zr6  1  0.879123  0.879123  0.358204  1
  Al  Al7  1  0.879996  0.879996  0.881678  1
  Al  Al8  1  0.122043  0.122043  0.635954  1
  Al  Al9  1  0.121773  0.639322  0.120593  1
  Al  Al10  1  0.639322  0.121773  0.120593  1
  Al  Al11  1  0.121922  0.121922  0.121525  1
  Al  Al12  1  0.670442  0.670442  0.992881  1
  Al  Al13  1  0.667380  0.994884  0.672379  1
  Al  Al14  1  0.994884  0.667380  0.672379  1
  Al  Al15  1  0.664594  0.664594  0.666593  1
  Al  Al16  1  0.331844  0.331844  0.006384  1
  Al  Al17  1  0.331999  0.007462  0.331361  1
  Al  Al18  1  0.007462  0.331999  0.331361  1
  Al  Al19  1  0.332213  0.332213  0.332376  1
  Mo  Mo20  1  0.874409  0.363700  0.876822  1
  Mo  Mo21  1  0.363700  0.874409  0.876822  1
  Os  Os22  1  0.010749  0.010749  0.987225  1
  Os  Os23  1  0.999068  0.999068  0.503047  1
  Os  Os24  1  0.494980  0.997359  0.508687  1
  Os  Os25  1  0.997359  0.494980  0.508687  1
  Os  Os26  1  0.503069  0.503069  0.996134  1
  Os  Os27  1  0.998651  0.496959  0.999497  1
  Os  Os28  1  0.496959  0.998651  0.999497  1
