# generated using pymatgen
data_Ta8TiSi6Mo
_symmetry_space_group_name_H-M   'P 1'
_cell_length_a   7.53623673
_cell_length_b   7.53623731
_cell_length_c   7.53623737
_cell_angle_alpha   128.87568714
_cell_angle_beta   128.87568990
_cell_angle_gamma   75.21068235
_symmetry_Int_Tables_number   1
_chemical_formula_structural   Ta8TiSi6Mo
_chemical_formula_sum   'Ta8 Ti1 Si6 Mo1'
_cell_volume   252.53286270
_cell_formula_units_Z   1
loop_
 _symmetry_equiv_pos_site_id
 _symmetry_equiv_pos_as_xyz
  1  'x, y, z'
loop_
 _atom_site_type_symbol
 _atom_site_label
 _atom_site_symmetry_multiplicity
 _atom_site_fract_x
 _atom_site_fract_y
 _atom_site_fract_z
 _atom_site_occupancy
  Ta  Ta0  1  0.014808  0.183785  0.499670  1
  Ta  Ta1  1  0.684115  0.515138  0.500330  1
  Ta  Ta2  1  0.515138  0.014808  0.831024  1
  Ta  Ta3  1  0.183785  0.684115  0.168976  1
  Ta  Ta4  1  0.985192  0.816215  0.500330  1
  Ta  Ta5  1  0.315885  0.484862  0.499670  1
  Ta  Ta6  1  0.484862  0.985192  0.168976  1
  Ta  Ta7  1  0.816215  0.315885  0.831024  1
  Ti  Ti8  1  0.000000  0.000000  0.000000  1
  Si  Si9  1  0.750924  0.750924  0.000000  1
  Si  Si10  1  0.249076  0.249076  0.000000  1
  Si  Si11  1  0.367878  0.130801  0.498679  1
  Si  Si12  1  0.632122  0.869199  0.501321  1
  Si  Si13  1  0.869199  0.367878  0.237077  1
  Si  Si14  1  0.130801  0.632122  0.762923  1
  Mo  Mo15  1  0.500000  0.500000  0.000000  1
