# generated using pymatgen
data_Tb3Y2PaAl18
_symmetry_space_group_name_H-M   'P 1'
_cell_length_a   14.63039098
_cell_length_b   14.63039067
_cell_length_c   14.63039033
_cell_angle_alpha   24.38152242
_cell_angle_beta   24.38152607
_cell_angle_gamma   24.38152758
_symmetry_Int_Tables_number   1
_chemical_formula_structural   Tb3Y2PaAl18
_chemical_formula_sum   'Tb3 Y2 Pa1 Al18'
_cell_volume   469.13847545
_cell_formula_units_Z   1
loop_
 _symmetry_equiv_pos_site_id
 _symmetry_equiv_pos_as_xyz
  1  'x, y, z'
loop_
 _atom_site_type_symbol
 _atom_site_label
 _atom_site_symmetry_multiplicity
 _atom_site_fract_x
 _atom_site_fract_y
 _atom_site_fract_z
 _atom_site_occupancy
  Tb  Tb0  1  0.999787  0.999787  0.999787  1
  Tb  Tb1  1  0.499944  0.499944  0.499944  1
  Tb  Tb2  1  0.609181  0.609181  0.609181  1
  Y  Y3  1  0.890754  0.890754  0.890754  1
  Y  Y4  1  0.391005  0.391005  0.391005  1
  Pa  Pa5  1  0.108836  0.108836  0.108836  1
  Al  Al6  1  0.924833  0.370939  0.370939  1
  Al  Al7  1  0.421933  0.870828  0.870828  1
  Al  Al8  1  0.370939  0.370939  0.924833  1
  Al  Al9  1  0.870828  0.870828  0.421933  1
  Al  Al10  1  0.370939  0.924833  0.370939  1
  Al  Al11  1  0.870828  0.421933  0.870828  1
  Al  Al12  1  0.576167  0.129373  0.129373  1
  Al  Al13  1  0.076754  0.629232  0.629232  1
  Al  Al14  1  0.129373  0.129373  0.576167  1
  Al  Al15  1  0.629232  0.629232  0.076754  1
  Al  Al16  1  0.129373  0.576167  0.129373  1
  Al  Al17  1  0.629232  0.076754  0.629232  1
  Al  Al18  1  0.500000  0.500000  0.999038  1
  Al  Al19  1  0.002061  0.002061  0.496904  1
  Al  Al20  1  0.500000  0.999038  0.500000  1
  Al  Al21  1  0.002061  0.496904  0.002061  1
  Al  Al22  1  0.999038  0.500000  0.500000  1
  Al  Al23  1  0.496904  0.002061  0.002061  1
