# generated using pymatgen
data_Hf4Zr6Si2(SnSb)3
_symmetry_space_group_name_H-M   'P 1'
_cell_length_a   8.67313700
_cell_length_b   8.67322338
_cell_length_c   5.82407000
_cell_angle_alpha   90.00000000
_cell_angle_beta   90.00000000
_cell_angle_gamma   119.99966675
_symmetry_Int_Tables_number   1
_chemical_formula_structural   Hf4Zr6Si2(SnSb)3
_chemical_formula_sum   'Hf4 Zr6 Si2 Sn3 Sb3'
_cell_volume   379.41580191
_cell_formula_units_Z   1
loop_
 _symmetry_equiv_pos_site_id
 _symmetry_equiv_pos_as_xyz
  1  'x, y, z'
loop_
 _atom_site_type_symbol
 _atom_site_label
 _atom_site_symmetry_multiplicity
 _atom_site_fract_x
 _atom_site_fract_y
 _atom_site_fract_z
 _atom_site_occupancy
  Hf  Hf0  1  0.332927  0.666682  0.999362  1
  Hf  Hf1  1  0.666247  0.333318  0.500638  1
  Hf  Hf2  1  0.666247  0.333318  0.999362  1
  Hf  Hf3  1  0.332927  0.666682  0.500638  1
  Zr  Zr4  1  0.258515  0.000000  0.250000  1
  Zr  Zr5  1  0.259917  0.259575  0.750000  1
  Zr  Zr6  1  0.000342  0.740425  0.750000  1
  Zr  Zr7  1  0.000581  0.259550  0.250000  1
  Zr  Zr8  1  0.741030  0.740450  0.250000  1
  Zr  Zr9  1  0.739433  0.000000  0.750000  1
  Si  Si10  1  0.998700  0.000000  0.999333  1
  Si  Si11  1  0.998700  0.000000  0.500667  1
  Sn  Sn12  1  0.605996  0.000000  0.250000  1
  Sn  Sn13  1  0.605984  0.606625  0.750000  1
  Sn  Sn14  1  0.999360  0.393375  0.750000  1
  Sb  Sb15  1  0.999328  0.602337  0.250000  1
  Sb  Sb16  1  0.396991  0.397663  0.250000  1
  Sb  Sb17  1  0.396775  0.000000  0.750000  1
