# generated using pymatgen
data_Lu4Tc3Os3W2
_symmetry_space_group_name_H-M   'P 1'
_cell_length_a   5.34403886
_cell_length_b   5.39157759
_cell_length_c   8.89618200
_cell_angle_alpha   90.00000000
_cell_angle_beta   90.00000000
_cell_angle_gamma   121.56794165
_symmetry_Int_Tables_number   1
_chemical_formula_structural   Lu4Tc3Os3W2
_chemical_formula_sum   'Lu4 Tc3 Os3 W2'
_cell_volume   218.39309704
_cell_formula_units_Z   1
loop_
 _symmetry_equiv_pos_site_id
 _symmetry_equiv_pos_as_xyz
  1  'x, y, z'
loop_
 _atom_site_type_symbol
 _atom_site_label
 _atom_site_symmetry_multiplicity
 _atom_site_fract_x
 _atom_site_fract_y
 _atom_site_fract_z
 _atom_site_occupancy
  Lu  Lu0  1  0.337141  0.667589  0.436021  1
  Lu  Lu1  1  0.667116  0.335345  0.560053  1
  Lu  Lu2  1  0.667116  0.335345  0.939947  1
  Lu  Lu3  1  0.337141  0.667589  0.063979  1
  Tc  Tc4  1  0.173906  0.823325  0.750000  1
  Tc  Tc5  1  0.828780  0.658788  0.250000  1
  Tc  Tc6  1  0.652355  0.827981  0.750000  1
  Os  Os7  1  0.006268  0.003524  0.998373  1
  Os  Os8  1  0.821945  0.172619  0.250000  1
  Os  Os9  1  0.006268  0.003524  0.501627  1
  W  W10  1  0.167225  0.335339  0.750000  1
  W  W11  1  0.334740  0.169030  0.250000  1
