# generated using pymatgen
data_K6HoInSb4
_symmetry_space_group_name_H-M   'P 1'
_cell_length_a   9.91927075
_cell_length_b   9.91926936
_cell_length_c   9.91926922
_cell_angle_alpha   129.43494124
_cell_angle_beta   68.25026057
_cell_angle_gamma   137.33692552
_symmetry_Int_Tables_number   1
_chemical_formula_structural   K6HoInSb4
_chemical_formula_sum   'K6 Ho1 In1 Sb4'
_cell_volume   502.06877772
_cell_formula_units_Z   1
loop_
 _symmetry_equiv_pos_site_id
 _symmetry_equiv_pos_as_xyz
  1  'x, y, z'
loop_
 _atom_site_type_symbol
 _atom_site_label
 _atom_site_symmetry_multiplicity
 _atom_site_fract_x
 _atom_site_fract_y
 _atom_site_fract_z
 _atom_site_occupancy
  K  K0  1  0.323937  0.698329  0.006152  1
  K  K1  1  0.176062  0.182214  0.374391  1
  K  K2  1  0.750000  0.250000  0.500000  1
  K  K3  1  0.250000  0.750000  0.500001  1
  K  K4  1  0.807822  0.801671  0.625610  1
  K  K5  1  0.692177  0.317786  0.993848  1
  Ho  Ho6  1  0.250000  0.250000  0.000000  1
  In  In7  1  0.750001  0.750001  0.000000  1
  Sb  Sb8  1  0.890186  0.193981  0.095666  1
  Sb  Sb9  1  0.609813  0.705480  0.303795  1
  Sb  Sb10  1  0.401683  0.306018  0.696206  1
  Sb  Sb11  1  0.098317  0.794520  0.904333  1
