# generated using pymatgen
data_HoErB6MoW
_symmetry_space_group_name_H-M   'P 1'
_cell_length_a   3.15884300
_cell_length_b   5.43010483
_cell_length_c   6.81167105
_cell_angle_alpha   78.12057774
_cell_angle_beta   90.00000000
_cell_angle_gamma   90.00000000
_symmetry_Int_Tables_number   1
_chemical_formula_structural   HoErB6MoW
_chemical_formula_sum   'Ho1 Er1 B6 Mo1 W1'
_cell_volume   114.33720713
_cell_formula_units_Z   1
loop_
 _symmetry_equiv_pos_site_id
 _symmetry_equiv_pos_as_xyz
  1  'x, y, z'
loop_
 _atom_site_type_symbol
 _atom_site_label
 _atom_site_symmetry_multiplicity
 _atom_site_fract_x
 _atom_site_fract_y
 _atom_site_fract_z
 _atom_site_occupancy
  Ho  Ho0  1  0.750000  0.823986  0.708621  1
  Er  Er1  1  0.250000  0.176582  0.290384  1
  B  B2  1  0.250000  0.582095  0.475182  1
  B  B3  1  0.750000  0.416978  0.523407  1
  B  B4  1  0.250000  0.587278  0.995915  1
  B  B5  1  0.750000  0.412540  0.005259  1
  B  B6  1  0.250000  0.916775  0.993285  1
  B  B7  1  0.750000  0.083348  0.007777  1
  Mo  Mo8  1  0.250000  0.311576  0.779664  1
  W  W9  1  0.750000  0.688843  0.220506  1
