# generated using pymatgen
data_Tb6Y13Sc(Cd3Ru)2
_symmetry_space_group_name_H-M   'P 1'
_cell_length_a   9.60213400
_cell_length_b   9.60213402
_cell_length_c   9.85716300
_cell_angle_alpha   90.00000000
_cell_angle_beta   90.00000000
_cell_angle_gamma   119.99999992
_symmetry_Int_Tables_number   1
_chemical_formula_structural   Tb6Y13Sc(Cd3Ru)2
_chemical_formula_sum   'Tb6 Y13 Sc1 Cd6 Ru2'
_cell_volume   787.07858454
_cell_formula_units_Z   1
loop_
 _symmetry_equiv_pos_site_id
 _symmetry_equiv_pos_as_xyz
  1  'x, y, z'
loop_
 _atom_site_type_symbol
 _atom_site_label
 _atom_site_symmetry_multiplicity
 _atom_site_fract_x
 _atom_site_fract_y
 _atom_site_fract_z
 _atom_site_occupancy
  Tb  Tb0  1  0.209979  0.790021  0.440094  1
  Tb  Tb1  1  0.209979  0.419960  0.440094  1
  Tb  Tb2  1  0.580040  0.790021  0.440094  1
  Tb  Tb3  1  0.790021  0.209979  0.559906  1
  Tb  Tb4  1  0.790021  0.580040  0.559906  1
  Tb  Tb5  1  0.419960  0.209979  0.559906  1
  Y  Y6  1  0.000000  0.000000  0.500000  1
  Y  Y7  1  0.791444  0.208556  0.939851  1
  Y  Y8  1  0.791444  0.582886  0.939851  1
  Y  Y9  1  0.417114  0.208556  0.939851  1
  Y  Y10  1  0.208556  0.791444  0.060149  1
  Y  Y11  1  0.208556  0.417114  0.060149  1
  Y  Y12  1  0.582886  0.791444  0.060149  1
  Y  Y13  1  0.540968  0.459032  0.249788  1
  Y  Y14  1  0.540968  0.081935  0.249788  1
  Y  Y15  1  0.918065  0.459032  0.249788  1
  Y  Y16  1  0.459032  0.540968  0.750212  1
  Y  Y17  1  0.459032  0.918065  0.750212  1
  Y  Y18  1  0.081935  0.540968  0.750212  1
  Sc  Sc19  1  0.000000  0.000000  0.000000  1
  Cd  Cd20  1  0.887512  0.112488  0.244094  1
  Cd  Cd21  1  0.887512  0.775026  0.244094  1
  Cd  Cd22  1  0.224974  0.112488  0.244094  1
  Cd  Cd23  1  0.112488  0.887512  0.755906  1
  Cd  Cd24  1  0.112488  0.224974  0.755906  1
  Cd  Cd25  1  0.775026  0.887512  0.755906  1
  Ru  Ru26  1  0.333333  0.666667  0.251590  1
  Ru  Ru27  1  0.666667  0.333333  0.748410  1
