# generated using pymatgen
data_Nd6DyInO12
_symmetry_space_group_name_H-M   'P 1'
_cell_length_a   6.98753737
_cell_length_b   6.98753673
_cell_length_c   6.98753600
_cell_angle_alpha   92.81309785
_cell_angle_beta   92.81309759
_cell_angle_gamma   92.81310067
_symmetry_Int_Tables_number   1
_chemical_formula_structural   Nd6DyInO12
_chemical_formula_sum   'Nd6 Dy1 In1 O12'
_cell_volume   339.89579220
_cell_formula_units_Z   1
loop_
 _symmetry_equiv_pos_site_id
 _symmetry_equiv_pos_as_xyz
  1  'x, y, z'
loop_
 _atom_site_type_symbol
 _atom_site_label
 _atom_site_symmetry_multiplicity
 _atom_site_fract_x
 _atom_site_fract_y
 _atom_site_fract_z
 _atom_site_occupancy
  Nd  Nd0  1  0.560802  0.069190  0.255777  1
  Nd  Nd1  1  0.069190  0.255777  0.560802  1
  Nd  Nd2  1  0.744223  0.439198  0.930810  1
  Nd  Nd3  1  0.255777  0.560802  0.069190  1
  Nd  Nd4  1  0.930810  0.744223  0.439198  1
  Nd  Nd5  1  0.439198  0.930810  0.744223  1
  Dy  Dy6  1  0.000000  0.000000  0.000000  1
  In  In7  1  0.500000  0.500000  0.500000  1
  O  O8  1  0.688931  0.089367  0.935438  1
  O  O9  1  0.910633  0.064562  0.311069  1
  O  O10  1  0.406915  0.194127  0.535756  1
  O  O11  1  0.064562  0.311069  0.910633  1
  O  O12  1  0.535756  0.406915  0.194127  1
  O  O13  1  0.805873  0.464244  0.593085  1
  O  O14  1  0.194127  0.535756  0.406915  1
  O  O15  1  0.464244  0.593085  0.805873  1
  O  O16  1  0.935438  0.688931  0.089367  1
  O  O17  1  0.593085  0.805873  0.464244  1
  O  O18  1  0.089367  0.935438  0.688931  1
  O  O19  1  0.311069  0.910633  0.064562  1
