# generated using pymatgen
data_CaTlH9W
_symmetry_space_group_name_H-M   'P 1'
_cell_length_a   9.01323100
_cell_length_b   9.01323037
_cell_length_c   5.56250300
_cell_angle_alpha   90.00000000
_cell_angle_beta   90.00000000
_cell_angle_gamma   120.00000598
_symmetry_Int_Tables_number   1
_chemical_formula_structural   CaTlH9W
_chemical_formula_sum   'Ca3 Tl3 H27 W3'
_cell_volume   391.34684493
_cell_formula_units_Z   3
loop_
 _symmetry_equiv_pos_site_id
 _symmetry_equiv_pos_as_xyz
  1  'x, y, z'
loop_
 _atom_site_type_symbol
 _atom_site_label
 _atom_site_symmetry_multiplicity
 _atom_site_fract_x
 _atom_site_fract_y
 _atom_site_fract_z
 _atom_site_occupancy
  Ca  Ca0  1  0.000000  0.275822  0.500000  1
  Ca  Ca1  1  0.724178  0.724178  0.500000  1
  Ca  Ca2  1  0.275822  0.000000  0.500000  1
  Tl  Tl3  1  0.000000  0.586700  0.000000  1
  Tl  Tl4  1  0.413300  0.413300  0.000000  1
  Tl  Tl5  1  0.586700  0.000000  0.000000  1
  H  H6  1  0.790246  0.303344  0.726045  1
  H  H7  1  0.696656  0.486902  0.726045  1
  H  H8  1  0.513098  0.209754  0.726045  1
  H  H9  1  0.209754  0.513098  0.273955  1
  H  H10  1  0.513098  0.209754  0.273955  1
  H  H11  1  0.790246  0.303344  0.273955  1
  H  H12  1  0.696656  0.486902  0.273955  1
  H  H13  1  0.303344  0.790246  0.726045  1
  H  H14  1  0.486902  0.696656  0.726045  1
  H  H15  1  0.194205  0.000000  0.000000  1
  H  H16  1  0.805795  0.805795  0.000000  1
  H  H17  1  0.000000  0.194205  0.000000  1
  H  H18  1  0.863332  0.000000  0.236380  1
  H  H19  1  0.136668  0.136668  0.763620  1
  H  H20  1  0.000000  0.863332  0.763620  1
  H  H21  1  0.000000  0.863332  0.236380  1
  H  H22  1  0.136668  0.136668  0.236380  1
  H  H23  1  0.863332  0.000000  0.763620  1
  H  H24  1  0.123448  0.628078  0.500000  1
  H  H25  1  0.504631  0.876552  0.500000  1
  H  H26  1  0.371922  0.495369  0.500000  1
  H  H27  1  0.495369  0.371922  0.500000  1
  H  H28  1  0.876552  0.504631  0.500000  1
  H  H29  1  0.628078  0.123448  0.500000  1
  H  H30  1  0.209754  0.513098  0.726045  1
  H  H31  1  0.303344  0.790246  0.273955  1
  H  H32  1  0.486902  0.696656  0.273955  1
  W  W33  1  0.666667  0.333333  0.500000  1
  W  W34  1  0.333333  0.666667  0.500000  1
  W  W35  1  0.000000  0.000000  0.000000  1
