# generated using pymatgen
data_Li3CeDy3Si8Rh
_symmetry_space_group_name_H-M   'P 1'
_cell_length_a   3.83953600
_cell_length_b   7.48539760
_cell_length_c   10.12117701
_cell_angle_alpha   89.95974576
_cell_angle_beta   90.00000000
_cell_angle_gamma   90.00000000
_symmetry_Int_Tables_number   1
_chemical_formula_structural   Li3CeDy3Si8Rh
_chemical_formula_sum   'Li3 Ce1 Dy3 Si8 Rh1'
_cell_volume   290.88714592
_cell_formula_units_Z   1
loop_
 _symmetry_equiv_pos_site_id
 _symmetry_equiv_pos_as_xyz
  1  'x, y, z'
loop_
 _atom_site_type_symbol
 _atom_site_label
 _atom_site_symmetry_multiplicity
 _atom_site_fract_x
 _atom_site_fract_y
 _atom_site_fract_z
 _atom_site_occupancy
  Li  Li0  1  0.250000  0.490400  0.108413  1
  Li  Li1  1  0.750000  0.009160  0.604392  1
  Li  Li2  1  0.750000  0.503710  0.892260  1
  Ce  Ce3  1  0.750000  0.369362  0.365047  1
  Dy  Dy4  1  0.250000  0.136142  0.867649  1
  Dy  Dy5  1  0.250000  0.641032  0.628069  1
  Dy  Dy6  1  0.750000  0.863816  0.134894  1
  Si  Si7  1  0.250000  0.222871  0.564017  1
  Si  Si8  1  0.250000  0.731298  0.929078  1
  Si  Si9  1  0.750000  0.786232  0.430536  1
  Si  Si10  1  0.750000  0.259581  0.072935  1
  Si  Si11  1  0.250000  0.666352  0.321631  1
  Si  Si12  1  0.250000  0.155330  0.191072  1
  Si  Si13  1  0.750000  0.335280  0.678482  1
  Si  Si14  1  0.750000  0.842256  0.817036  1
  Rh  Rh15  1  0.250000  0.987178  0.394490  1
