# generated using pymatgen
data_Nd4Ga5Ir8Pt
_symmetry_space_group_name_H-M   'P 1'
_cell_length_a   12.44664317
_cell_length_b   12.45086884
_cell_length_c   12.44664343
_cell_angle_alpha   26.06314879
_cell_angle_beta   26.15147172
_cell_angle_gamma   26.06314994
_symmetry_Int_Tables_number   1
_chemical_formula_structural   Nd4Ga5Ir8Pt
_chemical_formula_sum   'Nd4 Ga5 Ir8 Pt1'
_cell_volume   328.71752690
_cell_formula_units_Z   1
loop_
 _symmetry_equiv_pos_site_id
 _symmetry_equiv_pos_as_xyz
  1  'x, y, z'
loop_
 _atom_site_type_symbol
 _atom_site_label
 _atom_site_symmetry_multiplicity
 _atom_site_fract_x
 _atom_site_fract_y
 _atom_site_fract_z
 _atom_site_occupancy
  Nd  Nd0  1  0.951692  0.952060  0.951692  1
  Nd  Nd1  1  0.048690  0.048891  0.048690  1
  Nd  Nd2  1  0.852854  0.853951  0.852854  1
  Nd  Nd3  1  0.144704  0.148655  0.144704  1
  Ga  Ga4  1  0.502572  0.493278  0.502572  1
  Ga  Ga5  1  0.721772  0.720715  0.721772  1
  Ga  Ga6  1  0.276660  0.282383  0.276660  1
  Ga  Ga7  1  0.614021  0.606363  0.614021  1
  Ga  Ga8  1  0.389474  0.388506  0.389474  1
  Ir  Ir9  1  0.499725  0.499651  0.001263  1
  Ir  Ir10  1  0.001263  0.499651  0.499725  1
  Ir  Ir11  1  0.499778  0.999607  0.499778  1
  Ir  Ir12  1  0.386097  0.390515  0.893598  1
  Ir  Ir13  1  0.893598  0.390515  0.386097  1
  Ir  Ir14  1  0.613581  0.102578  0.613581  1
  Ir  Ir15  1  0.612004  0.613790  0.104639  1
  Ir  Ir16  1  0.104639  0.613790  0.612004  1
  Pt  Pt17  1  0.386878  0.895100  0.386878  1
