# generated using pymatgen
data_Rb2ScP2Se7
_symmetry_space_group_name_H-M   'P 1'
_cell_length_a   9.83298502
_cell_length_b   9.83298423
_cell_length_c   9.32204100
_cell_angle_alpha   73.54509578
_cell_angle_beta   73.54509106
_cell_angle_gamma   69.76950228
_symmetry_Int_Tables_number   1
_chemical_formula_structural   Rb2ScP2Se7
_chemical_formula_sum   'Rb4 Sc2 P4 Se14'
_cell_volume   793.70003065
_cell_formula_units_Z   2
loop_
 _symmetry_equiv_pos_site_id
 _symmetry_equiv_pos_as_xyz
  1  'x, y, z'
loop_
 _atom_site_type_symbol
 _atom_site_label
 _atom_site_symmetry_multiplicity
 _atom_site_fract_x
 _atom_site_fract_y
 _atom_site_fract_z
 _atom_site_occupancy
  Rb  Rb0  1  0.610621  0.051022  0.164454  1
  Rb  Rb1  1  0.948978  0.389379  0.835546  1
  Rb  Rb2  1  0.389379  0.948978  0.835546  1
  Rb  Rb3  1  0.051022  0.610621  0.164454  1
  Sc  Sc4  1  0.678430  0.321570  0.500000  1
  Sc  Sc5  1  0.321570  0.678430  0.500000  1
  P  P6  1  0.947960  0.947960  0.438780  1
  P  P7  1  0.052040  0.052040  0.561220  1
  P  P8  1  0.393171  0.393171  0.814292  1
  P  P9  1  0.606829  0.606829  0.185708  1
  Se  Se10  1  0.695338  0.363613  0.197977  1
  Se  Se11  1  0.636387  0.304662  0.802023  1
  Se  Se12  1  0.304662  0.636387  0.802023  1
  Se  Se13  1  0.363613  0.695338  0.197977  1
  Se  Se14  1  0.005532  0.005532  0.191362  1
  Se  Se15  1  0.994468  0.994468  0.808638  1
  Se  Se16  1  0.705059  0.030882  0.530277  1
  Se  Se17  1  0.969118  0.294941  0.469723  1
  Se  Se18  1  0.294941  0.969118  0.469723  1
  Se  Se19  1  0.030882  0.705059  0.530277  1
  Se  Se20  1  0.269024  0.269024  0.006139  1
  Se  Se21  1  0.730976  0.730976  0.993861  1
  Se  Se22  1  0.370774  0.370774  0.583904  1
  Se  Se23  1  0.629226  0.629226  0.416096  1
