# generated using pymatgen
data_ErTm3NiOs7
_symmetry_space_group_name_H-M   'P 1'
_cell_length_a   5.26488953
_cell_length_b   5.26489056
_cell_length_c   8.77077400
_cell_angle_alpha   89.75398684
_cell_angle_beta   90.24601321
_cell_angle_gamma   120.84681942
_symmetry_Int_Tables_number   1
_chemical_formula_structural   ErTm3NiOs7
_chemical_formula_sum   'Er1 Tm3 Ni1 Os7'
_cell_volume   208.72399391
_cell_formula_units_Z   1
loop_
 _symmetry_equiv_pos_site_id
 _symmetry_equiv_pos_as_xyz
  1  'x, y, z'
loop_
 _atom_site_type_symbol
 _atom_site_label
 _atom_site_symmetry_multiplicity
 _atom_site_fract_x
 _atom_site_fract_y
 _atom_site_fract_z
 _atom_site_occupancy
  Er  Er0  1  0.334802  0.665198  0.065360  1
  Tm  Tm1  1  0.333590  0.666410  0.433605  1
  Tm  Tm2  1  0.668588  0.331412  0.563110  1
  Tm  Tm3  1  0.669547  0.330453  0.937546  1
  Ni  Ni4  1  0.827947  0.172053  0.250827  1
  Os  Os5  1  0.006081  0.993919  0.497622  1
  Os  Os6  1  0.007144  0.992856  0.002210  1
  Os  Os7  1  0.821249  0.660519  0.250437  1
  Os  Os8  1  0.339481  0.178751  0.250437  1
  Os  Os9  1  0.166439  0.833561  0.749888  1
  Os  Os10  1  0.171717  0.346585  0.749479  1
  Os  Os11  1  0.653415  0.828283  0.749479  1
