# generated using pymatgen
data_RbTm6(CI6)2
_symmetry_space_group_name_H-M   'P 1'
_cell_length_a   9.40338799
_cell_length_b   9.43785876
_cell_length_c   9.77835667
_cell_angle_alpha   72.65732582
_cell_angle_beta   71.93145736
_cell_angle_gamma   73.25152659
_symmetry_Int_Tables_number   1
_chemical_formula_structural   RbTm6(CI6)2
_chemical_formula_sum   'Rb1 Tm6 C2 I12'
_cell_volume   768.97343124
_cell_formula_units_Z   1
loop_
 _symmetry_equiv_pos_site_id
 _symmetry_equiv_pos_as_xyz
  1  'x, y, z'
loop_
 _atom_site_type_symbol
 _atom_site_label
 _atom_site_symmetry_multiplicity
 _atom_site_fract_x
 _atom_site_fract_y
 _atom_site_fract_z
 _atom_site_occupancy
  Rb  Rb0  1  0.999999  0.500001  0.999999  1
  Tm  Tm1  1  0.471043  0.106644  0.197286  1
  Tm  Tm2  1  0.757798  0.031049  0.414161  1
  Tm  Tm3  1  0.584310  0.745986  0.476320  1
  Tm  Tm4  1  0.415690  0.254012  0.523680  1
  Tm  Tm5  1  0.242204  0.968950  0.585839  1
  Tm  Tm6  1  0.528957  0.893359  0.802714  1
  C  C7  1  0.492059  0.025039  0.425152  1
  C  C8  1  0.507942  0.974961  0.574847  1
  I  I9  1  0.793297  0.154062  0.081805  1
  I  I10  1  0.579655  0.784427  0.141254  1
  I  I11  1  0.354010  0.428311  0.222842  1
  I  I12  1  0.136812  0.066776  0.295058  1
  I  I13  1  0.917211  0.723551  0.357604  1
  I  I14  1  0.711457  0.358651  0.434604  1
  I  I15  1  0.288543  0.641348  0.565397  1
  I  I16  1  0.082789  0.276448  0.642396  1
  I  I17  1  0.863189  0.933222  0.704944  1
  I  I18  1  0.645989  0.571691  0.777158  1
  I  I19  1  0.420345  0.215573  0.858745  1
  I  I20  1  0.206705  0.845937  0.918195  1
