# generated using pymatgen
data_Er4TmLu7Co4
_symmetry_space_group_name_H-M   'P 1'
_cell_length_a   6.11502066
_cell_length_b   6.85693642
_cell_length_c   9.18414800
_cell_angle_alpha   89.96900802
_cell_angle_beta   90.04223852
_cell_angle_gamma   89.98012749
_symmetry_Int_Tables_number   1
_chemical_formula_structural   Er4TmLu7Co4
_chemical_formula_sum   'Er4 Tm1 Lu7 Co4'
_cell_volume   385.09396890
_cell_formula_units_Z   1
loop_
 _symmetry_equiv_pos_site_id
 _symmetry_equiv_pos_as_xyz
  1  'x, y, z'
loop_
 _atom_site_type_symbol
 _atom_site_label
 _atom_site_symmetry_multiplicity
 _atom_site_fract_x
 _atom_site_fract_y
 _atom_site_fract_z
 _atom_site_occupancy
  Er  Er0  1  0.865033  0.540948  0.250518  1
  Er  Er1  1  0.634965  0.041326  0.250167  1
  Er  Er2  1  0.134193  0.458715  0.749563  1
  Er  Er3  1  0.365915  0.958959  0.749509  1
  Tm  Tm4  1  0.323992  0.675069  0.066462  1
  Lu  Lu5  1  0.175919  0.175203  0.433104  1
  Lu  Lu6  1  0.675455  0.324765  0.566526  1
  Lu  Lu7  1  0.824541  0.824975  0.933065  1
  Lu  Lu8  1  0.675683  0.324474  0.933101  1
  Lu  Lu9  1  0.824955  0.825211  0.566162  1
  Lu  Lu10  1  0.324716  0.675180  0.433994  1
  Lu  Lu11  1  0.175408  0.174988  0.066785  1
  Co  Co12  1  0.047535  0.887629  0.250955  1
  Co  Co13  1  0.451372  0.387128  0.250696  1
  Co  Co14  1  0.951900  0.112810  0.750211  1
  Co  Co15  1  0.548416  0.612620  0.749182  1
