# generated using pymatgen
data_Tb3Dy10Y7(CoSb2)4
_symmetry_space_group_name_H-M   'P 1'
_cell_length_a   7.93293648
_cell_length_b   8.75774300
_cell_length_c   12.22064008
_cell_angle_alpha   90.00000000
_cell_angle_beta   89.98665032
_cell_angle_gamma   90.00000000
_symmetry_Int_Tables_number   1
_chemical_formula_structural   Tb3Dy10Y7(CoSb2)4
_chemical_formula_sum   'Tb3 Dy10 Y7 Co4 Sb8'
_cell_volume   849.02428913
_cell_formula_units_Z   1
loop_
 _symmetry_equiv_pos_site_id
 _symmetry_equiv_pos_as_xyz
  1  'x, y, z'
loop_
 _atom_site_type_symbol
 _atom_site_label
 _atom_site_symmetry_multiplicity
 _atom_site_fract_x
 _atom_site_fract_y
 _atom_site_fract_z
 _atom_site_occupancy
  Tb  Tb0  1  0.622884  0.750000  0.305713  1
  Tb  Tb1  1  0.377338  0.250000  0.694347  1
  Tb  Tb2  1  0.877082  0.750000  0.805736  1
  Dy  Dy3  1  0.045103  0.750000  0.498180  1
  Dy  Dy4  1  0.122422  0.250000  0.193926  1
  Dy  Dy5  1  0.822189  0.965667  0.065145  1
  Dy  Dy6  1  0.321836  0.034728  0.434928  1
  Dy  Dy7  1  0.178013  0.465284  0.935186  1
  Dy  Dy8  1  0.678354  0.535173  0.564824  1
  Dy  Dy9  1  0.178013  0.034716  0.935186  1
  Dy  Dy10  1  0.678354  0.964827  0.564824  1
  Dy  Dy11  1  0.822189  0.534333  0.065145  1
  Dy  Dy12  1  0.321836  0.465272  0.434928  1
  Y  Y13  1  0.154967  0.750000  0.203820  1
  Y  Y14  1  0.655070  0.250000  0.296149  1
  Y  Y15  1  0.845005  0.250000  0.796285  1
  Y  Y16  1  0.344756  0.750000  0.703851  1
  Y  Y17  1  0.456247  0.750000  0.998371  1
  Y  Y18  1  0.956366  0.250000  0.501658  1
  Y  Y19  1  0.543552  0.250000  0.001746  1
  Co  Co20  1  0.434964  0.750000  0.489592  1
  Co  Co21  1  0.937116  0.250000  0.010401  1
  Co  Co22  1  0.563397  0.250000  0.510202  1
  Co  Co23  1  0.063131  0.750000  0.989925  1
  Sb  Sb24  1  0.928645  0.991846  0.327091  1
  Sb  Sb25  1  0.427766  0.008668  0.172957  1
  Sb  Sb26  1  0.071693  0.491716  0.672841  1
  Sb  Sb27  1  0.571803  0.508417  0.827077  1
  Sb  Sb28  1  0.071693  0.008284  0.672841  1
  Sb  Sb29  1  0.571803  0.991583  0.827077  1
  Sb  Sb30  1  0.928645  0.508154  0.327091  1
  Sb  Sb31  1  0.427766  0.491332  0.172957  1
