# generated using pymatgen
data_Dy3Y2Er3(WO6)4
_symmetry_space_group_name_H-M   'P 1'
_cell_length_a   5.39303420
_cell_length_b   7.69971099
_cell_length_c   11.44144077
_cell_angle_alpha   75.52213473
_cell_angle_beta   90.00074329
_cell_angle_gamma   89.96982957
_symmetry_Int_Tables_number   1
_chemical_formula_structural   Dy3Y2Er3(WO6)4
_chemical_formula_sum   'Dy3 Y2 Er3 W4 O24'
_cell_volume   460.01627565
_cell_formula_units_Z   1
loop_
 _symmetry_equiv_pos_site_id
 _symmetry_equiv_pos_as_xyz
  1  'x, y, z'
loop_
 _atom_site_type_symbol
 _atom_site_label
 _atom_site_symmetry_multiplicity
 _atom_site_fract_x
 _atom_site_fract_y
 _atom_site_fract_z
 _atom_site_occupancy
  Dy  Dy0  1  0.183791  0.205456  0.422338  1
  Dy  Dy1  1  0.741050  0.999686  0.249422  1
  Dy  Dy2  1  0.259048  0.999753  0.750489  1
  Y  Y3  1  0.684122  0.500464  0.249516  1
  Y  Y4  1  0.316171  0.500142  0.750118  1
  Er  Er5  1  0.183506  0.793962  0.078097  1
  Er  Er6  1  0.816116  0.793565  0.578292  1
  Er  Er7  1  0.816498  0.206034  0.921979  1
  W  W8  1  0.256011  0.276177  0.114284  1
  W  W9  1  0.255696  0.724235  0.385251  1
  W  W10  1  0.744380  0.724050  0.885232  1
  W  W11  1  0.744384  0.276190  0.615381  1
  O  O12  1  0.458008  0.208755  0.272561  1
  O  O13  1  0.456370  0.791975  0.226271  1
  O  O14  1  0.543465  0.791634  0.726461  1
  O  O15  1  0.543580  0.208614  0.773924  1
  O  O16  1  0.045956  0.059526  0.103637  1
  O  O17  1  0.043809  0.938892  0.396224  1
  O  O18  1  0.954248  0.940372  0.896346  1
  O  O19  1  0.953852  0.059202  0.604290  1
  O  O20  1  0.980775  0.288412  0.228300  1
  O  O21  1  0.981540  0.711468  0.270538  1
  O  O22  1  0.018708  0.711919  0.770804  1
  O  O23  1  0.019098  0.288096  0.729266  1
  O  O24  1  0.848169  0.365305  0.451960  1
  O  O25  1  0.850440  0.635678  0.048193  1
  O  O26  1  0.149699  0.635425  0.548299  1
  O  O27  1  0.149579  0.364533  0.951567  1
  O  O28  1  0.640959  0.510430  0.614602  1
  O  O29  1  0.641385  0.489840  0.885811  1
  O  O30  1  0.360253  0.490604  0.385678  1
  O  O31  1  0.358539  0.510367  0.114149  1
  O  O32  1  0.465471  0.153696  0.569955  1
  O  O33  1  0.463884  0.845172  0.931305  1
  O  O34  1  0.535458  0.845786  0.431275  1
  O  O35  1  0.535980  0.154587  0.068186  1
