# generated using pymatgen
data_Ho4Tm4V(B8Rh)3
_symmetry_space_group_name_H-M   'P 1'
_cell_length_a   3.61706500
_cell_length_b   9.12355374
_cell_length_c   11.49568248
_cell_angle_alpha   90.23194806
_cell_angle_beta   90.00000000
_cell_angle_gamma   90.00000000
_symmetry_Int_Tables_number   1
_chemical_formula_structural   Ho4Tm4V(B8Rh)3
_chemical_formula_sum   'Ho4 Tm4 V1 B24 Rh3'
_cell_volume   379.36001083
_cell_formula_units_Z   1
loop_
 _symmetry_equiv_pos_site_id
 _symmetry_equiv_pos_as_xyz
  1  'x, y, z'
loop_
 _atom_site_type_symbol
 _atom_site_label
 _atom_site_symmetry_multiplicity
 _atom_site_fract_x
 _atom_site_fract_y
 _atom_site_fract_z
 _atom_site_occupancy
  Ho  Ho0  1  0.500000  0.318655  0.410580  1
  Ho  Ho1  1  0.500000  0.676718  0.584566  1
  Ho  Ho2  1  0.500000  0.177775  0.917819  1
  Ho  Ho3  1  0.500000  0.825038  0.087421  1
  Tm  Tm4  1  0.500000  0.443471  0.126054  1
  Tm  Tm5  1  0.500000  0.557077  0.872268  1
  Tm  Tm6  1  0.500000  0.055686  0.628752  1
  Tm  Tm7  1  0.500000  0.946607  0.372721  1
  V  V8  1  0.500000  0.139145  0.179211  1
  B  B9  1  0.000000  0.106845  0.472308  1
  B  B10  1  0.000000  0.892841  0.529851  1
  B  B11  1  0.000000  0.395963  0.969856  1
  B  B12  1  0.000000  0.606994  0.028539  1
  B  B13  1  0.000000  0.132123  0.316059  1
  B  B14  1  0.000000  0.866906  0.683643  1
  B  B15  1  0.000000  0.367831  0.816661  1
  B  B16  1  0.000000  0.632714  0.183944  1
  B  B17  1  0.000000  0.051773  0.065979  1
  B  B18  1  0.000000  0.947156  0.933461  1
  B  B19  1  0.000000  0.445737  0.565610  1
  B  B20  1  0.000000  0.552870  0.433276  1
  B  B21  1  0.000000  0.482345  0.287057  1
  B  B22  1  0.000000  0.517436  0.711830  1
  B  B23  1  0.000000  0.017359  0.787511  1
  B  B24  1  0.000000  0.981530  0.213508  1
  B  B25  1  0.000000  0.250109  0.079949  1
  B  B26  1  0.000000  0.750906  0.919578  1
  B  B27  1  0.000000  0.249855  0.579492  1
  B  B28  1  0.000000  0.750028  0.420225  1
  B  B29  1  0.000000  0.294629  0.235514  1
  B  B30  1  0.000000  0.705654  0.764064  1
  B  B31  1  0.000000  0.207051  0.736176  1
  B  B32  1  0.000000  0.793205  0.265855  1
  Rh  Rh33  1  0.500000  0.860029  0.819963  1
  Rh  Rh34  1  0.500000  0.360663  0.679675  1
  Rh  Rh35  1  0.500000  0.639275  0.321023  1
