# generated using pymatgen
data_La6Nd2LuU3Se20
_symmetry_space_group_name_H-M   'P 1'
_cell_length_a   7.93122918
_cell_length_b   8.51600987
_cell_length_c   12.50727777
_cell_angle_alpha   89.97221672
_cell_angle_beta   90.29191494
_cell_angle_gamma   89.88112391
_symmetry_Int_Tables_number   1
_chemical_formula_structural   La6Nd2LuU3Se20
_chemical_formula_sum   'La6 Nd2 Lu1 U3 Se20'
_cell_volume   844.75899681
_cell_formula_units_Z   1
loop_
 _symmetry_equiv_pos_site_id
 _symmetry_equiv_pos_as_xyz
  1  'x, y, z'
loop_
 _atom_site_type_symbol
 _atom_site_label
 _atom_site_symmetry_multiplicity
 _atom_site_fract_x
 _atom_site_fract_y
 _atom_site_fract_z
 _atom_site_occupancy
  La  La0  1  0.470410  0.999569  0.673692  1
  La  La1  1  0.028604  0.501490  0.179877  1
  La  La2  1  0.470597  0.500267  0.672859  1
  La  La3  1  0.028842  0.998605  0.179166  1
  La  La4  1  0.531295  0.997681  0.324734  1
  La  La5  1  0.970164  0.501004  0.821733  1
  Nd  Nd6  1  0.530010  0.500513  0.323369  1
  Nd  Nd7  1  0.971082  0.001206  0.820829  1
  Lu  Lu8  1  0.067907  0.749881  0.495704  1
  U  U9  1  0.428120  0.750523  0.989726  1
  U  U10  1  0.938658  0.250274  0.505974  1
  U  U11  1  0.570260  0.249361  0.009660  1
  Se  Se12  1  0.833446  0.963251  0.593818  1
  Se  Se13  1  0.663071  0.542668  0.093199  1
  Se  Se14  1  0.167060  0.460840  0.410363  1
  Se  Se15  1  0.333375  0.043009  0.906772  1
  Se  Se16  1  0.164980  0.039277  0.410105  1
  Se  Se17  1  0.336392  0.457279  0.906559  1
  Se  Se18  1  0.833355  0.537009  0.592820  1
  Se  Se19  1  0.663755  0.956278  0.091928  1
  Se  Se20  1  0.833778  0.748208  0.315673  1
  Se  Se21  1  0.665031  0.751797  0.814068  1
  Se  Se22  1  0.164631  0.247949  0.687122  1
  Se  Se23  1  0.337867  0.251934  0.187818  1
  Se  Se24  1  0.451305  0.747014  0.495514  1
  Se  Se25  1  0.044820  0.752731  0.997933  1
  Se  Se26  1  0.549754  0.252608  0.498328  1
  Se  Se27  1  0.953129  0.247407  0.000865  1
  Se  Se28  1  0.187552  0.752911  0.713230  1
  Se  Se29  1  0.312596  0.747578  0.211551  1
  Se  Se30  1  0.808235  0.251757  0.286151  1
  Se  Se31  1  0.689916  0.248120  0.788857  1
