# generated using pymatgen
data_Sm5Nb3Co16(SiP)6
_symmetry_space_group_name_H-M   'P 1'
_cell_length_a   12.36193000
_cell_length_b   12.36193050
_cell_length_c   3.77057900
_cell_angle_alpha   90.00000000
_cell_angle_beta   90.00000000
_cell_angle_gamma   119.99999866
_symmetry_Int_Tables_number   1
_chemical_formula_structural   Sm5Nb3Co16(SiP)6
_chemical_formula_sum   'Sm5 Nb3 Co16 Si6 P6'
_cell_volume   499.01231058
_cell_formula_units_Z   1
loop_
 _symmetry_equiv_pos_site_id
 _symmetry_equiv_pos_as_xyz
  1  'x, y, z'
loop_
 _atom_site_type_symbol
 _atom_site_label
 _atom_site_symmetry_multiplicity
 _atom_site_fract_x
 _atom_site_fract_y
 _atom_site_fract_z
 _atom_site_occupancy
  Sm  Sm0  1  0.816086  0.000000  0.500000  1
  Sm  Sm1  1  0.000000  0.816086  0.500000  1
  Sm  Sm2  1  0.183914  0.183914  0.500000  1
  Sm  Sm3  1  0.333333  0.666667  0.000000  1
  Sm  Sm4  1  0.666667  0.333333  0.000000  1
  Nb  Nb5  1  0.439201  0.000000  0.000000  1
  Nb  Nb6  1  0.000000  0.439201  0.000000  1
  Nb  Nb7  1  0.560799  0.560799  0.000000  1
  Co  Co8  1  0.277248  0.000000  0.500000  1
  Co  Co9  1  0.000000  0.277248  0.500000  1
  Co  Co10  1  0.722752  0.722752  0.500000  1
  Co  Co11  1  0.628411  0.807023  0.000000  1
  Co  Co12  1  0.192977  0.821388  0.000000  1
  Co  Co13  1  0.178612  0.371589  0.000000  1
  Co  Co14  1  0.371589  0.178612  0.000000  1
  Co  Co15  1  0.807023  0.628411  0.000000  1
  Co  Co16  1  0.821388  0.192977  0.000000  1
  Co  Co17  1  0.523717  0.879679  0.500000  1
  Co  Co18  1  0.120321  0.644038  0.500000  1
  Co  Co19  1  0.355962  0.476283  0.500000  1
  Co  Co20  1  0.476283  0.355962  0.500000  1
  Co  Co21  1  0.879679  0.523717  0.500000  1
  Co  Co22  1  0.644038  0.120321  0.500000  1
  Co  Co23  1  0.000000  0.000000  0.000000  1
  Si  Si24  1  0.523632  0.691463  0.500000  1
  Si  Si25  1  0.308537  0.832169  0.500000  1
  Si  Si26  1  0.167831  0.476368  0.500000  1
  Si  Si27  1  0.476368  0.167831  0.500000  1
  Si  Si28  1  0.691463  0.523632  0.500000  1
  Si  Si29  1  0.832169  0.308537  0.500000  1
  P  P30  1  0.182682  0.000000  0.000000  1
  P  P31  1  0.000000  0.182682  0.000000  1
  P  P32  1  0.817318  0.817318  0.000000  1
  P  P33  1  0.640348  0.000000  0.000000  1
  P  P34  1  0.000000  0.640348  0.000000  1
  P  P35  1  0.359652  0.359652  0.000000  1
