# generated using pymatgen
data_Pa4Ga12Pt
_symmetry_space_group_name_H-M   'P 1'
_cell_length_a   7.50824913
_cell_length_b   7.50818325
_cell_length_c   7.50818403
_cell_angle_alpha   109.46852362
_cell_angle_beta   109.46311020
_cell_angle_gamma   109.46311371
_symmetry_Int_Tables_number   1
_chemical_formula_structural   Pa4Ga12Pt
_chemical_formula_sum   'Pa4 Ga12 Pt1'
_cell_volume   325.90264949
_cell_formula_units_Z   1
loop_
 _symmetry_equiv_pos_site_id
 _symmetry_equiv_pos_as_xyz
  1  'x, y, z'
loop_
 _atom_site_type_symbol
 _atom_site_label
 _atom_site_symmetry_multiplicity
 _atom_site_fract_x
 _atom_site_fract_y
 _atom_site_fract_z
 _atom_site_occupancy
  Pa  Pa0  1  0.499999  0.000000  0.000000  1
  Pa  Pa1  1  0.000000  0.499999  0.000000  1
  Pa  Pa2  1  0.000000  0.000000  0.499999  1
  Pa  Pa3  1  0.499999  0.499999  0.499999  1
  Ga  Ga4  1  0.298658  0.298684  0.999902  1
  Ga  Ga5  1  0.701342  0.701316  0.000098  1
  Ga  Ga6  1  0.750077  0.500039  0.249959  1
  Ga  Ga7  1  0.500000  0.750039  0.249961  1
  Ga  Ga8  1  0.298658  0.999902  0.298684  1
  Ga  Ga9  1  0.999931  0.298682  0.298682  1
  Ga  Ga10  1  0.750077  0.249959  0.500039  1
  Ga  Ga11  1  0.249923  0.750041  0.499961  1
  Ga  Ga12  1  0.701342  0.000098  0.701316  1
  Ga  Ga13  1  0.000069  0.701318  0.701318  1
  Ga  Ga14  1  0.500000  0.249961  0.750039  1
  Ga  Ga15  1  0.249923  0.499961  0.750041  1
  Pt  Pt16  1  0.000000  0.000000  0.000000  1
