# generated using pymatgen
data_YMg3P6N13
_symmetry_space_group_name_H-M   'P 1'
_cell_length_a   7.14143926
_cell_length_b   7.14144004
_cell_length_c   7.14143851
_cell_angle_alpha   109.29251251
_cell_angle_beta   109.29252328
_cell_angle_gamma   109.29251670
_symmetry_Int_Tables_number   1
_chemical_formula_structural   YMg3P6N13
_chemical_formula_sum   'Y1 Mg3 P6 N13'
_cell_volume   282.21224685
_cell_formula_units_Z   1
loop_
 _symmetry_equiv_pos_site_id
 _symmetry_equiv_pos_as_xyz
  1  'x, y, z'
loop_
 _atom_site_type_symbol
 _atom_site_label
 _atom_site_symmetry_multiplicity
 _atom_site_fract_x
 _atom_site_fract_y
 _atom_site_fract_z
 _atom_site_occupancy
  Y  Y0  1  0.286213  0.286213  0.286213  1
  Mg  Mg1  1  0.991803  0.695573  0.991803  1
  Mg  Mg2  1  0.695573  0.991803  0.991803  1
  Mg  Mg3  1  0.991803  0.991803  0.695573  1
  P  P4  1  0.504284  0.252012  0.756964  1
  P  P5  1  0.504284  0.756964  0.252012  1
  P  P6  1  0.756964  0.252012  0.504284  1
  P  P7  1  0.252012  0.504284  0.756964  1
  P  P8  1  0.756964  0.504284  0.252012  1
  P  P9  1  0.252012  0.756964  0.504284  1
  N  N10  1  0.982759  0.982759  0.982759  1
  N  N11  1  0.001524  0.733355  0.448731  1
  N  N12  1  0.271310  0.716192  0.271310  1
  N  N13  1  0.279885  0.559707  0.559707  1
  N  N14  1  0.559707  0.559707  0.279885  1
  N  N15  1  0.559707  0.279885  0.559707  1
  N  N16  1  0.733355  0.001524  0.448731  1
  N  N17  1  0.448731  0.001524  0.733355  1
  N  N18  1  0.733355  0.448731  0.001524  1
  N  N19  1  0.271310  0.271310  0.716192  1
  N  N20  1  0.716192  0.271310  0.271310  1
  N  N21  1  0.001524  0.448731  0.733355  1
  N  N22  1  0.448731  0.733355  0.001524  1
