# generated using pymatgen
data_Zr8Ti12Ga5Ge11
_symmetry_space_group_name_H-M   'P 1'
_cell_length_a   6.87169584
_cell_length_b   6.97935477
_cell_length_c   13.09823008
_cell_angle_alpha   90.05418445
_cell_angle_beta   89.91554951
_cell_angle_gamma   90.00104567
_symmetry_Int_Tables_number   1
_chemical_formula_structural   Zr8Ti12Ga5Ge11
_chemical_formula_sum   'Zr8 Ti12 Ga5 Ge11'
_cell_volume   628.19019294
_cell_formula_units_Z   1
loop_
 _symmetry_equiv_pos_site_id
 _symmetry_equiv_pos_as_xyz
  1  'x, y, z'
loop_
 _atom_site_type_symbol
 _atom_site_label
 _atom_site_symmetry_multiplicity
 _atom_site_fract_x
 _atom_site_fract_y
 _atom_site_fract_z
 _atom_site_occupancy
  Zr  Zr0  1  0.492177  0.673082  0.094224  1
  Zr  Zr1  1  0.993184  0.824090  0.407097  1
  Zr  Zr2  1  0.506697  0.324113  0.592785  1
  Zr  Zr3  1  0.006288  0.176222  0.907263  1
  Zr  Zr4  1  0.505306  0.327305  0.906569  1
  Zr  Zr5  1  0.006932  0.175777  0.592781  1
  Zr  Zr6  1  0.493345  0.675920  0.406891  1
  Zr  Zr7  1  0.996840  0.824306  0.093651  1
  Ti  Ti8  1  0.331124  0.006147  0.250396  1
  Ti  Ti9  1  0.831463  0.493141  0.250069  1
  Ti  Ti10  1  0.668123  0.993865  0.748500  1
  Ti  Ti11  1  0.168343  0.506533  0.750214  1
  Ti  Ti12  1  0.656131  0.169933  0.128517  1
  Ti  Ti13  1  0.155482  0.331310  0.373120  1
  Ti  Ti14  1  0.344512  0.831376  0.626952  1
  Ti  Ti15  1  0.845810  0.667858  0.872328  1
  Ti  Ti16  1  0.342488  0.831235  0.872033  1
  Ti  Ti17  1  0.845070  0.668977  0.627191  1
  Ti  Ti18  1  0.655344  0.168336  0.372787  1
  Ti  Ti19  1  0.155532  0.330391  0.127130  1
  Ga  Ga20  1  0.693517  0.854209  0.249433  1
  Ga  Ga21  1  0.192833  0.645084  0.250401  1
  Ga  Ga22  1  0.306989  0.145683  0.750239  1
  Ga  Ga23  1  0.806120  0.353762  0.749962  1
  Ga  Ga24  1  0.678874  0.959530  0.957818  1
  Ge  Ge25  1  0.181496  0.540536  0.542177  1
  Ge  Ge26  1  0.318353  0.040392  0.457927  1
  Ge  Ge27  1  0.817808  0.459633  0.041796  1
  Ge  Ge28  1  0.324348  0.039629  0.041527  1
  Ge  Ge29  1  0.818350  0.459392  0.457781  1
  Ge  Ge30  1  0.681618  0.959486  0.541679  1
  Ge  Ge31  1  0.180792  0.540593  0.958174  1
  Ge  Ge32  1  0.456782  0.381109  0.250542  1
  Ge  Ge33  1  0.957685  0.118906  0.250256  1
  Ge  Ge34  1  0.542807  0.619650  0.749890  1
  Ge  Ge35  1  0.041436  0.882488  0.749899  1
