# generated using pymatgen
data_Ho2LuSn3HgRh2
_symmetry_space_group_name_H-M   'P 1'
_cell_length_a   7.68437889
_cell_length_b   7.70122628
_cell_length_c   3.87125400
_cell_angle_alpha   90.00000000
_cell_angle_beta   90.00000000
_cell_angle_gamma   120.18803257
_symmetry_Int_Tables_number   1
_chemical_formula_structural   Ho2LuSn3HgRh2
_chemical_formula_sum   'Ho2 Lu1 Sn3 Hg1 Rh2'
_cell_volume   198.02724954
_cell_formula_units_Z   1
loop_
 _symmetry_equiv_pos_site_id
 _symmetry_equiv_pos_as_xyz
  1  'x, y, z'
loop_
 _atom_site_type_symbol
 _atom_site_label
 _atom_site_symmetry_multiplicity
 _atom_site_fract_x
 _atom_site_fract_y
 _atom_site_fract_z
 _atom_site_occupancy
  Ho  Ho0  1  0.589064  0.610008  0.000000  1
  Ho  Ho1  1  0.389498  0.978712  0.000000  1
  Lu  Lu2  1  0.023305  0.411016  0.000000  1
  Sn  Sn3  1  0.250492  0.259373  0.500000  1
  Sn  Sn4  1  0.006905  0.747910  0.500000  1
  Sn  Sn5  1  0.742036  0.993670  0.500000  1
  Hg  Hg6  1  0.668543  0.333708  0.500000  1
  Rh  Rh7  1  0.330157  0.664351  0.500000  1
  Rh  Rh8  1  0.000000  0.001252  0.000000  1
