# generated using pymatgen
data_Tb15Nd(ErSn4)4
_symmetry_space_group_name_H-M   'P 1'
_cell_length_a   8.05154666
_cell_length_b   8.20892131
_cell_length_c   15.52824516
_cell_angle_alpha   89.99417929
_cell_angle_beta   89.74883867
_cell_angle_gamma   90.11735248
_symmetry_Int_Tables_number   1
_chemical_formula_structural   Tb15Nd(ErSn4)4
_chemical_formula_sum   'Tb15 Nd1 Er4 Sn16'
_cell_volume   1026.31977998
_cell_formula_units_Z   1
loop_
 _symmetry_equiv_pos_site_id
 _symmetry_equiv_pos_as_xyz
  1  'x, y, z'
loop_
 _atom_site_type_symbol
 _atom_site_label
 _atom_site_symmetry_multiplicity
 _atom_site_fract_x
 _atom_site_fract_y
 _atom_site_fract_z
 _atom_site_occupancy
  Tb  Tb0  1  0.018112  0.178323  0.402961  1
  Tb  Tb1  1  0.365966  0.837246  0.121337  1
  Tb  Tb2  1  0.135898  0.336958  0.623105  1
  Tb  Tb3  1  0.480854  0.679216  0.902654  1
  Tb  Tb4  1  0.866704  0.662597  0.121930  1
  Tb  Tb5  1  0.133705  0.337702  0.877764  1
  Tb  Tb6  1  0.482836  0.680768  0.597223  1
  Tb  Tb7  1  0.636072  0.162489  0.622631  1
  Tb  Tb8  1  0.864120  0.662908  0.376939  1
  Tb  Tb9  1  0.018882  0.178815  0.096382  1
  Tb  Tb10  1  0.980822  0.820687  0.902450  1
  Tb  Tb11  1  0.633734  0.162358  0.877962  1
  Tb  Tb12  1  0.519873  0.320433  0.097639  1
  Tb  Tb13  1  0.364851  0.837699  0.377500  1
  Tb  Tb14  1  0.982014  0.820482  0.597367  1
  Nd  Nd15  1  0.514946  0.320215  0.404092  1
  Er  Er16  1  0.197024  0.502803  0.249366  1
  Er  Er17  1  0.697273  0.997176  0.249334  1
  Er  Er18  1  0.303142  0.002683  0.750321  1
  Er  Er19  1  0.803496  0.497422  0.750630  1
  Sn  Sn20  1  0.798540  0.465103  0.543700  1
  Sn  Sn21  1  0.706016  0.960675  0.458471  1
  Sn  Sn22  1  0.672283  0.851403  0.749948  1
  Sn  Sn23  1  0.200196  0.541255  0.459110  1
  Sn  Sn24  1  0.293305  0.036941  0.957430  1
  Sn  Sn25  1  0.829344  0.351392  0.249601  1
  Sn  Sn26  1  0.793187  0.463244  0.957668  1
  Sn  Sn27  1  0.562454  0.619269  0.249331  1
  Sn  Sn28  1  0.206803  0.535323  0.042208  1
  Sn  Sn29  1  0.437980  0.382233  0.750182  1
  Sn  Sn30  1  0.172843  0.648690  0.749796  1
  Sn  Sn31  1  0.937386  0.117240  0.750417  1
  Sn  Sn32  1  0.294562  0.036830  0.542342  1
  Sn  Sn33  1  0.706536  0.962936  0.041875  1
  Sn  Sn34  1  0.325304  0.146685  0.248527  1
  Sn  Sn35  1  0.062938  0.881802  0.249806  1
