# generated using pymatgen
data_Ho13Tm7(IrRh3)3
_symmetry_space_group_name_H-M   'P 1'
_cell_length_a   10.81652113
_cell_length_b   10.81165235
_cell_length_c   6.32074814
_cell_angle_alpha   90.00224252
_cell_angle_beta   90.00124321
_cell_angle_gamma   89.87602244
_symmetry_Int_Tables_number   1
_chemical_formula_structural   Ho13Tm7(IrRh3)3
_chemical_formula_sum   'Ho13 Tm7 Ir3 Rh9'
_cell_volume   739.17478510
_cell_formula_units_Z   1
loop_
 _symmetry_equiv_pos_site_id
 _symmetry_equiv_pos_as_xyz
  1  'x, y, z'
loop_
 _atom_site_type_symbol
 _atom_site_label
 _atom_site_symmetry_multiplicity
 _atom_site_fract_x
 _atom_site_fract_y
 _atom_site_fract_z
 _atom_site_occupancy
  Ho  Ho0  1  0.289972  0.089837  0.377973  1
  Ho  Ho1  1  0.290456  0.909782  0.877482  1
  Ho  Ho2  1  0.709701  0.088386  0.877302  1
  Ho  Ho3  1  0.709188  0.910237  0.377692  1
  Ho  Ho4  1  0.587093  0.789088  0.878957  1
  Ho  Ho5  1  0.586646  0.209892  0.377490  1
  Ho  Ho6  1  0.412732  0.789541  0.378295  1
  Ho  Ho7  1  0.410680  0.209939  0.878832  1
  Ho  Ho8  1  0.210433  0.412922  0.620997  1
  Ho  Ho9  1  0.210155  0.586864  0.121711  1
  Ho  Ho10  1  0.790600  0.412957  0.122657  1
  Ho  Ho11  1  0.790480  0.588819  0.621172  1
  Ho  Ho12  1  0.910994  0.709629  0.121512  1
  Tm  Tm13  1  0.912743  0.291210  0.621681  1
  Tm  Tm14  1  0.089680  0.708527  0.621498  1
  Tm  Tm15  1  0.089211  0.291432  0.121628  1
  Tm  Tm16  1  0.999654  0.999999  0.500205  1
  Tm  Tm17  1  0.000222  0.000847  0.000477  1
  Tm  Tm18  1  0.499793  0.499557  0.000046  1
  Tm  Tm19  1  0.500267  0.500116  0.500371  1
  Ir  Ir20  1  0.653790  0.652710  0.249847  1
  Ir  Ir21  1  0.346348  0.346208  0.249712  1
  Ir  Ir22  1  0.345517  0.653695  0.749647  1
  Rh  Rh23  1  0.847566  0.154236  0.250902  1
  Rh  Rh24  1  0.847793  0.847865  0.750094  1
  Rh  Rh25  1  0.150972  0.153508  0.750552  1
  Rh  Rh26  1  0.152320  0.847100  0.251303  1
  Rh  Rh27  1  0.655072  0.345499  0.749591  1
  Rh  Rh28  1  0.500052  0.000543  0.123566  1
  Rh  Rh29  1  0.500343  0.000714  0.624395  1
  Rh  Rh30  1  0.999691  0.499008  0.875278  1
  Rh  Rh31  1  0.999831  0.499334  0.377136  1
