# generated using pymatgen
data_Eu3Cd3Pd2Pt
_symmetry_space_group_name_H-M   'P 1'
_cell_length_a   7.70928200
_cell_length_b   7.70928245
_cell_length_c   4.20752100
_cell_angle_alpha   90.00000000
_cell_angle_beta   90.00000000
_cell_angle_gamma   120.00000665
_symmetry_Int_Tables_number   1
_chemical_formula_structural   Eu3Cd3Pd2Pt
_chemical_formula_sum   'Eu3 Cd3 Pd2 Pt1'
_cell_volume   216.56326206
_cell_formula_units_Z   1
loop_
 _symmetry_equiv_pos_site_id
 _symmetry_equiv_pos_as_xyz
  1  'x, y, z'
loop_
 _atom_site_type_symbol
 _atom_site_label
 _atom_site_symmetry_multiplicity
 _atom_site_fract_x
 _atom_site_fract_y
 _atom_site_fract_z
 _atom_site_occupancy
  Eu  Eu0  1  0.412543  0.407327  0.500000  1
  Eu  Eu1  1  0.592673  0.005216  0.500000  1
  Eu  Eu2  1  0.994784  0.587457  0.500000  1
  Cd  Cd3  1  0.749185  0.751611  0.000000  1
  Cd  Cd4  1  0.248389  0.997574  0.000000  1
  Cd  Cd5  1  0.002426  0.250815  0.000000  1
  Pd  Pd6  1  0.333333  0.666667  0.000000  1
  Pd  Pd7  1  0.000000  0.000000  0.500000  1
  Pt  Pt8  1  0.666667  0.333333  0.000000  1
