# generated using pymatgen
data_Dy20(OsPt3)3
_symmetry_space_group_name_H-M   'P 1'
_cell_length_a   11.03997700
_cell_length_b   11.03997700
_cell_length_c   6.39431100
_cell_angle_alpha   90.00000000
_cell_angle_beta   90.00000000
_cell_angle_gamma   90.00000000
_symmetry_Int_Tables_number   1
_chemical_formula_structural   Dy20(OsPt3)3
_chemical_formula_sum   'Dy20 Os3 Pt9'
_cell_volume   779.34560829
_cell_formula_units_Z   1
loop_
 _symmetry_equiv_pos_site_id
 _symmetry_equiv_pos_as_xyz
  1  'x, y, z'
loop_
 _atom_site_type_symbol
 _atom_site_label
 _atom_site_symmetry_multiplicity
 _atom_site_fract_x
 _atom_site_fract_y
 _atom_site_fract_z
 _atom_site_occupancy
  Dy  Dy0  1  0.297706  0.086411  0.373627  1
  Dy  Dy1  1  0.298067  0.914555  0.874107  1
  Dy  Dy2  1  0.701933  0.085445  0.874107  1
  Dy  Dy3  1  0.702294  0.913589  0.373627  1
  Dy  Dy4  1  0.585445  0.798067  0.874107  1
  Dy  Dy5  1  0.586411  0.202294  0.373627  1
  Dy  Dy6  1  0.413589  0.797706  0.373627  1
  Dy  Dy7  1  0.414555  0.201933  0.874107  1
  Dy  Dy8  1  0.206557  0.410574  0.631355  1
  Dy  Dy9  1  0.205161  0.588557  0.121976  1
  Dy  Dy10  1  0.794839  0.411443  0.121976  1
  Dy  Dy11  1  0.793443  0.589426  0.631355  1
  Dy  Dy12  1  0.911443  0.705161  0.121976  1
  Dy  Dy13  1  0.910574  0.293443  0.631355  1
  Dy  Dy14  1  0.089426  0.706557  0.631355  1
  Dy  Dy15  1  0.088557  0.294839  0.121976  1
  Dy  Dy16  1  0.000000  0.000000  0.498333  1
  Dy  Dy17  1  0.000000  0.000000  0.998705  1
  Dy  Dy18  1  0.500000  0.500000  0.998705  1
  Dy  Dy19  1  0.500000  0.500000  0.498333  1
  Os  Os20  1  0.500000  0.000000  0.126510  1
  Os  Os21  1  0.500000  0.000000  0.625661  1
  Os  Os22  1  0.000000  0.500000  0.874253  1
  Pt  Pt23  1  0.847726  0.154698  0.249535  1
  Pt  Pt24  1  0.847356  0.846090  0.749393  1
  Pt  Pt25  1  0.152644  0.153910  0.749393  1
  Pt  Pt26  1  0.152274  0.845302  0.249535  1
  Pt  Pt27  1  0.653910  0.347356  0.749393  1
  Pt  Pt28  1  0.654698  0.652274  0.249535  1
  Pt  Pt29  1  0.345302  0.347726  0.249535  1
  Pt  Pt30  1  0.346090  0.652644  0.749393  1
  Pt  Pt31  1  0.000000  0.500000  0.379529  1
