# generated using pymatgen
data_Dy8TaTi10Si16Au
_symmetry_space_group_name_H-M   'P 1'
_cell_length_a   7.07088632
_cell_length_b   7.07088561
_cell_length_c   12.90861987
_cell_angle_alpha   89.81796297
_cell_angle_beta   90.18203825
_cell_angle_gamma   89.64922839
_symmetry_Int_Tables_number   1
_chemical_formula_structural   Dy8TaTi10Si16Au
_chemical_formula_sum   'Dy8 Ta1 Ti10 Si16 Au1'
_cell_volume   645.37914635
_cell_formula_units_Z   1
loop_
 _symmetry_equiv_pos_site_id
 _symmetry_equiv_pos_as_xyz
  1  'x, y, z'
loop_
 _atom_site_type_symbol
 _atom_site_label
 _atom_site_symmetry_multiplicity
 _atom_site_fract_x
 _atom_site_fract_y
 _atom_site_fract_z
 _atom_site_occupancy
  Dy  Dy0  1  0.997742  0.659043  0.032672  1
  Dy  Dy1  1  0.999434  0.343713  0.531352  1
  Dy  Dy2  1  0.659043  0.997742  0.967328  1
  Dy  Dy3  1  0.159701  0.502552  0.783094  1
  Dy  Dy4  1  0.841942  0.498718  0.285680  1
  Dy  Dy5  1  0.502552  0.159701  0.216906  1
  Dy  Dy6  1  0.498718  0.841942  0.714320  1
  Dy  Dy7  1  0.343713  0.999434  0.468648  1
  Ta  Ta8  1  0.327129  0.327129  0.000000  1
  Ti  Ti9  1  0.348848  0.505878  0.376221  1
  Ti  Ti10  1  0.851824  0.992375  0.377272  1
  Ti  Ti11  1  0.008883  0.151433  0.124915  1
  Ti  Ti12  1  0.992375  0.851824  0.622728  1
  Ti  Ti13  1  0.505878  0.348848  0.623779  1
  Ti  Ti14  1  0.151433  0.008883  0.875085  1
  Ti  Ti15  1  0.825327  0.173786  0.749433  1
  Ti  Ti16  1  0.173786  0.825327  0.250567  1
  Ti  Ti17  1  0.491693  0.648720  0.125417  1
  Ti  Ti18  1  0.648720  0.491693  0.874583  1
  Si  Si19  1  0.062462  0.714307  0.433990  1
  Si  Si20  1  0.952367  0.290861  0.935461  1
  Si  Si21  1  0.714307  0.062462  0.566010  1
  Si  Si22  1  0.208020  0.453564  0.185977  1
  Si  Si23  1  0.792239  0.545401  0.690080  1
  Si  Si24  1  0.453564  0.208020  0.814023  1
  Si  Si25  1  0.545401  0.792239  0.309920  1
  Si  Si26  1  0.290861  0.952367  0.064539  1
  Si  Si27  1  0.798106  0.868128  0.184853  1
  Si  Si28  1  0.281329  0.625858  0.570185  1
  Si  Si29  1  0.704954  0.369284  0.066519  1
  Si  Si30  1  0.625858  0.281329  0.429815  1
  Si  Si31  1  0.369284  0.704954  0.933481  1
  Si  Si32  1  0.131942  0.201687  0.316853  1
  Si  Si33  1  0.201687  0.131942  0.683147  1
  Si  Si34  1  0.868128  0.798106  0.815147  1
  Au  Au35  1  0.670748  0.670748  0.500000  1
