# generated using pymatgen
data_Zr10TiHgBi4
_symmetry_space_group_name_H-M   'P 1'
_cell_length_a   5.69787049
_cell_length_b   8.57685524
_cell_length_c   8.57685531
_cell_angle_alpha   96.33456692
_cell_angle_beta   109.40026221
_cell_angle_gamma   70.59973462
_symmetry_Int_Tables_number   1
_chemical_formula_structural   Zr10TiHgBi4
_chemical_formula_sum   'Zr10 Ti1 Hg1 Bi4'
_cell_volume   372.90291570
_cell_formula_units_Z   1
loop_
 _symmetry_equiv_pos_site_id
 _symmetry_equiv_pos_as_xyz
  1  'x, y, z'
loop_
 _atom_site_type_symbol
 _atom_site_label
 _atom_site_symmetry_multiplicity
 _atom_site_fract_x
 _atom_site_fract_y
 _atom_site_fract_z
 _atom_site_occupancy
  Zr  Zr0  1  0.410865  0.859436  0.709391  1
  Zr  Zr1  1  0.560909  0.140564  0.290609  1
  Zr  Zr2  1  0.939091  0.290609  0.140564  1
  Zr  Zr3  1  0.089135  0.709391  0.859436  1
  Zr  Zr4  1  0.701471  0.709391  0.140564  1
  Zr  Zr5  1  0.270300  0.290609  0.859436  1
  Zr  Zr6  1  0.798529  0.140564  0.709391  1
  Zr  Zr7  1  0.229700  0.859436  0.290609  1
  Zr  Zr8  1  0.250000  0.500000  0.500000  1
  Zr  Zr9  1  0.750000  0.500000  0.500000  1
  Ti  Ti10  1  0.250000  0.000000  0.000000  1
  Hg  Hg11  1  0.750000  0.000000  0.000000  1
  Bi  Bi12  1  0.335799  0.500000  0.171599  1
  Bi  Bi13  1  0.664201  0.500000  0.828401  1
  Bi  Bi14  1  0.835799  0.828401  0.500000  1
  Bi  Bi15  1  0.164201  0.171599  0.500000  1
