# generated using pymatgen
data_Ho2Si5OsRu2
_symmetry_space_group_name_H-M   'P 1'
_cell_length_a   8.26803084
_cell_length_b   8.20783105
_cell_length_c   8.20720014
_cell_angle_alpha   139.88569133
_cell_angle_beta   108.63604763
_cell_angle_gamma   85.07911322
_symmetry_Int_Tables_number   1
_chemical_formula_structural   Ho2Si5OsRu2
_chemical_formula_sum   'Ho4 Si10 Os2 Ru4'
_cell_volume   328.36856396
_cell_formula_units_Z   2
loop_
 _symmetry_equiv_pos_site_id
 _symmetry_equiv_pos_as_xyz
  1  'x, y, z'
loop_
 _atom_site_type_symbol
 _atom_site_label
 _atom_site_symmetry_multiplicity
 _atom_site_fract_x
 _atom_site_fract_y
 _atom_site_fract_z
 _atom_site_occupancy
  Ho  Ho0  1  0.898145  0.134357  0.765699  1
  Ho  Ho1  1  0.103432  0.869005  0.236836  1
  Ho  Ho2  1  0.631959  0.360693  0.269794  1
  Ho  Ho3  1  0.367460  0.636867  0.728858  1
  Si  Si4  1  0.999718  0.749970  0.749335  1
  Si  Si5  1  0.999647  0.250653  0.249953  1
  Si  Si6  1  0.700675  0.439936  0.725694  1
  Si  Si7  1  0.297630  0.028799  0.742399  1
  Si  Si8  1  0.297569  0.554844  0.268238  1
  Si  Si9  1  0.701067  0.973685  0.260042  1
  Si  Si10  1  0.242646  0.409765  0.835929  1
  Si  Si11  1  0.573420  0.900242  0.671233  1
  Si  Si12  1  0.425500  0.097587  0.325606  1
  Si  Si13  1  0.758922  0.592562  0.168510  1
  Os  Os14  1  0.763066  0.849427  0.912831  1
  Os  Os15  1  0.501053  0.248776  0.749158  1
  Ru  Ru16  1  0.956522  0.356851  0.600618  1
  Ru  Ru17  1  0.044708  0.644516  0.401081  1
  Ru  Ru18  1  0.235645  0.149329  0.085566  1
  Ru  Ru19  1  0.501217  0.752137  0.252620  1
