# generated using pymatgen
data_Cs4Rb2LaInAs4
_symmetry_space_group_name_H-M   'P 1'
_cell_length_a   10.00780188
_cell_length_b   10.00780172
_cell_length_c   10.00780298
_cell_angle_alpha   130.59581108
_cell_angle_beta   137.08251294
_cell_angle_gamma   67.47702996
_symmetry_Int_Tables_number   1
_chemical_formula_structural   Cs4Rb2LaInAs4
_chemical_formula_sum   'Cs4 Rb2 La1 In1 As4'
_cell_volume   509.72278171
_cell_formula_units_Z   1
loop_
 _symmetry_equiv_pos_site_id
 _symmetry_equiv_pos_as_xyz
  1  'x, y, z'
loop_
 _atom_site_type_symbol
 _atom_site_label
 _atom_site_symmetry_multiplicity
 _atom_site_fract_x
 _atom_site_fract_y
 _atom_site_fract_z
 _atom_site_occupancy
  Cs  Cs0  1  0.694530  0.468056  0.795944  1
  Cs  Cs1  1  0.805470  0.101414  0.273526  1
  Cs  Cs2  1  0.172113  0.898586  0.704056  1
  Cs  Cs3  1  0.327887  0.531944  0.226474  1
  Rb  Rb4  1  0.750000  0.000000  0.750000  1
  Rb  Rb5  1  0.250000  0.000000  0.250000  1
  La  La6  1  0.250000  0.500000  0.750000  1
  In  In7  1  0.750000  0.500000  0.250000  1
  As  As8  1  0.421237  0.214459  0.825476  1
  As  As9  1  0.611018  0.785541  0.206779  1
  As  As10  1  0.078763  0.404239  0.293221  1
  As  As11  1  0.888982  0.595761  0.674524  1
