# generated using pymatgen
data_Tb16In3AgRu4
_symmetry_space_group_name_H-M   'P 1'
_cell_length_a   9.67773010
_cell_length_b   9.67772932
_cell_length_c   9.67772963
_cell_angle_alpha   59.49738125
_cell_angle_beta   59.49737984
_cell_angle_gamma   59.49737983
_symmetry_Int_Tables_number   1
_chemical_formula_structural   Tb16In3AgRu4
_chemical_formula_sum   'Tb16 In3 Ag1 Ru4'
_cell_volume   633.59597092
_cell_formula_units_Z   1
loop_
 _symmetry_equiv_pos_site_id
 _symmetry_equiv_pos_as_xyz
  1  'x, y, z'
loop_
 _atom_site_type_symbol
 _atom_site_label
 _atom_site_symmetry_multiplicity
 _atom_site_fract_x
 _atom_site_fract_y
 _atom_site_fract_z
 _atom_site_occupancy
  Tb  Tb0  1  0.097926  0.706361  0.097926  1
  Tb  Tb1  1  0.941548  0.941548  0.558322  1
  Tb  Tb2  1  0.941548  0.558322  0.941548  1
  Tb  Tb3  1  0.309132  0.687120  0.309132  1
  Tb  Tb4  1  0.938369  0.559799  0.559799  1
  Tb  Tb5  1  0.309132  0.309132  0.687120  1
  Tb  Tb6  1  0.098081  0.098081  0.098081  1
  Tb  Tb7  1  0.559799  0.559799  0.938369  1
  Tb  Tb8  1  0.097926  0.097926  0.706361  1
  Tb  Tb9  1  0.689690  0.310071  0.689690  1
  Tb  Tb10  1  0.689690  0.689690  0.310071  1
  Tb  Tb11  1  0.687120  0.309132  0.309132  1
  Tb  Tb12  1  0.310071  0.689690  0.689690  1
  Tb  Tb13  1  0.559799  0.938369  0.559799  1
  Tb  Tb14  1  0.706361  0.097926  0.097926  1
  Tb  Tb15  1  0.558322  0.941548  0.941548  1
  In  In16  1  0.006652  0.331687  0.331687  1
  In  In17  1  0.331687  0.006652  0.331687  1
  In  In18  1  0.331687  0.331687  0.006652  1
  Ag  Ag19  1  0.332783  0.332783  0.332783  1
  Ru  Ru20  1  0.889259  0.889259  0.889259  1
  Ru  Ru21  1  0.890561  0.890561  0.332294  1
  Ru  Ru22  1  0.332294  0.890561  0.890561  1
  Ru  Ru23  1  0.890561  0.332294  0.890561  1
