# generated using pymatgen
data_Y9Lu(SiB4)4
_symmetry_space_group_name_H-M   'P 1'
_cell_length_a   7.22814400
_cell_length_b   7.22814400
_cell_length_c   8.08652300
_cell_angle_alpha   90.00000000
_cell_angle_beta   90.00000000
_cell_angle_gamma   90.00000000
_symmetry_Int_Tables_number   1
_chemical_formula_structural   Y9Lu(SiB4)4
_chemical_formula_sum   'Y9 Lu1 Si4 B16'
_cell_volume   422.48901182
_cell_formula_units_Z   1
loop_
 _symmetry_equiv_pos_site_id
 _symmetry_equiv_pos_as_xyz
  1  'x, y, z'
loop_
 _atom_site_type_symbol
 _atom_site_label
 _atom_site_symmetry_multiplicity
 _atom_site_fract_x
 _atom_site_fract_y
 _atom_site_fract_z
 _atom_site_occupancy
  Y  Y0  1  0.680719  0.180057  0.224782  1
  Y  Y1  1  0.319281  0.819943  0.775218  1
  Y  Y2  1  0.319281  0.819943  0.224782  1
  Y  Y3  1  0.819943  0.680719  0.224782  1
  Y  Y4  1  0.819943  0.680719  0.775218  1
  Y  Y5  1  0.680719  0.180057  0.775218  1
  Y  Y6  1  0.180057  0.319281  0.775218  1
  Y  Y7  1  0.180057  0.319281  0.224782  1
  Y  Y8  1  0.500000  0.500000  0.500000  1
  Lu  Lu9  1  0.000000  0.000000  0.500000  1
  Si  Si10  1  0.113662  0.617275  0.500000  1
  Si  Si11  1  0.886338  0.382725  0.500000  1
  Si  Si12  1  0.382725  0.113662  0.500000  1
  Si  Si13  1  0.617275  0.886338  0.500000  1
  B  B14  1  0.172229  0.039086  0.000000  1
  B  B15  1  0.827771  0.960914  0.000000  1
  B  B16  1  0.960914  0.172229  0.000000  1
  B  B17  1  0.327739  0.539127  0.000000  1
  B  B18  1  0.039086  0.827771  0.000000  1
  B  B19  1  0.672261  0.460873  0.000000  1
  B  B20  1  0.539127  0.672261  0.000000  1
  B  B21  1  0.460873  0.327739  0.000000  1
  B  B22  1  0.089978  0.589884  0.000000  1
  B  B23  1  0.910022  0.410116  0.000000  1
  B  B24  1  0.410116  0.089978  0.000000  1
  B  B25  1  0.589884  0.910022  0.000000  1
  B  B26  1  0.000000  0.000000  0.162697  1
  B  B27  1  0.000000  0.000000  0.837303  1
  B  B28  1  0.500000  0.500000  0.838207  1
  B  B29  1  0.500000  0.500000  0.161793  1
