# generated using pymatgen
data_Cd2Fe3WO8
_symmetry_space_group_name_H-M   'P 1'
_cell_length_a   6.47588586
_cell_length_b   6.47584436
_cell_length_c   6.47580843
_cell_angle_alpha   58.60935631
_cell_angle_beta   58.60951225
_cell_angle_gamma   58.60944347
_symmetry_Int_Tables_number   1
_chemical_formula_structural   Cd2Fe3WO8
_chemical_formula_sum   'Cd2 Fe3 W1 O8'
_cell_volume   185.92758747
_cell_formula_units_Z   1
loop_
 _symmetry_equiv_pos_site_id
 _symmetry_equiv_pos_as_xyz
  1  'x, y, z'
loop_
 _atom_site_type_symbol
 _atom_site_label
 _atom_site_symmetry_multiplicity
 _atom_site_fract_x
 _atom_site_fract_y
 _atom_site_fract_z
 _atom_site_occupancy
  Cd  Cd0  1  0.139796  0.139800  0.139802  1
  Cd  Cd1  1  0.860204  0.860200  0.860198  1
  Fe  Fe2  1  0.000000  0.500000  0.500000  1
  Fe  Fe3  1  0.500000  0.000000  0.500000  1
  Fe  Fe4  1  0.500000  0.500000  0.000000  1
  W  W5  1  0.500000  0.500000  0.500000  1
  O  O6  1  0.275809  0.275800  0.275793  1
  O  O7  1  0.283132  0.283129  0.712736  1
  O  O8  1  0.283128  0.712737  0.283131  1
  O  O9  1  0.712735  0.283130  0.283132  1
  O  O10  1  0.287265  0.716870  0.716868  1
  O  O11  1  0.716872  0.287263  0.716869  1
  O  O12  1  0.716868  0.716871  0.287264  1
  O  O13  1  0.724191  0.724200  0.724207  1
