# generated using pymatgen
data_Nd6Y10Cd4Ir3Pd
_symmetry_space_group_name_H-M   'P 1'
_cell_length_a   9.77890784
_cell_length_b   9.77890765
_cell_length_c   9.77890849
_cell_angle_alpha   60.20847668
_cell_angle_beta   60.20847101
_cell_angle_gamma   60.20848164
_symmetry_Int_Tables_number   1
_chemical_formula_structural   Nd6Y10Cd4Ir3Pd
_chemical_formula_sum   'Nd6 Y10 Cd4 Ir3 Pd1'
_cell_volume   664.35669453
_cell_formula_units_Z   1
loop_
 _symmetry_equiv_pos_site_id
 _symmetry_equiv_pos_as_xyz
  1  'x, y, z'
loop_
 _atom_site_type_symbol
 _atom_site_label
 _atom_site_symmetry_multiplicity
 _atom_site_fract_x
 _atom_site_fract_y
 _atom_site_fract_z
 _atom_site_occupancy
  Nd  Nd0  1  0.940091  0.560896  0.560896  1
  Nd  Nd1  1  0.561884  0.940033  0.940033  1
  Nd  Nd2  1  0.560896  0.940091  0.560896  1
  Nd  Nd3  1  0.940033  0.561884  0.940033  1
  Nd  Nd4  1  0.560896  0.560896  0.940091  1
  Nd  Nd5  1  0.940033  0.940033  0.561884  1
  Y  Y6  1  0.346894  0.346894  0.346894  1
  Y  Y7  1  0.353052  0.353052  0.950212  1
  Y  Y8  1  0.353052  0.950212  0.353052  1
  Y  Y9  1  0.950212  0.353052  0.353052  1
  Y  Y10  1  0.805746  0.188813  0.188813  1
  Y  Y11  1  0.185891  0.812006  0.812006  1
  Y  Y12  1  0.188813  0.805746  0.188813  1
  Y  Y13  1  0.812006  0.185891  0.812006  1
  Y  Y14  1  0.188813  0.188813  0.805746  1
  Y  Y15  1  0.812006  0.812006  0.185891  1
  Cd  Cd16  1  0.579922  0.579922  0.579922  1
  Cd  Cd17  1  0.579305  0.579305  0.260834  1
  Cd  Cd18  1  0.579305  0.260834  0.579305  1
  Cd  Cd19  1  0.260834  0.579305  0.579305  1
  Ir  Ir20  1  0.141413  0.141413  0.574789  1
  Ir  Ir21  1  0.141413  0.574789  0.141413  1
  Ir  Ir22  1  0.574789  0.141413  0.141413  1
  Pd  Pd23  1  0.142697  0.142697  0.142697  1
