# generated using pymatgen
data_Ce4ZrSn3
_symmetry_space_group_name_H-M   'P 1'
_cell_length_a   9.06415704
_cell_length_b   9.06399769
_cell_length_c   9.06415726
_cell_angle_alpha   96.53479599
_cell_angle_beta   96.51363736
_cell_angle_gamma   140.60321945
_symmetry_Int_Tables_number   1
_chemical_formula_structural   Ce4ZrSn3
_chemical_formula_sum   'Ce8 Zr2 Sn6'
_cell_volume   444.98113234
_cell_formula_units_Z   2
loop_
 _symmetry_equiv_pos_site_id
 _symmetry_equiv_pos_as_xyz
  1  'x, y, z'
loop_
 _atom_site_type_symbol
 _atom_site_label
 _atom_site_symmetry_multiplicity
 _atom_site_fract_x
 _atom_site_fract_y
 _atom_site_fract_z
 _atom_site_occupancy
  Ce  Ce0  1  0.904313  0.236057  0.140378  1
  Ce  Ce1  1  0.236266  0.095281  0.331509  1
  Ce  Ce2  1  0.763734  0.904719  0.668491  1
  Ce  Ce3  1  0.095687  0.763943  0.859622  1
  Ce  Ce4  1  0.736228  0.404719  0.140985  1
  Ce  Ce5  1  0.263772  0.595281  0.859015  1
  Ce  Ce6  1  0.595681  0.736057  0.331744  1
  Ce  Ce7  1  0.404319  0.263943  0.668256  1
  Zr  Zr8  1  0.750020  0.250000  0.500020  1
  Zr  Zr9  1  0.249980  0.750000  0.499980  1
  Sn  Sn10  1  0.750008  0.750000  0.000008  1
  Sn  Sn11  1  0.249992  0.250000  0.999992  1
  Sn  Sn12  1  0.848311  0.651971  0.500283  1
  Sn  Sn13  1  0.651688  0.151971  0.803660  1
  Sn  Sn14  1  0.348312  0.848029  0.196340  1
  Sn  Sn15  1  0.151689  0.348029  0.499717  1
