# generated using pymatgen
data_Th3Zn2Co3Hg
_symmetry_space_group_name_H-M   'P 1'
_cell_length_a   7.20614300
_cell_length_b   7.32982809
_cell_length_c   3.84093600
_cell_angle_alpha   90.00000000
_cell_angle_beta   90.00000000
_cell_angle_gamma   119.44335335
_symmetry_Int_Tables_number   1
_chemical_formula_structural   Th3Zn2Co3Hg
_chemical_formula_sum   'Th3 Zn2 Co3 Hg1'
_cell_volume   176.67421080
_cell_formula_units_Z   1
loop_
 _symmetry_equiv_pos_site_id
 _symmetry_equiv_pos_as_xyz
  1  'x, y, z'
loop_
 _atom_site_type_symbol
 _atom_site_label
 _atom_site_symmetry_multiplicity
 _atom_site_fract_x
 _atom_site_fract_y
 _atom_site_fract_z
 _atom_site_occupancy
  Th  Th0  1  0.995377  0.572872  0.500000  1
  Th  Th1  1  0.422505  0.427128  0.500000  1
  Th  Th2  1  0.603700  0.000000  0.500000  1
  Zn  Zn3  1  0.762087  0.755752  0.000000  1
  Zn  Zn4  1  0.006335  0.244248  0.000000  1
  Co  Co5  1  0.330812  0.648405  0.000000  1
  Co  Co6  1  0.961148  0.000000  0.500000  1
  Co  Co7  1  0.682408  0.351595  0.000000  1
  Hg  Hg8  1  0.235627  0.000000  0.000000  1
