# generated using pymatgen
data_Tb5Ho3Re3B24Ru
_symmetry_space_group_name_H-M   'P 1'
_cell_length_a   3.68393000
_cell_length_b   9.17463426
_cell_length_c   11.56800906
_cell_angle_alpha   90.11368378
_cell_angle_beta   90.00000000
_cell_angle_gamma   90.00000000
_symmetry_Int_Tables_number   1
_chemical_formula_structural   Tb5Ho3Re3B24Ru
_chemical_formula_sum   'Tb5 Ho3 Re3 B24 Ru1'
_cell_volume   390.98301828
_cell_formula_units_Z   1
loop_
 _symmetry_equiv_pos_site_id
 _symmetry_equiv_pos_as_xyz
  1  'x, y, z'
loop_
 _atom_site_type_symbol
 _atom_site_label
 _atom_site_symmetry_multiplicity
 _atom_site_fract_x
 _atom_site_fract_y
 _atom_site_fract_z
 _atom_site_occupancy
  Tb  Tb0  1  0.000000  0.322197  0.414253  1
  Tb  Tb1  1  0.000000  0.677072  0.587676  1
  Tb  Tb2  1  0.000000  0.824628  0.084151  1
  Tb  Tb3  1  0.000000  0.176843  0.913684  1
  Tb  Tb4  1  0.000000  0.941726  0.369731  1
  Ho  Ho5  1  0.000000  0.056596  0.629833  1
  Ho  Ho6  1  0.000000  0.443137  0.130459  1
  Ho  Ho7  1  0.000000  0.556928  0.870834  1
  Re  Re8  1  0.000000  0.361869  0.678558  1
  Re  Re9  1  0.000000  0.139046  0.179534  1
  Re  Re10  1  0.000000  0.861352  0.820698  1
  B  B11  1  0.500000  0.553803  0.432342  1
  B  B12  1  0.500000  0.446761  0.567232  1
  B  B13  1  0.500000  0.053615  0.066888  1
  B  B14  1  0.500000  0.946778  0.932464  1
  B  B15  1  0.500000  0.747653  0.418065  1
  B  B16  1  0.500000  0.250603  0.581624  1
  B  B17  1  0.500000  0.249762  0.081655  1
  B  B18  1  0.500000  0.751147  0.918363  1
  B  B19  1  0.500000  0.789934  0.265406  1
  B  B20  1  0.500000  0.208246  0.734180  1
  B  B21  1  0.500000  0.292021  0.234666  1
  B  B22  1  0.500000  0.708040  0.765972  1
  B  B23  1  0.500000  0.630881  0.185744  1
  B  B24  1  0.500000  0.369711  0.814011  1
  B  B25  1  0.500000  0.131354  0.314474  1
  B  B26  1  0.500000  0.868970  0.685758  1
  B  B27  1  0.500000  0.983201  0.211477  1
  B  B28  1  0.500000  0.017305  0.787485  1
  B  B29  1  0.500000  0.483688  0.287946  1
  B  B30  1  0.500000  0.517883  0.712287  1
  B  B31  1  0.500000  0.601008  0.028601  1
  B  B32  1  0.500000  0.399518  0.972400  1
  B  B33  1  0.500000  0.100774  0.472138  1
  B  B34  1  0.500000  0.897962  0.528760  1
  Ru  Ru35  1  0.000000  0.637991  0.320657  1
