# generated using pymatgen
data_Th8ZrSi16Mo11
_symmetry_space_group_name_H-M   'P 1'
_cell_length_a   7.07708767
_cell_length_b   7.07708720
_cell_length_c   13.05809500
_cell_angle_alpha   90.02500841
_cell_angle_beta   90.02500840
_cell_angle_gamma   89.74601007
_symmetry_Int_Tables_number   1
_chemical_formula_structural   Th8ZrSi16Mo11
_chemical_formula_sum   'Th8 Zr1 Si16 Mo11'
_cell_volume   654.01031374
_cell_formula_units_Z   1
loop_
 _symmetry_equiv_pos_site_id
 _symmetry_equiv_pos_as_xyz
  1  'x, y, z'
loop_
 _atom_site_type_symbol
 _atom_site_label
 _atom_site_symmetry_multiplicity
 _atom_site_fract_x
 _atom_site_fract_y
 _atom_site_fract_z
 _atom_site_occupancy
  Th  Th0  1  0.003045  0.337186  0.219890  1
  Th  Th1  1  0.000286  0.666790  0.719891  1
  Th  Th2  1  0.163148  0.503835  0.468614  1
  Th  Th3  1  0.496165  0.836852  0.031386  1
  Th  Th4  1  0.838992  0.498622  0.972236  1
  Th  Th5  1  0.501378  0.161008  0.527764  1
  Th  Th6  1  0.333210  0.999714  0.780109  1
  Th  Th7  1  0.662814  0.996955  0.280110  1
  Zr  Zr8  1  0.669280  0.330720  0.750000  1
  Si  Si9  1  0.279273  0.032031  0.185019  1
  Si  Si10  1  0.714601  0.958645  0.681205  1
  Si  Si11  1  0.467971  0.777110  0.434048  1
  Si  Si12  1  0.222890  0.532029  0.065952  1
  Si  Si13  1  0.528190  0.219720  0.940035  1
  Si  Si14  1  0.780280  0.471810  0.559965  1
  Si  Si15  1  0.041355  0.285399  0.818795  1
  Si  Si16  1  0.967969  0.720727  0.314981  1
  Si  Si17  1  0.383159  0.305347  0.312041  1
  Si  Si18  1  0.620616  0.704225  0.814039  1
  Si  Si19  1  0.195122  0.884060  0.561867  1
  Si  Si20  1  0.115940  0.804878  0.938133  1
  Si  Si21  1  0.805200  0.115700  0.062284  1
  Si  Si22  1  0.884300  0.194800  0.437716  1
  Si  Si23  1  0.295775  0.379384  0.685961  1
  Si  Si24  1  0.694653  0.616841  0.187959  1
  Mo  Mo25  1  0.167177  0.169061  0.001479  1
  Mo  Mo26  1  0.830939  0.832823  0.498521  1
  Mo  Mo27  1  0.332447  0.667553  0.250000  1
  Mo  Mo28  1  0.170699  0.008993  0.374149  1
  Mo  Mo29  1  0.830643  0.995874  0.873682  1
  Mo  Mo30  1  0.492085  0.666852  0.625210  1
  Mo  Mo31  1  0.333148  0.507915  0.874790  1
  Mo  Mo32  1  0.510628  0.328512  0.127672  1
  Mo  Mo33  1  0.671488  0.489372  0.372328  1
  Mo  Mo34  1  0.004126  0.169357  0.626318  1
  Mo  Mo35  1  0.991007  0.829301  0.125851  1
