# generated using pymatgen
data_HfZr13(Pt4Au)4
_symmetry_space_group_name_H-M   'P 1'
_cell_length_a   8.24238361
_cell_length_b   8.24238499
_cell_length_c   9.82409539
_cell_angle_alpha   90.01137784
_cell_angle_beta   90.01138234
_cell_angle_gamma   107.02372008
_symmetry_Int_Tables_number   1
_chemical_formula_structural   HfZr13(Pt4Au)4
_chemical_formula_sum   'Hf1 Zr13 Pt16 Au4'
_cell_volume   638.17468401
_cell_formula_units_Z   1
loop_
 _symmetry_equiv_pos_site_id
 _symmetry_equiv_pos_as_xyz
  1  'x, y, z'
loop_
 _atom_site_type_symbol
 _atom_site_label
 _atom_site_symmetry_multiplicity
 _atom_site_fract_x
 _atom_site_fract_y
 _atom_site_fract_z
 _atom_site_occupancy
  Hf  Hf0  1  0.500000  0.500000  0.500000  1
  Zr  Zr1  1  0.697772  0.302228  0.000000  1
  Zr  Zr2  1  0.302228  0.697772  0.000000  1
  Zr  Zr3  1  0.801782  0.198218  0.500000  1
  Zr  Zr4  1  0.198218  0.801782  0.500000  1
  Zr  Zr5  1  0.000000  0.000000  0.000000  1
  Zr  Zr6  1  0.002689  0.502839  0.250341  1
  Zr  Zr7  1  0.997311  0.497161  0.749659  1
  Zr  Zr8  1  0.497161  0.997311  0.749659  1
  Zr  Zr9  1  0.502839  0.002689  0.250341  1
  Zr  Zr10  1  0.317121  0.317121  0.185527  1
  Zr  Zr11  1  0.682879  0.682879  0.814473  1
  Zr  Zr12  1  0.184427  0.184427  0.684001  1
  Zr  Zr13  1  0.815573  0.815573  0.315999  1
  Pt  Pt14  1  0.853735  0.146714  0.208118  1
  Pt  Pt15  1  0.146265  0.853286  0.791882  1
  Pt  Pt16  1  0.643810  0.354939  0.707132  1
  Pt  Pt17  1  0.645061  0.356190  0.292868  1
  Pt  Pt18  1  0.356190  0.645061  0.292868  1
  Pt  Pt19  1  0.354939  0.643810  0.707132  1
  Pt  Pt20  1  0.853286  0.146265  0.791882  1
  Pt  Pt21  1  0.146714  0.853735  0.208118  1
  Pt  Pt22  1  0.937687  0.645054  0.998976  1
  Pt  Pt23  1  0.062313  0.354946  0.001024  1
  Pt  Pt24  1  0.562962  0.853800  0.499620  1
  Pt  Pt25  1  0.146200  0.437038  0.500380  1
  Pt  Pt26  1  0.437038  0.146200  0.500380  1
  Pt  Pt27  1  0.853800  0.562962  0.499620  1
  Pt  Pt28  1  0.354946  0.062313  0.001024  1
  Pt  Pt29  1  0.645054  0.937687  0.998976  1
  Au  Au30  1  0.106094  0.106094  0.393423  1
  Au  Au31  1  0.893906  0.893906  0.606577  1
  Au  Au32  1  0.392338  0.392338  0.894814  1
  Au  Au33  1  0.607662  0.607662  0.105186  1
