# generated using pymatgen
data_Lu8Hf11Si16Mo
_symmetry_space_group_name_H-M   'P 1'
_cell_length_a   7.19216028
_cell_length_b   7.19216028
_cell_length_c   13.18087208
_cell_angle_alpha   89.94457597
_cell_angle_beta   89.94457597
_cell_angle_gamma   89.90563231
_symmetry_Int_Tables_number   1
_chemical_formula_structural   Lu8Hf11Si16Mo
_chemical_formula_sum   'Lu8 Hf11 Si16 Mo1'
_cell_volume   681.80764223
_cell_formula_units_Z   1
loop_
 _symmetry_equiv_pos_site_id
 _symmetry_equiv_pos_as_xyz
  1  'x, y, z'
loop_
 _atom_site_type_symbol
 _atom_site_label
 _atom_site_symmetry_multiplicity
 _atom_site_fract_x
 _atom_site_fract_y
 _atom_site_fract_z
 _atom_site_occupancy
  Lu  Lu0  1  0.497369  0.155232  0.537252  1
  Lu  Lu1  1  0.505177  0.844847  0.032935  1
  Lu  Lu2  1  0.654768  0.004942  0.284661  1
  Lu  Lu3  1  0.347304  0.998259  0.784069  1
  Lu  Lu4  1  0.844768  0.502631  0.962748  1
  Lu  Lu5  1  0.155153  0.494823  0.467065  1
  Lu  Lu6  1  0.001741  0.652696  0.715931  1
  Lu  Lu7  1  0.995058  0.345232  0.215339  1
  Hf  Hf8  1  0.324432  0.675568  0.250000  1
  Hf  Hf9  1  0.823669  0.823991  0.501349  1
  Hf  Hf10  1  0.176009  0.176331  0.998651  1
  Hf  Hf11  1  0.498108  0.354595  0.123727  1
  Hf  Hf12  1  0.504132  0.644344  0.627903  1
  Hf  Hf13  1  0.851953  0.004895  0.873641  1
  Hf  Hf14  1  0.146118  0.997386  0.375377  1
  Hf  Hf15  1  0.645405  0.501892  0.376273  1
  Hf  Hf16  1  0.355656  0.495868  0.872097  1
  Hf  Hf17  1  0.002614  0.853882  0.124623  1
  Hf  Hf18  1  0.995105  0.148047  0.626359  1
  Si  Si19  1  0.795829  0.142334  0.067188  1
  Si  Si20  1  0.204357  0.857958  0.569131  1
  Si  Si21  1  0.641803  0.704089  0.818121  1
  Si  Si22  1  0.358324  0.295495  0.318064  1
  Si  Si23  1  0.857666  0.204171  0.432812  1
  Si  Si24  1  0.142042  0.795643  0.930869  1
  Si  Si25  1  0.704505  0.641676  0.181936  1
  Si  Si26  1  0.295911  0.358197  0.681879  1
  Si  Si27  1  0.552112  0.203691  0.932452  1
  Si  Si28  1  0.451026  0.798190  0.436463  1
  Si  Si29  1  0.701836  0.952789  0.686057  1
  Si  Si30  1  0.298159  0.049843  0.184988  1
  Si  Si31  1  0.796309  0.447888  0.567548  1
  Si  Si32  1  0.201810  0.548974  0.063537  1
  Si  Si33  1  0.950157  0.701841  0.315012  1
  Si  Si34  1  0.047211  0.298164  0.813943  1
  Mo  Mo35  1  0.676406  0.323594  0.750000  1
