# generated using pymatgen
data_Li4Nd2LuSn4
_symmetry_space_group_name_H-M   'P 1'
_cell_length_a   8.71858922
_cell_length_b   8.71858837
_cell_length_c   8.71858846
_cell_angle_alpha   148.67246535
_cell_angle_beta   133.05563122
_cell_angle_gamma   57.52597159
_symmetry_Int_Tables_number   1
_chemical_formula_structural   Li4Nd2LuSn4
_chemical_formula_sum   'Li4 Nd2 Lu1 Sn4'
_cell_volume   249.90418570
_cell_formula_units_Z   1
loop_
 _symmetry_equiv_pos_site_id
 _symmetry_equiv_pos_as_xyz
  1  'x, y, z'
loop_
 _atom_site_type_symbol
 _atom_site_label
 _atom_site_symmetry_multiplicity
 _atom_site_fract_x
 _atom_site_fract_y
 _atom_site_fract_z
 _atom_site_occupancy
  Li  Li0  1  0.481316  0.672105  0.809212  1
  Li  Li1  1  0.862894  0.672105  0.190788  1
  Li  Li2  1  0.137106  0.327895  0.809212  1
  Li  Li3  1  0.518684  0.327895  0.190788  1
  Nd  Nd4  1  0.870177  0.870177  0.000000  1
  Nd  Nd5  1  0.129823  0.129823  0.000000  1
  Lu  Lu6  1  0.500000  0.000000  0.500000  1
  Sn  Sn7  1  0.290565  0.790565  0.500000  1
  Sn  Sn8  1  0.709435  0.209435  0.500000  1
  Sn  Sn9  1  0.792649  0.500000  0.292649  1
  Sn  Sn10  1  0.207351  0.500000  0.707351  1
