# generated using pymatgen
data_Tm3AgO6
_symmetry_space_group_name_H-M   'P 1'
_cell_length_a   3.51427248
_cell_length_b   5.51341529
_cell_length_c   7.00947381
_cell_angle_alpha   89.68094570
_cell_angle_beta   102.69649384
_cell_angle_gamma   91.15163911
_symmetry_Int_Tables_number   1
_chemical_formula_structural   Tm3AgO6
_chemical_formula_sum   'Tm3 Ag1 O6'
_cell_volume   132.46530964
_cell_formula_units_Z   1
loop_
 _symmetry_equiv_pos_site_id
 _symmetry_equiv_pos_as_xyz
  1  'x, y, z'
loop_
 _atom_site_type_symbol
 _atom_site_label
 _atom_site_symmetry_multiplicity
 _atom_site_fract_x
 _atom_site_fract_y
 _atom_site_fract_z
 _atom_site_occupancy
  Tm  Tm0  1  0.615359  0.531243  0.762684  1
  Tm  Tm1  1  0.384641  0.468757  0.237316  1
  Tm  Tm2  1  0.000000  0.000000  0.500000  1
  Ag  Ag3  1  0.000000  0.000000  0.000000  1
  O  O4  1  0.169333  0.321986  0.893964  1
  O  O5  1  0.871206  0.201570  0.217616  1
  O  O6  1  0.128794  0.798430  0.782384  1
  O  O7  1  0.476773  0.743956  0.468413  1
  O  O8  1  0.830667  0.678014  0.106036  1
  O  O9  1  0.523227  0.256044  0.531587  1
