# generated using pymatgen
data_Cs4V2PtS8
_symmetry_space_group_name_H-M   'P 1'
_cell_length_a   13.67084900
_cell_length_b   7.57644112
_cell_length_c   9.75813313
_cell_angle_alpha   83.86471063
_cell_angle_beta   90.00000000
_cell_angle_gamma   90.00000000
_symmetry_Int_Tables_number   1
_chemical_formula_structural   Cs4V2PtS8
_chemical_formula_sum   'Cs8 V4 Pt2 S16'
_cell_volume   1004.92307909
_cell_formula_units_Z   2
loop_
 _symmetry_equiv_pos_site_id
 _symmetry_equiv_pos_as_xyz
  1  'x, y, z'
loop_
 _atom_site_type_symbol
 _atom_site_label
 _atom_site_symmetry_multiplicity
 _atom_site_fract_x
 _atom_site_fract_y
 _atom_site_fract_z
 _atom_site_occupancy
  Cs  Cs0  1  0.135264  0.820210  0.684824  1
  Cs  Cs1  1  0.635264  0.179790  0.815176  1
  Cs  Cs2  1  0.864736  0.179790  0.315176  1
  Cs  Cs3  1  0.364736  0.820210  0.184824  1
  Cs  Cs4  1  0.347813  0.276365  0.540220  1
  Cs  Cs5  1  0.847813  0.723635  0.959780  1
  Cs  Cs6  1  0.652187  0.723635  0.459780  1
  Cs  Cs7  1  0.152187  0.276365  0.040220  1
  V  V8  1  0.427070  0.746112  0.772817  1
  V  V9  1  0.927070  0.253888  0.727183  1
  V  V10  1  0.572930  0.253888  0.227183  1
  V  V11  1  0.072930  0.746112  0.272817  1
  Pt  Pt12  1  0.000000  0.500000  0.500000  1
  Pt  Pt13  1  0.500000  0.500000  0.000000  1
  S  S14  1  0.081167  0.303290  0.668417  1
  S  S15  1  0.581167  0.696710  0.831583  1
  S  S16  1  0.918833  0.696710  0.331583  1
  S  S17  1  0.418833  0.303290  0.168417  1
  S  S18  1  0.403868  0.749566  0.556339  1
  S  S19  1  0.903868  0.250434  0.943661  1
  S  S20  1  0.596132  0.250434  0.443661  1
  S  S21  1  0.096132  0.749566  0.056339  1
  S  S22  1  0.151976  0.523695  0.384064  1
  S  S23  1  0.651976  0.476305  0.115936  1
  S  S24  1  0.848024  0.476305  0.615936  1
  S  S25  1  0.348024  0.523695  0.884064  1
  S  S26  1  0.376221  0.991084  0.835825  1
  S  S27  1  0.876221  0.008916  0.664175  1
  S  S28  1  0.623779  0.008916  0.164175  1
  S  S29  1  0.123779  0.991084  0.335825  1
