# generated using pymatgen
data_Dy2ZnCoIr
_symmetry_space_group_name_H-M   'P 1'
_cell_length_a   5.44339302
_cell_length_b   5.44339293
_cell_length_c   5.44339313
_cell_angle_alpha   135.34906541
_cell_angle_beta   117.60226542
_cell_angle_gamma   79.93689695
_symmetry_Int_Tables_number   1
_chemical_formula_structural   Dy2ZnCoIr
_chemical_formula_sum   'Dy2 Zn1 Co1 Ir1'
_cell_volume   97.29573729
_cell_formula_units_Z   1
loop_
 _symmetry_equiv_pos_site_id
 _symmetry_equiv_pos_as_xyz
  1  'x, y, z'
loop_
 _atom_site_type_symbol
 _atom_site_label
 _atom_site_symmetry_multiplicity
 _atom_site_fract_x
 _atom_site_fract_y
 _atom_site_fract_z
 _atom_site_occupancy
  Dy  Dy0  1  0.713239  0.209096  0.504143  1
  Dy  Dy1  1  0.295047  0.790904  0.504143  1
  Zn  Zn2  1  0.013468  0.000000  0.013468  1
  Co  Co3  1  0.274997  0.500000  0.774997  1
  Ir  Ir4  1  0.703249  0.500000  0.203249  1
