# generated using pymatgen
data_Hf16Co4ReOs3
_symmetry_space_group_name_H-M   'P 1'
_cell_length_a   8.60383173
_cell_length_b   8.60383099
_cell_length_c   8.60383249
_cell_angle_alpha   59.99823421
_cell_angle_beta   59.99823756
_cell_angle_gamma   59.99823592
_symmetry_Int_Tables_number   1
_chemical_formula_structural   Hf16Co4ReOs3
_chemical_formula_sum   'Hf16 Co4 Re1 Os3'
_cell_volume   450.34293820
_cell_formula_units_Z   1
loop_
 _symmetry_equiv_pos_site_id
 _symmetry_equiv_pos_as_xyz
  1  'x, y, z'
loop_
 _atom_site_type_symbol
 _atom_site_label
 _atom_site_symmetry_multiplicity
 _atom_site_fract_x
 _atom_site_fract_y
 _atom_site_fract_z
 _atom_site_occupancy
  Hf  Hf0  1  0.697445  0.101110  0.101110  1
  Hf  Hf1  1  0.101110  0.697445  0.101110  1
  Hf  Hf2  1  0.101110  0.101110  0.697445  1
  Hf  Hf3  1  0.100606  0.100606  0.100606  1
  Hf  Hf4  1  0.315283  0.315283  0.683875  1
  Hf  Hf5  1  0.685421  0.685421  0.314594  1
  Hf  Hf6  1  0.315283  0.683875  0.315283  1
  Hf  Hf7  1  0.685421  0.314594  0.685421  1
  Hf  Hf8  1  0.683875  0.315283  0.315283  1
  Hf  Hf9  1  0.314594  0.685421  0.685421  1
  Hf  Hf10  1  0.954147  0.954147  0.545844  1
  Hf  Hf11  1  0.546578  0.546578  0.954152  1
  Hf  Hf12  1  0.954147  0.545844  0.954147  1
  Hf  Hf13  1  0.546578  0.954152  0.546578  1
  Hf  Hf14  1  0.545844  0.954147  0.954147  1
  Hf  Hf15  1  0.954152  0.546578  0.546578  1
  Co  Co16  1  0.330067  0.889837  0.889837  1
  Co  Co17  1  0.889837  0.330067  0.889837  1
  Co  Co18  1  0.889837  0.889837  0.330067  1
  Co  Co19  1  0.890074  0.890074  0.890074  1
  Re  Re20  1  0.331970  0.331970  0.331970  1
  Os  Os21  1  0.999686  0.333466  0.333466  1
  Os  Os22  1  0.333466  0.999686  0.333466  1
  Os  Os23  1  0.333466  0.333466  0.999686  1
