# generated using pymatgen
data_U4Ga4SiTc7P
_symmetry_space_group_name_H-M   'P 1'
_cell_length_a   7.16986215
_cell_length_b   7.16986274
_cell_length_c   7.18800040
_cell_angle_alpha   109.10677692
_cell_angle_beta   109.68698804
_cell_angle_gamma   109.51833516
_symmetry_Int_Tables_number   1
_chemical_formula_structural   U4Ga4SiTc7P
_chemical_formula_sum   'U4 Ga4 Si1 Tc7 P1'
_cell_volume   284.80143443
_cell_formula_units_Z   1
loop_
 _symmetry_equiv_pos_site_id
 _symmetry_equiv_pos_as_xyz
  1  'x, y, z'
loop_
 _atom_site_type_symbol
 _atom_site_label
 _atom_site_symmetry_multiplicity
 _atom_site_fract_x
 _atom_site_fract_y
 _atom_site_fract_z
 _atom_site_occupancy
  U  U0  1  0.472828  0.473421  0.475134  1
  U  U1  1  0.002495  0.498141  0.005958  1
  U  U2  1  0.507817  0.003463  0.005958  1
  U  U3  1  0.001713  0.002305  0.475134  1
  Ga  Ga4  1  0.706307  0.989594  0.695901  1
  Ga  Ga5  1  0.686457  0.683638  0.982929  1
  Ga  Ga6  1  0.299291  0.296473  0.982929  1
  Ga  Ga7  1  0.992792  0.715824  0.708616  1
  Si  Si8  1  0.323334  0.993063  0.316397  1
  Tc  Tc9  1  0.496847  0.745338  0.242185  1
  Tc  Tc10  1  0.750172  0.250257  0.497057  1
  Tc  Tc11  1  0.246799  0.746885  0.497057  1
  Tc  Tc12  1  0.242221  0.500777  0.742998  1
  Tc  Tc13  1  0.024481  0.035968  0.060449  1
  Tc  Tc14  1  0.501146  0.241987  0.743134  1
  Tc  Tc15  1  0.749246  0.496737  0.245984  1
  P  P16  1  0.996052  0.326127  0.322179  1
