# generated using pymatgen
data_Tb8AlPt24
_symmetry_space_group_name_H-M   'P 1'
_cell_length_a   8.37915600
_cell_length_b   8.37915600
_cell_length_c   8.37915600
_cell_angle_alpha   90.00000000
_cell_angle_beta   90.00000000
_cell_angle_gamma   90.00000000
_symmetry_Int_Tables_number   1
_chemical_formula_structural   Tb8AlPt24
_chemical_formula_sum   'Tb8 Al1 Pt24'
_cell_volume   588.30268173
_cell_formula_units_Z   1
loop_
 _symmetry_equiv_pos_site_id
 _symmetry_equiv_pos_as_xyz
  1  'x, y, z'
loop_
 _atom_site_type_symbol
 _atom_site_label
 _atom_site_symmetry_multiplicity
 _atom_site_fract_x
 _atom_site_fract_y
 _atom_site_fract_z
 _atom_site_occupancy
  Tb  Tb0  1  0.251164  0.251164  0.251164  1
  Tb  Tb1  1  0.748836  0.748836  0.748836  1
  Tb  Tb2  1  0.748836  0.748836  0.251164  1
  Tb  Tb3  1  0.748836  0.251164  0.748836  1
  Tb  Tb4  1  0.251164  0.251164  0.748836  1
  Tb  Tb5  1  0.251164  0.748836  0.251164  1
  Tb  Tb6  1  0.251164  0.748836  0.748836  1
  Tb  Tb7  1  0.748836  0.251164  0.251164  1
  Al  Al8  1  0.000000  0.000000  0.000000  1
  Pt  Pt9  1  0.260598  0.500000  0.000000  1
  Pt  Pt10  1  0.739402  0.500000  0.000000  1
  Pt  Pt11  1  0.000000  0.260598  0.500000  1
  Pt  Pt12  1  0.500000  0.260598  0.000000  1
  Pt  Pt13  1  0.000000  0.739402  0.500000  1
  Pt  Pt14  1  0.500000  0.739402  0.000000  1
  Pt  Pt15  1  0.500000  0.000000  0.260598  1
  Pt  Pt16  1  0.260598  0.000000  0.500000  1
  Pt  Pt17  1  0.500000  0.000000  0.739402  1
  Pt  Pt18  1  0.739402  0.000000  0.500000  1
  Pt  Pt19  1  0.000000  0.500000  0.260598  1
  Pt  Pt20  1  0.000000  0.500000  0.739402  1
  Pt  Pt21  1  0.253066  0.500000  0.500000  1
  Pt  Pt22  1  0.746934  0.500000  0.500000  1
  Pt  Pt23  1  0.500000  0.253066  0.500000  1
  Pt  Pt24  1  0.500000  0.746934  0.500000  1
  Pt  Pt25  1  0.500000  0.500000  0.253066  1
  Pt  Pt26  1  0.500000  0.500000  0.746934  1
  Pt  Pt27  1  0.291386  0.000000  0.000000  1
  Pt  Pt28  1  0.708614  0.000000  0.000000  1
  Pt  Pt29  1  0.000000  0.291386  0.000000  1
  Pt  Pt30  1  0.000000  0.708614  0.000000  1
  Pt  Pt31  1  0.000000  0.000000  0.291386  1
  Pt  Pt32  1  0.000000  0.000000  0.708614  1
