# generated using pymatgen
data_Th8Si12Ir3Pd
_symmetry_space_group_name_H-M   'P 1'
_cell_length_a   8.24385100
_cell_length_b   8.24385214
_cell_length_c   8.48290200
_cell_angle_alpha   90.00000000
_cell_angle_beta   90.00000000
_cell_angle_gamma   119.99999140
_symmetry_Int_Tables_number   1
_chemical_formula_structural   Th8Si12Ir3Pd
_chemical_formula_sum   'Th8 Si12 Ir3 Pd1'
_cell_volume   499.26997206
_cell_formula_units_Z   1
loop_
 _symmetry_equiv_pos_site_id
 _symmetry_equiv_pos_as_xyz
  1  'x, y, z'
loop_
 _atom_site_type_symbol
 _atom_site_label
 _atom_site_symmetry_multiplicity
 _atom_site_fract_x
 _atom_site_fract_y
 _atom_site_fract_z
 _atom_site_occupancy
  Th  Th0  1  0.497173  0.502827  0.752290  1
  Th  Th1  1  0.497980  0.502020  0.247712  1
  Th  Th2  1  0.005655  0.502827  0.752290  1
  Th  Th3  1  0.004039  0.502020  0.247712  1
  Th  Th4  1  0.497173  0.994345  0.752290  1
  Th  Th5  1  0.497980  0.995961  0.247712  1
  Th  Th6  1  0.000000  0.000000  0.749597  1
  Th  Th7  1  0.000000  0.000000  0.250232  1
  Si  Si8  1  0.833310  0.166690  0.999365  1
  Si  Si9  1  0.165709  0.834291  0.000562  1
  Si  Si10  1  0.333380  0.166690  0.999365  1
  Si  Si11  1  0.166419  0.833581  0.499709  1
  Si  Si12  1  0.668583  0.834291  0.000562  1
  Si  Si13  1  0.834478  0.165522  0.500053  1
  Si  Si14  1  0.833310  0.666620  0.999365  1
  Si  Si15  1  0.667164  0.833581  0.499709  1
  Si  Si16  1  0.165709  0.331417  0.000562  1
  Si  Si17  1  0.331044  0.165522  0.500053  1
  Si  Si18  1  0.166419  0.332836  0.499709  1
  Si  Si19  1  0.834478  0.668956  0.500053  1
  Ir  Ir20  1  0.666667  0.333333  0.998902  1
  Ir  Ir21  1  0.333333  0.666667  0.000937  1
  Ir  Ir22  1  0.333333  0.666667  0.498886  1
  Pd  Pd23  1  0.666667  0.333333  0.502377  1
