# generated using pymatgen
data_BiSe23
_symmetry_space_group_name_H-M   'P 1'
_cell_length_a   5.51483397
_cell_length_b   10.30615677
_cell_length_c   16.97856825
_cell_angle_alpha   88.53821379
_cell_angle_beta   86.38633631
_cell_angle_gamma   90.41020794
_symmetry_Int_Tables_number   1
_chemical_formula_structural   BiSe23
_chemical_formula_sum   'Bi1 Se23'
_cell_volume   962.73723099
_cell_formula_units_Z   1
loop_
 _symmetry_equiv_pos_site_id
 _symmetry_equiv_pos_as_xyz
  1  'x, y, z'
loop_
 _atom_site_type_symbol
 _atom_site_label
 _atom_site_symmetry_multiplicity
 _atom_site_fract_x
 _atom_site_fract_y
 _atom_site_fract_z
 _atom_site_occupancy
  Bi  Bi0  1  0.507673  0.156798  0.375607  1
  Se  Se1  1  0.514460  0.818908  0.386868  1
  Se  Se2  1  0.006134  0.315851  0.113088  1
  Se  Se3  1  0.776693  0.234615  0.492712  1
  Se  Se4  1  0.270992  0.779747  0.504952  1
  Se  Se5  1  0.229345  0.264093  0.994904  1
  Se  Se6  1  0.769466  0.735538  0.006308  1
  Se  Se7  1  0.215682  0.365206  0.361930  1
  Se  Se8  1  0.722790  0.620507  0.358916  1
  Se  Se9  1  0.766278  0.131301  0.151883  1
  Se  Se10  1  0.236373  0.866863  0.137413  1
  Se  Se11  1  0.725747  0.640395  0.643629  1
  Se  Se12  1  0.273804  0.363409  0.634407  1
  Se  Se13  1  0.239629  0.875023  0.854545  1
  Se  Se14  1  0.762018  0.133664  0.863771  1
  Se  Se15  1  0.000435  0.681176  0.114850  1
  Se  Se16  1  0.499975  0.827879  0.613516  1
  Se  Se17  1  0.521265  0.182571  0.607875  1
  Se  Se18  1  0.004928  0.687360  0.889898  1
  Se  Se19  1  0.993466  0.320687  0.888002  1
  Se  Se20  1  0.481447  0.499357  0.278305  1
  Se  Se21  1  0.007891  0.994173  0.228981  1
  Se  Se22  1  0.472123  0.496993  0.722715  1
  Se  Se23  1  0.001386  0.007885  0.774927  1
