# generated using pymatgen
data_Ho12AlFe4Pb
_symmetry_space_group_name_H-M   'P 1'
_cell_length_a   8.33505353
_cell_length_b   8.33522312
_cell_length_c   8.33505300
_cell_angle_alpha   111.64962154
_cell_angle_beta   110.23048811
_cell_angle_gamma   106.57434960
_symmetry_Int_Tables_number   1
_chemical_formula_structural   Ho12AlFe4Pb
_chemical_formula_sum   'Ho12 Al1 Fe4 Pb1'
_cell_volume   444.85472936
_cell_formula_units_Z   1
loop_
 _symmetry_equiv_pos_site_id
 _symmetry_equiv_pos_as_xyz
  1  'x, y, z'
loop_
 _atom_site_type_symbol
 _atom_site_label
 _atom_site_symmetry_multiplicity
 _atom_site_fract_x
 _atom_site_fract_y
 _atom_site_fract_z
 _atom_site_occupancy
  Ho  Ho0  1  0.435941  0.225316  0.210623  1
  Ho  Ho1  1  0.564059  0.774684  0.789377  1
  Ho  Ho2  1  0.014692  0.225316  0.789375  1
  Ho  Ho3  1  0.985308  0.774684  0.210625  1
  Ho  Ho4  1  0.185676  0.285156  0.470827  1
  Ho  Ho5  1  0.814324  0.714844  0.529173  1
  Ho  Ho6  1  0.185671  0.714844  0.900520  1
  Ho  Ho7  1  0.814329  0.285156  0.099480  1
  Ho  Ho8  1  0.310507  0.610606  0.300100  1
  Ho  Ho9  1  0.689493  0.389394  0.699900  1
  Ho  Ho10  1  0.310509  0.010420  0.699912  1
  Ho  Ho11  1  0.689491  0.989580  0.300088  1
  Al  Al12  1  0.000000  0.000000  0.000000  1
  Fe  Fe13  1  0.384967  0.000000  0.384967  1
  Fe  Fe14  1  0.615033  0.000000  0.615033  1
  Fe  Fe15  1  0.107877  0.607868  0.499992  1
  Fe  Fe16  1  0.892123  0.392132  0.500008  1
  Pb  Pb17  1  0.500000  0.500000  0.000000  1
