# generated using pymatgen
data_Li4Tb3CeSi8
_symmetry_space_group_name_H-M   'P 1'
_cell_length_a   3.81648300
_cell_length_b   7.66758542
_cell_length_c   10.26104426
_cell_angle_alpha   90.08698453
_cell_angle_beta   90.00000000
_cell_angle_gamma   90.00000000
_symmetry_Int_Tables_number   1
_chemical_formula_structural   Li4Tb3CeSi8
_chemical_formula_sum   'Li4 Tb3 Ce1 Si8'
_cell_volume   300.27074067
_cell_formula_units_Z   1
loop_
 _symmetry_equiv_pos_site_id
 _symmetry_equiv_pos_as_xyz
  1  'x, y, z'
loop_
 _atom_site_type_symbol
 _atom_site_label
 _atom_site_symmetry_multiplicity
 _atom_site_fract_x
 _atom_site_fract_y
 _atom_site_fract_z
 _atom_site_occupancy
  Li  Li0  1  0.250000  0.989968  0.393121  1
  Li  Li1  1  0.250000  0.490248  0.104625  1
  Li  Li2  1  0.750000  0.010260  0.608465  1
  Li  Li3  1  0.750000  0.509925  0.893905  1
  Tb  Tb4  1  0.250000  0.135779  0.863567  1
  Tb  Tb5  1  0.250000  0.635297  0.636127  1
  Tb  Tb6  1  0.750000  0.865965  0.135554  1
  Ce  Ce7  1  0.750000  0.359561  0.362794  1
  Si  Si8  1  0.250000  0.236759  0.568972  1
  Si  Si9  1  0.250000  0.734175  0.932444  1
  Si  Si10  1  0.750000  0.769442  0.431401  1
  Si  Si11  1  0.750000  0.263856  0.066662  1
  Si  Si12  1  0.250000  0.658948  0.319523  1
  Si  Si13  1  0.250000  0.159538  0.180236  1
  Si  Si14  1  0.750000  0.339272  0.683733  1
  Si  Si15  1  0.750000  0.841009  0.818872  1
