# generated using pymatgen
data_Y5Ho9Tm2(InRh)4
_symmetry_space_group_name_H-M   'P 1'
_cell_length_a   9.64301341
_cell_length_b   9.64812782
_cell_length_c   9.65281076
_cell_angle_alpha   60.01497191
_cell_angle_beta   59.91688983
_cell_angle_gamma   59.88870261
_symmetry_Int_Tables_number   1
_chemical_formula_structural   Y5Ho9Tm2(InRh)4
_chemical_formula_sum   'Y5 Ho9 Tm2 In4 Rh4'
_cell_volume   634.16736162
_cell_formula_units_Z   1
loop_
 _symmetry_equiv_pos_site_id
 _symmetry_equiv_pos_as_xyz
  1  'x, y, z'
loop_
 _atom_site_type_symbol
 _atom_site_label
 _atom_site_symmetry_multiplicity
 _atom_site_fract_x
 _atom_site_fract_y
 _atom_site_fract_z
 _atom_site_occupancy
  Y  Y0  1  0.062009  0.062366  0.436741  1
  Y  Y1  1  0.437880  0.061713  0.436991  1
  Y  Y2  1  0.061646  0.437079  0.062154  1
  Y  Y3  1  0.050204  0.649148  0.649238  1
  Y  Y4  1  0.438260  0.437324  0.061469  1
  Ho  Ho5  1  0.649955  0.049365  0.647475  1
  Ho  Ho6  1  0.189927  0.811045  0.189230  1
  Ho  Ho7  1  0.189457  0.189019  0.811469  1
  Ho  Ho8  1  0.810123  0.809726  0.191198  1
  Ho  Ho9  1  0.441464  0.057800  0.058142  1
  Ho  Ho10  1  0.811174  0.189695  0.189386  1
  Ho  Ho11  1  0.059663  0.439234  0.439225  1
  Ho  Ho12  1  0.810357  0.191068  0.810135  1
  Ho  Ho13  1  0.190476  0.810910  0.811158  1
  Tm  Tm14  1  0.650120  0.647728  0.048640  1
  Tm  Tm15  1  0.651913  0.652863  0.652732  1
  In  In16  1  0.416394  0.416877  0.416450  1
  In  In17  1  0.747827  0.418817  0.416925  1
  In  In18  1  0.418013  0.747853  0.418334  1
  In  In19  1  0.418064  0.418537  0.747920  1
  Rh  Rh20  1  0.856988  0.858076  0.425271  1
  Rh  Rh21  1  0.853389  0.859536  0.861226  1
  Rh  Rh22  1  0.428464  0.858053  0.859558  1
  Rh  Rh23  1  0.856233  0.426170  0.858930  1
