# generated using pymatgen
data_YSc3VSi7Pt9
_symmetry_space_group_name_H-M   'P 1'
_cell_length_a   9.96460888
_cell_length_b   9.96595370
_cell_length_c   3.92550800
_cell_angle_alpha   90.00000000
_cell_angle_beta   90.00000000
_cell_angle_gamma   119.75008864
_symmetry_Int_Tables_number   1
_chemical_formula_structural   YSc3VSi7Pt9
_chemical_formula_sum   'Y1 Sc3 V1 Si7 Pt9'
_cell_volume   338.44943482
_cell_formula_units_Z   1
loop_
 _symmetry_equiv_pos_site_id
 _symmetry_equiv_pos_as_xyz
  1  'x, y, z'
loop_
 _atom_site_type_symbol
 _atom_site_label
 _atom_site_symmetry_multiplicity
 _atom_site_fract_x
 _atom_site_fract_y
 _atom_site_fract_z
 _atom_site_occupancy
  Y  Y0  1  0.331361  0.666080  0.500000  1
  Sc  Sc1  1  0.000912  0.997709  0.000000  1
  Sc  Sc2  1  0.566540  0.108304  0.500000  1
  Sc  Sc3  1  0.544649  0.436453  0.500000  1
  V  V4  1  0.886865  0.457303  0.500000  1
  Si  Si5  1  0.241058  0.194244  0.500000  1
  Si  Si6  1  0.809980  0.048495  0.500000  1
  Si  Si7  1  0.951003  0.747106  0.500000  1
  Si  Si8  1  0.555636  0.645481  0.000000  1
  Si  Si9  1  0.353663  0.910670  0.000000  1
  Si  Si10  1  0.081453  0.444809  0.000000  1
  Si  Si11  1  0.677522  0.338434  0.000000  1
  Pt  Pt12  1  0.216289  0.937817  0.500000  1
  Pt  Pt13  1  0.060970  0.283091  0.500000  1
  Pt  Pt14  1  0.722115  0.781173  0.500000  1
  Pt  Pt15  1  0.310445  0.413104  0.000000  1
  Pt  Pt16  1  0.587348  0.901090  0.000000  1
  Pt  Pt17  1  0.096533  0.688209  0.000000  1
  Pt  Pt18  1  0.389262  0.175397  0.000000  1
  Pt  Pt19  1  0.828381  0.210635  0.000000  1
  Pt  Pt20  1  0.788016  0.614395  0.000000  1
