# generated using pymatgen
data_Tb5ErAl24Pd3Ru5
_symmetry_space_group_name_H-M   'P 1'
_cell_length_a   8.85107067
_cell_length_b   8.84627946
_cell_length_c   9.52320614
_cell_angle_alpha   90.24391117
_cell_angle_beta   90.03943247
_cell_angle_gamma   119.65930052
_symmetry_Int_Tables_number   1
_chemical_formula_structural   Tb5ErAl24Pd3Ru5
_chemical_formula_sum   'Tb5 Er1 Al24 Pd3 Ru5'
_cell_volume   647.95503212
_cell_formula_units_Z   1
loop_
 _symmetry_equiv_pos_site_id
 _symmetry_equiv_pos_as_xyz
  1  'x, y, z'
loop_
 _atom_site_type_symbol
 _atom_site_label
 _atom_site_symmetry_multiplicity
 _atom_site_fract_x
 _atom_site_fract_y
 _atom_site_fract_z
 _atom_site_occupancy
  Tb  Tb0  1  0.187361  0.383535  0.252244  1
  Tb  Tb1  1  0.812363  0.615802  0.747753  1
  Tb  Tb2  1  0.617877  0.811347  0.250772  1
  Tb  Tb3  1  0.382709  0.188847  0.749308  1
  Tb  Tb4  1  0.189844  0.806897  0.250199  1
  Er  Er5  1  0.809090  0.194433  0.749434  1
  Al  Al6  1  0.327712  0.663687  0.025863  1
  Al  Al7  1  0.672519  0.335912  0.973366  1
  Al  Al8  1  0.669468  0.329346  0.524572  1
  Al  Al9  1  0.331003  0.670476  0.476147  1
  Al  Al10  1  0.156580  0.324000  0.578160  1
  Al  Al11  1  0.842750  0.675564  0.422366  1
  Al  Al12  1  0.676257  0.843749  0.577680  1
  Al  Al13  1  0.842483  0.675339  0.076903  1
  Al  Al14  1  0.324256  0.156886  0.422963  1
  Al  Al15  1  0.156827  0.324137  0.922530  1
  Al  Al16  1  0.163639  0.836000  0.576934  1
  Al  Al17  1  0.321823  0.161914  0.079359  1
  Al  Al18  1  0.836475  0.163914  0.423898  1
  Al  Al19  1  0.678648  0.838688  0.920059  1
  Al  Al20  1  0.842342  0.167913  0.077348  1
  Al  Al21  1  0.157690  0.831940  0.921817  1
  Al  Al22  1  0.561278  0.124691  0.253701  1
  Al  Al23  1  0.439354  0.875839  0.746425  1
  Al  Al24  1  0.877313  0.439791  0.249236  1
  Al  Al25  1  0.122015  0.559406  0.750764  1
  Al  Al26  1  0.562606  0.437121  0.249029  1
  Al  Al27  1  0.437239  0.562976  0.750979  1
  Al  Al28  1  0.997595  0.000716  0.250234  1
  Al  Al29  1  0.001616  0.999980  0.749817  1
  Pd  Pd30  1  0.500488  0.000097  0.999774  1
  Pd  Pd31  1  0.500197  0.499947  0.999951  1
  Pd  Pd32  1  0.500217  0.499895  0.500080  1
  Ru  Ru33  1  0.999741  0.499462  0.999656  1
  Ru  Ru34  1  0.500576  0.000285  0.500355  1
  Ru  Ru35  1  0.999906  0.499621  0.500268  1
  Ru  Ru36  1  0.000076  0.999908  0.999926  1
  Ru  Ru37  1  0.000067  0.999941  0.500131  1
