# generated using pymatgen
data_Ca3HoSb3
_symmetry_space_group_name_H-M   'P 1'
_cell_length_a   8.12854226
_cell_length_b   8.19930014
_cell_length_c   8.12854207
_cell_angle_alpha   109.46843718
_cell_angle_beta   109.01683851
_cell_angle_gamma   109.46843973
_symmetry_Int_Tables_number   1
_chemical_formula_structural   Ca3HoSb3
_chemical_formula_sum   'Ca6 Ho2 Sb6'
_cell_volume   419.38646656
_cell_formula_units_Z   2
loop_
 _symmetry_equiv_pos_site_id
 _symmetry_equiv_pos_as_xyz
  1  'x, y, z'
loop_
 _atom_site_type_symbol
 _atom_site_label
 _atom_site_symmetry_multiplicity
 _atom_site_fract_x
 _atom_site_fract_y
 _atom_site_fract_z
 _atom_site_occupancy
  Ca  Ca0  1  0.142555  0.498076  0.000051  1
  Ca  Ca1  1  0.500051  0.998076  0.642555  1
  Ca  Ca2  1  0.353909  0.356079  0.355823  1
  Ca  Ca3  1  0.001615  0.145987  0.502213  1
  Ca  Ca4  1  0.855823  0.856079  0.853909  1
  Ca  Ca5  1  0.002213  0.645987  0.501615  1
  Ho  Ho6  1  0.642613  0.499680  0.999849  1
  Ho  Ho7  1  0.499849  0.999680  0.142613  1
  Sb  Sb8  1  0.865715  0.249941  0.125271  1
  Sb  Sb9  1  0.122890  0.870967  0.243944  1
  Sb  Sb10  1  0.382246  0.629270  0.761307  1
  Sb  Sb11  1  0.261307  0.129270  0.882246  1
  Sb  Sb12  1  0.743944  0.370967  0.622890  1
  Sb  Sb13  1  0.625271  0.749941  0.365715  1
