# generated using pymatgen
data_NdY4ErTa2O14
_symmetry_space_group_name_H-M   'P 1'
_cell_length_a   6.49872526
_cell_length_b   6.49349912
_cell_length_c   7.55777947
_cell_angle_alpha   90.08800792
_cell_angle_beta   89.88702520
_cell_angle_gamma   109.09779172
_symmetry_Int_Tables_number   1
_chemical_formula_structural   NdY4ErTa2O14
_chemical_formula_sum   'Nd1 Y4 Er1 Ta2 O14'
_cell_volume   301.37988780
_cell_formula_units_Z   1
loop_
 _symmetry_equiv_pos_site_id
 _symmetry_equiv_pos_as_xyz
  1  'x, y, z'
loop_
 _atom_site_type_symbol
 _atom_site_label
 _atom_site_symmetry_multiplicity
 _atom_site_fract_x
 _atom_site_fract_y
 _atom_site_fract_z
 _atom_site_occupancy
  Nd  Nd0  1  0.496085  0.495963  0.000958  1
  Y  Y1  1  0.535378  0.532262  0.500047  1
  Y  Y2  1  0.001177  0.465575  0.744084  1
  Y  Y3  1  0.533274  0.001394  0.751334  1
  Y  Y4  1  0.465717  0.000658  0.256209  1
  Er  Er5  1  0.002090  0.533970  0.248167  1
  Ta  Ta6  1  0.002834  0.003446  0.499417  1
  Ta  Ta7  1  0.999300  0.999348  0.000765  1
  O  O8  1  0.936616  0.065474  0.750482  1
  O  O9  1  0.064931  0.932020  0.249669  1
  O  O10  1  0.356773  0.639783  0.259042  1
  O  O11  1  0.641888  0.360316  0.742568  1
  O  O12  1  0.367957  0.632118  0.741500  1
  O  O13  1  0.636372  0.369811  0.257273  1
  O  O14  1  0.321962  0.073571  0.970704  1
  O  O15  1  0.673794  0.918584  0.473138  1
  O  O16  1  0.312229  0.059807  0.536998  1
  O  O17  1  0.680309  0.930350  0.035178  1
  O  O18  1  0.046152  0.308772  0.457949  1
  O  O19  1  0.933843  0.680957  0.965390  1
  O  O20  1  0.922252  0.674650  0.526369  1
  O  O21  1  0.069066  0.321169  0.032760  1
