# generated using pymatgen
data_Lu12Fe3Au2
_symmetry_space_group_name_H-M   'P 1'
_cell_length_a   8.02480596
_cell_length_b   8.02480562
_cell_length_c   8.02480600
_cell_angle_alpha   108.61774710
_cell_angle_beta   108.61775124
_cell_angle_gamma   111.19199369
_symmetry_Int_Tables_number   1
_chemical_formula_structural   Lu12Fe3Au2
_chemical_formula_sum   'Lu12 Fe3 Au2'
_cell_volume   397.54546036
_cell_formula_units_Z   1
loop_
 _symmetry_equiv_pos_site_id
 _symmetry_equiv_pos_as_xyz
  1  'x, y, z'
loop_
 _atom_site_type_symbol
 _atom_site_label
 _atom_site_symmetry_multiplicity
 _atom_site_fract_x
 _atom_site_fract_y
 _atom_site_fract_z
 _atom_site_occupancy
  Lu  Lu0  1  0.310549  0.310549  0.621098  1
  Lu  Lu1  1  0.689451  0.689451  0.378902  1
  Lu  Lu2  1  0.689451  0.310549  0.000000  1
  Lu  Lu3  1  0.310549  0.689451  0.000000  1
  Lu  Lu4  1  0.188169  0.431933  0.243765  1
  Lu  Lu5  1  0.811831  0.568067  0.756235  1
  Lu  Lu6  1  0.188169  0.944403  0.756235  1
  Lu  Lu7  1  0.944403  0.188169  0.756235  1
  Lu  Lu8  1  0.811831  0.055597  0.243765  1
  Lu  Lu9  1  0.055597  0.811831  0.243765  1
  Lu  Lu10  1  0.431933  0.188169  0.243765  1
  Lu  Lu11  1  0.568067  0.811831  0.756235  1
  Fe  Fe12  1  0.377105  0.377105  0.000000  1
  Fe  Fe13  1  0.622895  0.622895  0.000000  1
  Fe  Fe14  1  0.000000  0.000000  0.000000  1
  Au  Au15  1  0.000000  0.500000  0.500000  1
  Au  Au16  1  0.500000  0.000000  0.500000  1
