# generated using pymatgen
data_LiDy8TlPt2
_symmetry_space_group_name_H-M   'P 1'
_cell_length_a   9.69960906
_cell_length_b   9.74644328
_cell_length_c   9.69960800
_cell_angle_alpha   59.84014548
_cell_angle_beta   60.13660614
_cell_angle_gamma   59.84015587
_symmetry_Int_Tables_number   1
_chemical_formula_structural   LiDy8TlPt2
_chemical_formula_sum   'Li2 Dy16 Tl2 Pt4'
_cell_volume   647.48573491
_cell_formula_units_Z   2
loop_
 _symmetry_equiv_pos_site_id
 _symmetry_equiv_pos_as_xyz
  1  'x, y, z'
loop_
 _atom_site_type_symbol
 _atom_site_label
 _atom_site_symmetry_multiplicity
 _atom_site_fract_x
 _atom_site_fract_y
 _atom_site_fract_z
 _atom_site_occupancy
  Li  Li0  1  0.924814  0.927069  0.221047  1
  Li  Li1  1  0.221047  0.927069  0.924814  1
  Dy  Dy2  1  0.690171  0.310205  0.310915  1
  Dy  Dy3  1  0.690171  0.688708  0.310915  1
  Dy  Dy4  1  0.315120  0.684880  0.315120  1
  Dy  Dy5  1  0.935390  0.934369  0.564277  1
  Dy  Dy6  1  0.145133  0.149227  0.556412  1
  Dy  Dy7  1  0.563685  0.936315  0.563685  1
  Dy  Dy8  1  0.150409  0.151798  0.150409  1
  Dy  Dy9  1  0.310915  0.310205  0.690171  1
  Dy  Dy10  1  0.935390  0.565965  0.564277  1
  Dy  Dy11  1  0.564277  0.565965  0.935390  1
  Dy  Dy12  1  0.564277  0.934369  0.935390  1
  Dy  Dy13  1  0.935682  0.564318  0.935682  1
  Dy  Dy14  1  0.150409  0.547382  0.150409  1
  Dy  Dy15  1  0.310915  0.688708  0.690171  1
  Dy  Dy16  1  0.693008  0.306992  0.693008  1
  Dy  Dy17  1  0.556412  0.149227  0.145133  1
  Tl  Tl18  1  0.919209  0.250716  0.919209  1
  Tl  Tl19  1  0.919209  0.910867  0.919209  1
  Pt  Pt20  1  0.358478  0.353298  0.358478  1
  Pt  Pt21  1  0.928794  0.356300  0.358608  1
  Pt  Pt22  1  0.358608  0.356300  0.928794  1
  Pt  Pt23  1  0.358478  0.929748  0.358478  1
