# generated using pymatgen
data_Ca4Sb4IrPt3
_symmetry_space_group_name_H-M   'P 1'
_cell_length_a   4.63102100
_cell_length_b   7.37867101
_cell_length_c   7.95279601
_cell_angle_alpha   89.99466227
_cell_angle_beta   90.00000000
_cell_angle_gamma   90.00000000
_symmetry_Int_Tables_number   1
_chemical_formula_structural   Ca4Sb4IrPt3
_chemical_formula_sum   'Ca4 Sb4 Ir1 Pt3'
_cell_volume   271.75324473
_cell_formula_units_Z   1
loop_
 _symmetry_equiv_pos_site_id
 _symmetry_equiv_pos_as_xyz
  1  'x, y, z'
loop_
 _atom_site_type_symbol
 _atom_site_label
 _atom_site_symmetry_multiplicity
 _atom_site_fract_x
 _atom_site_fract_y
 _atom_site_fract_z
 _atom_site_occupancy
  Ca  Ca0  1  0.750000  0.991093  0.695877  1
  Ca  Ca1  1  0.250000  0.007072  0.302022  1
  Ca  Ca2  1  0.750000  0.490462  0.803191  1
  Ca  Ca3  1  0.250000  0.510317  0.197129  1
  Sb  Sb4  1  0.750000  0.315041  0.410404  1
  Sb  Sb5  1  0.250000  0.178725  0.910415  1
  Sb  Sb6  1  0.250000  0.687815  0.596440  1
  Sb  Sb7  1  0.750000  0.814194  0.084594  1
  Ir  Ir8  1  0.250000  0.806171  0.914841  1
  Pt  Pt9  1  0.250000  0.299752  0.586629  1
  Pt  Pt10  1  0.750000  0.697900  0.411940  1
  Pt  Pt11  1  0.750000  0.201457  0.086516  1
