# generated using pymatgen
data_ErScAlNi
_symmetry_space_group_name_H-M   'P 1'
_cell_length_a   5.34837244
_cell_length_b   5.34837242
_cell_length_c   7.41443100
_cell_angle_alpha   90.00000000
_cell_angle_beta   90.00000000
_cell_angle_gamma   47.07569726
_symmetry_Int_Tables_number   1
_chemical_formula_structural   ErScAlNi
_chemical_formula_sum   'Er2 Sc2 Al2 Ni2'
_cell_volume   155.30409992
_cell_formula_units_Z   2
loop_
 _symmetry_equiv_pos_site_id
 _symmetry_equiv_pos_as_xyz
  1  'x, y, z'
loop_
 _atom_site_type_symbol
 _atom_site_label
 _atom_site_symmetry_multiplicity
 _atom_site_fract_x
 _atom_site_fract_y
 _atom_site_fract_z
 _atom_site_occupancy
  Er  Er0  1  0.054356  0.054356  0.254253  1
  Er  Er1  1  0.945644  0.945644  0.754253  1
  Sc  Sc2  1  0.343663  0.343663  0.055598  1
  Sc  Sc3  1  0.656337  0.656337  0.555597  1
  Al  Al4  1  0.651457  0.651457  0.944729  1
  Al  Al5  1  0.348543  0.348543  0.444730  1
  Ni  Ni6  1  0.772919  0.772919  0.245421  1
  Ni  Ni7  1  0.227081  0.227081  0.745421  1
