# generated using pymatgen
data_Na2Nb2Ni9As7Ru
_symmetry_space_group_name_H-M   'P 1'
_cell_length_a   9.53188734
_cell_length_b   9.63263413
_cell_length_c   3.81991900
_cell_angle_alpha   90.00000000
_cell_angle_beta   90.00000000
_cell_angle_gamma   120.11179830
_symmetry_Int_Tables_number   1
_chemical_formula_structural   Na2Nb2Ni9As7Ru
_chemical_formula_sum   'Na2 Nb2 Ni9 As7 Ru1'
_cell_volume   303.40196696
_cell_formula_units_Z   1
loop_
 _symmetry_equiv_pos_site_id
 _symmetry_equiv_pos_as_xyz
  1  'x, y, z'
loop_
 _atom_site_type_symbol
 _atom_site_label
 _atom_site_symmetry_multiplicity
 _atom_site_fract_x
 _atom_site_fract_y
 _atom_site_fract_z
 _atom_site_occupancy
  Na  Na0  1  0.333136  0.663051  0.000000  1
  Na  Na1  1  0.664494  0.333392  0.500000  1
  Nb  Nb2  1  0.881260  0.103279  0.500000  1
  Nb  Nb3  1  0.902486  0.781942  0.500000  1
  Ni  Ni4  1  0.122881  0.284032  0.000000  1
  Ni  Ni5  1  0.715823  0.842248  0.000000  1
  Ni  Ni6  1  0.164161  0.874251  0.000000  1
  Ni  Ni7  1  0.425826  0.367637  0.000000  1
  Ni  Ni8  1  0.626380  0.057282  0.000000  1
  Ni  Ni9  1  0.942707  0.573888  0.000000  1
  Ni  Ni10  1  0.054823  0.435976  0.500000  1
  Ni  Ni11  1  0.562019  0.615198  0.500000  1
  Ni  Ni12  1  0.385695  0.950874  0.500000  1
  As  As13  1  0.289854  0.407820  0.500000  1
  As  As14  1  0.581858  0.874306  0.500000  1
  As  As15  1  0.125616  0.705860  0.500000  1
  As  As16  1  0.411381  0.117186  0.000000  1
  As  As17  1  0.882098  0.304015  0.000000  1
  As  As18  1  0.696991  0.582160  0.000000  1
  As  As19  1  0.008566  0.003395  0.000000  1
  Ru  Ru20  1  0.221945  0.122208  0.500000  1
