# generated using pymatgen
data_Dy3HoGa7Ag5
_symmetry_space_group_name_H-M   'P 1'
_cell_length_a   4.36144300
_cell_length_b   7.01419225
_cell_length_c   10.30552701
_cell_angle_alpha   89.93249387
_cell_angle_beta   90.00000000
_cell_angle_gamma   90.00000000
_symmetry_Int_Tables_number   1
_chemical_formula_structural   Dy3HoGa7Ag5
_chemical_formula_sum   'Dy3 Ho1 Ga7 Ag5'
_cell_volume   315.26646029
_cell_formula_units_Z   1
loop_
 _symmetry_equiv_pos_site_id
 _symmetry_equiv_pos_as_xyz
  1  'x, y, z'
loop_
 _atom_site_type_symbol
 _atom_site_label
 _atom_site_symmetry_multiplicity
 _atom_site_fract_x
 _atom_site_fract_y
 _atom_site_fract_z
 _atom_site_occupancy
  Dy  Dy0  1  0.500000  0.782039  0.172281  1
  Dy  Dy1  1  0.500000  0.278887  0.328514  1
  Dy  Dy2  1  0.000000  0.215298  0.829791  1
  Ho  Ho3  1  0.000000  0.721246  0.670151  1
  Ga  Ga4  1  0.500000  0.923130  0.846450  1
  Ga  Ga5  1  0.500000  0.425358  0.654647  1
  Ga  Ga6  1  0.000000  0.077755  0.153325  1
  Ga  Ga7  1  0.000000  0.575426  0.344601  1
  Ga  Ga8  1  0.500000  0.202715  0.036090  1
  Ga  Ga9  1  0.000000  0.299224  0.535796  1
  Ga  Ga10  1  0.000000  0.795681  0.963829  1
  Ag  Ag11  1  0.500000  0.540643  0.903194  1
  Ag  Ag12  1  0.500000  0.046165  0.600909  1
  Ag  Ag13  1  0.000000  0.457917  0.097141  1
  Ag  Ag14  1  0.000000  0.961294  0.401474  1
  Ag  Ag15  1  0.500000  0.697225  0.461805  1
