# generated using pymatgen
data_Ti14NbTcAs12
_symmetry_space_group_name_H-M   'P 1'
_cell_length_a   7.33913013
_cell_length_b   7.33912694
_cell_length_c   18.84892572
_cell_angle_alpha   90.05976581
_cell_angle_beta   89.94021646
_cell_angle_gamma   152.31943320
_symmetry_Int_Tables_number   1
_chemical_formula_structural   Ti14NbTcAs12
_chemical_formula_sum   'Ti14 Nb1 Tc1 As12'
_cell_volume   471.62852183
_cell_formula_units_Z   1
loop_
 _symmetry_equiv_pos_site_id
 _symmetry_equiv_pos_as_xyz
  1  'x, y, z'
loop_
 _atom_site_type_symbol
 _atom_site_label
 _atom_site_symmetry_multiplicity
 _atom_site_fract_x
 _atom_site_fract_y
 _atom_site_fract_z
 _atom_site_occupancy
  Ti  Ti0  1  0.731454  0.268548  0.159452  1
  Ti  Ti1  1  0.268526  0.731481  0.840578  1
  Ti  Ti2  1  0.267939  0.732060  0.664292  1
  Ti  Ti3  1  0.732014  0.267986  0.335710  1
  Ti  Ti4  1  0.534486  0.465516  0.114932  1
  Ti  Ti5  1  0.465557  0.534449  0.885030  1
  Ti  Ti6  1  0.464642  0.535366  0.618982  1
  Ti  Ti7  1  0.535383  0.464612  0.381047  1
  Ti  Ti8  1  0.664298  0.335700  0.972422  1
  Ti  Ti9  1  0.335679  0.664323  0.027541  1
  Ti  Ti10  1  0.336186  0.663815  0.472993  1
  Ti  Ti11  1  0.663784  0.336208  0.527003  1
  Ti  Ti12  1  0.060934  0.939062  0.751229  1
  Ti  Ti13  1  0.939062  0.060948  0.248810  1
  Nb  Nb14  1  0.000027  0.999971  0.499972  1
  Tc  Tc15  1  0.999992  0.000004  0.000013  1
  As  As16  1  0.901893  0.098107  0.116823  1
  As  As17  1  0.098122  0.901877  0.883173  1
  As  As18  1  0.099454  0.900545  0.619176  1
  As  As19  1  0.900587  0.099411  0.380821  1
  As  As20  1  0.839729  0.160269  0.926066  1
  As  As21  1  0.160263  0.839737  0.073907  1
  As  As22  1  0.162275  0.837723  0.423539  1
  As  As23  1  0.837708  0.162293  0.576467  1
  As  As24  1  0.699589  0.300410  0.752064  1
  As  As25  1  0.300394  0.699604  0.247939  1
  As  As26  1  0.419613  0.580389  0.751765  1
  As  As27  1  0.580410  0.419586  0.248252  1
