# generated using pymatgen
data_Ho4AgSnPd4
_symmetry_space_group_name_H-M   'P 1'
_cell_length_a   7.68514400
_cell_length_b   7.68514400
_cell_length_c   3.70006300
_cell_angle_alpha   90.00000000
_cell_angle_beta   90.00000000
_cell_angle_gamma   90.00000000
_symmetry_Int_Tables_number   1
_chemical_formula_structural   Ho4AgSnPd4
_chemical_formula_sum   'Ho4 Ag1 Sn1 Pd4'
_cell_volume   218.53104258
_cell_formula_units_Z   1
loop_
 _symmetry_equiv_pos_site_id
 _symmetry_equiv_pos_as_xyz
  1  'x, y, z'
loop_
 _atom_site_type_symbol
 _atom_site_label
 _atom_site_symmetry_multiplicity
 _atom_site_fract_x
 _atom_site_fract_y
 _atom_site_fract_z
 _atom_site_occupancy
  Ho  Ho0  1  0.335477  0.822743  0.500000  1
  Ho  Ho1  1  0.822743  0.664523  0.500000  1
  Ho  Ho2  1  0.177257  0.335477  0.500000  1
  Ho  Ho3  1  0.664523  0.177257  0.500000  1
  Ag  Ag4  1  0.000000  0.000000  0.000000  1
  Sn  Sn5  1  0.500000  0.500000  0.000000  1
  Pd  Pd6  1  0.364372  0.124150  0.000000  1
  Pd  Pd7  1  0.875850  0.364372  0.000000  1
  Pd  Pd8  1  0.124150  0.635628  0.000000  1
  Pd  Pd9  1  0.635628  0.875850  0.000000  1
