# generated using pymatgen
data_TbDyLu8(In2Pt)4
_symmetry_space_group_name_H-M   'P 1'
_cell_length_a   3.58940600
_cell_length_b   8.05204302
_cell_length_c   18.05591604
_cell_angle_alpha   89.99256975
_cell_angle_beta   90.00000000
_cell_angle_gamma   90.00000000
_symmetry_Int_Tables_number   1
_chemical_formula_structural   TbDyLu8(In2Pt)4
_chemical_formula_sum   'Tb1 Dy1 Lu8 In8 Pt4'
_cell_volume   521.85301113
_cell_formula_units_Z   1
loop_
 _symmetry_equiv_pos_site_id
 _symmetry_equiv_pos_as_xyz
  1  'x, y, z'
loop_
 _atom_site_type_symbol
 _atom_site_label
 _atom_site_symmetry_multiplicity
 _atom_site_fract_x
 _atom_site_fract_y
 _atom_site_fract_z
 _atom_site_occupancy
  Tb  Tb0  1  0.000000  0.000000  0.000000  1
  Dy  Dy1  1  0.000000  0.500000  0.500000  1
  Lu  Lu2  1  0.000000  0.117031  0.413874  1
  Lu  Lu3  1  0.000000  0.882969  0.586126  1
  Lu  Lu4  1  0.000000  0.382974  0.913848  1
  Lu  Lu5  1  0.000000  0.617026  0.086152  1
  Lu  Lu6  1  0.000000  0.244542  0.221245  1
  Lu  Lu7  1  0.000000  0.755458  0.778755  1
  Lu  Lu8  1  0.000000  0.255448  0.721260  1
  Lu  Lu9  1  0.000000  0.744552  0.278740  1
  In  In10  1  0.500000  0.424109  0.350998  1
  In  In11  1  0.500000  0.575891  0.649002  1
  In  In12  1  0.500000  0.075974  0.850875  1
  In  In13  1  0.500000  0.924026  0.149125  1
  In  In14  1  0.500000  0.294662  0.066857  1
  In  In15  1  0.500000  0.705338  0.933143  1
  In  In16  1  0.500000  0.205685  0.566782  1
  In  In17  1  0.500000  0.794315  0.433218  1
  Pt  Pt18  1  0.500000  0.026016  0.303856  1
  Pt  Pt19  1  0.500000  0.973984  0.696144  1
  Pt  Pt20  1  0.500000  0.474009  0.803836  1
  Pt  Pt21  1  0.500000  0.525991  0.196164  1
