# generated using pymatgen
data_NdTh(AlRh)2
_symmetry_space_group_name_H-M   'P 1'
_cell_length_a   4.37046500
_cell_length_b   6.99848856
_cell_length_c   8.12024852
_cell_angle_alpha   90.23987179
_cell_angle_beta   90.00000000
_cell_angle_gamma   90.00000000
_symmetry_Int_Tables_number   1
_chemical_formula_structural   NdTh(AlRh)2
_chemical_formula_sum   'Nd2 Th2 Al4 Rh4'
_cell_volume   248.36901740
_cell_formula_units_Z   2
loop_
 _symmetry_equiv_pos_site_id
 _symmetry_equiv_pos_as_xyz
  1  'x, y, z'
loop_
 _atom_site_type_symbol
 _atom_site_label
 _atom_site_symmetry_multiplicity
 _atom_site_fract_x
 _atom_site_fract_y
 _atom_site_fract_z
 _atom_site_occupancy
  Nd  Nd0  1  0.750000  0.961170  0.679495  1
  Nd  Nd1  1  0.250000  0.038830  0.320505  1
  Th  Th2  1  0.250000  0.539652  0.182003  1
  Th  Th3  1  0.750000  0.460348  0.817997  1
  Al  Al4  1  0.250000  0.636152  0.561164  1
  Al  Al5  1  0.750000  0.363848  0.438836  1
  Al  Al6  1  0.750000  0.873852  0.061350  1
  Al  Al7  1  0.250000  0.126148  0.938650  1
  Rh  Rh8  1  0.250000  0.751787  0.888334  1
  Rh  Rh9  1  0.750000  0.248213  0.111666  1
  Rh  Rh10  1  0.750000  0.727915  0.374985  1
  Rh  Rh11  1  0.250000  0.272085  0.625015  1
