# generated using pymatgen
data_Tb2Yb(EuSn2)2
_symmetry_space_group_name_H-M   'P 1'
_cell_length_a   8.05927900
_cell_length_b   8.52878400
_cell_length_c   16.27469800
_cell_angle_alpha   90.00000000
_cell_angle_beta   90.00000000
_cell_angle_gamma   90.00000000
_symmetry_Int_Tables_number   1
_chemical_formula_structural   Tb2Yb(EuSn2)2
_chemical_formula_sum   'Tb8 Yb4 Eu8 Sn16'
_cell_volume   1118.65519705
_cell_formula_units_Z   4
loop_
 _symmetry_equiv_pos_site_id
 _symmetry_equiv_pos_as_xyz
  1  'x, y, z'
loop_
 _atom_site_type_symbol
 _atom_site_label
 _atom_site_symmetry_multiplicity
 _atom_site_fract_x
 _atom_site_fract_y
 _atom_site_fract_z
 _atom_site_occupancy
  Tb  Tb0  1  0.672311  0.169550  0.621963  1
  Tb  Tb1  1  0.172311  0.330450  0.878037  1
  Tb  Tb2  1  0.327689  0.830450  0.121963  1
  Tb  Tb3  1  0.827689  0.669550  0.378037  1
  Tb  Tb4  1  0.327689  0.830450  0.378037  1
  Tb  Tb5  1  0.827689  0.669550  0.121963  1
  Tb  Tb6  1  0.672311  0.169550  0.878037  1
  Tb  Tb7  1  0.172311  0.330450  0.621963  1
  Yb  Yb8  1  0.834888  0.510371  0.750000  1
  Yb  Yb9  1  0.334888  0.989629  0.750000  1
  Yb  Yb10  1  0.165112  0.489629  0.250000  1
  Yb  Yb11  1  0.665112  0.010371  0.250000  1
  Eu  Eu12  1  0.506517  0.679896  0.595074  1
  Eu  Eu13  1  0.006517  0.820104  0.904926  1
  Eu  Eu14  1  0.493483  0.320104  0.095074  1
  Eu  Eu15  1  0.993483  0.179896  0.404926  1
  Eu  Eu16  1  0.493483  0.320104  0.404926  1
  Eu  Eu17  1  0.993483  0.179896  0.095074  1
  Eu  Eu18  1  0.506517  0.679896  0.904926  1
  Eu  Eu19  1  0.006517  0.820104  0.595074  1
  Sn  Sn20  1  0.664760  0.961295  0.459924  1
  Sn  Sn21  1  0.164760  0.538705  0.040076  1
  Sn  Sn22  1  0.335240  0.038705  0.959924  1
  Sn  Sn23  1  0.835240  0.461295  0.540076  1
  Sn  Sn24  1  0.335240  0.038705  0.540076  1
  Sn  Sn25  1  0.835240  0.461295  0.959924  1
  Sn  Sn26  1  0.664760  0.961295  0.040076  1
  Sn  Sn27  1  0.164760  0.538705  0.459924  1
  Sn  Sn28  1  0.469377  0.372602  0.750000  1
  Sn  Sn29  1  0.969377  0.127398  0.750000  1
  Sn  Sn30  1  0.530623  0.627398  0.250000  1
  Sn  Sn31  1  0.030623  0.872602  0.250000  1
  Sn  Sn32  1  0.714852  0.879374  0.750000  1
  Sn  Sn33  1  0.214852  0.620626  0.750000  1
  Sn  Sn34  1  0.285148  0.120626  0.250000  1
  Sn  Sn35  1  0.785148  0.379374  0.250000  1
