# generated using pymatgen
data_Sm2Dy6Co3Si12Rh
_symmetry_space_group_name_H-M   'P 1'
_cell_length_a   8.05216700
_cell_length_b   8.05216806
_cell_length_c   8.01230500
_cell_angle_alpha   89.99994308
_cell_angle_beta   90.00000000
_cell_angle_gamma   119.99995867
_symmetry_Int_Tables_number   1
_chemical_formula_structural   Sm2Dy6Co3Si12Rh
_chemical_formula_sum   'Sm2 Dy6 Co3 Si12 Rh1'
_cell_volume   449.89782094
_cell_formula_units_Z   1
loop_
 _symmetry_equiv_pos_site_id
 _symmetry_equiv_pos_as_xyz
  1  'x, y, z'
loop_
 _atom_site_type_symbol
 _atom_site_label
 _atom_site_symmetry_multiplicity
 _atom_site_fract_x
 _atom_site_fract_y
 _atom_site_fract_z
 _atom_site_occupancy
  Sm  Sm0  1  0.000000  0.000000  0.248857  1
  Sm  Sm1  1  0.000000  0.000000  0.751414  1
  Dy  Dy2  1  0.012110  0.506056  0.248505  1
  Dy  Dy3  1  0.493944  0.506055  0.248504  1
  Dy  Dy4  1  0.503793  0.007585  0.749982  1
  Dy  Dy5  1  0.493944  0.987890  0.248504  1
  Dy  Dy6  1  0.503793  0.496208  0.749981  1
  Dy  Dy7  1  0.992415  0.496207  0.749982  1
  Co  Co8  1  0.333333  0.666667  0.969769  1
  Co  Co9  1  0.333333  0.666667  0.530332  1
  Co  Co10  1  0.666667  0.333334  0.030224  1
  Si  Si11  1  0.171970  0.343940  0.000595  1
  Si  Si12  1  0.656060  0.828030  0.000594  1
  Si  Si13  1  0.172682  0.345363  0.498796  1
  Si  Si14  1  0.345409  0.172704  0.998988  1
  Si  Si15  1  0.171970  0.828029  0.000595  1
  Si  Si16  1  0.654637  0.827318  0.498795  1
  Si  Si17  1  0.827295  0.654591  0.998988  1
  Si  Si18  1  0.333803  0.166902  0.502540  1
  Si  Si19  1  0.172682  0.827318  0.498796  1
  Si  Si20  1  0.833098  0.666197  0.502541  1
  Si  Si21  1  0.827295  0.172704  0.998988  1
  Si  Si22  1  0.833098  0.166902  0.502541  1
  Rh  Rh23  1  0.666667  0.333333  0.471189  1
