# generated using pymatgen
data_Nd2Si3AgAs3Pd20
_symmetry_space_group_name_H-M   'P 1'
_cell_length_a   8.77105054
_cell_length_b   8.80661814
_cell_length_c   8.84431482
_cell_angle_alpha   59.59559594
_cell_angle_beta   59.98839200
_cell_angle_gamma   60.41417657
_symmetry_Int_Tables_number   1
_chemical_formula_structural   Nd2Si3AgAs3Pd20
_chemical_formula_sum   'Nd2 Si3 Ag1 As3 Pd20'
_cell_volume   483.01384916
_cell_formula_units_Z   1
loop_
 _symmetry_equiv_pos_site_id
 _symmetry_equiv_pos_as_xyz
  1  'x, y, z'
loop_
 _atom_site_type_symbol
 _atom_site_label
 _atom_site_symmetry_multiplicity
 _atom_site_fract_x
 _atom_site_fract_y
 _atom_site_fract_z
 _atom_site_occupancy
  Nd  Nd0  1  0.249856  0.250128  0.249880  1
  Nd  Nd1  1  0.749881  0.750132  0.749860  1
  Si  Si2  1  0.735395  0.264554  0.735460  1
  Si  Si3  1  0.264011  0.263742  0.736253  1
  Si  Si4  1  0.736199  0.736039  0.263972  1
  Ag  Ag5  1  0.999102  0.000900  0.999097  1
  As  As6  1  0.736992  0.262976  0.262621  1
  As  As7  1  0.262650  0.737375  0.737028  1
  As  As8  1  0.263217  0.736895  0.263083  1
  Pd  Pd9  1  0.347980  0.006004  0.993926  1
  Pd  Pd10  1  0.655262  0.999510  0.000570  1
  Pd  Pd11  1  0.000506  0.344593  0.655436  1
  Pd  Pd12  1  0.994054  0.652156  0.347825  1
  Pd  Pd13  1  0.005541  0.347824  0.991761  1
  Pd  Pd14  1  0.652032  0.994555  0.345037  1
  Pd  Pd15  1  0.991686  0.654942  0.005479  1
  Pd  Pd16  1  0.345203  0.008215  0.652192  1
  Pd  Pd17  1  0.000765  0.999307  0.348696  1
  Pd  Pd18  1  0.993087  0.006815  0.655221  1
  Pd  Pd19  1  0.655022  0.344839  0.993175  1
  Pd  Pd20  1  0.348862  0.651242  0.000673  1
  Pd  Pd21  1  0.383006  0.381692  0.390745  1
  Pd  Pd22  1  0.619498  0.611644  0.613102  1
  Pd  Pd23  1  0.388372  0.380383  0.844337  1
  Pd  Pd24  1  0.390788  0.844601  0.382938  1
  Pd  Pd25  1  0.618316  0.617067  0.155362  1
  Pd  Pd26  1  0.613022  0.155700  0.619618  1
  Pd  Pd27  1  0.844146  0.386954  0.388375  1
  Pd  Pd28  1  0.155547  0.609218  0.618274  1
