# generated using pymatgen
data_Tb3ErAl3(Ga5Ir2)3
_symmetry_space_group_name_H-M   'P 1'
_cell_length_a   7.58495872
_cell_length_b   7.58310322
_cell_length_c   9.53000613
_cell_angle_alpha   89.98388950
_cell_angle_beta   89.98460331
_cell_angle_gamma   119.68919071
_symmetry_Int_Tables_number   1
_chemical_formula_structural   Tb3ErAl3(Ga5Ir2)3
_chemical_formula_sum   'Tb3 Er1 Al3 Ga15 Ir6'
_cell_volume   476.18488843
_cell_formula_units_Z   1
loop_
 _symmetry_equiv_pos_site_id
 _symmetry_equiv_pos_as_xyz
  1  'x, y, z'
loop_
 _atom_site_type_symbol
 _atom_site_label
 _atom_site_symmetry_multiplicity
 _atom_site_fract_x
 _atom_site_fract_y
 _atom_site_fract_z
 _atom_site_occupancy
  Tb  Tb0  1  0.000761  0.330398  0.749131  1
  Tb  Tb1  1  0.670206  0.999917  0.249907  1
  Tb  Tb2  1  0.330400  0.000759  0.749122  1
  Er  Er3  1  0.000184  0.670284  0.249867  1
  Al  Al4  1  0.665039  0.664724  0.447640  1
  Al  Al5  1  0.668594  0.668255  0.052517  1
  Al  Al6  1  0.332061  0.332065  0.948004  1
  Ga  Ga7  1  0.127259  0.127019  0.249420  1
  Ga  Ga8  1  0.872722  0.872699  0.749456  1
  Ga  Ga9  1  0.000197  0.335683  0.079272  1
  Ga  Ga10  1  0.000129  0.665086  0.921060  1
  Ga  Ga11  1  0.999442  0.664981  0.578907  1
  Ga  Ga12  1  0.334988  0.001013  0.418771  1
  Ga  Ga13  1  0.001495  0.336024  0.418743  1
  Ga  Ga14  1  0.664968  0.999371  0.579224  1
  Ga  Ga15  1  0.665060  0.000053  0.920736  1
  Ga  Ga16  1  0.334683  0.999720  0.079256  1
  Ga  Ga17  1  0.329239  0.329239  0.564213  1
  Ga  Ga18  1  0.346649  0.549727  0.249861  1
  Ga  Ga19  1  0.656719  0.451710  0.750191  1
  Ga  Ga20  1  0.550121  0.347245  0.249862  1
  Ga  Ga21  1  0.451655  0.656680  0.750188  1
  Ir  Ir22  1  0.669103  0.330518  0.999827  1
  Ir  Ir23  1  0.330391  0.669076  0.999815  1
  Ir  Ir24  1  0.330228  0.671863  0.499004  1
  Ir  Ir25  1  0.671938  0.330416  0.499018  1
  Ir  Ir26  1  0.000080  0.999953  0.999477  1
  Ir  Ir27  1  0.995693  0.995518  0.497506  1
