# generated using pymatgen
data_Tb(VCo)6
_symmetry_space_group_name_H-M   'P 1'
_cell_length_a   4.85712784
_cell_length_b   6.37698058
_cell_length_c   6.37698026
_cell_angle_alpha   84.19013387
_cell_angle_beta   67.61469674
_cell_angle_gamma   67.61470868
_symmetry_Int_Tables_number   1
_chemical_formula_structural   Tb(VCo)6
_chemical_formula_sum   'Tb1 V6 Co6'
_cell_volume   168.65056291
_cell_formula_units_Z   1
loop_
 _symmetry_equiv_pos_site_id
 _symmetry_equiv_pos_as_xyz
  1  'x, y, z'
loop_
 _atom_site_type_symbol
 _atom_site_label
 _atom_site_symmetry_multiplicity
 _atom_site_fract_x
 _atom_site_fract_y
 _atom_site_fract_z
 _atom_site_occupancy
  Tb  Tb0  1  0.000000  0.000000  0.000000  1
  V  V1  1  0.500000  0.210464  0.789536  1
  V  V2  1  0.500000  0.789536  0.210464  1
  V  V3  1  0.358782  0.641218  0.641218  1
  V  V4  1  0.641218  0.358782  0.358782  1
  V  V5  1  0.000000  0.359081  0.640919  1
  V  V6  1  0.000000  0.640919  0.359081  1
  Co  Co7  1  0.500000  0.000000  0.500000  1
  Co  Co8  1  0.500000  0.500000  0.000000  1
  Co  Co9  1  0.000000  0.500000  0.000000  1
  Co  Co10  1  0.000000  0.000000  0.500000  1
  Co  Co11  1  0.272239  0.227761  0.227761  1
  Co  Co12  1  0.727761  0.772239  0.772239  1
