# generated using pymatgen
data_Tb2Lu5Co6Sn23
_symmetry_space_group_name_H-M   'P 1'
_cell_length_a   9.66221749
_cell_length_b   9.67149767
_cell_length_c   9.94302801
_cell_angle_alpha   89.99999722
_cell_angle_beta   89.99638884
_cell_angle_gamma   120.03178618
_symmetry_Int_Tables_number   1
_chemical_formula_structural   Tb2Lu5Co6Sn23
_chemical_formula_sum   'Tb2 Lu5 Co6 Sn23'
_cell_volume   804.41588956
_cell_formula_units_Z   1
loop_
 _symmetry_equiv_pos_site_id
 _symmetry_equiv_pos_as_xyz
  1  'x, y, z'
loop_
 _atom_site_type_symbol
 _atom_site_label
 _atom_site_symmetry_multiplicity
 _atom_site_fract_x
 _atom_site_fract_y
 _atom_site_fract_z
 _atom_site_occupancy
  Tb  Tb0  1  0.001214  0.000607  0.001063  1
  Tb  Tb1  1  0.956863  0.478432  0.692814  1
  Lu  Lu2  1  0.480270  0.519680  0.305729  1
  Lu  Lu3  1  0.520323  0.481155  0.693956  1
  Lu  Lu4  1  0.480270  0.960590  0.305729  1
  Lu  Lu5  1  0.520323  0.039167  0.693956  1
  Lu  Lu6  1  0.038623  0.519311  0.305660  1
  Co  Co7  1  0.831576  0.168393  0.197322  1
  Co  Co8  1  0.169626  0.833370  0.802679  1
  Co  Co9  1  0.831576  0.663182  0.197322  1
  Co  Co10  1  0.169626  0.336256  0.802679  1
  Co  Co11  1  0.336839  0.168419  0.197984  1
  Co  Co12  1  0.661857  0.830928  0.802480  1
  Sn  Sn13  1  0.347182  0.000125  0.000303  1
  Sn  Sn14  1  0.653274  0.999781  0.000214  1
  Sn  Sn15  1  0.000181  0.346822  0.999777  1
  Sn  Sn16  1  0.000181  0.653359  0.999777  1
  Sn  Sn17  1  0.653274  0.653493  0.000214  1
  Sn  Sn18  1  0.347182  0.347058  0.000303  1
  Sn  Sn19  1  0.333063  0.666532  0.818974  1
  Sn  Sn20  1  0.667072  0.333536  0.181571  1
  Sn  Sn21  1  0.000890  0.000445  0.499868  1
  Sn  Sn22  1  0.779726  0.217746  0.451402  1
  Sn  Sn23  1  0.220884  0.781790  0.546910  1
  Sn  Sn24  1  0.779726  0.561980  0.451402  1
  Sn  Sn25  1  0.220884  0.439095  0.546910  1
  Sn  Sn26  1  0.439151  0.219575  0.452160  1
  Sn  Sn27  1  0.561942  0.780971  0.547455  1
  Sn  Sn28  1  0.333214  0.666608  0.124824  1
  Sn  Sn29  1  0.661664  0.330832  0.877466  1
  Sn  Sn30  1  0.119191  0.880647  0.275267  1
  Sn  Sn31  1  0.881114  0.117531  0.725373  1
  Sn  Sn32  1  0.119191  0.238545  0.275267  1
  Sn  Sn33  1  0.881114  0.763582  0.725373  1
  Sn  Sn34  1  0.761413  0.880707  0.274824  1
  Sn  Sn35  1  0.239503  0.119751  0.724995  1
