# generated using pymatgen
data_Pr5Si12Pd19
_symmetry_space_group_name_H-M   'P 1'
_cell_length_a   15.74338471
_cell_length_b   15.74338333
_cell_length_c   10.02619300
_cell_angle_alpha   75.89929273
_cell_angle_beta   75.89929399
_cell_angle_gamma   14.38762170
_symmetry_Int_Tables_number   1
_chemical_formula_structural   Pr5Si12Pd19
_chemical_formula_sum   'Pr5 Si12 Pd19'
_cell_volume   598.57621554
_cell_formula_units_Z   1
loop_
 _symmetry_equiv_pos_site_id
 _symmetry_equiv_pos_as_xyz
  1  'x, y, z'
loop_
 _atom_site_type_symbol
 _atom_site_label
 _atom_site_symmetry_multiplicity
 _atom_site_fract_x
 _atom_site_fract_y
 _atom_site_fract_z
 _atom_site_occupancy
  Pr  Pr0  1  0.500000  0.500000  0.500000  1
  Pr  Pr1  1  0.577763  0.577763  0.821612  1
  Pr  Pr2  1  0.422237  0.422237  0.178388  1
  Pr  Pr3  1  0.175079  0.175079  0.230671  1
  Pr  Pr4  1  0.824921  0.824921  0.769329  1
  Si  Si5  1  0.925145  0.925145  0.942931  1
  Si  Si6  1  0.074855  0.074855  0.057069  1
  Si  Si7  1  0.693799  0.693799  0.976303  1
  Si  Si8  1  0.306201  0.306201  0.023697  1
  Si  Si9  1  0.400433  0.400433  0.613665  1
  Si  Si10  1  0.734553  0.734553  0.343521  1
  Si  Si11  1  0.151421  0.151421  0.666689  1
  Si  Si12  1  0.848579  0.848579  0.333311  1
  Si  Si13  1  0.014423  0.014423  0.731346  1
  Si  Si14  1  0.985577  0.985577  0.268654  1
  Si  Si15  1  0.599567  0.599567  0.386335  1
  Si  Si16  1  0.265447  0.265447  0.656479  1
  Pd  Pd17  1  0.780699  0.780699  0.506646  1
  Pd  Pd18  1  0.756984  0.756984  0.097856  1
  Pd  Pd19  1  0.243016  0.243016  0.902144  1
  Pd  Pd20  1  0.219301  0.219301  0.493354  1
  Pd  Pd21  1  0.344018  0.344018  0.487619  1
  Pd  Pd22  1  0.616339  0.616339  0.113788  1
  Pd  Pd23  1  0.383661  0.383661  0.886212  1
  Pd  Pd24  1  0.525004  0.525004  0.163901  1
  Pd  Pd25  1  0.474996  0.474996  0.836099  1
  Pd  Pd26  1  0.296004  0.296004  0.272775  1
  Pd  Pd27  1  0.703996  0.703996  0.727225  1
  Pd  Pd28  1  0.000000  0.000000  0.000000  1
  Pd  Pd29  1  0.849361  0.849361  0.090157  1
  Pd  Pd30  1  0.086865  0.086865  0.557206  1
  Pd  Pd31  1  0.913135  0.913135  0.442794  1
  Pd  Pd32  1  0.067140  0.067140  0.303541  1
  Pd  Pd33  1  0.932860  0.932860  0.696459  1
  Pd  Pd34  1  0.655982  0.655982  0.512381  1
  Pd  Pd35  1  0.150639  0.150639  0.909843  1
