# generated using pymatgen
data_Er12Co6Ir
_symmetry_space_group_name_H-M   'P 1'
_cell_length_a   11.12806100
_cell_length_b   8.21985751
_cell_length_c   10.98299503
_cell_angle_alpha   54.89351839
_cell_angle_beta   90.00000000
_cell_angle_gamma   90.00000000
_symmetry_Int_Tables_number   1
_chemical_formula_structural   Er12Co6Ir
_chemical_formula_sum   'Er24 Co12 Ir2'
_cell_volume   821.86942775
_cell_formula_units_Z   2
loop_
 _symmetry_equiv_pos_site_id
 _symmetry_equiv_pos_as_xyz
  1  'x, y, z'
loop_
 _atom_site_type_symbol
 _atom_site_label
 _atom_site_symmetry_multiplicity
 _atom_site_fract_x
 _atom_site_fract_y
 _atom_site_fract_z
 _atom_site_occupancy
  Er  Er0  1  0.705422  0.236430  0.538119  1
  Er  Er1  1  0.205422  0.763570  0.961881  1
  Er  Er2  1  0.841250  0.502355  0.657984  1
  Er  Er3  1  0.341250  0.497645  0.842016  1
  Er  Er4  1  0.158750  0.497645  0.342016  1
  Er  Er5  1  0.658750  0.502355  0.157984  1
  Er  Er6  1  0.004168  0.842912  0.355525  1
  Er  Er7  1  0.504168  0.157088  0.144475  1
  Er  Er8  1  0.995832  0.157088  0.644475  1
  Er  Er9  1  0.495832  0.842912  0.855525  1
  Er  Er10  1  0.794578  0.236430  0.038119  1
  Er  Er11  1  0.294578  0.763570  0.461881  1
  Er  Er12  1  0.928376  0.770181  0.088087  1
  Er  Er13  1  0.428376  0.229819  0.411913  1
  Er  Er14  1  0.071624  0.229819  0.911913  1
  Er  Er15  1  0.571624  0.770181  0.588087  1
  Er  Er16  1  0.300273  0.244870  0.677103  1
  Er  Er17  1  0.800273  0.755130  0.822897  1
  Er  Er18  1  0.699727  0.755130  0.322897  1
  Er  Er19  1  0.199727  0.244870  0.177103  1
  Er  Er20  1  0.929953  0.263616  0.309357  1
  Er  Er21  1  0.429953  0.736384  0.190643  1
  Er  Er22  1  0.070047  0.736384  0.690643  1
  Er  Er23  1  0.570047  0.263616  0.809357  1
  Co  Co24  1  0.675147  0.910546  0.028751  1
  Co  Co25  1  0.175147  0.089454  0.471249  1
  Co  Co26  1  0.324853  0.089454  0.971249  1
  Co  Co27  1  0.824853  0.910546  0.528751  1
  Co  Co28  1  0.401235  0.492471  0.100204  1
  Co  Co29  1  0.901235  0.507529  0.399796  1
  Co  Co30  1  0.598765  0.507529  0.899796  1
  Co  Co31  1  0.098765  0.492471  0.600204  1
  Co  Co32  1  0.812781  0.098675  0.842798  1
  Co  Co33  1  0.312781  0.901325  0.657202  1
  Co  Co34  1  0.187219  0.901325  0.157202  1
  Co  Co35  1  0.687219  0.098675  0.342798  1
  Ir  Ir36  1  0.500000  0.500000  0.500000  1
  Ir  Ir37  1  0.000000  0.500000  0.000000  1
