# generated using pymatgen
data_LaPa(NiP)4
_symmetry_space_group_name_H-M   'P 1'
_cell_length_a   4.08826000
_cell_length_b   4.08826000
_cell_length_c   8.93241700
_cell_angle_alpha   90.00000000
_cell_angle_beta   90.00000000
_cell_angle_gamma   90.00000000
_symmetry_Int_Tables_number   1
_chemical_formula_structural   LaPa(NiP)4
_chemical_formula_sum   'La1 Pa1 Ni4 P4'
_cell_volume   149.29525498
_cell_formula_units_Z   1
loop_
 _symmetry_equiv_pos_site_id
 _symmetry_equiv_pos_as_xyz
  1  'x, y, z'
loop_
 _atom_site_type_symbol
 _atom_site_label
 _atom_site_symmetry_multiplicity
 _atom_site_fract_x
 _atom_site_fract_y
 _atom_site_fract_z
 _atom_site_occupancy
  La  La0  1  0.500001  0.000000  0.749560  1
  Pa  Pa1  1  0.000000  0.500001  0.253265  1
  Ni  Ni2  1  0.500001  0.000000  0.117455  1
  Ni  Ni3  1  0.000000  0.000000  0.489001  1
  Ni  Ni4  1  0.500001  0.500001  0.489001  1
  Ni  Ni5  1  0.000000  0.500001  0.894661  1
  P  P6  1  0.000000  0.000000  0.007234  1
  P  P7  1  0.500001  0.500001  0.007234  1
  P  P8  1  0.500001  0.000000  0.367351  1
  P  P9  1  0.000000  0.500001  0.625237  1
