# generated using pymatgen
data_Pr3Sm3Al20(SiOs2)4
_symmetry_space_group_name_H-M   'P 1'
_cell_length_a   8.78915420
_cell_length_b   8.78317533
_cell_length_c   9.75913000
_cell_angle_alpha   90.00000000
_cell_angle_beta   90.00000000
_cell_angle_gamma   120.08237315
_symmetry_Int_Tables_number   1
_chemical_formula_structural   Pr3Sm3Al20(SiOs2)4
_chemical_formula_sum   'Pr3 Sm3 Al20 Si4 Os8'
_cell_volume   651.89745777
_cell_formula_units_Z   1
loop_
 _symmetry_equiv_pos_site_id
 _symmetry_equiv_pos_as_xyz
  1  'x, y, z'
loop_
 _atom_site_type_symbol
 _atom_site_label
 _atom_site_symmetry_multiplicity
 _atom_site_fract_x
 _atom_site_fract_y
 _atom_site_fract_z
 _atom_site_occupancy
  Pr  Pr0  1  0.192256  0.384945  0.250000  1
  Pr  Pr1  1  0.807330  0.614643  0.750000  1
  Pr  Pr2  1  0.614906  0.807693  0.250000  1
  Sm  Sm3  1  0.387530  0.193482  0.750000  1
  Sm  Sm4  1  0.193610  0.806419  0.250000  1
  Sm  Sm5  1  0.805878  0.193553  0.750000  1
  Al  Al6  1  0.165008  0.330082  0.575362  1
  Al  Al7  1  0.835386  0.669261  0.425408  1
  Al  Al8  1  0.669322  0.835443  0.574980  1
  Al  Al9  1  0.835386  0.669261  0.074592  1
  Al  Al10  1  0.330641  0.164555  0.426329  1
  Al  Al11  1  0.165008  0.330082  0.924638  1
  Al  Al12  1  0.166016  0.835462  0.574035  1
  Al  Al13  1  0.330641  0.164555  0.073671  1
  Al  Al14  1  0.834362  0.165599  0.426759  1
  Al  Al15  1  0.669322  0.835443  0.925020  1
  Al  Al16  1  0.834362  0.165599  0.073241  1
  Al  Al17  1  0.166016  0.835462  0.925965  1
  Al  Al18  1  0.563763  0.129115  0.250000  1
  Al  Al19  1  0.435830  0.871872  0.750000  1
  Al  Al20  1  0.870739  0.436045  0.250000  1
  Al  Al21  1  0.129338  0.563974  0.750000  1
  Al  Al22  1  0.565168  0.434611  0.250000  1
  Al  Al23  1  0.434476  0.563955  0.750000  1
  Al  Al24  1  0.001241  0.998681  0.250000  1
  Al  Al25  1  0.001216  0.002520  0.750000  1
  Si  Si26  1  0.332445  0.667197  0.032047  1
  Si  Si27  1  0.665790  0.331943  0.966240  1
  Si  Si28  1  0.665790  0.331943  0.533760  1
  Si  Si29  1  0.332445  0.667197  0.467953  1
  Os  Os30  1  0.499688  0.000448  0.999332  1
  Os  Os31  1  0.999629  0.499855  0.999609  1
  Os  Os32  1  0.499688  0.000448  0.500668  1
  Os  Os33  1  0.499703  0.499228  0.999362  1
  Os  Os34  1  0.999629  0.499855  0.500391  1
  Os  Os35  1  0.499703  0.499228  0.500638  1
  Os  Os36  1  0.000368  0.000174  0.999745  1
  Os  Os37  1  0.000368  0.000174  0.500255  1
