# generated using pymatgen
data_Ni20SnB8Pb3O40
_symmetry_space_group_name_H-M   'P 1'
_cell_length_a   6.24092900
_cell_length_b   9.42847798
_cell_length_c   12.49642142
_cell_angle_alpha   89.85147613
_cell_angle_beta   90.00000000
_cell_angle_gamma   90.00000000
_symmetry_Int_Tables_number   1
_chemical_formula_structural   Ni20SnB8Pb3O40
_chemical_formula_sum   'Ni20 Sn1 B8 Pb3 O40'
_cell_volume   735.31772743
_cell_formula_units_Z   1
loop_
 _symmetry_equiv_pos_site_id
 _symmetry_equiv_pos_as_xyz
  1  'x, y, z'
loop_
 _atom_site_type_symbol
 _atom_site_label
 _atom_site_symmetry_multiplicity
 _atom_site_fract_x
 _atom_site_fract_y
 _atom_site_fract_z
 _atom_site_occupancy
  Ni  Ni0  1  0.250000  0.760146  0.614333  1
  Ni  Ni1  1  0.750000  0.992908  0.998815  1
  Ni  Ni2  1  0.750000  0.741763  0.113456  1
  Ni  Ni3  1  0.508152  0.503284  0.282578  1
  Ni  Ni4  1  0.750000  0.492541  0.500720  1
  Ni  Ni5  1  0.007069  0.498002  0.716731  1
  Ni  Ni6  1  0.991607  0.003572  0.217954  1
  Ni  Ni7  1  0.005994  0.995069  0.781723  1
  Ni  Ni8  1  0.250000  0.258353  0.885932  1
  Ni  Ni9  1  0.492931  0.498002  0.716731  1
  Ni  Ni10  1  0.250000  0.007529  0.000818  1
  Ni  Ni11  1  0.494006  0.995069  0.781723  1
  Ni  Ni12  1  0.991848  0.503284  0.282578  1
  Ni  Ni13  1  0.501761  0.998563  0.501596  1
  Ni  Ni14  1  0.508393  0.003572  0.217954  1
  Ni  Ni15  1  0.750000  0.241490  0.386887  1
  Ni  Ni16  1  0.250000  0.509557  0.499746  1
  Ni  Ni17  1  0.500269  0.500188  0.999488  1
  Ni  Ni18  1  0.999731  0.500188  0.999488  1
  Ni  Ni19  1  0.998239  0.998563  0.501596  1
  Sn  Sn20  1  0.750000  0.759000  0.616887  1
  B  B21  1  0.750000  0.773182  0.358175  1
  B  B22  1  0.250000  0.780897  0.365763  1
  B  B23  1  0.250000  0.225318  0.643700  1
  B  B24  1  0.250000  0.280237  0.134820  1
  B  B25  1  0.250000  0.724637  0.855796  1
  B  B26  1  0.750000  0.722350  0.863037  1
  B  B27  1  0.750000  0.220023  0.634857  1
  B  B28  1  0.750000  0.275146  0.143853  1
  Pb  Pb29  1  0.250000  0.737457  0.119737  1
  Pb  Pb30  1  0.250000  0.237155  0.381087  1
  Pb  Pb31  1  0.750000  0.262424  0.879970  1
  O  O32  1  0.496842  0.394795  0.422045  1
  O  O33  1  0.986114  0.599627  0.142447  1
  O  O34  1  0.750000  0.127770  0.140334  1
  O  O35  1  0.001373  0.894308  0.079082  1
  O  O36  1  0.250000  0.133515  0.143240  1
  O  O37  1  0.250000  0.644289  0.951247  1
  O  O38  1  0.986428  0.099061  0.358151  1
  O  O39  1  0.501360  0.105584  0.920792  1
  O  O40  1  0.750000  0.355722  0.048469  1
  O  O41  1  0.750000  0.848623  0.263014  1
  O  O42  1  0.750000  0.136811  0.728894  1
  O  O43  1  0.990018  0.610279  0.578556  1
  O  O44  1  0.250000  0.363155  0.228971  1
  O  O45  1  0.250000  0.871941  0.859028  1
  O  O46  1  0.500739  0.893812  0.643064  1
  O  O47  1  0.250000  0.373109  0.639652  1
  O  O48  1  0.250000  0.863562  0.271310  1
  O  O49  1  0.750000  0.147974  0.538934  1
  O  O50  1  0.750000  0.645310  0.765739  1
  O  O51  1  0.999261  0.893812  0.643064  1
  O  O52  1  0.750000  0.848863  0.456146  1
  O  O53  1  0.513572  0.099061  0.358151  1
  O  O54  1  0.498627  0.894308  0.079082  1
  O  O55  1  0.513886  0.599627  0.142447  1
  O  O56  1  0.012837  0.401013  0.856522  1
  O  O57  1  0.250000  0.651290  0.759792  1
  O  O58  1  0.487163  0.401013  0.856522  1
  O  O59  1  0.998640  0.105584  0.920792  1
  O  O60  1  0.250000  0.151365  0.739429  1
  O  O61  1  0.750000  0.647349  0.958146  1
  O  O62  1  0.003158  0.394795  0.422045  1
  O  O63  1  0.509982  0.610279  0.578556  1
  O  O64  1  0.750000  0.366725  0.643038  1
  O  O65  1  0.250000  0.143623  0.549122  1
  O  O66  1  0.250000  0.634227  0.357667  1
  O  O67  1  0.750000  0.868955  0.858035  1
  O  O68  1  0.250000  0.852939  0.461841  1
  O  O69  1  0.750000  0.348158  0.239919  1
  O  O70  1  0.250000  0.352375  0.038623  1
  O  O71  1  0.750000  0.625928  0.359566  1
