# generated using pymatgen
data_Y8Tm11LuBi12
_symmetry_space_group_name_H-M   'P 1'
_cell_length_a   8.21457285
_cell_length_b   9.44549000
_cell_length_c   12.02540925
_cell_angle_alpha   90.00000000
_cell_angle_beta   90.05222856
_cell_angle_gamma   90.00000000
_symmetry_Int_Tables_number   1
_chemical_formula_structural   Y8Tm11LuBi12
_chemical_formula_sum   'Y8 Tm11 Lu1 Bi12'
_cell_volume   933.05912176
_cell_formula_units_Z   1
loop_
 _symmetry_equiv_pos_site_id
 _symmetry_equiv_pos_as_xyz
  1  'x, y, z'
loop_
 _atom_site_type_symbol
 _atom_site_label
 _atom_site_symmetry_multiplicity
 _atom_site_fract_x
 _atom_site_fract_y
 _atom_site_fract_z
 _atom_site_occupancy
  Y  Y0  1  0.185916  0.750000  0.718725  1
  Y  Y1  1  0.686420  0.750000  0.781570  1
  Y  Y2  1  0.813670  0.250000  0.281524  1
  Y  Y3  1  0.314050  0.250000  0.218625  1
  Y  Y4  1  0.353628  0.750000  0.215994  1
  Y  Y5  1  0.853610  0.750000  0.283842  1
  Y  Y6  1  0.646271  0.250000  0.784088  1
  Y  Y7  1  0.146260  0.250000  0.716003  1
  Tm  Tm8  1  0.525219  0.750000  0.510972  1
  Tm  Tm9  1  0.974915  0.250000  0.010951  1
  Tm  Tm10  1  0.474879  0.250000  0.488963  1
  Tm  Tm11  1  0.307316  0.434424  0.940552  1
  Tm  Tm12  1  0.807512  0.065602  0.559364  1
  Tm  Tm13  1  0.692997  0.934292  0.059341  1
  Tm  Tm14  1  0.192462  0.565500  0.440557  1
  Tm  Tm15  1  0.692997  0.565708  0.059341  1
  Tm  Tm16  1  0.192462  0.934500  0.440557  1
  Tm  Tm17  1  0.307316  0.065576  0.940552  1
  Tm  Tm18  1  0.807512  0.434398  0.559364  1
  Lu  Lu19  1  0.024545  0.750000  0.989127  1
  Bi  Bi20  1  0.433878  0.003966  0.672551  1
  Bi  Bi21  1  0.934176  0.496541  0.827861  1
  Bi  Bi22  1  0.566178  0.503990  0.327445  1
  Bi  Bi23  1  0.066203  0.995693  0.172139  1
  Bi  Bi24  1  0.566178  0.996010  0.327445  1
  Bi  Bi25  1  0.066203  0.504307  0.172139  1
  Bi  Bi26  1  0.433878  0.496034  0.672551  1
  Bi  Bi27  1  0.934176  0.003459  0.827861  1
  Bi  Bi28  1  0.405603  0.750000  0.957739  1
  Bi  Bi29  1  0.906294  0.750000  0.542316  1
  Bi  Bi30  1  0.593590  0.250000  0.042321  1
  Bi  Bi31  1  0.093688  0.250000  0.457620  1
