# generated using pymatgen
data_TbNiSbH
_symmetry_space_group_name_H-M   'P 1'
_cell_length_a   4.16869000
_cell_length_b   4.16868875
_cell_length_c   9.14644600
_cell_angle_alpha   90.00000000
_cell_angle_beta   90.00000000
_cell_angle_gamma   120.00000990
_symmetry_Int_Tables_number   1
_chemical_formula_structural   TbNiSbH
_chemical_formula_sum   'Tb2 Ni2 Sb2 H2'
_cell_volume   137.65184415
_cell_formula_units_Z   2
loop_
 _symmetry_equiv_pos_site_id
 _symmetry_equiv_pos_as_xyz
  1  'x, y, z'
loop_
 _atom_site_type_symbol
 _atom_site_label
 _atom_site_symmetry_multiplicity
 _atom_site_fract_x
 _atom_site_fract_y
 _atom_site_fract_z
 _atom_site_occupancy
  Tb  Tb0  1  0.666667  0.333333  0.790039  1
  Tb  Tb1  1  0.333333  0.666667  0.290039  1
  Ni  Ni2  1  0.666667  0.333333  0.125195  1
  Ni  Ni3  1  0.333333  0.666667  0.625195  1
  Sb  Sb4  1  0.000000  0.000000  0.036470  1
  Sb  Sb5  1  0.000000  0.000000  0.536470  1
  H  H6  1  0.666667  0.333333  0.298297  1
  H  H7  1  0.333333  0.666667  0.798297  1
