# generated using pymatgen
data_CeHo3ScIr3
_symmetry_space_group_name_H-M   'P 1'
_cell_length_a   10.82857800
_cell_length_b   10.84055500
_cell_length_c   6.22572400
_cell_angle_alpha   90.00000000
_cell_angle_beta   90.00000000
_cell_angle_gamma   90.00000000
_symmetry_Int_Tables_number   1
_chemical_formula_structural   CeHo3ScIr3
_chemical_formula_sum   'Ce4 Ho12 Sc4 Ir12'
_cell_volume   730.82401501
_cell_formula_units_Z   4
loop_
 _symmetry_equiv_pos_site_id
 _symmetry_equiv_pos_as_xyz
  1  'x, y, z'
loop_
 _atom_site_type_symbol
 _atom_site_label
 _atom_site_symmetry_multiplicity
 _atom_site_fract_x
 _atom_site_fract_y
 _atom_site_fract_z
 _atom_site_occupancy
  Ce  Ce0  1  0.289215  0.088902  0.380047  1
  Ce  Ce1  1  0.289215  0.911098  0.880047  1
  Ce  Ce2  1  0.710785  0.088902  0.880047  1
  Ce  Ce3  1  0.710785  0.911098  0.380047  1
  Ho  Ho4  1  0.586441  0.783075  0.877481  1
  Ho  Ho5  1  0.586441  0.216925  0.377481  1
  Ho  Ho6  1  0.413559  0.783075  0.377481  1
  Ho  Ho7  1  0.413559  0.216925  0.877481  1
  Ho  Ho8  1  0.210410  0.415366  0.623038  1
  Ho  Ho9  1  0.210410  0.584634  0.123038  1
  Ho  Ho10  1  0.789590  0.415366  0.123038  1
  Ho  Ho11  1  0.789590  0.584634  0.623038  1
  Ho  Ho12  1  0.915100  0.711317  0.119523  1
  Ho  Ho13  1  0.915100  0.288683  0.619523  1
  Ho  Ho14  1  0.084900  0.711317  0.619523  1
  Ho  Ho15  1  0.084900  0.288683  0.119523  1
  Sc  Sc16  1  0.000000  0.000000  0.499597  1
  Sc  Sc17  1  0.000000  0.000000  0.999597  1
  Sc  Sc18  1  0.500000  0.500000  0.007225  1
  Sc  Sc19  1  0.500000  0.500000  0.507225  1
  Ir  Ir20  1  0.849335  0.147704  0.244507  1
  Ir  Ir21  1  0.849335  0.852296  0.744507  1
  Ir  Ir22  1  0.150665  0.147704  0.744507  1
  Ir  Ir23  1  0.150665  0.852296  0.244507  1
  Ir  Ir24  1  0.647940  0.352750  0.753906  1
  Ir  Ir25  1  0.647940  0.647250  0.253906  1
  Ir  Ir26  1  0.352060  0.352750  0.253906  1
  Ir  Ir27  1  0.352060  0.647250  0.753906  1
  Ir  Ir28  1  0.500000  0.000000  0.118738  1
  Ir  Ir29  1  0.500000  0.000000  0.618738  1
  Ir  Ir30  1  0.000000  0.500000  0.877434  1
  Ir  Ir31  1  0.000000  0.500000  0.377434  1
