# generated using pymatgen
data_Tb5Tm11MgAg3Rh4
_symmetry_space_group_name_H-M   'P 1'
_cell_length_a   9.52160132
_cell_length_b   9.50379930
_cell_length_c   9.50379927
_cell_angle_alpha   59.96873138
_cell_angle_beta   59.95299885
_cell_angle_gamma   59.95299094
_symmetry_Int_Tables_number   1
_chemical_formula_structural   Tb5Tm11MgAg3Rh4
_chemical_formula_sum   'Tb5 Tm11 Mg1 Ag3 Rh4'
_cell_volume   607.54436109
_cell_formula_units_Z   1
loop_
 _symmetry_equiv_pos_site_id
 _symmetry_equiv_pos_as_xyz
  1  'x, y, z'
loop_
 _atom_site_type_symbol
 _atom_site_label
 _atom_site_symmetry_multiplicity
 _atom_site_fract_x
 _atom_site_fract_y
 _atom_site_fract_z
 _atom_site_occupancy
  Tb  Tb0  1  0.563091  0.936882  0.936882  1
  Tb  Tb1  1  0.564239  0.935455  0.563925  1
  Tb  Tb2  1  0.936662  0.562205  0.934936  1
  Tb  Tb3  1  0.564239  0.563925  0.935455  1
  Tb  Tb4  1  0.936662  0.934936  0.562205  1
  Tm  Tm5  1  0.350836  0.349329  0.349329  1
  Tm  Tm6  1  0.348965  0.348850  0.955878  1
  Tm  Tm7  1  0.348965  0.955878  0.348850  1
  Tm  Tm8  1  0.939459  0.353718  0.353718  1
  Tm  Tm9  1  0.811753  0.187051  0.187051  1
  Tm  Tm10  1  0.183398  0.814585  0.814585  1
  Tm  Tm11  1  0.183626  0.814059  0.186343  1
  Tm  Tm12  1  0.810904  0.187573  0.811723  1
  Tm  Tm13  1  0.183626  0.186343  0.814059  1
  Tm  Tm14  1  0.810904  0.811723  0.187573  1
  Tm  Tm15  1  0.933732  0.562043  0.562043  1
  Mg  Mg16  1  0.286263  0.571893  0.571893  1
  Ag  Ag17  1  0.585149  0.582711  0.582711  1
  Ag  Ag18  1  0.583455  0.584439  0.250744  1
  Ag  Ag19  1  0.583455  0.250744  0.584439  1
  Rh  Rh20  1  0.139147  0.144257  0.144257  1
  Rh  Rh21  1  0.139497  0.147716  0.570789  1
  Rh  Rh22  1  0.139497  0.570789  0.147716  1
  Rh  Rh23  1  0.572478  0.142893  0.142893  1
