# generated using pymatgen
data_Ac3La9(NiI3)4
_symmetry_space_group_name_H-M   'P 1'
_cell_length_a   11.01596175
_cell_length_b   10.99267719
_cell_length_c   10.99188406
_cell_angle_alpha   112.93701169
_cell_angle_beta   107.72564782
_cell_angle_gamma   107.72866608
_symmetry_Int_Tables_number   1
_chemical_formula_structural   Ac3La9(NiI3)4
_chemical_formula_sum   'Ac3 La9 Ni4 I12'
_cell_volume   1022.78445055
_cell_formula_units_Z   1
loop_
 _symmetry_equiv_pos_site_id
 _symmetry_equiv_pos_as_xyz
  1  'x, y, z'
loop_
 _atom_site_type_symbol
 _atom_site_label
 _atom_site_symmetry_multiplicity
 _atom_site_fract_x
 _atom_site_fract_y
 _atom_site_fract_z
 _atom_site_occupancy
  Ac  Ac0  1  0.465249  0.482625  0.232625  1
  Ac  Ac1  1  0.749616  0.235425  0.265887  1
  Ac  Ac2  1  0.749616  0.014191  0.483729  1
  La  La3  1  0.240657  0.452852  0.470314  1
  La  La4  1  0.257617  0.728785  0.211340  1
  La  La5  1  0.036161  0.268080  0.018080  1
  La  La6  1  0.018845  0.047883  0.287424  1
  La  La7  1  0.482616  0.771276  0.028491  1
  La  La8  1  0.482616  0.211340  0.454125  1
  La  La9  1  0.018845  0.470963  0.731421  1
  La  La10  1  0.257617  0.028834  0.046278  1
  La  La11  1  0.240657  0.287805  0.770342  1
  Ni  Ni12  1  0.246407  0.243993  0.253304  1
  Ni  Ni13  1  0.488001  0.994001  0.244001  1
  Ni  Ni14  1  0.011451  0.255725  0.505725  1
  Ni  Ni15  1  0.246407  0.502414  0.993103  1
  I  I16  1  0.249056  0.756890  0.742872  1
  I  I17  1  0.513219  0.506610  0.756610  1
  I  I18  1  0.985909  0.742955  0.992955  1
  I  I19  1  0.752425  0.271544  0.776550  1
  I  I20  1  0.000471  0.980298  0.734919  1
  I  I21  1  0.249056  0.992166  0.506183  1
  I  I22  1  0.754347  0.527372  0.528209  1
  I  I23  1  0.497947  0.226280  0.971305  1
  I  I24  1  0.754347  0.726975  0.226139  1
  I  I25  1  0.752425  0.980882  0.975875  1
  I  I26  1  0.000471  0.520172  0.265552  1
  I  I27  1  0.497947  0.771667  0.526642  1
