# generated using pymatgen
data_Ho5Lu3Re(TcB8)3
_symmetry_space_group_name_H-M   'P 1'
_cell_length_a   3.65158100
_cell_length_b   9.10769712
_cell_length_c   11.48654403
_cell_angle_alpha   90.03215170
_cell_angle_beta   90.00000000
_cell_angle_gamma   90.00000000
_symmetry_Int_Tables_number   1
_chemical_formula_structural   Ho5Lu3Re(TcB8)3
_chemical_formula_sum   'Ho5 Lu3 Re1 Tc3 B24'
_cell_volume   382.01360590
_cell_formula_units_Z   1
loop_
 _symmetry_equiv_pos_site_id
 _symmetry_equiv_pos_as_xyz
  1  'x, y, z'
loop_
 _atom_site_type_symbol
 _atom_site_label
 _atom_site_symmetry_multiplicity
 _atom_site_fract_x
 _atom_site_fract_y
 _atom_site_fract_z
 _atom_site_occupancy
  Ho  Ho0  1  0.000000  0.323634  0.414250  1
  Ho  Ho1  1  0.000000  0.676530  0.586038  1
  Ho  Ho2  1  0.000000  0.822999  0.085613  1
  Ho  Ho3  1  0.000000  0.177213  0.914047  1
  Ho  Ho4  1  0.000000  0.942871  0.369871  1
  Lu  Lu5  1  0.000000  0.058116  0.630656  1
  Lu  Lu6  1  0.000000  0.442767  0.130348  1
  Lu  Lu7  1  0.000000  0.556284  0.869763  1
  Re  Re8  1  0.000000  0.860752  0.819998  1
  Tc  Tc9  1  0.000000  0.637992  0.319605  1
  Tc  Tc10  1  0.000000  0.361124  0.680437  1
  Tc  Tc11  1  0.000000  0.139882  0.179575  1
  B  B12  1  0.500000  0.552902  0.432837  1
  B  B13  1  0.500000  0.446538  0.567434  1
  B  B14  1  0.500000  0.053737  0.066868  1
  B  B15  1  0.500000  0.946632  0.932863  1
  B  B16  1  0.500000  0.748780  0.418387  1
  B  B17  1  0.500000  0.249973  0.581741  1
  B  B18  1  0.500000  0.250804  0.081337  1
  B  B19  1  0.500000  0.749082  0.918593  1
  B  B20  1  0.500000  0.791321  0.264578  1
  B  B21  1  0.500000  0.207555  0.734914  1
  B  B22  1  0.500000  0.293239  0.234745  1
  B  B23  1  0.500000  0.706969  0.765218  1
  B  B24  1  0.500000  0.629131  0.184398  1
  B  B25  1  0.500000  0.370215  0.815335  1
  B  B26  1  0.500000  0.131038  0.314663  1
  B  B27  1  0.500000  0.870381  0.684817  1
  B  B28  1  0.500000  0.982022  0.211378  1
  B  B29  1  0.500000  0.018925  0.787577  1
  B  B30  1  0.500000  0.480982  0.287482  1
  B  B31  1  0.500000  0.518629  0.712513  1
  B  B32  1  0.500000  0.597490  0.027202  1
  B  B33  1  0.500000  0.401893  0.972816  1
  B  B34  1  0.500000  0.099923  0.473459  1
  B  B35  1  0.500000  0.901676  0.528643  1
