# generated using pymatgen
data_Yb3Zn2CoRu3
_symmetry_space_group_name_H-M   'P 1'
_cell_length_a   5.33171573
_cell_length_b   5.31392993
_cell_length_c   12.74518530
_cell_angle_alpha   89.48808118
_cell_angle_beta   92.08817533
_cell_angle_gamma   120.76206172
_symmetry_Int_Tables_number   1
_chemical_formula_structural   Yb3Zn2CoRu3
_chemical_formula_sum   'Yb6 Zn4 Co2 Ru6'
_cell_volume   310.06798694
_cell_formula_units_Z   2
loop_
 _symmetry_equiv_pos_site_id
 _symmetry_equiv_pos_as_xyz
  1  'x, y, z'
loop_
 _atom_site_type_symbol
 _atom_site_label
 _atom_site_symmetry_multiplicity
 _atom_site_fract_x
 _atom_site_fract_y
 _atom_site_fract_z
 _atom_site_occupancy
  Yb  Yb0  1  0.324634  0.670129  0.912966  1
  Yb  Yb1  1  0.991015  0.996525  0.256769  1
  Yb  Yb2  1  0.660760  0.337092  0.586369  1
  Yb  Yb3  1  0.339240  0.662908  0.663631  1
  Yb  Yb4  1  0.008985  0.003475  0.993231  1
  Yb  Yb5  1  0.675366  0.329871  0.337034  1
  Zn  Zn6  1  0.500000  0.500000  0.125000  1
  Zn  Zn7  1  0.169511  0.834892  0.459422  1
  Zn  Zn8  1  0.830489  0.165108  0.790578  1
  Zn  Zn9  1  0.500000  0.000000  0.125000  1
  Co  Co10  1  0.170151  0.335564  0.458474  1
  Co  Co11  1  0.829849  0.664436  0.791526  1
  Ru  Ru12  1  0.324947  0.652021  0.293038  1
  Ru  Ru13  1  0.000000  0.000000  0.625000  1
  Ru  Ru14  1  0.675053  0.347979  0.956962  1
  Ru  Ru15  1  0.000000  0.500000  0.125000  1
  Ru  Ru16  1  0.666379  0.829580  0.461439  1
  Ru  Ru17  1  0.333621  0.170420  0.788561  1
