# generated using pymatgen
data_NdEu3Sn3WO14
_symmetry_space_group_name_H-M   'P 1'
_cell_length_a   7.57236547
_cell_length_b   7.55875725
_cell_length_c   7.55875807
_cell_angle_alpha   59.68777941
_cell_angle_beta   59.79979186
_cell_angle_gamma   59.79978872
_symmetry_Int_Tables_number   1
_chemical_formula_structural   NdEu3Sn3WO14
_chemical_formula_sum   'Nd1 Eu3 Sn3 W1 O14'
_cell_volume   304.27584306
_cell_formula_units_Z   1
loop_
 _symmetry_equiv_pos_site_id
 _symmetry_equiv_pos_as_xyz
  1  'x, y, z'
loop_
 _atom_site_type_symbol
 _atom_site_label
 _atom_site_symmetry_multiplicity
 _atom_site_fract_x
 _atom_site_fract_y
 _atom_site_fract_z
 _atom_site_occupancy
  Nd  Nd0  1  0.625000  0.125000  0.125000  1
  Eu  Eu1  1  0.125000  0.125000  0.125000  1
  Eu  Eu2  1  0.125000  0.625000  0.125000  1
  Eu  Eu3  1  0.125000  0.125000  0.625000  1
  Sn  Sn4  1  0.125000  0.625000  0.625000  1
  Sn  Sn5  1  0.625000  0.125000  0.625000  1
  Sn  Sn6  1  0.625000  0.625000  0.125000  1
  W  W7  1  0.625000  0.625000  0.625000  1
  O  O8  1  0.958357  0.545502  0.958422  1
  O  O9  1  0.704534  0.290480  0.290480  1
  O  O10  1  0.307338  0.701125  0.701125  1
  O  O11  1  0.700731  0.302415  0.706719  1
  O  O12  1  0.291643  0.291578  0.704498  1
  O  O13  1  0.700731  0.706719  0.302415  1
  O  O14  1  0.958357  0.958422  0.545502  1
  O  O15  1  0.545466  0.959520  0.959520  1
  O  O16  1  0.942662  0.548875  0.548875  1
  O  O17  1  0.549269  0.543281  0.947585  1
  O  O18  1  0.291643  0.704498  0.291578  1
  O  O19  1  0.549269  0.947585  0.543281  1
  O  O20  1  0.001988  0.998780  0.998780  1
  O  O21  1  0.248012  0.251220  0.251220  1
