# generated using pymatgen
data_Tb3Dy2Sn3Cl
_symmetry_space_group_name_H-M   'P 1'
_cell_length_a   9.13256800
_cell_length_b   9.13256860
_cell_length_c   6.55632000
_cell_angle_alpha   90.00000000
_cell_angle_beta   90.00000000
_cell_angle_gamma   120.00000509
_symmetry_Int_Tables_number   1
_chemical_formula_structural   Tb3Dy2Sn3Cl
_chemical_formula_sum   'Tb6 Dy4 Sn6 Cl2'
_cell_volume   473.56174190
_cell_formula_units_Z   2
loop_
 _symmetry_equiv_pos_site_id
 _symmetry_equiv_pos_as_xyz
  1  'x, y, z'
loop_
 _atom_site_type_symbol
 _atom_site_label
 _atom_site_symmetry_multiplicity
 _atom_site_fract_x
 _atom_site_fract_y
 _atom_site_fract_z
 _atom_site_occupancy
  Tb  Tb0  1  0.261915  0.261915  0.750000  1
  Tb  Tb1  1  0.000000  0.738085  0.750000  1
  Tb  Tb2  1  0.738085  0.000000  0.750000  1
  Tb  Tb3  1  0.000000  0.261915  0.250000  1
  Tb  Tb4  1  0.738085  0.738085  0.250000  1
  Tb  Tb5  1  0.261915  0.000000  0.250000  1
  Dy  Dy6  1  0.333333  0.666667  0.500000  1
  Dy  Dy7  1  0.666667  0.333333  0.500000  1
  Dy  Dy8  1  0.333333  0.666667  0.000000  1
  Dy  Dy9  1  0.666667  0.333333  0.000000  1
  Sn  Sn10  1  0.610703  0.000000  0.250000  1
  Sn  Sn11  1  0.000000  0.389297  0.750000  1
  Sn  Sn12  1  0.389297  0.000000  0.750000  1
  Sn  Sn13  1  0.610703  0.610703  0.750000  1
  Sn  Sn14  1  0.000000  0.610703  0.250000  1
  Sn  Sn15  1  0.389297  0.389297  0.250000  1
  Cl  Cl16  1  0.000000  0.000000  0.000000  1
  Cl  Cl17  1  0.000000  0.000000  0.500000  1
