# generated using pymatgen
data_La4TbTl3
_symmetry_space_group_name_H-M   'P 1'
_cell_length_a   9.53978987
_cell_length_b   9.53979050
_cell_length_c   9.53979086
_cell_angle_alpha   96.50110777
_cell_angle_beta   96.50111269
_cell_angle_gamma   140.67421450
_symmetry_Int_Tables_number   1
_chemical_formula_structural   La4TbTl3
_chemical_formula_sum   'La8 Tb2 Tl6'
_cell_volume   518.11655311
_cell_formula_units_Z   2
loop_
 _symmetry_equiv_pos_site_id
 _symmetry_equiv_pos_as_xyz
  1  'x, y, z'
loop_
 _atom_site_type_symbol
 _atom_site_label
 _atom_site_symmetry_multiplicity
 _atom_site_fract_x
 _atom_site_fract_y
 _atom_site_fract_z
 _atom_site_occupancy
  La  La0  1  0.912062  0.221807  0.133869  1
  La  La1  1  0.221807  0.087938  0.309746  1
  La  La2  1  0.778193  0.912062  0.690254  1
  La  La3  1  0.087938  0.778193  0.866131  1
  La  La4  1  0.721807  0.412062  0.133869  1
  La  La5  1  0.278193  0.587938  0.866131  1
  La  La6  1  0.587938  0.721807  0.309746  1
  La  La7  1  0.412062  0.278193  0.690254  1
  Tb  Tb8  1  0.750000  0.250000  0.500000  1
  Tb  Tb9  1  0.250000  0.750000  0.500000  1
  Tl  Tl10  1  0.750000  0.750000  0.000000  1
  Tl  Tl11  1  0.250000  0.250000  0.000000  1
  Tl  Tl12  1  0.843957  0.656043  0.500000  1
  Tl  Tl13  1  0.656043  0.156043  0.812085  1
  Tl  Tl14  1  0.343957  0.843957  0.187915  1
  Tl  Tl15  1  0.156043  0.343957  0.500000  1
