# generated using pymatgen
data_Pr20Si8IrRh3
_symmetry_space_group_name_H-M   'P 1'
_cell_length_a   7.98141411
_cell_length_b   8.94056200
_cell_length_c   12.44832318
_cell_angle_alpha   90.00000000
_cell_angle_beta   89.98064630
_cell_angle_gamma   90.00000000
_symmetry_Int_Tables_number   1
_chemical_formula_structural   Pr20Si8IrRh3
_chemical_formula_sum   'Pr20 Si8 Ir1 Rh3'
_cell_volume   888.29147435
_cell_formula_units_Z   1
loop_
 _symmetry_equiv_pos_site_id
 _symmetry_equiv_pos_as_xyz
  1  'x, y, z'
loop_
 _atom_site_type_symbol
 _atom_site_label
 _atom_site_symmetry_multiplicity
 _atom_site_fract_x
 _atom_site_fract_y
 _atom_site_fract_z
 _atom_site_occupancy
  Pr  Pr0  1  0.680626  0.465126  0.076396  1
  Pr  Pr1  1  0.180877  0.533889  0.423502  1
  Pr  Pr2  1  0.319788  0.965424  0.923832  1
  Pr  Pr3  1  0.819229  0.034154  0.576498  1
  Pr  Pr4  1  0.319788  0.534576  0.923832  1
  Pr  Pr5  1  0.819229  0.465846  0.576498  1
  Pr  Pr6  1  0.680626  0.034874  0.076396  1
  Pr  Pr7  1  0.180877  0.966111  0.423502  1
  Pr  Pr8  1  0.961333  0.750000  0.999570  1
  Pr  Pr9  1  0.463199  0.250000  0.500348  1
  Pr  Pr10  1  0.037027  0.250000  0.999779  1
  Pr  Pr11  1  0.536909  0.750000  0.499987  1
  Pr  Pr12  1  0.349168  0.750000  0.203957  1
  Pr  Pr13  1  0.848294  0.250000  0.295836  1
  Pr  Pr14  1  0.651979  0.250000  0.795189  1
  Pr  Pr15  1  0.151403  0.750000  0.704500  1
  Pr  Pr16  1  0.827201  0.750000  0.281466  1
  Pr  Pr17  1  0.327408  0.250000  0.218503  1
  Pr  Pr18  1  0.172366  0.250000  0.718419  1
  Pr  Pr19  1  0.671652  0.750000  0.782902  1
  Si  Si20  1  0.557521  0.495176  0.328984  1
  Si  Si21  1  0.057442  0.504471  0.171531  1
  Si  Si22  1  0.442570  0.995665  0.671102  1
  Si  Si23  1  0.943151  0.004834  0.828351  1
  Si  Si24  1  0.442570  0.504335  0.671102  1
  Si  Si25  1  0.943151  0.495166  0.828351  1
  Si  Si26  1  0.557521  0.004824  0.328984  1
  Si  Si27  1  0.057442  0.995529  0.171531  1
  Ir  Ir28  1  0.572359  0.750000  0.013746  1
  Rh  Rh29  1  0.073441  0.250000  0.485213  1
  Rh  Rh30  1  0.426649  0.250000  0.985641  1
  Rh  Rh31  1  0.927205  0.750000  0.514551  1
