# generated using pymatgen
data_TbCe3(MgIr)4
_symmetry_space_group_name_H-M   'P 1'
_cell_length_a   7.11584238
_cell_length_b   4.09778300
_cell_length_c   8.71403380
_cell_angle_alpha   90.00000000
_cell_angle_beta   90.54971704
_cell_angle_gamma   90.00000000
_symmetry_Int_Tables_number   1
_chemical_formula_structural   TbCe3(MgIr)4
_chemical_formula_sum   'Tb1 Ce3 Mg4 Ir4'
_cell_volume   254.08236716
_cell_formula_units_Z   1
loop_
 _symmetry_equiv_pos_site_id
 _symmetry_equiv_pos_as_xyz
  1  'x, y, z'
loop_
 _atom_site_type_symbol
 _atom_site_label
 _atom_site_symmetry_multiplicity
 _atom_site_fract_x
 _atom_site_fract_y
 _atom_site_fract_z
 _atom_site_occupancy
  Tb  Tb0  1  0.958470  0.250000  0.179696  1
  Ce  Ce1  1  0.461550  0.250000  0.314481  1
  Ce  Ce2  1  0.037095  0.750000  0.823761  1
  Ce  Ce3  1  0.535678  0.750000  0.680818  1
  Mg  Mg4  1  0.865634  0.250000  0.556814  1
  Mg  Mg5  1  0.367406  0.250000  0.944036  1
  Mg  Mg6  1  0.130629  0.750000  0.439720  1
  Mg  Mg7  1  0.638243  0.750000  0.057526  1
  Ir  Ir8  1  0.759517  0.250000  0.864463  1
  Ir  Ir9  1  0.257753  0.250000  0.633544  1
  Ir  Ir10  1  0.251215  0.750000  0.132723  1
  Ir  Ir11  1  0.736812  0.750000  0.372419  1
