# generated using pymatgen
data_Zr8FeSiBi4
_symmetry_space_group_name_H-M   'P 1'
_cell_length_a   8.33013776
_cell_length_b   8.33013984
_cell_length_c   8.33013870
_cell_angle_alpha   95.81746316
_cell_angle_beta   95.81746024
_cell_angle_gamma   142.87121929
_symmetry_Int_Tables_number   1
_chemical_formula_structural   Zr8FeSiBi4
_chemical_formula_sum   'Zr8 Fe1 Si1 Bi4'
_cell_volume   330.75400335
_cell_formula_units_Z   1
loop_
 _symmetry_equiv_pos_site_id
 _symmetry_equiv_pos_as_xyz
  1  'x, y, z'
loop_
 _atom_site_type_symbol
 _atom_site_label
 _atom_site_symmetry_multiplicity
 _atom_site_fract_x
 _atom_site_fract_y
 _atom_site_fract_z
 _atom_site_occupancy
  Zr  Zr0  1  0.579847  0.695066  0.279972  1
  Zr  Zr1  1  0.920153  0.200125  0.115220  1
  Zr  Zr2  1  0.299875  0.579847  0.884780  1
  Zr  Zr3  1  0.804934  0.920153  0.720028  1
  Zr  Zr4  1  0.695066  0.415094  0.115220  1
  Zr  Zr5  1  0.084906  0.804934  0.884780  1
  Zr  Zr6  1  0.415094  0.299875  0.720028  1
  Zr  Zr7  1  0.200125  0.084906  0.279972  1
  Fe  Fe8  1  0.250000  0.250000  0.000000  1
  Si  Si9  1  0.750000  0.750000  0.000000  1
  Bi  Bi10  1  0.359934  0.859934  0.219868  1
  Bi  Bi11  1  0.140066  0.359934  0.500000  1
  Bi  Bi12  1  0.640066  0.140066  0.780132  1
  Bi  Bi13  1  0.859934  0.640066  0.500000  1
