# generated using pymatgen
data_Nb3Si(BW)2
_symmetry_space_group_name_H-M   'P 1'
_cell_length_a   7.21097586
_cell_length_b   7.21097591
_cell_length_c   7.25105571
_cell_angle_alpha   129.43075393
_cell_angle_beta   129.43075244
_cell_angle_gamma   74.34601962
_symmetry_Int_Tables_number   1
_chemical_formula_structural   Nb3Si(BW)2
_chemical_formula_sum   'Nb6 Si2 B4 W4'
_cell_volume   219.22827918
_cell_formula_units_Z   2
loop_
 _symmetry_equiv_pos_site_id
 _symmetry_equiv_pos_as_xyz
  1  'x, y, z'
loop_
 _atom_site_type_symbol
 _atom_site_label
 _atom_site_symmetry_multiplicity
 _atom_site_fract_x
 _atom_site_fract_y
 _atom_site_fract_z
 _atom_site_occupancy
  Nb  Nb0  1  0.475759  0.975759  0.170887  1
  Nb  Nb1  1  0.306349  0.471819  0.500657  1
  Nb  Nb2  1  0.028181  0.193651  0.499343  1
  Nb  Nb3  1  0.524241  0.024241  0.829113  1
  Nb  Nb4  1  0.693651  0.528181  0.499343  1
  Nb  Nb5  1  0.971819  0.806349  0.500657  1
  Si  Si6  1  0.246343  0.253657  0.000000  1
  Si  Si7  1  0.753657  0.746343  0.000000  1
  B  B8  1  0.124503  0.624503  0.750433  1
  B  B9  1  0.875497  0.375497  0.249567  1
  B  B10  1  0.616977  0.883023  0.500000  1
  B  B11  1  0.383023  0.116977  0.500000  1
  W  W12  1  0.000000  0.000000  0.000000  1
  W  W13  1  0.500000  0.500000  0.000000  1
  W  W14  1  0.807202  0.307202  0.837799  1
  W  W15  1  0.192798  0.692798  0.162201  1
