# generated using pymatgen
data_Dy4V3ReB16
_symmetry_space_group_name_H-M   'P 1'
_cell_length_a   3.50829700
_cell_length_b   5.98827109
_cell_length_c   11.59177617
_cell_angle_alpha   89.98036684
_cell_angle_beta   90.00000000
_cell_angle_gamma   90.00000000
_symmetry_Int_Tables_number   1
_chemical_formula_structural   Dy4V3ReB16
_chemical_formula_sum   'Dy4 V3 Re1 B16'
_cell_volume   243.52736279
_cell_formula_units_Z   1
loop_
 _symmetry_equiv_pos_site_id
 _symmetry_equiv_pos_as_xyz
  1  'x, y, z'
loop_
 _atom_site_type_symbol
 _atom_site_label
 _atom_site_symmetry_multiplicity
 _atom_site_fract_x
 _atom_site_fract_y
 _atom_site_fract_z
 _atom_site_occupancy
  Dy  Dy0  1  0.000000  0.623550  0.350309  1
  Dy  Dy1  1  0.000000  0.375624  0.650929  1
  Dy  Dy2  1  0.000000  0.126801  0.151981  1
  Dy  Dy3  1  0.000000  0.874969  0.848711  1
  V  V4  1  0.000000  0.371921  0.917794  1
  V  V5  1  0.000000  0.126930  0.416341  1
  V  V6  1  0.000000  0.873359  0.582349  1
  Re  Re7  1  0.000000  0.627943  0.083053  1
  B  B8  1  0.500000  0.785011  0.185072  1
  B  B9  1  0.500000  0.215054  0.814653  1
  B  B10  1  0.500000  0.285500  0.314584  1
  B  B11  1  0.500000  0.714033  0.685539  1
  B  B12  1  0.500000  0.864893  0.031731  1
  B  B13  1  0.500000  0.135270  0.967374  1
  B  B14  1  0.500000  0.364165  0.467466  1
  B  B15  1  0.500000  0.635624  0.532699  1
  B  B16  1  0.500000  0.885730  0.452642  1
  B  B17  1  0.500000  0.114770  0.547415  1
  B  B18  1  0.500000  0.385834  0.046995  1
  B  B19  1  0.500000  0.613935  0.952339  1
  B  B20  1  0.500000  0.976609  0.307727  1
  B  B21  1  0.500000  0.023407  0.692395  1
  B  B22  1  0.500000  0.476523  0.192321  1
  B  B23  1  0.500000  0.522546  0.807581  1
