# generated using pymatgen
data_Tb3MgCd2PtAu2
_symmetry_space_group_name_H-M   'P 1'
_cell_length_a   7.80380801
_cell_length_b   7.86636081
_cell_length_c   3.86046500
_cell_angle_alpha   90.00000000
_cell_angle_beta   90.00000000
_cell_angle_gamma   119.94785497
_symmetry_Int_Tables_number   1
_chemical_formula_structural   Tb3MgCd2PtAu2
_chemical_formula_sum   'Tb3 Mg1 Cd2 Pt1 Au2'
_cell_volume   205.34240753
_cell_formula_units_Z   1
loop_
 _symmetry_equiv_pos_site_id
 _symmetry_equiv_pos_as_xyz
  1  'x, y, z'
loop_
 _atom_site_type_symbol
 _atom_site_label
 _atom_site_symmetry_multiplicity
 _atom_site_fract_x
 _atom_site_fract_y
 _atom_site_fract_z
 _atom_site_occupancy
  Tb  Tb0  1  0.592673  0.983028  0.000000  1
  Tb  Tb1  1  0.012149  0.598888  0.000000  1
  Tb  Tb2  1  0.398116  0.419194  0.000000  1
  Mg  Mg3  1  0.259686  0.002390  0.500000  1
  Cd  Cd4  1  0.998354  0.263174  0.500000  1
  Cd  Cd5  1  0.738919  0.733415  0.500000  1
  Pt  Pt6  1  0.331534  0.676306  0.500000  1
  Au  Au7  1  0.654527  0.323106  0.500000  1
  Au  Au8  1  0.014041  0.000499  0.000000  1
