# generated using pymatgen
data_SrAl8SiAu4
_symmetry_space_group_name_H-M   'P 1'
_cell_length_a   6.10105545
_cell_length_b   6.10105520
_cell_length_c   15.09804981
_cell_angle_alpha   101.65673861
_cell_angle_beta   101.65673534
_cell_angle_gamma   90.00000254
_symmetry_Int_Tables_number   1
_chemical_formula_structural   SrAl8SiAu4
_chemical_formula_sum   'Sr2 Al16 Si2 Au8'
_cell_volume   538.56197101
_cell_formula_units_Z   2
loop_
 _symmetry_equiv_pos_site_id
 _symmetry_equiv_pos_as_xyz
  1  'x, y, z'
loop_
 _atom_site_type_symbol
 _atom_site_label
 _atom_site_symmetry_multiplicity
 _atom_site_fract_x
 _atom_site_fract_y
 _atom_site_fract_z
 _atom_site_occupancy
  Sr  Sr0  1  0.750001  0.250000  0.500000  1
  Sr  Sr1  1  0.250000  0.750001  0.500000  1
  Al  Al2  1  0.301872  0.301872  0.105158  1
  Al  Al3  1  0.803286  0.301872  0.105158  1
  Al  Al4  1  0.301872  0.803286  0.105158  1
  Al  Al5  1  0.803286  0.803286  0.105158  1
  Al  Al6  1  0.404119  0.404119  0.311324  1
  Al  Al7  1  0.907204  0.404119  0.311324  1
  Al  Al8  1  0.404119  0.907204  0.311324  1
  Al  Al9  1  0.907204  0.907204  0.311324  1
  Al  Al10  1  0.092795  0.092795  0.688676  1
  Al  Al11  1  0.595881  0.092795  0.688676  1
  Al  Al12  1  0.092795  0.595881  0.688676  1
  Al  Al13  1  0.595881  0.595881  0.688676  1
  Al  Al14  1  0.196715  0.196715  0.894842  1
  Al  Al15  1  0.698127  0.196715  0.894842  1
  Al  Al16  1  0.196715  0.698127  0.894842  1
  Al  Al17  1  0.698127  0.698127  0.894842  1
  Si  Si18  1  0.206789  0.206789  0.413579  1
  Si  Si19  1  0.793211  0.793211  0.586422  1
  Au  Au20  1  0.000000  0.000000  0.000000  1
  Au  Au21  1  0.500001  0.500001  0.000000  1
  Au  Au22  1  0.604432  0.104432  0.208862  1
  Au  Au23  1  0.104432  0.604432  0.208862  1
  Au  Au24  1  0.705918  0.705918  0.411834  1
  Au  Au25  1  0.294083  0.294083  0.588166  1
  Au  Au26  1  0.895569  0.395568  0.791137  1
  Au  Au27  1  0.395568  0.895569  0.791137  1
