# generated using pymatgen
data_Hf3Al3Pd2Rh
_symmetry_space_group_name_H-M   'P 1'
_cell_length_a   7.27398700
_cell_length_b   7.27398629
_cell_length_c   6.81713000
_cell_angle_alpha   90.00000000
_cell_angle_beta   90.00000000
_cell_angle_gamma   119.99999867
_symmetry_Int_Tables_number   1
_chemical_formula_structural   Hf3Al3Pd2Rh
_chemical_formula_sum   'Hf6 Al6 Pd4 Rh2'
_cell_volume   312.37567835
_cell_formula_units_Z   2
loop_
 _symmetry_equiv_pos_site_id
 _symmetry_equiv_pos_as_xyz
  1  'x, y, z'
loop_
 _atom_site_type_symbol
 _atom_site_label
 _atom_site_symmetry_multiplicity
 _atom_site_fract_x
 _atom_site_fract_y
 _atom_site_fract_z
 _atom_site_occupancy
  Hf  Hf0  1  0.744725  0.057219  0.000000  1
  Hf  Hf1  1  0.312493  0.255275  0.000000  1
  Hf  Hf2  1  0.942781  0.687507  0.000000  1
  Hf  Hf3  1  0.333318  0.264575  0.500000  1
  Hf  Hf4  1  0.735425  0.068743  0.500000  1
  Hf  Hf5  1  0.931257  0.666682  0.500000  1
  Al  Al6  1  0.595455  0.662402  0.750011  1
  Al  Al7  1  0.066947  0.404545  0.750011  1
  Al  Al8  1  0.337598  0.933053  0.750011  1
  Al  Al9  1  0.595455  0.662402  0.249989  1
  Al  Al10  1  0.066947  0.404545  0.249989  1
  Al  Al11  1  0.337598  0.933053  0.249989  1
  Pd  Pd12  1  0.333333  0.666667  0.000000  1
  Pd  Pd13  1  0.333333  0.666667  0.500000  1
  Pd  Pd14  1  0.666667  0.333333  0.771105  1
  Pd  Pd15  1  0.666667  0.333333  0.228895  1
  Rh  Rh16  1  0.000000  0.000000  0.263271  1
  Rh  Rh17  1  0.000000  0.000000  0.736729  1
