# generated using pymatgen
data_DyEr(LuBi)3
_symmetry_space_group_name_H-M   'P 1'
_cell_length_a   8.18703500
_cell_length_b   9.41064000
_cell_length_c   11.90737100
_cell_angle_alpha   90.00000000
_cell_angle_beta   90.00000000
_cell_angle_gamma   90.00000000
_symmetry_Int_Tables_number   1
_chemical_formula_structural   DyEr(LuBi)3
_chemical_formula_sum   'Dy4 Er4 Lu12 Bi12'
_cell_volume   917.40624518
_cell_formula_units_Z   4
loop_
 _symmetry_equiv_pos_site_id
 _symmetry_equiv_pos_as_xyz
  1  'x, y, z'
loop_
 _atom_site_type_symbol
 _atom_site_label
 _atom_site_symmetry_multiplicity
 _atom_site_fract_x
 _atom_site_fract_y
 _atom_site_fract_z
 _atom_site_occupancy
  Dy  Dy0  1  0.312482  0.250000  0.217967  1
  Dy  Dy1  1  0.812482  0.250000  0.282033  1
  Dy  Dy2  1  0.687518  0.750000  0.782033  1
  Dy  Dy3  1  0.187518  0.750000  0.717967  1
  Er  Er4  1  0.352213  0.750000  0.217664  1
  Er  Er5  1  0.852213  0.750000  0.282336  1
  Er  Er6  1  0.647787  0.250000  0.782336  1
  Er  Er7  1  0.147787  0.250000  0.717664  1
  Lu  Lu8  1  0.692734  0.567014  0.059488  1
  Lu  Lu9  1  0.192734  0.932986  0.440512  1
  Lu  Lu10  1  0.307266  0.067014  0.940512  1
  Lu  Lu11  1  0.807266  0.432986  0.559488  1
  Lu  Lu12  1  0.307266  0.432986  0.940512  1
  Lu  Lu13  1  0.807266  0.067014  0.559488  1
  Lu  Lu14  1  0.692734  0.932986  0.059488  1
  Lu  Lu15  1  0.192734  0.567014  0.440512  1
  Lu  Lu16  1  0.476773  0.250000  0.489161  1
  Lu  Lu17  1  0.976773  0.250000  0.010839  1
  Lu  Lu18  1  0.523227  0.750000  0.510839  1
  Lu  Lu19  1  0.023227  0.750000  0.989161  1
  Bi  Bi20  1  0.403883  0.750000  0.958498  1
  Bi  Bi21  1  0.903883  0.750000  0.541502  1
  Bi  Bi22  1  0.596117  0.250000  0.041502  1
  Bi  Bi23  1  0.096117  0.250000  0.458498  1
  Bi  Bi24  1  0.565278  0.994817  0.326102  1
  Bi  Bi25  1  0.065278  0.505183  0.173898  1
  Bi  Bi26  1  0.434722  0.494817  0.673898  1
  Bi  Bi27  1  0.934722  0.005183  0.826102  1
  Bi  Bi28  1  0.434722  0.005183  0.673898  1
  Bi  Bi29  1  0.934722  0.494817  0.826102  1
  Bi  Bi30  1  0.565278  0.505183  0.326102  1
  Bi  Bi31  1  0.065278  0.994817  0.173898  1
