# generated using pymatgen
data_Ca12Nd7SmSn16
_symmetry_space_group_name_H-M   'P 1'
_cell_length_a   8.00750925
_cell_length_b   8.53983706
_cell_length_c   16.19483148
_cell_angle_alpha   89.89273913
_cell_angle_beta   90.01005300
_cell_angle_gamma   89.88168013
_symmetry_Int_Tables_number   1
_chemical_formula_structural   Ca12Nd7SmSn16
_chemical_formula_sum   'Ca12 Nd7 Sm1 Sn16'
_cell_volume   1107.44399616
_cell_formula_units_Z   1
loop_
 _symmetry_equiv_pos_site_id
 _symmetry_equiv_pos_as_xyz
  1  'x, y, z'
loop_
 _atom_site_type_symbol
 _atom_site_label
 _atom_site_symmetry_multiplicity
 _atom_site_fract_x
 _atom_site_fract_y
 _atom_site_fract_z
 _atom_site_occupancy
  Ca  Ca0  1  0.991338  0.185392  0.407519  1
  Ca  Ca1  1  0.326509  0.827850  0.121974  1
  Ca  Ca2  1  0.173594  0.331278  0.624284  1
  Ca  Ca3  1  0.507201  0.683160  0.905437  1
  Ca  Ca4  1  0.828372  0.670660  0.122190  1
  Ca  Ca5  1  0.172257  0.330850  0.876203  1
  Ca  Ca6  1  0.156063  0.495262  0.249100  1
  Ca  Ca7  1  0.658236  0.002523  0.248634  1
  Ca  Ca8  1  0.509318  0.685122  0.595503  1
  Ca  Ca9  1  0.343907  0.996514  0.749115  1
  Ca  Ca10  1  0.673897  0.171387  0.622773  1
  Ca  Ca11  1  0.840443  0.502926  0.749368  1
  Nd  Nd12  1  0.987974  0.185848  0.093214  1
  Nd  Nd13  1  0.012807  0.811091  0.903124  1
  Nd  Nd14  1  0.669538  0.171412  0.875253  1
  Nd  Nd15  1  0.486275  0.313092  0.096014  1
  Nd  Nd16  1  0.329434  0.827079  0.376276  1
  Nd  Nd17  1  0.013795  0.812113  0.598287  1
  Nd  Nd18  1  0.490261  0.312198  0.404279  1
  Sm  Sm19  1  0.829113  0.671702  0.377566  1
  Sn  Sn20  1  0.833290  0.471573  0.540417  1
  Sn  Sn21  1  0.668553  0.969483  0.457918  1
  Sn  Sn22  1  0.719105  0.862073  0.750920  1
  Sn  Sn23  1  0.168778  0.536272  0.460601  1
  Sn  Sn24  1  0.329890  0.038061  0.962001  1
  Sn  Sn25  1  0.782272  0.360434  0.251040  1
  Sn  Sn26  1  0.831621  0.464187  0.961256  1
  Sn  Sn27  1  0.527923  0.603223  0.250495  1
  Sn  Sn28  1  0.165933  0.531384  0.040214  1
  Sn  Sn29  1  0.471332  0.394763  0.750748  1
  Sn  Sn30  1  0.214522  0.639076  0.750262  1
  Sn  Sn31  1  0.974097  0.102824  0.750557  1
  Sn  Sn32  1  0.331615  0.037225  0.537404  1
  Sn  Sn33  1  0.669154  0.969520  0.040667  1
  Sn  Sn34  1  0.284023  0.136980  0.248680  1
  Sn  Sn35  1  0.027563  0.895461  0.250706  1
