# generated using pymatgen
data_Zr6U2Nb12Si13P3
_symmetry_space_group_name_H-M   'P 1'
_cell_length_a   6.90576094
_cell_length_b   6.92955370
_cell_length_c   12.79145559
_cell_angle_alpha   90.02565636
_cell_angle_beta   90.02336867
_cell_angle_gamma   90.31884550
_symmetry_Int_Tables_number   1
_chemical_formula_structural   Zr6U2Nb12Si13P3
_chemical_formula_sum   'Zr6 U2 Nb12 Si13 P3'
_cell_volume   612.11069439
_cell_formula_units_Z   1
loop_
 _symmetry_equiv_pos_site_id
 _symmetry_equiv_pos_as_xyz
  1  'x, y, z'
loop_
 _atom_site_type_symbol
 _atom_site_label
 _atom_site_symmetry_multiplicity
 _atom_site_fract_x
 _atom_site_fract_y
 _atom_site_fract_z
 _atom_site_occupancy
  Zr  Zr0  1  0.002841  0.339636  0.218842  1
  Zr  Zr1  1  0.995896  0.660510  0.719045  1
  Zr  Zr2  1  0.160684  0.505974  0.468613  1
  Zr  Zr3  1  0.499733  0.839594  0.031176  1
  Zr  Zr4  1  0.841388  0.496474  0.968271  1
  Zr  Zr5  1  0.500437  0.158608  0.530831  1
  U  U6  1  0.342953  0.998603  0.778725  1
  U  U7  1  0.655540  0.999233  0.281052  1
  Nb  Nb8  1  0.172406  0.165101  0.999019  1
  Nb  Nb9  1  0.825822  0.835148  0.498113  1
  Nb  Nb10  1  0.332964  0.671708  0.251571  1
  Nb  Nb11  1  0.667863  0.328861  0.749664  1
  Nb  Nb12  1  0.157613  0.995025  0.376737  1
  Nb  Nb13  1  0.845759  0.002466  0.875279  1
  Nb  Nb14  1  0.503050  0.664168  0.626474  1
  Nb  Nb15  1  0.343903  0.500838  0.873665  1
  Nb  Nb16  1  0.494437  0.336433  0.129051  1
  Nb  Nb17  1  0.654842  0.500454  0.374402  1
  Nb  Nb18  1  0.999076  0.153819  0.624285  1
  Nb  Nb19  1  0.001175  0.846770  0.124355  1
  Si  Si20  1  0.205257  0.543582  0.063685  1
  Si  Si21  1  0.545211  0.204527  0.936593  1
  Si  Si22  1  0.795764  0.456593  0.563173  1
  Si  Si23  1  0.045113  0.298314  0.813143  1
  Si  Si24  1  0.954985  0.701465  0.312943  1
  Si  Si25  1  0.363788  0.295535  0.326004  1
  Si  Si26  1  0.635025  0.704581  0.825471  1
  Si  Si27  1  0.203027  0.866991  0.572032  1
  Si  Si28  1  0.131720  0.789273  0.928543  1
  Si  Si29  1  0.793631  0.133969  0.070255  1
  Si  Si30  1  0.870165  0.211376  0.428199  1
  Si  Si31  1  0.295426  0.370223  0.677191  1
  Si  Si32  1  0.706025  0.629077  0.177168  1
  P  P33  1  0.293522  0.038841  0.185084  1
  P  P34  1  0.706166  0.961079  0.685153  1
  P  P35  1  0.456794  0.795149  0.436196  1
