# generated using pymatgen
data_Dy4Ni13Ir
_symmetry_space_group_name_H-M   'P 1'
_cell_length_a   4.92408747
_cell_length_b   4.92408828
_cell_length_c   12.53805495
_cell_angle_alpha   78.67550156
_cell_angle_beta   78.67549814
_cell_angle_gamma   60.00000841
_symmetry_Int_Tables_number   1
_chemical_formula_structural   Dy4Ni13Ir
_chemical_formula_sum   'Dy4 Ni13 Ir1'
_cell_volume   256.41954201
_cell_formula_units_Z   1
loop_
 _symmetry_equiv_pos_site_id
 _symmetry_equiv_pos_as_xyz
  1  'x, y, z'
loop_
 _atom_site_type_symbol
 _atom_site_label
 _atom_site_symmetry_multiplicity
 _atom_site_fract_x
 _atom_site_fract_y
 _atom_site_fract_z
 _atom_site_occupancy
  Dy  Dy0  1  0.949835  0.949835  0.150492  1
  Dy  Dy1  1  0.050165  0.050165  0.849508  1
  Dy  Dy2  1  0.853475  0.853475  0.439574  1
  Dy  Dy3  1  0.146525  0.146525  0.560426  1
  Ni  Ni4  1  0.720733  0.720733  0.837799  1
  Ni  Ni5  1  0.279267  0.279267  0.162201  1
  Ni  Ni6  1  0.612757  0.612757  0.161729  1
  Ni  Ni7  1  0.387243  0.387243  0.838271  1
  Ni  Ni8  1  0.000000  0.500000  0.000000  1
  Ni  Ni9  1  0.500000  0.000000  0.000000  1
  Ni  Ni10  1  0.500000  0.500000  0.000000  1
  Ni  Ni11  1  0.391048  0.391048  0.323509  1
  Ni  Ni12  1  0.894395  0.391048  0.323509  1
  Ni  Ni13  1  0.391048  0.894395  0.323509  1
  Ni  Ni14  1  0.608952  0.608952  0.676491  1
  Ni  Ni15  1  0.105605  0.608952  0.676491  1
  Ni  Ni16  1  0.608952  0.105605  0.676491  1
  Ir  Ir17  1  0.500000  0.500000  0.500000  1
