# generated using pymatgen
data_TbHo15(InIr)4
_symmetry_space_group_name_H-M   'P 1'
_cell_length_a   9.63950042
_cell_length_b   9.63950049
_cell_length_c   9.64071200
_cell_angle_alpha   59.99584239
_cell_angle_beta   59.99584215
_cell_angle_gamma   59.96619274
_symmetry_Int_Tables_number   1
_chemical_formula_structural   TbHo15(InIr)4
_chemical_formula_sum   'Tb1 Ho15 In4 Ir4'
_cell_volume   633.23484033
_cell_formula_units_Z   1
loop_
 _symmetry_equiv_pos_site_id
 _symmetry_equiv_pos_as_xyz
  1  'x, y, z'
loop_
 _atom_site_type_symbol
 _atom_site_label
 _atom_site_symmetry_multiplicity
 _atom_site_fract_x
 _atom_site_fract_y
 _atom_site_fract_z
 _atom_site_occupancy
  Tb  Tb0  1  0.439045  0.439045  0.060955  1
  Ho  Ho1  1  0.650964  0.650964  0.045943  1
  Ho  Ho2  1  0.191203  0.810110  0.190395  1
  Ho  Ho3  1  0.059728  0.439298  0.060538  1
  Ho  Ho4  1  0.191203  0.810110  0.808292  1
  Ho  Ho5  1  0.059728  0.439298  0.440437  1
  Ho  Ho6  1  0.810110  0.191203  0.190395  1
  Ho  Ho7  1  0.650964  0.650964  0.652129  1
  Ho  Ho8  1  0.810110  0.191203  0.808292  1
  Ho  Ho9  1  0.191069  0.191069  0.808931  1
  Ho  Ho10  1  0.047391  0.650078  0.651266  1
  Ho  Ho11  1  0.439298  0.059728  0.060538  1
  Ho  Ho12  1  0.060074  0.060074  0.439926  1
  Ho  Ho13  1  0.650078  0.047391  0.651266  1
  Ho  Ho14  1  0.809301  0.809301  0.190699  1
  Ho  Ho15  1  0.439298  0.059728  0.440437  1
  In  In16  1  0.416865  0.416865  0.417188  1
  In  In17  1  0.416865  0.416865  0.749084  1
  In  In18  1  0.416891  0.749474  0.416818  1
  In  In19  1  0.749474  0.416891  0.416818  1
  Ir  Ir20  1  0.423565  0.859254  0.858590  1
  Ir  Ir21  1  0.858761  0.858761  0.858732  1
  Ir  Ir22  1  0.859254  0.423565  0.858590  1
  Ir  Ir23  1  0.858761  0.858761  0.423745  1
