# generated using pymatgen
data_GaAg3(NO3)8
_symmetry_space_group_name_H-M   'P 1'
_cell_length_a   7.93938988
_cell_length_b   7.93938967
_cell_length_c   7.93938950
_cell_angle_alpha   88.73668032
_cell_angle_beta   91.26332080
_cell_angle_gamma   91.26331355
_symmetry_Int_Tables_number   1
_chemical_formula_structural   GaAg3(NO3)8
_chemical_formula_sum   'Ga1 Ag3 N8 O24'
_cell_volume   500.09110715
_cell_formula_units_Z   1
loop_
 _symmetry_equiv_pos_site_id
 _symmetry_equiv_pos_as_xyz
  1  'x, y, z'
loop_
 _atom_site_type_symbol
 _atom_site_label
 _atom_site_symmetry_multiplicity
 _atom_site_fract_x
 _atom_site_fract_y
 _atom_site_fract_z
 _atom_site_occupancy
  Ga  Ga0  1  0.000000  0.000000  0.500000  1
  Ag  Ag1  1  0.500000  0.500000  0.500000  1
  Ag  Ag2  1  0.500000  0.000000  0.000000  1
  Ag  Ag3  1  0.000000  0.500000  0.000000  1
  N  N4  1  0.691601  0.134190  0.314732  1
  N  N5  1  0.668453  0.331547  0.831547  1
  N  N6  1  0.865810  0.814732  0.808399  1
  N  N7  1  0.814732  0.691601  0.365810  1
  N  N8  1  0.134190  0.185268  0.191601  1
  N  N9  1  0.185268  0.308399  0.634190  1
  N  N10  1  0.331547  0.668453  0.168453  1
  N  N11  1  0.308399  0.865810  0.685268  1
  O  O12  1  0.547398  0.226627  0.815831  1
  O  O13  1  0.576891  0.236682  0.302148  1
  O  O14  1  0.684169  0.452602  0.726627  1
  O  O15  1  0.715165  0.024915  0.204123  1
  O  O16  1  0.704123  0.715165  0.475085  1
  O  O17  1  0.763318  0.802148  0.923109  1
  O  O18  1  0.773373  0.315831  0.952602  1
  O  O19  1  0.791669  0.138542  0.446619  1
  O  O20  1  0.861458  0.946619  0.708331  1
  O  O21  1  0.802148  0.576891  0.263318  1
  O  O22  1  0.975085  0.704123  0.784835  1
  O  O23  1  0.946619  0.791669  0.361458  1
  O  O24  1  0.053381  0.208331  0.638542  1
  O  O25  1  0.024915  0.295877  0.215165  1
  O  O26  1  0.197852  0.423109  0.736682  1
  O  O27  1  0.138542  0.053381  0.291669  1
  O  O28  1  0.226627  0.684169  0.047398  1
  O  O29  1  0.208331  0.861458  0.553381  1
  O  O30  1  0.236682  0.197852  0.076891  1
  O  O31  1  0.295877  0.284835  0.524915  1
  O  O32  1  0.315831  0.547398  0.273373  1
  O  O33  1  0.284835  0.975085  0.795877  1
  O  O34  1  0.423109  0.763318  0.697852  1
  O  O35  1  0.452602  0.773373  0.184169  1
