# generated using pymatgen
data_Tb4Ta4Mn9Fe7P12
_symmetry_space_group_name_H-M   'P 1'
_cell_length_a   3.67950100
_cell_length_b   10.72295838
_cell_length_c   12.39599712
_cell_angle_alpha   89.92115829
_cell_angle_beta   90.00000000
_cell_angle_gamma   90.00000000
_symmetry_Int_Tables_number   1
_chemical_formula_structural   Tb4Ta4Mn9Fe7P12
_chemical_formula_sum   'Tb4 Ta4 Mn9 Fe7 P12'
_cell_volume   489.08529030
_cell_formula_units_Z   1
loop_
 _symmetry_equiv_pos_site_id
 _symmetry_equiv_pos_as_xyz
  1  'x, y, z'
loop_
 _atom_site_type_symbol
 _atom_site_label
 _atom_site_symmetry_multiplicity
 _atom_site_fract_x
 _atom_site_fract_y
 _atom_site_fract_z
 _atom_site_occupancy
  Tb  Tb0  1  0.250000  0.581962  0.711705  1
  Tb  Tb1  1  0.250000  0.916574  0.212086  1
  Tb  Tb2  1  0.750000  0.415865  0.288146  1
  Tb  Tb3  1  0.750000  0.086154  0.790260  1
  Ta  Ta4  1  0.250000  0.702752  0.989166  1
  Ta  Ta5  1  0.250000  0.795506  0.487837  1
  Ta  Ta6  1  0.750000  0.297377  0.010891  1
  Ta  Ta7  1  0.750000  0.202633  0.509913  1
  Mn  Mn8  1  0.250000  0.407454  0.491963  1
  Mn  Mn9  1  0.250000  0.093042  0.993158  1
  Mn  Mn10  1  0.750000  0.590773  0.506648  1
  Mn  Mn11  1  0.750000  0.907959  0.008720  1
  Mn  Mn12  1  0.250000  0.216743  0.174346  1
  Mn  Mn13  1  0.250000  0.284908  0.674594  1
  Mn  Mn14  1  0.750000  0.783146  0.825297  1
  Mn  Mn15  1  0.750000  0.716306  0.325218  1
  Mn  Mn16  1  0.250000  0.878312  0.700574  1
  Fe  Fe17  1  0.250000  0.623084  0.200794  1
  Fe  Fe18  1  0.750000  0.122598  0.299293  1
  Fe  Fe19  1  0.750000  0.377443  0.798889  1
  Fe  Fe20  1  0.250000  0.463387  0.933375  1
  Fe  Fe21  1  0.250000  0.036839  0.434276  1
  Fe  Fe22  1  0.750000  0.537535  0.066461  1
  Fe  Fe23  1  0.750000  0.962101  0.568019  1
  P  P24  1  0.250000  0.431129  0.112600  1
  P  P25  1  0.250000  0.073165  0.612797  1
  P  P26  1  0.750000  0.569794  0.887158  1
  P  P27  1  0.750000  0.930842  0.387684  1
  P  P28  1  0.250000  0.271557  0.862953  1
  P  P29  1  0.250000  0.228830  0.361867  1
  P  P30  1  0.750000  0.729848  0.137285  1
  P  P31  1  0.750000  0.764994  0.635006  1
  P  P32  1  0.250000  0.587403  0.382760  1
  P  P33  1  0.250000  0.912442  0.885903  1
  P  P34  1  0.750000  0.411191  0.615633  1
  P  P35  1  0.750000  0.088354  0.116724  1
