# generated using pymatgen
data_Rb(OF)2
_symmetry_space_group_name_H-M   'P 1'
_cell_length_a   7.05494400
_cell_length_b   7.28558600
_cell_length_c   7.99780700
_cell_angle_alpha   90.00000000
_cell_angle_beta   90.00000000
_cell_angle_gamma   90.00000000
_symmetry_Int_Tables_number   1
_chemical_formula_structural   Rb(OF)2
_chemical_formula_sum   'Rb4 O8 F8'
_cell_volume   411.08249101
_cell_formula_units_Z   4
loop_
 _symmetry_equiv_pos_site_id
 _symmetry_equiv_pos_as_xyz
  1  'x, y, z'
loop_
 _atom_site_type_symbol
 _atom_site_label
 _atom_site_symmetry_multiplicity
 _atom_site_fract_x
 _atom_site_fract_y
 _atom_site_fract_z
 _atom_site_occupancy
  Rb  Rb0  1  0.750000  0.857654  0.386237  1
  Rb  Rb1  1  0.750000  0.357654  0.113763  1
  Rb  Rb2  1  0.250000  0.642346  0.886237  1
  Rb  Rb3  1  0.250000  0.142346  0.613763  1
  O  O4  1  0.250000  0.121849  0.226831  1
  O  O5  1  0.750000  0.878151  0.773169  1
  O  O6  1  0.250000  0.621849  0.273169  1
  O  O7  1  0.750000  0.378151  0.726831  1
  O  O8  1  0.250000  0.595397  0.422348  1
  O  O9  1  0.750000  0.404603  0.577652  1
  O  O10  1  0.750000  0.904603  0.922348  1
  O  O11  1  0.250000  0.095397  0.077652  1
  F  F12  1  0.507280  0.653590  0.177185  1
  F  F13  1  0.007280  0.346410  0.822815  1
  F  F14  1  0.992720  0.653590  0.177185  1
  F  F15  1  0.007280  0.846410  0.677185  1
  F  F16  1  0.507280  0.153590  0.322815  1
  F  F17  1  0.492720  0.846410  0.677185  1
  F  F18  1  0.992720  0.153590  0.322815  1
  F  F19  1  0.492720  0.346410  0.822815  1
