# generated using pymatgen
data_La7Tb3(US10)2
_symmetry_space_group_name_H-M   'P 1'
_cell_length_a   7.58482435
_cell_length_b   8.14053226
_cell_length_c   11.98222000
_cell_angle_alpha   90.00270272
_cell_angle_beta   90.01736665
_cell_angle_gamma   90.04262333
_symmetry_Int_Tables_number   1
_chemical_formula_structural   La7Tb3(US10)2
_chemical_formula_sum   'La7 Tb3 U2 S20'
_cell_volume   739.83603082
_cell_formula_units_Z   1
loop_
 _symmetry_equiv_pos_site_id
 _symmetry_equiv_pos_as_xyz
  1  'x, y, z'
loop_
 _atom_site_type_symbol
 _atom_site_label
 _atom_site_symmetry_multiplicity
 _atom_site_fract_x
 _atom_site_fract_y
 _atom_site_fract_z
 _atom_site_occupancy
  La  La0  1  0.528714  0.503176  0.324098  1
  La  La1  1  0.969866  0.994587  0.824584  1
  La  La2  1  0.477231  0.998353  0.677331  1
  La  La3  1  0.024385  0.500846  0.173077  1
  La  La4  1  0.476407  0.500894  0.678192  1
  La  La5  1  0.023974  0.998907  0.174587  1
  La  La6  1  0.530104  0.997456  0.323958  1
  Tb  Tb7  1  0.975095  0.499959  0.820436  1
  Tb  Tb8  1  0.074627  0.750022  0.493213  1
  Tb  Tb9  1  0.425047  0.749678  0.992192  1
  U  U10  1  0.944385  0.251506  0.507091  1
  U  U11  1  0.555609  0.253176  0.004988  1
  S  S12  1  0.839100  0.970281  0.594178  1
  S  S13  1  0.658273  0.530904  0.094618  1
  S  S14  1  0.162775  0.454067  0.406896  1
  S  S15  1  0.337142  0.046010  0.906519  1
  S  S16  1  0.162684  0.047013  0.407354  1
  S  S17  1  0.330351  0.452625  0.907574  1
  S  S18  1  0.842653  0.529873  0.598606  1
  S  S19  1  0.662268  0.972340  0.092033  1
  S  S20  1  0.833357  0.750261  0.311042  1
  S  S21  1  0.671419  0.744559  0.812756  1
  S  S22  1  0.161268  0.253850  0.686811  1
  S  S23  1  0.335393  0.249606  0.183112  1
  S  S24  1  0.455577  0.750935  0.498419  1
  S  S25  1  0.042259  0.742848  0.993649  1
  S  S26  1  0.553737  0.250282  0.502209  1
  S  S27  1  0.946056  0.256905  0.997086  1
  S  S28  1  0.189352  0.743453  0.716209  1
  S  S29  1  0.306215  0.751168  0.213495  1
  S  S30  1  0.812854  0.250214  0.291729  1
  S  S31  1  0.691823  0.254248  0.791962  1
