# generated using pymatgen
data_Be3Cr2B
_symmetry_space_group_name_H-M   'P 1'
_cell_length_a   4.10720000
_cell_length_b   4.10749559
_cell_length_c   6.73362000
_cell_angle_alpha   90.00032214
_cell_angle_beta   89.99999999
_cell_angle_gamma   119.99778268
_symmetry_Int_Tables_number   1
_chemical_formula_structural   Be3Cr2B
_chemical_formula_sum   'Be6 Cr4 B2'
_cell_volume   98.38115027
_cell_formula_units_Z   2
loop_
 _symmetry_equiv_pos_site_id
 _symmetry_equiv_pos_as_xyz
  1  'x, y, z'
loop_
 _atom_site_type_symbol
 _atom_site_label
 _atom_site_symmetry_multiplicity
 _atom_site_fract_x
 _atom_site_fract_y
 _atom_site_fract_z
 _atom_site_occupancy
  Be  Be0  1  0.341341  0.170668  0.249985  1
  Be  Be1  1  0.829310  0.170674  0.249983  1
  Be  Be2  1  0.170676  0.829323  0.750019  1
  Be  Be3  1  0.658637  0.829330  0.750016  1
  Be  Be4  1  0.999990  0.000000  0.000003  1
  Be  Be5  1  0.999993  0.000001  0.499997  1
  Cr  Cr6  1  0.330958  0.661917  0.063420  1
  Cr  Cr7  1  0.669029  0.338071  0.563458  1
  Cr  Cr8  1  0.669023  0.338081  0.936585  1
  Cr  Cr9  1  0.330958  0.661931  0.436534  1
  B  B10  1  0.829413  0.658845  0.249987  1
  B  B11  1  0.170571  0.341157  0.750013  1
