# generated using pymatgen
data_Mg3Al2Co10B4W
_symmetry_space_group_name_H-M   'P 1'
_cell_length_a   8.76842783
_cell_length_b   8.76842783
_cell_length_c   2.81550000
_cell_angle_alpha   90.00000000
_cell_angle_beta   90.00000000
_cell_angle_gamma   90.33212727
_symmetry_Int_Tables_number   1
_chemical_formula_structural   Mg3Al2Co10B4W
_chemical_formula_sum   'Mg3 Al2 Co10 B4 W1'
_cell_volume   216.46700014
_cell_formula_units_Z   1
loop_
 _symmetry_equiv_pos_site_id
 _symmetry_equiv_pos_as_xyz
  1  'x, y, z'
loop_
 _atom_site_type_symbol
 _atom_site_label
 _atom_site_symmetry_multiplicity
 _atom_site_fract_x
 _atom_site_fract_y
 _atom_site_fract_z
 _atom_site_occupancy
  Mg  Mg0  1  0.323054  0.177433  0.000000  1
  Mg  Mg1  1  0.677433  0.823054  0.000000  1
  Mg  Mg2  1  0.822126  0.322126  0.000000  1
  Al  Al3  1  0.998619  0.003976  0.000000  1
  Al  Al4  1  0.503976  0.498619  0.000000  1
  Co  Co5  1  0.002186  0.502186  0.500000  1
  Co  Co6  1  0.070365  0.223315  0.500000  1
  Co  Co7  1  0.216572  0.921957  0.500000  1
  Co  Co8  1  0.277824  0.443243  0.500000  1
  Co  Co9  1  0.421957  0.716572  0.500000  1
  Co  Co10  1  0.497631  0.997631  0.500000  1
  Co  Co11  1  0.567407  0.277759  0.500000  1
  Co  Co12  1  0.723315  0.570365  0.500000  1
  Co  Co13  1  0.777759  0.067407  0.500000  1
  Co  Co14  1  0.943243  0.777824  0.500000  1
  B  B15  1  0.122594  0.378512  0.000000  1
  B  B16  1  0.377378  0.877378  0.000000  1
  B  B17  1  0.622612  0.122612  0.000000  1
  B  B18  1  0.878512  0.622594  0.000000  1
  W  W19  1  0.175437  0.675437  0.000000  1
