# generated using pymatgen
data_DyY7(CdNi)2
_symmetry_space_group_name_H-M   'P 1'
_cell_length_a   9.60306536
_cell_length_b   9.60306631
_cell_length_c   9.59383900
_cell_angle_alpha   60.03178371
_cell_angle_beta   60.03178046
_cell_angle_gamma   60.08596026
_symmetry_Int_Tables_number   1
_chemical_formula_structural   DyY7(CdNi)2
_chemical_formula_sum   'Dy2 Y14 Cd4 Ni4'
_cell_volume   626.30707368
_cell_formula_units_Z   2
loop_
 _symmetry_equiv_pos_site_id
 _symmetry_equiv_pos_as_xyz
  1  'x, y, z'
loop_
 _atom_site_type_symbol
 _atom_site_label
 _atom_site_symmetry_multiplicity
 _atom_site_fract_x
 _atom_site_fract_y
 _atom_site_fract_z
 _atom_site_occupancy
  Dy  Dy0  1  0.597301  0.597301  0.597184  1
  Dy  Dy1  1  0.597301  0.597301  0.208214  1
  Y  Y2  1  0.600791  0.199620  0.599795  1
  Y  Y3  1  0.199620  0.600791  0.599795  1
  Y  Y4  1  0.061328  0.439941  0.438619  1
  Y  Y5  1  0.439941  0.061328  0.060112  1
  Y  Y6  1  0.439941  0.061328  0.438619  1
  Y  Y7  1  0.061328  0.439941  0.060112  1
  Y  Y8  1  0.440721  0.440721  0.059279  1
  Y  Y9  1  0.062441  0.062441  0.437559  1
  Y  Y10  1  0.187091  0.813179  0.813756  1
  Y  Y11  1  0.813179  0.187091  0.185974  1
  Y  Y12  1  0.813179  0.187091  0.813756  1
  Y  Y13  1  0.187091  0.813179  0.185974  1
  Y  Y14  1  0.813925  0.813925  0.186075  1
  Y  Y15  1  0.186762  0.186762  0.813238  1
  Cd  Cd16  1  0.830286  0.830286  0.831566  1
  Cd  Cd17  1  0.830286  0.830286  0.507862  1
  Cd  Cd18  1  0.830335  0.506368  0.831648  1
  Cd  Cd19  1  0.506368  0.830335  0.831648  1
  Ni  Ni20  1  0.392969  0.392969  0.393706  1
  Ni  Ni21  1  0.392969  0.392969  0.820356  1
  Ni  Ni22  1  0.392363  0.822481  0.392578  1
  Ni  Ni23  1  0.822481  0.392363  0.392578  1
