# generated using pymatgen
data_Mn2V17ReSi11As
_symmetry_space_group_name_H-M   'P 1'
_cell_length_a   7.01715856
_cell_length_b   7.01984584
_cell_length_c   13.21276100
_cell_angle_alpha   90.00000000
_cell_angle_beta   90.00000000
_cell_angle_gamma   140.47534990
_symmetry_Int_Tables_number   1
_chemical_formula_structural   Mn2V17ReSi11As
_chemical_formula_sum   'Mn2 V17 Re1 Si11 As1'
_cell_volume   414.20899953
_cell_formula_units_Z   1
loop_
 _symmetry_equiv_pos_site_id
 _symmetry_equiv_pos_as_xyz
  1  'x, y, z'
loop_
 _atom_site_type_symbol
 _atom_site_label
 _atom_site_symmetry_multiplicity
 _atom_site_fract_x
 _atom_site_fract_y
 _atom_site_fract_z
 _atom_site_occupancy
  Mn  Mn0  1  0.498445  0.493534  0.500000  1
  Mn  Mn1  1  0.001040  0.001573  0.000000  1
  V  V2  1  0.069147  0.422341  0.399102  1
  V  V3  1  0.574422  0.925039  0.900529  1
  V  V4  1  0.419767  0.069942  0.600532  1
  V  V5  1  0.925951  0.574710  0.098796  1
  V  V6  1  0.852246  0.653620  0.675196  1
  V  V7  1  0.350958  0.153449  0.175976  1
  V  V8  1  0.652220  0.851295  0.322424  1
  V  V9  1  0.153831  0.351454  0.825058  1
  V  V10  1  0.652220  0.851295  0.677576  1
  V  V11  1  0.153831  0.351454  0.174942  1
  V  V12  1  0.852246  0.653620  0.324804  1
  V  V13  1  0.350958  0.153449  0.824024  1
  V  V14  1  0.419767  0.069942  0.399468  1
  V  V15  1  0.925951  0.574710  0.901204  1
  V  V16  1  0.069147  0.422341  0.600898  1
  V  V17  1  0.574422  0.925039  0.099471  1
  V  V18  1  0.003644  0.998898  0.500000  1
  Re  Re19  1  0.500975  0.501291  0.000000  1
  Si  Si20  1  0.249898  0.749671  0.751054  1
  Si  Si21  1  0.749461  0.250839  0.249019  1
  Si  Si22  1  0.749461  0.250839  0.750981  1
  Si  Si23  1  0.249898  0.749671  0.248946  1
  Si  Si24  1  0.255797  0.256928  0.664422  1
  Si  Si25  1  0.764645  0.763725  0.165238  1
  Si  Si26  1  0.255797  0.256928  0.335578  1
  Si  Si27  1  0.764645  0.763725  0.834762  1
  Si  Si28  1  0.072545  0.404581  0.000000  1
  Si  Si29  1  0.902896  0.574350  0.500000  1
  Si  Si30  1  0.405504  0.073730  0.000000  1
  As  As31  1  0.578261  0.906023  0.500000  1
