# generated using pymatgen
data_Tm5Sc(AlPt2)2
_symmetry_space_group_name_H-M   'P 1'
_cell_length_a   4.42817600
_cell_length_b   7.15573162
_cell_length_c   8.10968700
_cell_angle_alpha   89.19994086
_cell_angle_beta   90.00000000
_cell_angle_gamma   90.00000000
_symmetry_Int_Tables_number   1
_chemical_formula_structural   Tm5Sc(AlPt2)2
_chemical_formula_sum   'Tm5 Sc1 Al2 Pt4'
_cell_volume   256.94529417
_cell_formula_units_Z   1
loop_
 _symmetry_equiv_pos_site_id
 _symmetry_equiv_pos_as_xyz
  1  'x, y, z'
loop_
 _atom_site_type_symbol
 _atom_site_label
 _atom_site_symmetry_multiplicity
 _atom_site_fract_x
 _atom_site_fract_y
 _atom_site_fract_z
 _atom_site_occupancy
  Tm  Tm0  1  0.250000  0.995190  0.332176  1
  Tm  Tm1  1  0.750000  0.053127  0.681146  1
  Tm  Tm2  1  0.250000  0.445230  0.171068  1
  Tm  Tm3  1  0.750000  0.512975  0.827606  1
  Tm  Tm4  1  0.750000  0.637676  0.431422  1
  Sc  Sc5  1  0.250000  0.868879  0.939102  1
  Al  Al6  1  0.250000  0.359554  0.567322  1
  Al  Al7  1  0.750000  0.136099  0.066579  1
  Pt  Pt8  1  0.250000  0.239675  0.879357  1
  Pt  Pt9  1  0.750000  0.758694  0.103307  1
  Pt  Pt10  1  0.250000  0.739504  0.622932  1
  Pt  Pt11  1  0.750000  0.253394  0.377982  1
