# generated using pymatgen
data_Nd5TcTe2
_symmetry_space_group_name_H-M   'P 1'
_cell_length_a   8.25962000
_cell_length_b   9.14549800
_cell_length_c   12.62479500
_cell_angle_alpha   90.00000000
_cell_angle_beta   90.00000000
_cell_angle_gamma   90.00000000
_symmetry_Int_Tables_number   1
_chemical_formula_structural   Nd5TcTe2
_chemical_formula_sum   'Nd20 Tc4 Te8'
_cell_volume   953.65603430
_cell_formula_units_Z   4
loop_
 _symmetry_equiv_pos_site_id
 _symmetry_equiv_pos_as_xyz
  1  'x, y, z'
loop_
 _atom_site_type_symbol
 _atom_site_label
 _atom_site_symmetry_multiplicity
 _atom_site_fract_x
 _atom_site_fract_y
 _atom_site_fract_z
 _atom_site_occupancy
  Nd  Nd0  1  0.159273  0.750000  0.210243  1
  Nd  Nd1  1  0.659273  0.250000  0.289757  1
  Nd  Nd2  1  0.840727  0.250000  0.789757  1
  Nd  Nd3  1  0.340727  0.750000  0.710243  1
  Nd  Nd4  1  0.448441  0.750000  0.999430  1
  Nd  Nd5  1  0.948441  0.250000  0.500570  1
  Nd  Nd6  1  0.551559  0.250000  0.000570  1
  Nd  Nd7  1  0.051559  0.750000  0.499430  1
  Nd  Nd8  1  0.623805  0.750000  0.303228  1
  Nd  Nd9  1  0.123805  0.250000  0.196772  1
  Nd  Nd10  1  0.376195  0.250000  0.696772  1
  Nd  Nd11  1  0.876195  0.750000  0.803228  1
  Nd  Nd12  1  0.824393  0.959628  0.067355  1
  Nd  Nd13  1  0.324393  0.040372  0.432645  1
  Nd  Nd14  1  0.175607  0.459628  0.932645  1
  Nd  Nd15  1  0.675607  0.540372  0.567355  1
  Nd  Nd16  1  0.175607  0.040372  0.932645  1
  Nd  Nd17  1  0.675607  0.959628  0.567355  1
  Nd  Nd18  1  0.824393  0.540372  0.067355  1
  Nd  Nd19  1  0.324393  0.459628  0.432645  1
  Tc  Tc20  1  0.412404  0.750000  0.484074  1
  Tc  Tc21  1  0.912404  0.250000  0.015926  1
  Tc  Tc22  1  0.587596  0.250000  0.515926  1
  Tc  Tc23  1  0.087596  0.750000  0.984074  1
  Te  Te24  1  0.928927  0.989660  0.326616  1
  Te  Te25  1  0.428927  0.010340  0.173384  1
  Te  Te26  1  0.071073  0.489660  0.673384  1
  Te  Te27  1  0.571073  0.510340  0.826616  1
  Te  Te28  1  0.071073  0.010340  0.673384  1
  Te  Te29  1  0.571073  0.989660  0.826616  1
  Te  Te30  1  0.928927  0.510340  0.326616  1
  Te  Te31  1  0.428927  0.489660  0.173384  1
