# generated using pymatgen
data_Er4Ga18Co5Ni
_symmetry_space_group_name_H-M   'P 1'
_cell_length_a   7.35176977
_cell_length_b   7.35176902
_cell_length_c   9.34955475
_cell_angle_alpha   89.94220637
_cell_angle_beta   89.94220650
_cell_angle_gamma   119.87600719
_symmetry_Int_Tables_number   1
_chemical_formula_structural   Er4Ga18Co5Ni
_chemical_formula_sum   'Er4 Ga18 Co5 Ni1'
_cell_volume   438.17308728
_cell_formula_units_Z   1
loop_
 _symmetry_equiv_pos_site_id
 _symmetry_equiv_pos_as_xyz
  1  'x, y, z'
loop_
 _atom_site_type_symbol
 _atom_site_label
 _atom_site_symmetry_multiplicity
 _atom_site_fract_x
 _atom_site_fract_y
 _atom_site_fract_z
 _atom_site_occupancy
  Er  Er0  1  0.502773  0.831530  0.750387  1
  Er  Er1  1  0.497227  0.168470  0.249613  1
  Er  Er2  1  0.168470  0.497227  0.249613  1
  Er  Er3  1  0.831530  0.502773  0.750387  1
  Ga  Ga4  1  0.163562  0.948315  0.750035  1
  Ga  Ga5  1  0.836438  0.051685  0.249965  1
  Ga  Ga6  1  0.051685  0.836438  0.249965  1
  Ga  Ga7  1  0.948315  0.163562  0.750035  1
  Ga  Ga8  1  0.620673  0.620673  0.249045  1
  Ga  Ga9  1  0.379327  0.379327  0.750955  1
  Ga  Ga10  1  0.166997  0.166997  0.058912  1
  Ga  Ga11  1  0.834603  0.834603  0.559406  1
  Ga  Ga12  1  0.833003  0.833003  0.941088  1
  Ga  Ga13  1  0.165397  0.165397  0.440594  1
  Ga  Ga14  1  0.499050  0.834233  0.072911  1
  Ga  Ga15  1  0.500966  0.164513  0.573622  1
  Ga  Ga16  1  0.165767  0.500950  0.927089  1
  Ga  Ga17  1  0.835487  0.499034  0.426378  1
  Ga  Ga18  1  0.500950  0.165767  0.927089  1
  Ga  Ga19  1  0.499034  0.835487  0.426378  1
  Ga  Ga20  1  0.834233  0.499050  0.072911  1
  Ga  Ga21  1  0.164513  0.500966  0.573622  1
  Co  Co22  1  0.171173  0.828827  0.000000  1
  Co  Co23  1  0.500000  0.500000  0.000000  1
  Co  Co24  1  0.828829  0.171171  0.500000  1
  Co  Co25  1  0.828827  0.171173  0.000000  1
  Co  Co26  1  0.171171  0.828829  0.500000  1
  Ni  Ni27  1  0.500000  0.500000  0.500000  1
