# generated using pymatgen
data_TbDy(MgIn2)2
_symmetry_space_group_name_H-M   'P 1'
_cell_length_a   6.46672200
_cell_length_b   6.46672197
_cell_length_c   9.28696400
_cell_angle_alpha   90.00000000
_cell_angle_beta   90.00000000
_cell_angle_gamma   91.79746790
_symmetry_Int_Tables_number   1
_chemical_formula_structural   TbDy(MgIn2)2
_chemical_formula_sum   'Tb2 Dy2 Mg4 In8'
_cell_volume   388.17574410
_cell_formula_units_Z   2
loop_
 _symmetry_equiv_pos_site_id
 _symmetry_equiv_pos_as_xyz
  1  'x, y, z'
loop_
 _atom_site_type_symbol
 _atom_site_label
 _atom_site_symmetry_multiplicity
 _atom_site_fract_x
 _atom_site_fract_y
 _atom_site_fract_z
 _atom_site_occupancy
  Tb  Tb0  1  0.504174  0.504174  0.250000  1
  Tb  Tb1  1  0.495826  0.495826  0.750000  1
  Dy  Dy2  1  0.996242  0.996242  0.250000  1
  Dy  Dy3  1  0.003758  0.003758  0.750000  1
  Mg  Mg4  1  0.249119  0.750881  0.500000  1
  Mg  Mg5  1  0.249119  0.750881  0.000000  1
  Mg  Mg6  1  0.750881  0.249119  0.500000  1
  Mg  Mg7  1  0.750881  0.249119  0.000000  1
  In  In8  1  0.249555  0.249555  0.003583  1
  In  In9  1  0.750445  0.750445  0.996417  1
  In  In10  1  0.249555  0.249555  0.496417  1
  In  In11  1  0.750445  0.750445  0.503583  1
  In  In12  1  0.497517  0.003101  0.250000  1
  In  In13  1  0.996899  0.502483  0.750000  1
  In  In14  1  0.502483  0.996899  0.750000  1
  In  In15  1  0.003101  0.497517  0.250000  1
