# generated using pymatgen
data_Sc12Co3Si12Pt
_symmetry_space_group_name_H-M   'P 1'
_cell_length_a   4.00567000
_cell_length_b   10.08742934
_cell_length_c   11.66465763
_cell_angle_alpha   89.82977250
_cell_angle_beta   90.00000000
_cell_angle_gamma   90.00000000
_symmetry_Int_Tables_number   1
_chemical_formula_structural   Sc12Co3Si12Pt
_chemical_formula_sum   'Sc12 Co3 Si12 Pt1'
_cell_volume   471.33072679
_cell_formula_units_Z   1
loop_
 _symmetry_equiv_pos_site_id
 _symmetry_equiv_pos_as_xyz
  1  'x, y, z'
loop_
 _atom_site_type_symbol
 _atom_site_label
 _atom_site_symmetry_multiplicity
 _atom_site_fract_x
 _atom_site_fract_y
 _atom_site_fract_z
 _atom_site_occupancy
  Sc  Sc0  1  0.250000  0.880005  0.024513  1
  Sc  Sc1  1  0.250000  0.619354  0.521833  1
  Sc  Sc2  1  0.750000  0.124944  0.980258  1
  Sc  Sc3  1  0.750000  0.379891  0.474976  1
  Sc  Sc4  1  0.250000  0.919698  0.600869  1
  Sc  Sc5  1  0.250000  0.579675  0.101236  1
  Sc  Sc6  1  0.750000  0.079467  0.400223  1
  Sc  Sc7  1  0.750000  0.420715  0.901572  1
  Sc  Sc8  1  0.250000  0.651772  0.799575  1
  Sc  Sc9  1  0.250000  0.841789  0.299948  1
  Sc  Sc10  1  0.750000  0.342719  0.199901  1
  Sc  Sc11  1  0.750000  0.164822  0.697838  1
  Co  Co12  1  0.250000  0.388303  0.676634  1
  Co  Co13  1  0.250000  0.111368  0.178290  1
  Co  Co14  1  0.750000  0.610898  0.322491  1
  Si  Si15  1  0.250000  0.019987  0.824233  1
  Si  Si16  1  0.250000  0.493876  0.321628  1
  Si  Si17  1  0.750000  0.993734  0.178536  1
  Si  Si18  1  0.750000  0.502643  0.677946  1
  Si  Si19  1  0.250000  0.256231  0.837910  1
  Si  Si20  1  0.250000  0.247865  0.337319  1
  Si  Si21  1  0.750000  0.747804  0.163321  1
  Si  Si22  1  0.750000  0.743347  0.654913  1
  Si  Si23  1  0.250000  0.198627  0.544545  1
  Si  Si24  1  0.250000  0.302573  0.046779  1
  Si  Si25  1  0.750000  0.801164  0.452240  1
  Si  Si26  1  0.750000  0.690111  0.958752  1
  Pt  Pt27  1  0.750000  0.886618  0.821722  1
