# generated using pymatgen
data_Nd4TmSn3Pb
_symmetry_space_group_name_H-M   'P 1'
_cell_length_a   8.28753973
_cell_length_b   8.35855623
_cell_length_c   15.83970600
_cell_angle_alpha   89.77790567
_cell_angle_beta   90.88996028
_cell_angle_gamma   90.13617586
_symmetry_Int_Tables_number   1
_chemical_formula_structural   Nd4TmSn3Pb
_chemical_formula_sum   'Nd16 Tm4 Sn12 Pb4'
_cell_volume   1097.10245654
_cell_formula_units_Z   4
loop_
 _symmetry_equiv_pos_site_id
 _symmetry_equiv_pos_as_xyz
  1  'x, y, z'
loop_
 _atom_site_type_symbol
 _atom_site_label
 _atom_site_symmetry_multiplicity
 _atom_site_fract_x
 _atom_site_fract_y
 _atom_site_fract_z
 _atom_site_occupancy
  Nd  Nd0  1  0.036937  0.175316  0.395913  1
  Nd  Nd1  1  0.373671  0.836759  0.120999  1
  Nd  Nd2  1  0.120118  0.337024  0.619969  1
  Nd  Nd3  1  0.476786  0.676613  0.901036  1
  Nd  Nd4  1  0.873622  0.662183  0.120372  1
  Nd  Nd5  1  0.125784  0.339808  0.879312  1
  Nd  Nd6  1  0.464135  0.680950  0.604139  1
  Nd  Nd7  1  0.618445  0.162085  0.620090  1
  Nd  Nd8  1  0.880026  0.660751  0.379565  1
  Nd  Nd9  1  0.022238  0.180937  0.099553  1
  Nd  Nd10  1  0.973209  0.818492  0.900864  1
  Nd  Nd11  1  0.627966  0.162123  0.879680  1
  Nd  Nd12  1  0.525066  0.322601  0.099247  1
  Nd  Nd13  1  0.379664  0.839226  0.380636  1
  Nd  Nd14  1  0.967818  0.824592  0.604131  1
  Nd  Nd15  1  0.534188  0.320346  0.395796  1
  Tm  Tm16  1  0.209303  0.501997  0.247592  1
  Tm  Tm17  1  0.709271  0.997209  0.247909  1
  Tm  Tm18  1  0.290929  0.002926  0.748286  1
  Tm  Tm19  1  0.790738  0.498120  0.752421  1
  Sn  Sn20  1  0.664903  0.853559  0.751484  1
  Sn  Sn21  1  0.834992  0.353045  0.249249  1
  Sn  Sn22  1  0.789808  0.466339  0.955430  1
  Sn  Sn23  1  0.573837  0.618165  0.251126  1
  Sn  Sn24  1  0.210687  0.533445  0.044839  1
  Sn  Sn25  1  0.426074  0.381742  0.749513  1
  Sn  Sn26  1  0.164857  0.646992  0.751526  1
  Sn  Sn27  1  0.925855  0.118573  0.749960  1
  Sn  Sn28  1  0.280257  0.026892  0.546062  1
  Sn  Sn29  1  0.710664  0.967027  0.045125  1
  Sn  Sn30  1  0.335166  0.146386  0.247998  1
  Sn  Sn31  1  0.074396  0.881398  0.250418  1
  Pb  Pb32  1  0.778377  0.475648  0.546332  1
  Pb  Pb33  1  0.721581  0.973197  0.454547  1
  Pb  Pb34  1  0.220866  0.525051  0.453912  1
  Pb  Pb35  1  0.287767  0.032483  0.954967  1
