# generated using pymatgen
data_Nd4Ga4Ni2IrRh
_symmetry_space_group_name_H-M   'P 1'
_cell_length_a   4.45847400
_cell_length_b   7.10132741
_cell_length_c   7.55998839
_cell_angle_alpha   90.38517398
_cell_angle_beta   90.00000000
_cell_angle_gamma   90.00000000
_symmetry_Int_Tables_number   1
_chemical_formula_structural   Nd4Ga4Ni2IrRh
_chemical_formula_sum   'Nd4 Ga4 Ni2 Ir1 Rh1'
_cell_volume   239.35201618
_cell_formula_units_Z   1
loop_
 _symmetry_equiv_pos_site_id
 _symmetry_equiv_pos_as_xyz
  1  'x, y, z'
loop_
 _atom_site_type_symbol
 _atom_site_label
 _atom_site_symmetry_multiplicity
 _atom_site_fract_x
 _atom_site_fract_y
 _atom_site_fract_z
 _atom_site_occupancy
  Nd  Nd0  1  0.250000  0.028159  0.808484  1
  Nd  Nd1  1  0.250000  0.527700  0.692131  1
  Nd  Nd2  1  0.750000  0.978129  0.195192  1
  Nd  Nd3  1  0.750000  0.480357  0.304976  1
  Ga  Ga4  1  0.250000  0.172039  0.427079  1
  Ga  Ga5  1  0.250000  0.672610  0.073467  1
  Ga  Ga6  1  0.750000  0.829862  0.587868  1
  Ga  Ga7  1  0.750000  0.330432  0.912077  1
  Ni  Ni8  1  0.750000  0.197613  0.594946  1
  Ni  Ni9  1  0.750000  0.696829  0.905241  1
  Ir  Ir10  1  0.250000  0.792853  0.403682  1
  Rh  Rh11  1  0.250000  0.293415  0.094857  1
