# generated using pymatgen
data_LiDyCo4P3
_symmetry_space_group_name_H-M   'P 1'
_cell_length_a   3.69360400
_cell_length_b   10.25524900
_cell_length_c   11.91594900
_cell_angle_alpha   90.00000000
_cell_angle_beta   90.00000000
_cell_angle_gamma   90.00000000
_symmetry_Int_Tables_number   1
_chemical_formula_structural   LiDyCo4P3
_chemical_formula_sum   'Li4 Dy4 Co16 P12'
_cell_volume   451.36219130
_cell_formula_units_Z   4
loop_
 _symmetry_equiv_pos_site_id
 _symmetry_equiv_pos_as_xyz
  1  'x, y, z'
loop_
 _atom_site_type_symbol
 _atom_site_label
 _atom_site_symmetry_multiplicity
 _atom_site_fract_x
 _atom_site_fract_y
 _atom_site_fract_z
 _atom_site_occupancy
  Li  Li0  1  0.250000  0.798312  0.493096  1
  Li  Li1  1  0.750000  0.201688  0.506904  1
  Li  Li2  1  0.750000  0.298312  0.006904  1
  Li  Li3  1  0.250000  0.701688  0.993096  1
  Dy  Dy4  1  0.250000  0.922476  0.202189  1
  Dy  Dy5  1  0.750000  0.077524  0.797811  1
  Dy  Dy6  1  0.750000  0.422476  0.297811  1
  Dy  Dy7  1  0.250000  0.577524  0.702189  1
  Co  Co8  1  0.250000  0.093941  0.985092  1
  Co  Co9  1  0.750000  0.906059  0.014908  1
  Co  Co10  1  0.750000  0.593941  0.514908  1
  Co  Co11  1  0.250000  0.406059  0.485092  1
  Co  Co12  1  0.250000  0.277240  0.672619  1
  Co  Co13  1  0.750000  0.722760  0.327381  1
  Co  Co14  1  0.750000  0.777240  0.827381  1
  Co  Co15  1  0.250000  0.222760  0.172619  1
  Co  Co16  1  0.250000  0.622406  0.199960  1
  Co  Co17  1  0.750000  0.377594  0.800040  1
  Co  Co18  1  0.750000  0.122406  0.300040  1
  Co  Co19  1  0.250000  0.877594  0.699960  1
  Co  Co20  1  0.250000  0.035310  0.432637  1
  Co  Co21  1  0.750000  0.964690  0.567363  1
  Co  Co22  1  0.750000  0.535310  0.067363  1
  Co  Co23  1  0.250000  0.464690  0.932637  1
  P  P24  1  0.250000  0.074102  0.615055  1
  P  P25  1  0.750000  0.925898  0.384945  1
  P  P26  1  0.750000  0.574102  0.884945  1
  P  P27  1  0.250000  0.425898  0.115055  1
  P  P28  1  0.250000  0.231118  0.359483  1
  P  P29  1  0.750000  0.768882  0.640517  1
  P  P30  1  0.750000  0.731118  0.140517  1
  P  P31  1  0.250000  0.268882  0.859483  1
  P  P32  1  0.250000  0.897047  0.893468  1
  P  P33  1  0.750000  0.102953  0.106532  1
  P  P34  1  0.750000  0.397047  0.606532  1
  P  P35  1  0.250000  0.602953  0.393468  1
