# generated using pymatgen
data_Sn(Mo3I7)2
_symmetry_space_group_name_H-M   'P 1'
_cell_length_a   14.85692700
_cell_length_b   14.85692700
_cell_length_c   14.85692700
_cell_angle_alpha   90.00000000
_cell_angle_beta   90.00000000
_cell_angle_gamma   90.00000000
_symmetry_Int_Tables_number   1
_chemical_formula_structural   Sn(Mo3I7)2
_chemical_formula_sum   'Sn4 Mo24 I56'
_cell_volume   3279.34394106
_cell_formula_units_Z   4
loop_
 _symmetry_equiv_pos_site_id
 _symmetry_equiv_pos_as_xyz
  1  'x, y, z'
loop_
 _atom_site_type_symbol
 _atom_site_label
 _atom_site_symmetry_multiplicity
 _atom_site_fract_x
 _atom_site_fract_y
 _atom_site_fract_z
 _atom_site_occupancy
  Sn  Sn0  1  0.000000  0.000000  0.500000  1
  Sn  Sn1  1  0.500000  0.500000  0.500000  1
  Sn  Sn2  1  0.500000  0.000000  0.000000  1
  Sn  Sn3  1  0.000000  0.500000  0.000000  1
  Mo  Mo4  1  0.031266  0.122077  0.975134  1
  Mo  Mo5  1  0.975134  0.031266  0.122077  1
  Mo  Mo6  1  0.877923  0.475134  0.531266  1
  Mo  Mo7  1  0.524866  0.468734  0.122077  1
  Mo  Mo8  1  0.024866  0.531266  0.622077  1
  Mo  Mo9  1  0.622077  0.024866  0.531266  1
  Mo  Mo10  1  0.024866  0.968734  0.877923  1
  Mo  Mo11  1  0.475134  0.968734  0.622077  1
  Mo  Mo12  1  0.531266  0.622077  0.024866  1
  Mo  Mo13  1  0.531266  0.877923  0.475134  1
  Mo  Mo14  1  0.622077  0.475134  0.968734  1
  Mo  Mo15  1  0.475134  0.531266  0.877923  1
  Mo  Mo16  1  0.122077  0.975134  0.031266  1
  Mo  Mo17  1  0.968734  0.877923  0.024866  1
  Mo  Mo18  1  0.968734  0.622077  0.475134  1
  Mo  Mo19  1  0.122077  0.524866  0.468734  1
  Mo  Mo20  1  0.377923  0.524866  0.031266  1
  Mo  Mo21  1  0.468734  0.377923  0.975134  1
  Mo  Mo22  1  0.377923  0.975134  0.468734  1
  Mo  Mo23  1  0.877923  0.024866  0.968734  1
  Mo  Mo24  1  0.524866  0.031266  0.377923  1
  Mo  Mo25  1  0.468734  0.122077  0.524866  1
  Mo  Mo26  1  0.975134  0.468734  0.377923  1
  Mo  Mo27  1  0.031266  0.377923  0.524866  1
  I  I28  1  0.380559  0.815716  0.567142  1
  I  I29  1  0.306802  0.932414  0.082300  1
  I  I30  1  0.880559  0.184284  0.067142  1
  I  I31  1  0.619441  0.184284  0.432858  1
  I  I32  1  0.684284  0.932858  0.380559  1
  I  I33  1  0.432858  0.619441  0.184284  1
  I  I34  1  0.366801  0.133199  0.366801  1
  I  I35  1  0.582300  0.693198  0.432414  1
  I  I36  1  0.567142  0.119441  0.684284  1
  I  I37  1  0.932858  0.119441  0.815716  1
  I  I38  1  0.133199  0.366801  0.366801  1
  I  I39  1  0.432414  0.582300  0.693198  1
  I  I40  1  0.119441  0.684284  0.567142  1
  I  I41  1  0.184284  0.432858  0.619441  1
  I  I42  1  0.917700  0.693198  0.067586  1
  I  I43  1  0.806802  0.067586  0.582300  1
  I  I44  1  0.567586  0.082300  0.193198  1
  I  I45  1  0.633199  0.633199  0.866801  1
  I  I46  1  0.806802  0.432414  0.917700  1
  I  I47  1  0.693198  0.432414  0.582300  1
  I  I48  1  0.366801  0.366801  0.133199  1
  I  I49  1  0.866801  0.633199  0.633199  1
  I  I50  1  0.193198  0.567586  0.082300  1
  I  I51  1  0.633199  0.866801  0.633199  1
  I  I52  1  0.119441  0.815716  0.932858  1
  I  I53  1  0.880559  0.315716  0.432858  1
  I  I54  1  0.193198  0.932414  0.417700  1
  I  I55  1  0.315716  0.067142  0.619441  1
  I  I56  1  0.432858  0.880559  0.315716  1
  I  I57  1  0.932414  0.082300  0.306802  1
  I  I58  1  0.582300  0.806802  0.067586  1
  I  I59  1  0.133199  0.133199  0.133199  1
  I  I60  1  0.067142  0.619441  0.315716  1
  I  I61  1  0.866801  0.866801  0.866801  1
  I  I62  1  0.306802  0.567586  0.417700  1
  I  I63  1  0.567142  0.380559  0.815716  1
  I  I64  1  0.184284  0.067142  0.880559  1
  I  I65  1  0.432414  0.917700  0.806802  1
  I  I66  1  0.082300  0.306802  0.932414  1
  I  I67  1  0.315716  0.432858  0.880559  1
  I  I68  1  0.693198  0.067586  0.917700  1
  I  I69  1  0.917700  0.806802  0.432414  1
  I  I70  1  0.067142  0.880559  0.184284  1
  I  I71  1  0.067586  0.917700  0.693198  1
  I  I72  1  0.815716  0.567142  0.380559  1
  I  I73  1  0.417700  0.306802  0.567586  1
  I  I74  1  0.567586  0.417700  0.306802  1
  I  I75  1  0.380559  0.684284  0.932858  1
  I  I76  1  0.067586  0.582300  0.806802  1
  I  I77  1  0.932414  0.417700  0.193198  1
  I  I78  1  0.684284  0.567142  0.119441  1
  I  I79  1  0.082300  0.193198  0.567586  1
  I  I80  1  0.815716  0.932858  0.119441  1
  I  I81  1  0.619441  0.315716  0.067142  1
  I  I82  1  0.417700  0.193198  0.932414  1
  I  I83  1  0.932858  0.380559  0.684284  1
