# generated using pymatgen
data_Ca4TiRh7
_symmetry_space_group_name_H-M   'P 1'
_cell_length_a   5.53068900
_cell_length_b   5.53068810
_cell_length_c   8.33917600
_cell_angle_alpha   90.00000000
_cell_angle_beta   90.00000000
_cell_angle_gamma   119.99998745
_symmetry_Int_Tables_number   1
_chemical_formula_structural   Ca4TiRh7
_chemical_formula_sum   'Ca4 Ti1 Rh7'
_cell_volume   220.90840082
_cell_formula_units_Z   1
loop_
 _symmetry_equiv_pos_site_id
 _symmetry_equiv_pos_as_xyz
  1  'x, y, z'
loop_
 _atom_site_type_symbol
 _atom_site_label
 _atom_site_symmetry_multiplicity
 _atom_site_fract_x
 _atom_site_fract_y
 _atom_site_fract_z
 _atom_site_occupancy
  Ca  Ca0  1  0.333333  0.666667  0.060480  1
  Ca  Ca1  1  0.666667  0.333333  0.573419  1
  Ca  Ca2  1  0.666667  0.333333  0.939520  1
  Ca  Ca3  1  0.333333  0.666667  0.426581  1
  Ti  Ti4  1  0.000000  0.000000  0.500000  1
  Rh  Rh5  1  0.000000  0.000000  0.000000  1
  Rh  Rh6  1  0.829576  0.659152  0.257676  1
  Rh  Rh7  1  0.170424  0.829576  0.742324  1
  Rh  Rh8  1  0.659152  0.829576  0.742324  1
  Rh  Rh9  1  0.340848  0.170424  0.257676  1
  Rh  Rh10  1  0.829576  0.170424  0.257676  1
  Rh  Rh11  1  0.170424  0.340848  0.742324  1
