# generated using pymatgen
data_Nd4Al17SiPdRh5
_symmetry_space_group_name_H-M   'P 1'
_cell_length_a   7.62979646
_cell_length_b   7.62923699
_cell_length_c   9.54722308
_cell_angle_alpha   89.98835371
_cell_angle_beta   89.98442010
_cell_angle_gamma   119.53105672
_symmetry_Int_Tables_number   1
_chemical_formula_structural   Nd4Al17SiPdRh5
_chemical_formula_sum   'Nd4 Al17 Si1 Pd1 Rh5'
_cell_volume   483.54242680
_cell_formula_units_Z   1
loop_
 _symmetry_equiv_pos_site_id
 _symmetry_equiv_pos_as_xyz
  1  'x, y, z'
loop_
 _atom_site_type_symbol
 _atom_site_label
 _atom_site_symmetry_multiplicity
 _atom_site_fract_x
 _atom_site_fract_y
 _atom_site_fract_z
 _atom_site_occupancy
  Nd  Nd0  1  0.992736  0.673565  0.749946  1
  Nd  Nd1  1  0.003208  0.329507  0.250446  1
  Nd  Nd2  1  0.675555  0.995392  0.749623  1
  Nd  Nd3  1  0.331139  0.005694  0.250092  1
  Al  Al4  1  0.872561  0.871646  0.249318  1
  Al  Al5  1  0.007670  0.336700  0.576924  1
  Al  Al6  1  0.001265  0.669723  0.425190  1
  Al  Al7  1  0.998717  0.665309  0.073132  1
  Al  Al8  1  0.336694  0.001442  0.925572  1
  Al  Al9  1  0.002643  0.336650  0.925041  1
  Al  Al10  1  0.665329  0.997546  0.073654  1
  Al  Al11  1  0.665063  0.992652  0.424586  1
  Al  Al12  1  0.332446  0.999145  0.576341  1
  Al  Al13  1  0.333164  0.333362  0.049625  1
  Al  Al14  1  0.664063  0.664133  0.954535  1
  Al  Al15  1  0.662712  0.665949  0.549048  1
  Al  Al16  1  0.331449  0.334799  0.446463  1
  Al  Al17  1  0.337468  0.548965  0.750653  1
  Al  Al18  1  0.660554  0.455559  0.246273  1
  Al  Al19  1  0.543924  0.336217  0.753671  1
  Al  Al20  1  0.451659  0.659827  0.249475  1
  Si  Si21  1  0.131722  0.130584  0.750446  1
  Pd  Pd22  1  0.670301  0.326826  0.500699  1
  Rh  Rh23  1  0.327795  0.669745  0.500675  1
  Rh  Rh24  1  0.327815  0.669703  0.999451  1
  Rh  Rh25  1  0.669978  0.327347  0.999400  1
  Rh  Rh26  1  0.001096  0.001132  0.505995  1
  Rh  Rh27  1  0.001271  0.000882  0.993723  1
