# generated using pymatgen
data_CsTb6Er4(C2Br9)2
_symmetry_space_group_name_H-M   'P 1'
_cell_length_a   10.70904902
_cell_length_b   10.78765244
_cell_length_c   10.89343309
_cell_angle_alpha   113.33720498
_cell_angle_beta   87.43209893
_cell_angle_gamma   118.94465668
_symmetry_Int_Tables_number   1
_chemical_formula_structural   CsTb6Er4(C2Br9)2
_chemical_formula_sum   'Cs1 Tb6 Er4 C4 Br18'
_cell_volume   994.12851170
_cell_formula_units_Z   1
loop_
 _symmetry_equiv_pos_site_id
 _symmetry_equiv_pos_as_xyz
  1  'x, y, z'
loop_
 _atom_site_type_symbol
 _atom_site_label
 _atom_site_symmetry_multiplicity
 _atom_site_fract_x
 _atom_site_fract_y
 _atom_site_fract_z
 _atom_site_occupancy
  Cs  Cs0  1  0.499962  0.999731  0.499900  1
  Tb  Tb1  1  0.907101  0.592920  0.698667  1
  Tb  Tb2  1  0.111931  0.942148  0.001118  1
  Tb  Tb3  1  0.040240  0.963596  0.666120  1
  Tb  Tb4  1  0.337690  0.283007  0.297881  1
  Tb  Tb5  1  0.717139  0.635492  0.988384  1
  Tb  Tb6  1  0.888117  0.058364  0.999161  1
  Er  Er7  1  0.664672  0.718138  0.704158  1
  Er  Er8  1  0.280556  0.362567  0.013112  1
  Er  Er9  1  0.093573  0.404363  0.299309  1
  Er  Er10  1  0.960870  0.037472  0.331511  1
  C  C11  1  0.156878  0.229343  0.124423  1
  C  C12  1  0.841548  0.771377  0.875346  1
  C  C13  1  0.920465  0.850518  0.794782  1
  C  C14  1  0.077808  0.149922  0.205064  1
  Br  Br15  1  0.450632  0.530715  0.832908  1
  Br  Br16  1  0.384254  0.039002  0.159603  1
  Br  Br17  1  0.776856  0.856931  0.501123  1
  Br  Br18  1  0.840509  0.313304  0.156479  1
  Br  Br19  1  0.546237  0.468423  0.165268  1
  Br  Br20  1  0.219927  0.142243  0.496958  1
  Br  Br21  1  0.315475  0.101808  0.831089  1
  Br  Br22  1  0.687335  0.902663  0.173014  1
  Br  Br23  1  0.975076  0.763450  0.174943  1
  Br  Br24  1  0.934020  0.300255  0.498234  1
  Br  Br25  1  0.028091  0.241531  0.829356  1
  Br  Br26  1  0.067896  0.696893  0.497757  1
  Br  Br27  1  0.259255  0.619106  0.186097  1
  Br  Br28  1  0.739436  0.375880  0.812943  1
  Br  Br29  1  0.638351  0.436438  0.501317  1
  Br  Br30  1  0.162647  0.688640  0.845904  1
  Br  Br31  1  0.616160  0.957342  0.838316  1
  Br  Br32  1  0.359291  0.566419  0.499757  1
