# generated using pymatgen
data_Ba4Sm(ReO6)2
_symmetry_space_group_name_H-M   'P 1'
_cell_length_a   10.21502889
_cell_length_b   10.21502905
_cell_length_c   10.21502919
_cell_angle_alpha   33.74804568
_cell_angle_beta   33.74804273
_cell_angle_gamma   33.74804515
_symmetry_Int_Tables_number   1
_chemical_formula_structural   Ba4Sm(ReO6)2
_chemical_formula_sum   'Ba4 Sm1 Re2 O12'
_cell_volume   293.11084859
_cell_formula_units_Z   1
loop_
 _symmetry_equiv_pos_site_id
 _symmetry_equiv_pos_as_xyz
  1  'x, y, z'
loop_
 _atom_site_type_symbol
 _atom_site_label
 _atom_site_symmetry_multiplicity
 _atom_site_fract_x
 _atom_site_fract_y
 _atom_site_fract_z
 _atom_site_occupancy
  Ba  Ba0  1  0.713393  0.713393  0.713393  1
  Ba  Ba1  1  0.286607  0.286607  0.286607  1
  Ba  Ba2  1  0.864782  0.864782  0.864782  1
  Ba  Ba3  1  0.135218  0.135218  0.135218  1
  Sm  Sm4  1  0.000000  0.000000  0.000000  1
  Re  Re5  1  0.578052  0.578052  0.578052  1
  Re  Re6  1  0.421948  0.421948  0.421948  1
  O  O7  1  0.227577  0.683607  0.227577  1
  O  O8  1  0.227577  0.227577  0.683607  1
  O  O9  1  0.683607  0.227577  0.227577  1
  O  O10  1  0.772423  0.316393  0.772423  1
  O  O11  1  0.772423  0.772423  0.316393  1
  O  O12  1  0.316393  0.772423  0.772423  1
  O  O13  1  0.388471  0.857554  0.388471  1
  O  O14  1  0.388471  0.388471  0.857554  1
  O  O15  1  0.857554  0.388471  0.388471  1
  O  O16  1  0.611529  0.142446  0.611529  1
  O  O17  1  0.611529  0.611529  0.142446  1
  O  O18  1  0.142446  0.611529  0.611529  1
