# generated using pymatgen
data_Yb6Y2Si12PdPt3
_symmetry_space_group_name_H-M   'P 1'
_cell_length_a   8.19824000
_cell_length_b   8.19823991
_cell_length_c   8.19100600
_cell_angle_alpha   90.00000000
_cell_angle_beta   90.00000000
_cell_angle_gamma   120.00000037
_symmetry_Int_Tables_number   1
_chemical_formula_structural   Yb6Y2Si12PdPt3
_chemical_formula_sum   'Yb6 Y2 Si12 Pd1 Pt3'
_cell_volume   476.77022490
_cell_formula_units_Z   1
loop_
 _symmetry_equiv_pos_site_id
 _symmetry_equiv_pos_as_xyz
  1  'x, y, z'
loop_
 _atom_site_type_symbol
 _atom_site_label
 _atom_site_symmetry_multiplicity
 _atom_site_fract_x
 _atom_site_fract_y
 _atom_site_fract_z
 _atom_site_occupancy
  Yb  Yb0  1  0.500315  0.000630  0.250011  1
  Yb  Yb1  1  0.500769  0.001537  0.750326  1
  Yb  Yb2  1  0.999370  0.499685  0.250011  1
  Yb  Yb3  1  0.998463  0.499231  0.750326  1
  Yb  Yb4  1  0.500315  0.499685  0.250011  1
  Yb  Yb5  1  0.500769  0.499231  0.750326  1
  Y  Y6  1  0.000000  0.000000  0.250083  1
  Y  Y7  1  0.000000  0.000000  0.749335  1
  Si  Si8  1  0.165079  0.330157  0.999193  1
  Si  Si9  1  0.835171  0.670342  0.000633  1
  Si  Si10  1  0.669843  0.834921  0.999193  1
  Si  Si11  1  0.835181  0.670361  0.499356  1
  Si  Si12  1  0.329658  0.164829  0.000633  1
  Si  Si13  1  0.164507  0.329014  0.500691  1
  Si  Si14  1  0.165079  0.834921  0.999193  1
  Si  Si15  1  0.329639  0.164819  0.499356  1
  Si  Si16  1  0.835171  0.164829  0.000633  1
  Si  Si17  1  0.670986  0.835493  0.500691  1
  Si  Si18  1  0.835181  0.164819  0.499356  1
  Si  Si19  1  0.164507  0.835493  0.500691  1
  Pd  Pd20  1  0.333333  0.666667  0.501228  1
  Pt  Pt21  1  0.333333  0.666667  0.999280  1
  Pt  Pt22  1  0.666667  0.333333  0.000486  1
  Pt  Pt23  1  0.666667  0.333333  0.498961  1
