# generated using pymatgen
data_Na3Si4Pt3Rh
_symmetry_space_group_name_H-M   'P 1'
_cell_length_a   6.38405066
_cell_length_b   6.50855208
_cell_length_c   6.50855249
_cell_angle_alpha   109.85545486
_cell_angle_beta   109.08417865
_cell_angle_gamma   109.08420040
_symmetry_Int_Tables_number   1
_chemical_formula_structural   Na3Si4Pt3Rh
_chemical_formula_sum   'Na3 Si4 Pt3 Rh1'
_cell_volume   209.16808332
_cell_formula_units_Z   1
loop_
 _symmetry_equiv_pos_site_id
 _symmetry_equiv_pos_as_xyz
  1  'x, y, z'
loop_
 _atom_site_type_symbol
 _atom_site_label
 _atom_site_symmetry_multiplicity
 _atom_site_fract_x
 _atom_site_fract_y
 _atom_site_fract_z
 _atom_site_occupancy
  Na  Na0  1  0.498188  0.499696  0.000000  1
  Na  Na1  1  0.498188  0.000000  0.499696  1
  Na  Na2  1  0.998492  0.500304  0.500304  1
  Si  Si3  1  0.366537  0.000000  0.000000  1
  Si  Si4  1  0.994787  0.357625  0.000000  1
  Si  Si5  1  0.994787  0.000000  0.357625  1
  Si  Si6  1  0.637163  0.642375  0.642375  1
  Pt  Pt7  1  0.000545  0.713638  0.000000  1
  Pt  Pt8  1  0.286908  0.286363  0.286363  1
  Pt  Pt9  1  0.000545  0.000000  0.713638  1
  Rh  Rh10  1  0.723861  0.000000  0.000000  1
