# generated using pymatgen
data_Hf3Sc(Nb3Si4)2
_symmetry_space_group_name_H-M   'P 1'
_cell_length_a   6.87530778
_cell_length_b   6.87593240
_cell_length_c   12.73423800
_cell_angle_alpha   90.00000000
_cell_angle_beta   90.00000000
_cell_angle_gamma   89.99851823
_symmetry_Int_Tables_number   1
_chemical_formula_structural   Hf3Sc(Nb3Si4)2
_chemical_formula_sum   'Hf6 Sc2 Nb12 Si16'
_cell_volume   602.00029665
_cell_formula_units_Z   2
loop_
 _symmetry_equiv_pos_site_id
 _symmetry_equiv_pos_as_xyz
  1  'x, y, z'
loop_
 _atom_site_type_symbol
 _atom_site_label
 _atom_site_symmetry_multiplicity
 _atom_site_fract_x
 _atom_site_fract_y
 _atom_site_fract_z
 _atom_site_occupancy
  Hf  Hf0  1  0.160531  0.500833  0.467872  1
  Hf  Hf1  1  0.498970  0.839673  0.031260  1
  Hf  Hf2  1  0.839469  0.499167  0.967872  1
  Hf  Hf3  1  0.501030  0.160327  0.531260  1
  Hf  Hf4  1  0.341678  0.003676  0.781801  1
  Hf  Hf5  1  0.658322  0.996324  0.281801  1
  Sc  Sc6  1  0.000582  0.339114  0.218953  1
  Sc  Sc7  1  0.999418  0.660886  0.718953  1
  Nb  Nb8  1  0.170300  0.170166  0.999627  1
  Nb  Nb9  1  0.829700  0.829834  0.499627  1
  Nb  Nb10  1  0.331542  0.670510  0.249845  1
  Nb  Nb11  1  0.668458  0.329490  0.749845  1
  Nb  Nb12  1  0.153342  0.996205  0.376287  1
  Nb  Nb13  1  0.846658  0.003795  0.876287  1
  Nb  Nb14  1  0.503462  0.652233  0.625601  1
  Nb  Nb15  1  0.348175  0.496133  0.874603  1
  Nb  Nb16  1  0.496538  0.347767  0.125601  1
  Nb  Nb17  1  0.651825  0.503867  0.374603  1
  Nb  Nb18  1  0.996263  0.152375  0.623996  1
  Nb  Nb19  1  0.003737  0.847625  0.123996  1
  Si  Si20  1  0.299854  0.043995  0.186274  1
  Si  Si21  1  0.700146  0.956005  0.686274  1
  Si  Si22  1  0.455691  0.799975  0.436895  1
  Si  Si23  1  0.198757  0.543138  0.063704  1
  Si  Si24  1  0.544309  0.200025  0.936895  1
  Si  Si25  1  0.801243  0.456862  0.563704  1
  Si  Si26  1  0.042926  0.301227  0.813179  1
  Si  Si27  1  0.957074  0.698773  0.313179  1
  Si  Si28  1  0.364217  0.292130  0.322324  1
  Si  Si29  1  0.635783  0.707870  0.822324  1
  Si  Si30  1  0.206427  0.862966  0.572207  1
  Si  Si31  1  0.136690  0.793755  0.928199  1
  Si  Si32  1  0.793573  0.137034  0.072207  1
  Si  Si33  1  0.863310  0.206245  0.428199  1
  Si  Si34  1  0.292008  0.364437  0.677372  1
  Si  Si35  1  0.707992  0.635563  0.177372  1
