# generated using pymatgen
data_LaHo2MoO7
_symmetry_space_group_name_H-M   'P 1'
_cell_length_a   6.49277095
_cell_length_b   6.49277084
_cell_length_c   7.61175300
_cell_angle_alpha   90.00000000
_cell_angle_beta   90.00000000
_cell_angle_gamma   108.85135592
_symmetry_Int_Tables_number   1
_chemical_formula_structural   LaHo2MoO7
_chemical_formula_sum   'La2 Ho4 Mo2 O14'
_cell_volume   303.66953944
_cell_formula_units_Z   2
loop_
 _symmetry_equiv_pos_site_id
 _symmetry_equiv_pos_as_xyz
  1  'x, y, z'
loop_
 _atom_site_type_symbol
 _atom_site_label
 _atom_site_symmetry_multiplicity
 _atom_site_fract_x
 _atom_site_fract_y
 _atom_site_fract_z
 _atom_site_occupancy
  La  La0  1  0.500000  0.500000  0.500000  1
  La  La1  1  0.500000  0.500000  0.000000  1
  Ho  Ho2  1  0.534521  0.001415  0.750000  1
  Ho  Ho3  1  0.001415  0.534521  0.250000  1
  Ho  Ho4  1  0.465479  0.998585  0.250000  1
  Ho  Ho5  1  0.998585  0.465479  0.750000  1
  Mo  Mo6  1  0.000000  0.000000  0.500000  1
  Mo  Mo7  1  0.000000  0.000000  0.000000  1
  O  O8  1  0.680020  0.931540  0.469671  1
  O  O9  1  0.931540  0.680020  0.530329  1
  O  O10  1  0.680020  0.931540  0.030329  1
  O  O11  1  0.931540  0.680020  0.969671  1
  O  O12  1  0.319980  0.068460  0.530329  1
  O  O13  1  0.068460  0.319980  0.469671  1
  O  O14  1  0.319980  0.068460  0.969671  1
  O  O15  1  0.068460  0.319980  0.030329  1
  O  O16  1  0.928997  0.071003  0.750000  1
  O  O17  1  0.071003  0.928997  0.250000  1
  O  O18  1  0.360248  0.639752  0.750000  1
  O  O19  1  0.639752  0.360248  0.250000  1
  O  O20  1  0.643556  0.356444  0.750000  1
  O  O21  1  0.356444  0.643556  0.250000  1
