# generated using pymatgen
data_Dy4HoSc5(In2Rh)4
_symmetry_space_group_name_H-M   'P 1'
_cell_length_a   3.53810700
_cell_length_b   7.84881711
_cell_length_c   17.85599979
_cell_angle_alpha   89.85188104
_cell_angle_beta   90.00000000
_cell_angle_gamma   90.00000000
_symmetry_Int_Tables_number   1
_chemical_formula_structural   Dy4HoSc5(In2Rh)4
_chemical_formula_sum   'Dy4 Ho1 Sc5 In8 Rh4'
_cell_volume   495.85864928
_cell_formula_units_Z   1
loop_
 _symmetry_equiv_pos_site_id
 _symmetry_equiv_pos_as_xyz
  1  'x, y, z'
loop_
 _atom_site_type_symbol
 _atom_site_label
 _atom_site_symmetry_multiplicity
 _atom_site_fract_x
 _atom_site_fract_y
 _atom_site_fract_z
 _atom_site_occupancy
  Dy  Dy0  1  0.000000  0.999924  0.000120  1
  Dy  Dy1  1  0.000000  0.749049  0.781093  1
  Dy  Dy2  1  0.000000  0.251144  0.219075  1
  Dy  Dy3  1  0.000000  0.251586  0.715107  1
  Ho  Ho4  1  0.000000  0.748397  0.284770  1
  Sc  Sc5  1  0.000000  0.500070  0.499977  1
  Sc  Sc6  1  0.000000  0.880848  0.587096  1
  Sc  Sc7  1  0.000000  0.118978  0.412566  1
  Sc  Sc8  1  0.000000  0.376912  0.909949  1
  Sc  Sc9  1  0.000000  0.623128  0.090259  1
  In  In10  1  0.500000  0.800515  0.441322  1
  In  In11  1  0.500000  0.199628  0.558306  1
  In  In12  1  0.500000  0.311902  0.060817  1
  In  In13  1  0.500000  0.687876  0.939348  1
  In  In14  1  0.500000  0.923214  0.151411  1
  In  In15  1  0.500000  0.076560  0.848703  1
  In  In16  1  0.500000  0.423146  0.355246  1
  In  In17  1  0.500000  0.577616  0.644755  1
  Rh  Rh18  1  0.500000  0.964101  0.690584  1
  Rh  Rh19  1  0.500000  0.034633  0.309127  1
  Rh  Rh20  1  0.500000  0.463674  0.805865  1
  Rh  Rh21  1  0.500000  0.537099  0.194504  1
