# generated using pymatgen
data_LaTh3(PRh)4
_symmetry_space_group_name_H-M   'P 1'
_cell_length_a   4.21922500
_cell_length_b   7.87880931
_cell_length_c   7.23917204
_cell_angle_alpha   90.20136037
_cell_angle_beta   90.00000000
_cell_angle_gamma   90.00000000
_symmetry_Int_Tables_number   1
_chemical_formula_structural   LaTh3(PRh)4
_chemical_formula_sum   'La1 Th3 P4 Rh4'
_cell_volume   240.64646763
_cell_formula_units_Z   1
loop_
 _symmetry_equiv_pos_site_id
 _symmetry_equiv_pos_as_xyz
  1  'x, y, z'
loop_
 _atom_site_type_symbol
 _atom_site_label
 _atom_site_symmetry_multiplicity
 _atom_site_fract_x
 _atom_site_fract_y
 _atom_site_fract_z
 _atom_site_occupancy
  La  La0  1  0.250000  0.999723  0.750916  1
  Th  Th1  1  0.250000  0.500124  0.749721  1
  Th  Th2  1  0.750000  0.000447  0.249111  1
  Th  Th3  1  0.750000  0.500837  0.250395  1
  P  P4  1  0.250000  0.762518  0.416658  1
  P  P5  1  0.250000  0.242474  0.083220  1
  P  P6  1  0.750000  0.248746  0.582714  1
  P  P7  1  0.750000  0.752678  0.917110  1
  Rh  Rh8  1  0.250000  0.259374  0.415915  1
  Rh  Rh9  1  0.250000  0.736642  0.084274  1
  Rh  Rh10  1  0.750000  0.734547  0.577900  1
  Rh  Rh11  1  0.750000  0.261889  0.922067  1
