# generated using pymatgen
data_Er11Lu9(Bi2Rh)4
_symmetry_space_group_name_H-M   'P 1'
_cell_length_a   7.88041137
_cell_length_b   8.94192900
_cell_length_c   12.32805857
_cell_angle_alpha   90.00000000
_cell_angle_beta   89.96509632
_cell_angle_gamma   90.00000000
_symmetry_Int_Tables_number   1
_chemical_formula_structural   Er11Lu9(Bi2Rh)4
_chemical_formula_sum   'Er11 Lu9 Bi8 Rh4'
_cell_volume   868.70978709
_cell_formula_units_Z   1
loop_
 _symmetry_equiv_pos_site_id
 _symmetry_equiv_pos_as_xyz
  1  'x, y, z'
loop_
 _atom_site_type_symbol
 _atom_site_label
 _atom_site_symmetry_multiplicity
 _atom_site_fract_x
 _atom_site_fract_y
 _atom_site_fract_z
 _atom_site_occupancy
  Er  Er0  1  0.337713  0.250000  0.292313  1
  Er  Er1  1  0.162285  0.250000  0.792330  1
  Er  Er2  1  0.837562  0.750000  0.207666  1
  Er  Er3  1  0.125039  0.750000  0.809352  1
  Er  Er4  1  0.874689  0.250000  0.190586  1
  Er  Er5  1  0.625379  0.250000  0.690630  1
  Er  Er6  1  0.374591  0.750000  0.309395  1
  Er  Er7  1  0.549511  0.750000  0.998363  1
  Er  Er8  1  0.450586  0.250000  0.001388  1
  Er  Er9  1  0.049280  0.250000  0.501460  1
  Er  Er10  1  0.950102  0.750000  0.498844  1
  Lu  Lu11  1  0.662182  0.750000  0.707082  1
  Lu  Lu12  1  0.826035  0.456209  0.933694  1
  Lu  Lu13  1  0.173897  0.544003  0.066145  1
  Lu  Lu14  1  0.326334  0.544223  0.566316  1
  Lu  Lu15  1  0.173897  0.955997  0.066145  1
  Lu  Lu16  1  0.673855  0.456217  0.433840  1
  Lu  Lu17  1  0.826035  0.043791  0.933694  1
  Lu  Lu18  1  0.673855  0.043783  0.433840  1
  Lu  Lu19  1  0.326334  0.955777  0.566316  1
  Bi  Bi20  1  0.934140  0.008514  0.673449  1
  Bi  Bi21  1  0.065491  0.991187  0.326638  1
  Bi  Bi22  1  0.434915  0.990826  0.826430  1
  Bi  Bi23  1  0.065491  0.508813  0.326638  1
  Bi  Bi24  1  0.565491  0.008777  0.173338  1
  Bi  Bi25  1  0.934140  0.491486  0.673449  1
  Bi  Bi26  1  0.565491  0.491223  0.173338  1
  Bi  Bi27  1  0.434915  0.509174  0.826430  1
  Rh  Rh28  1  0.925609  0.750000  0.990448  1
  Rh  Rh29  1  0.074577  0.250000  0.009598  1
  Rh  Rh30  1  0.425634  0.250000  0.509633  1
  Rh  Rh31  1  0.574945  0.750000  0.491210  1
