# generated using pymatgen
data_Nb20Al9Au
_symmetry_space_group_name_H-M   'P 1'
_cell_length_a   9.98400287
_cell_length_b   9.98400287
_cell_length_c   5.22538500
_cell_angle_alpha   90.00000000
_cell_angle_beta   90.00000000
_cell_angle_gamma   89.40437159
_symmetry_Int_Tables_number   1
_chemical_formula_structural   Nb20Al9Au
_chemical_formula_sum   'Nb20 Al9 Au1'
_cell_volume   520.83986921
_cell_formula_units_Z   1
loop_
 _symmetry_equiv_pos_site_id
 _symmetry_equiv_pos_as_xyz
  1  'x, y, z'
loop_
 _atom_site_type_symbol
 _atom_site_label
 _atom_site_symmetry_multiplicity
 _atom_site_fract_x
 _atom_site_fract_y
 _atom_site_fract_z
 _atom_site_occupancy
  Nb  Nb0  1  0.396917  0.396917  0.000000  1
  Nb  Nb1  1  0.896765  0.103235  0.500000  1
  Nb  Nb2  1  0.103235  0.896765  0.500000  1
  Nb  Nb3  1  0.603083  0.603083  0.000000  1
  Nb  Nb4  1  0.127728  0.463719  0.000000  1
  Nb  Nb5  1  0.965765  0.370769  0.500000  1
  Nb  Nb6  1  0.034235  0.629231  0.500000  1
  Nb  Nb7  1  0.872272  0.536281  0.000000  1
  Nb  Nb8  1  0.370769  0.965765  0.500000  1
  Nb  Nb9  1  0.629231  0.034235  0.500000  1
  Nb  Nb10  1  0.463719  0.127728  0.000000  1
  Nb  Nb11  1  0.536281  0.872272  0.000000  1
  Nb  Nb12  1  0.183536  0.183536  0.252797  1
  Nb  Nb13  1  0.681885  0.318115  0.752592  1
  Nb  Nb14  1  0.318115  0.681885  0.752592  1
  Nb  Nb15  1  0.816464  0.816464  0.252797  1
  Nb  Nb16  1  0.318115  0.681885  0.247408  1
  Nb  Nb17  1  0.681885  0.318115  0.247408  1
  Nb  Nb18  1  0.183536  0.183536  0.747203  1
  Nb  Nb19  1  0.816464  0.816464  0.747203  1
  Al  Al20  1  0.500000  0.500000  0.500000  1
  Al  Al21  1  0.260200  0.933376  0.000000  1
  Al  Al22  1  0.434138  0.238792  0.500000  1
  Al  Al23  1  0.565862  0.761208  0.500000  1
  Al  Al24  1  0.739800  0.066624  0.000000  1
  Al  Al25  1  0.238792  0.434138  0.500000  1
  Al  Al26  1  0.761208  0.565862  0.500000  1
  Al  Al27  1  0.933376  0.260200  0.000000  1
  Al  Al28  1  0.066624  0.739800  0.000000  1
  Au  Au29  1  0.000000  0.000000  0.000000  1
