# generated using pymatgen
data_Y14Er2MgCo4Hg3
_symmetry_space_group_name_H-M   'P 1'
_cell_length_a   9.54138593
_cell_length_b   9.51316270
_cell_length_c   9.51996900
_cell_angle_alpha   59.97633339
_cell_angle_beta   60.07422767
_cell_angle_gamma   60.04729874
_symmetry_Int_Tables_number   1
_chemical_formula_structural   Y14Er2MgCo4Hg3
_chemical_formula_sum   'Y14 Er2 Mg1 Co4 Hg3'
_cell_volume   611.47295943
_cell_formula_units_Z   1
loop_
 _symmetry_equiv_pos_site_id
 _symmetry_equiv_pos_as_xyz
  1  'x, y, z'
loop_
 _atom_site_type_symbol
 _atom_site_label
 _atom_site_symmetry_multiplicity
 _atom_site_fract_x
 _atom_site_fract_y
 _atom_site_fract_z
 _atom_site_occupancy
  Y  Y0  1  0.348286  0.961370  0.345172  1
  Y  Y1  1  0.951225  0.350151  0.349311  1
  Y  Y2  1  0.808242  0.189616  0.190887  1
  Y  Y3  1  0.185708  0.811847  0.813652  1
  Y  Y4  1  0.185708  0.811847  0.188793  1
  Y  Y5  1  0.808242  0.189616  0.811255  1
  Y  Y6  1  0.186741  0.188281  0.812489  1
  Y  Y7  1  0.809232  0.810766  0.190002  1
  Y  Y8  1  0.938351  0.561276  0.561461  1
  Y  Y9  1  0.560536  0.939312  0.937782  1
  Y  Y10  1  0.560536  0.939312  0.562370  1
  Y  Y11  1  0.938351  0.561276  0.938913  1
  Y  Y12  1  0.560143  0.561770  0.939044  1
  Y  Y13  1  0.936996  0.939210  0.561898  1
  Er  Er14  1  0.346806  0.344947  0.343654  1
  Er  Er15  1  0.346806  0.344947  0.964592  1
  Mg  Mg16  1  0.285533  0.570766  0.571850  1
  Co  Co17  1  0.140395  0.144000  0.140139  1
  Co  Co18  1  0.140395  0.144000  0.575465  1
  Co  Co19  1  0.142020  0.574361  0.141810  1
  Co  Co20  1  0.574509  0.144295  0.140597  1
  Hg  Hg21  1  0.581705  0.585179  0.585699  1
  Hg  Hg22  1  0.581705  0.585179  0.247418  1
  Hg  Hg23  1  0.581829  0.246678  0.585747  1
