# generated using pymatgen
data_Er3AgPtRh3O14
_symmetry_space_group_name_H-M   'P 1'
_cell_length_a   7.29606104
_cell_length_b   7.29606060
_cell_length_c   7.12060348
_cell_angle_alpha   59.18147979
_cell_angle_beta   59.18148235
_cell_angle_gamma   60.00000106
_symmetry_Int_Tables_number   1
_chemical_formula_structural   Er3AgPtRh3O14
_chemical_formula_sum   'Er3 Ag1 Pt1 Rh3 O14'
_cell_volume   264.66307999
_cell_formula_units_Z   1
loop_
 _symmetry_equiv_pos_site_id
 _symmetry_equiv_pos_as_xyz
  1  'x, y, z'
loop_
 _atom_site_type_symbol
 _atom_site_label
 _atom_site_symmetry_multiplicity
 _atom_site_fract_x
 _atom_site_fract_y
 _atom_site_fract_z
 _atom_site_occupancy
  Er  Er0  1  0.625000  0.625000  0.625000  1
  Er  Er1  1  0.625000  0.125000  0.625000  1
  Er  Er2  1  0.125000  0.625000  0.625000  1
  Ag  Ag3  1  0.625000  0.625000  0.125000  1
  Pt  Pt4  1  0.125000  0.125000  0.625000  1
  Rh  Rh5  1  0.625000  0.125000  0.125000  1
  Rh  Rh6  1  0.125000  0.125000  0.125000  1
  Rh  Rh7  1  0.125000  0.625000  0.125000  1
  O  O8  1  0.032276  0.465064  0.470383  1
  O  O9  1  0.797546  0.797546  0.210972  1
  O  O10  1  0.797546  0.193937  0.210972  1
  O  O11  1  0.747365  0.747365  0.757905  1
  O  O12  1  0.056063  0.452454  0.039028  1
  O  O13  1  0.465064  0.032276  0.470383  1
  O  O14  1  0.032276  0.032276  0.470383  1
  O  O15  1  0.502635  0.502635  0.492095  1
  O  O16  1  0.217724  0.217724  0.779617  1
  O  O17  1  0.193937  0.797546  0.210972  1
  O  O18  1  0.784936  0.217724  0.779617  1
  O  O19  1  0.452454  0.056063  0.039028  1
  O  O20  1  0.452454  0.452454  0.039028  1
  O  O21  1  0.217724  0.784936  0.779617  1
