# generated using pymatgen
data_Sm8Er12Si15Hg
_symmetry_space_group_name_H-M   'P 1'
_cell_length_a   7.43219338
_cell_length_b   7.73003381
_cell_length_c   14.72015671
_cell_angle_alpha   89.94327188
_cell_angle_beta   89.49503255
_cell_angle_gamma   90.15575419
_symmetry_Int_Tables_number   1
_chemical_formula_structural   Sm8Er12Si15Hg
_chemical_formula_sum   'Sm8 Er12 Si15 Hg1'
_cell_volume   845.65288112
_cell_formula_units_Z   1
loop_
 _symmetry_equiv_pos_site_id
 _symmetry_equiv_pos_as_xyz
  1  'x, y, z'
loop_
 _atom_site_type_symbol
 _atom_site_label
 _atom_site_symmetry_multiplicity
 _atom_site_fract_x
 _atom_site_fract_y
 _atom_site_fract_z
 _atom_site_occupancy
  Sm  Sm0  1  0.016616  0.178934  0.099076  1
  Sm  Sm1  1  0.982786  0.822146  0.903118  1
  Sm  Sm2  1  0.483482  0.679464  0.902784  1
  Sm  Sm3  1  0.985133  0.829687  0.599346  1
  Sm  Sm4  1  0.515662  0.320216  0.097944  1
  Sm  Sm5  1  0.011531  0.173301  0.397422  1
  Sm  Sm6  1  0.515107  0.319921  0.397955  1
  Sm  Sm7  1  0.492385  0.684665  0.600940  1
  Er  Er8  1  0.163398  0.508429  0.753197  1
  Er  Er9  1  0.836672  0.491595  0.250394  1
  Er  Er10  1  0.337052  0.007290  0.248958  1
  Er  Er11  1  0.665593  0.990128  0.751661  1
  Er  Er12  1  0.338184  0.169367  0.626626  1
  Er  Er13  1  0.666546  0.823864  0.375199  1
  Er  Er14  1  0.168702  0.677613  0.373188  1
  Er  Er15  1  0.672013  0.822489  0.122565  1
  Er  Er16  1  0.825399  0.325841  0.623420  1
  Er  Er17  1  0.326725  0.176339  0.877903  1
  Er  Er18  1  0.826616  0.321295  0.878078  1
  Er  Er19  1  0.171924  0.677663  0.123093  1
  Si  Si20  1  0.036464  0.116292  0.751622  1
  Si  Si21  1  0.963483  0.887813  0.248303  1
  Si  Si22  1  0.464682  0.611587  0.247984  1
  Si  Si23  1  0.535739  0.389444  0.752240  1
  Si  Si24  1  0.280110  0.874641  0.751886  1
  Si  Si25  1  0.717471  0.125903  0.247631  1
  Si  Si26  1  0.218552  0.372357  0.248186  1
  Si  Si27  1  0.783290  0.625638  0.752813  1
  Si  Si28  1  0.834570  0.535638  0.458757  1
  Si  Si29  1  0.340387  0.965298  0.460262  1
  Si  Si30  1  0.847194  0.533142  0.038449  1
  Si  Si31  1  0.658098  0.035522  0.537298  1
  Si  Si32  1  0.151790  0.465832  0.962415  1
  Si  Si33  1  0.652410  0.032349  0.961108  1
  Si  Si34  1  0.346611  0.967159  0.039384  1
  Hg  Hg35  1  0.167626  0.461135  0.538791  1
