# generated using pymatgen
data_Ba2Cu3F12
_symmetry_space_group_name_H-M   'P 1'
_cell_length_a   5.37114457
_cell_length_b   6.93061129
_cell_length_c   7.51107678
_cell_angle_alpha   64.21857053
_cell_angle_beta   70.91700969
_cell_angle_gamma   73.77240761
_symmetry_Int_Tables_number   1
_chemical_formula_structural   Ba2Cu3F12
_chemical_formula_sum   'Ba2 Cu3 F12'
_cell_volume   234.81939882
_cell_formula_units_Z   1
loop_
 _symmetry_equiv_pos_site_id
 _symmetry_equiv_pos_as_xyz
  1  'x, y, z'
loop_
 _atom_site_type_symbol
 _atom_site_label
 _atom_site_symmetry_multiplicity
 _atom_site_fract_x
 _atom_site_fract_y
 _atom_site_fract_z
 _atom_site_occupancy
  Ba  Ba0  1  0.293470  0.205997  0.240270  1
  Ba  Ba1  1  0.708266  0.794637  0.759223  1
  Cu  Cu2  1  0.499975  0.500203  0.500169  1
  Cu  Cu3  1  0.058096  0.776275  0.165758  1
  Cu  Cu4  1  0.942143  0.223305  0.833762  1
  F  F5  1  0.541304  0.217022  0.504172  1
  F  F6  1  0.458422  0.784278  0.496744  1
  F  F7  1  0.397041  0.610287  0.238594  1
  F  F8  1  0.602528  0.389359  0.762248  1
  F  F9  1  0.875688  0.525151  0.342099  1
  F  F10  1  0.122475  0.475004  0.658540  1
  F  F11  1  0.824728  0.344487  0.037168  1
  F  F12  1  0.175069  0.653686  0.963636  1
  F  F13  1  0.754392  0.966633  0.039234  1
  F  F14  1  0.245334  0.033781  0.958816  1
  F  F15  1  0.974133  0.906450  0.357372  1
  F  F16  1  0.026935  0.093448  0.642197  1
