# generated using pymatgen
data_Tb7Tc2Sn23Ir4
_symmetry_space_group_name_H-M   'P 1'
_cell_length_a   9.88572954
_cell_length_b   9.88572696
_cell_length_c   10.14483323
_cell_angle_alpha   89.70026529
_cell_angle_beta   90.29973509
_cell_angle_gamma   119.71859351
_symmetry_Int_Tables_number   1
_chemical_formula_structural   Tb7Tc2Sn23Ir4
_chemical_formula_sum   'Tb7 Tc2 Sn23 Ir4'
_cell_volume   861.01251601
_cell_formula_units_Z   1
loop_
 _symmetry_equiv_pos_site_id
 _symmetry_equiv_pos_as_xyz
  1  'x, y, z'
loop_
 _atom_site_type_symbol
 _atom_site_label
 _atom_site_symmetry_multiplicity
 _atom_site_fract_x
 _atom_site_fract_y
 _atom_site_fract_z
 _atom_site_occupancy
  Tb  Tb0  1  0.000000  0.000000  0.000000  1
  Tb  Tb1  1  0.481809  0.518191  0.307266  1
  Tb  Tb2  1  0.518191  0.481809  0.692734  1
  Tb  Tb3  1  0.482319  0.962089  0.306010  1
  Tb  Tb4  1  0.517681  0.037911  0.693990  1
  Tb  Tb5  1  0.037911  0.517681  0.306010  1
  Tb  Tb6  1  0.962089  0.482319  0.693990  1
  Tc  Tc7  1  0.833692  0.166308  0.203543  1
  Tc  Tc8  1  0.166308  0.833692  0.796457  1
  Sn  Sn9  1  0.348127  0.996333  0.999168  1
  Sn  Sn10  1  0.651873  0.003667  0.000832  1
  Sn  Sn11  1  0.996333  0.348127  0.000832  1
  Sn  Sn12  1  0.003667  0.651873  0.999168  1
  Sn  Sn13  1  0.646872  0.646872  0.000000  1
  Sn  Sn14  1  0.353128  0.353128  0.000000  1
  Sn  Sn15  1  0.330953  0.669047  0.820088  1
  Sn  Sn16  1  0.669047  0.330953  0.179912  1
  Sn  Sn17  1  0.000000  0.000000  0.500000  1
  Sn  Sn18  1  0.780364  0.219636  0.458823  1
  Sn  Sn19  1  0.219636  0.780364  0.541177  1
  Sn  Sn20  1  0.780576  0.560923  0.458635  1
  Sn  Sn21  1  0.219424  0.439077  0.541365  1
  Sn  Sn22  1  0.439077  0.219424  0.458635  1
  Sn  Sn23  1  0.560923  0.780576  0.541365  1
  Sn  Sn24  1  0.333122  0.666878  0.122079  1
  Sn  Sn25  1  0.666878  0.333122  0.877921  1
  Sn  Sn26  1  0.118085  0.881915  0.280543  1
  Sn  Sn27  1  0.881915  0.118085  0.719457  1
  Sn  Sn28  1  0.122562  0.238785  0.273175  1
  Sn  Sn29  1  0.877438  0.761215  0.726825  1
  Sn  Sn30  1  0.761215  0.877438  0.273175  1
  Sn  Sn31  1  0.238785  0.122562  0.726825  1
  Ir  Ir32  1  0.830760  0.658629  0.198893  1
  Ir  Ir33  1  0.169240  0.341371  0.801107  1
  Ir  Ir34  1  0.341371  0.169240  0.198893  1
  Ir  Ir35  1  0.658629  0.830760  0.801107  1
