# generated using pymatgen
data_Sm7Th3(Sb3C)2
_symmetry_space_group_name_H-M   'P 1'
_cell_length_a   9.20000900
_cell_length_b   9.20000881
_cell_length_c   6.51036900
_cell_angle_alpha   90.00000000
_cell_angle_beta   90.00000000
_cell_angle_gamma   120.00000428
_symmetry_Int_Tables_number   1
_chemical_formula_structural   Sm7Th3(Sb3C)2
_chemical_formula_sum   'Sm7 Th3 Sb6 C2'
_cell_volume   477.21349108
_cell_formula_units_Z   1
loop_
 _symmetry_equiv_pos_site_id
 _symmetry_equiv_pos_as_xyz
  1  'x, y, z'
loop_
 _atom_site_type_symbol
 _atom_site_label
 _atom_site_symmetry_multiplicity
 _atom_site_fract_x
 _atom_site_fract_y
 _atom_site_fract_z
 _atom_site_occupancy
  Sm  Sm0  1  0.666667  0.333333  0.501622  1
  Sm  Sm1  1  0.333333  0.666667  0.501622  1
  Sm  Sm2  1  0.333333  0.666667  0.998378  1
  Sm  Sm3  1  0.666667  0.333333  0.998378  1
  Sm  Sm4  1  0.778470  0.778470  0.250000  1
  Sm  Sm5  1  0.221530  0.000000  0.250000  1
  Sm  Sm6  1  0.000000  0.221530  0.250000  1
  Th  Th7  1  0.219621  0.219621  0.750000  1
  Th  Th8  1  0.780379  0.000000  0.750000  1
  Th  Th9  1  0.000000  0.780379  0.750000  1
  Sb  Sb10  1  0.400091  0.400091  0.250000  1
  Sb  Sb11  1  0.599909  0.000000  0.250000  1
  Sb  Sb12  1  0.000000  0.599909  0.250000  1
  Sb  Sb13  1  0.597997  0.597997  0.750000  1
  Sb  Sb14  1  0.402003  0.000000  0.750000  1
  Sb  Sb15  1  0.000000  0.402003  0.750000  1
  C  C16  1  0.000000  0.000000  0.508733  1
  C  C17  1  0.000000  0.000000  0.991267  1
