# generated using pymatgen
data_Y2Al8GaRh3
_symmetry_space_group_name_H-M   'P 1'
_cell_length_a   7.55060481
_cell_length_b   7.55060513
_cell_length_c   9.52504900
_cell_angle_alpha   90.00000000
_cell_angle_beta   90.00000000
_cell_angle_gamma   119.34970746
_symmetry_Int_Tables_number   1
_chemical_formula_structural   Y2Al8GaRh3
_chemical_formula_sum   'Y4 Al16 Ga2 Rh6'
_cell_volume   473.33656002
_cell_formula_units_Z   2
loop_
 _symmetry_equiv_pos_site_id
 _symmetry_equiv_pos_as_xyz
  1  'x, y, z'
loop_
 _atom_site_type_symbol
 _atom_site_label
 _atom_site_symmetry_multiplicity
 _atom_site_fract_x
 _atom_site_fract_y
 _atom_site_fract_z
 _atom_site_occupancy
  Y  Y0  1  0.994374  0.672244  0.250000  1
  Y  Y1  1  0.005626  0.327756  0.750000  1
  Y  Y2  1  0.672244  0.994374  0.250000  1
  Y  Y3  1  0.327756  0.005626  0.750000  1
  Al  Al4  1  0.001551  0.335238  0.073058  1
  Al  Al5  1  0.998449  0.664762  0.926942  1
  Al  Al6  1  0.998449  0.664762  0.573058  1
  Al  Al7  1  0.335238  0.001551  0.426942  1
  Al  Al8  1  0.001551  0.335238  0.426942  1
  Al  Al9  1  0.664762  0.998449  0.573058  1
  Al  Al10  1  0.664762  0.998449  0.926942  1
  Al  Al11  1  0.335238  0.001551  0.073058  1
  Al  Al12  1  0.334276  0.334276  0.552035  1
  Al  Al13  1  0.665724  0.665724  0.447965  1
  Al  Al14  1  0.665724  0.665724  0.052035  1
  Al  Al15  1  0.334276  0.334276  0.947965  1
  Al  Al16  1  0.337530  0.548423  0.250000  1
  Al  Al17  1  0.662470  0.451577  0.750000  1
  Al  Al18  1  0.548423  0.337530  0.250000  1
  Al  Al19  1  0.451577  0.662470  0.750000  1
  Ga  Ga20  1  0.129978  0.129978  0.250000  1
  Ga  Ga21  1  0.870022  0.870022  0.750000  1
  Rh  Rh22  1  0.671627  0.328373  0.000000  1
  Rh  Rh23  1  0.328373  0.671627  0.000000  1
  Rh  Rh24  1  0.328373  0.671627  0.500000  1
  Rh  Rh25  1  0.671627  0.328373  0.500000  1
  Rh  Rh26  1  0.000000  0.000000  0.000000  1
  Rh  Rh27  1  0.000000  0.000000  0.500000  1
