# generated using pymatgen
data_YEr3Al16(SiIr3)2
_symmetry_space_group_name_H-M   'P 1'
_cell_length_a   7.53698205
_cell_length_b   7.53549698
_cell_length_c   9.33196200
_cell_angle_alpha   90.00000000
_cell_angle_beta   90.00000000
_cell_angle_gamma   119.65490307
_symmetry_Int_Tables_number   1
_chemical_formula_structural   YEr3Al16(SiIr3)2
_chemical_formula_sum   'Y1 Er3 Al16 Si2 Ir6'
_cell_volume   460.58810988
_cell_formula_units_Z   1
loop_
 _symmetry_equiv_pos_site_id
 _symmetry_equiv_pos_as_xyz
  1  'x, y, z'
loop_
 _atom_site_type_symbol
 _atom_site_label
 _atom_site_symmetry_multiplicity
 _atom_site_fract_x
 _atom_site_fract_y
 _atom_site_fract_z
 _atom_site_occupancy
  Y  Y0  1  0.325063  0.005069  0.750000  1
  Er  Er1  1  0.994589  0.674964  0.250000  1
  Er  Er2  1  0.004884  0.324702  0.750000  1
  Er  Er3  1  0.675227  0.994702  0.250000  1
  Al  Al4  1  0.000799  0.336337  0.076976  1
  Al  Al5  1  0.998616  0.663098  0.923914  1
  Al  Al6  1  0.998616  0.663098  0.576086  1
  Al  Al7  1  0.336345  0.000780  0.422460  1
  Al  Al8  1  0.000799  0.336337  0.423024  1
  Al  Al9  1  0.664134  0.999107  0.576151  1
  Al  Al10  1  0.664134  0.999107  0.923849  1
  Al  Al11  1  0.336345  0.000780  0.077540  1
  Al  Al12  1  0.335052  0.335586  0.556779  1
  Al  Al13  1  0.664967  0.664973  0.442152  1
  Al  Al14  1  0.664967  0.664973  0.057848  1
  Al  Al15  1  0.335052  0.335586  0.943221  1
  Al  Al16  1  0.336075  0.549464  0.250000  1
  Al  Al17  1  0.664918  0.451528  0.750000  1
  Al  Al18  1  0.549512  0.336229  0.250000  1
  Al  Al19  1  0.450789  0.663665  0.750000  1
  Si  Si20  1  0.128578  0.128584  0.250000  1
  Si  Si21  1  0.870714  0.871193  0.750000  1
  Ir  Ir22  1  0.671921  0.328242  0.000049  1
  Ir  Ir23  1  0.328139  0.671729  0.000044  1
  Ir  Ir24  1  0.328139  0.671729  0.499956  1
  Ir  Ir25  1  0.671921  0.328242  0.499951  1
  Ir  Ir26  1  0.999853  0.000097  0.000063  1
  Ir  Ir27  1  0.999853  0.000097  0.499937  1
