# generated using pymatgen
data_K5Pt2RhN3
_symmetry_space_group_name_H-M   'P 1'
_cell_length_a   9.17716800
_cell_length_b   9.17414866
_cell_length_c   3.75860800
_cell_angle_alpha   90.00000000
_cell_angle_beta   90.00000000
_cell_angle_gamma   120.01088759
_symmetry_Int_Tables_number   1
_chemical_formula_structural   K5Pt2RhN3
_chemical_formula_sum   'K5 Pt2 Rh1 N3'
_cell_volume   274.02138923
_cell_formula_units_Z   1
loop_
 _symmetry_equiv_pos_site_id
 _symmetry_equiv_pos_as_xyz
  1  'x, y, z'
loop_
 _atom_site_type_symbol
 _atom_site_label
 _atom_site_symmetry_multiplicity
 _atom_site_fract_x
 _atom_site_fract_y
 _atom_site_fract_z
 _atom_site_occupancy
  K  K0  1  0.733522  0.000000  0.500001  1
  K  K1  1  0.265562  0.263289  0.500001  1
  K  K2  1  0.664818  0.331363  0.500001  1
  K  K3  1  0.333456  0.668637  0.500001  1
  K  K4  1  0.002274  0.736710  0.500001  1
  Pt  Pt5  1  0.000015  0.363119  0.000000  1
  Pt  Pt6  1  0.636896  0.636881  0.000000  1
  Rh  Rh7  1  0.363217  0.000000  0.000000  1
  N  N8  1  0.363995  0.000000  0.500001  1
  N  N9  1  0.000025  0.363808  0.500001  1
  N  N10  1  0.636217  0.636193  0.500001  1
