# generated using pymatgen
data_LuHf2Co5B2
_symmetry_space_group_name_H-M   'P 1'
_cell_length_a   8.89921700
_cell_length_b   8.90248600
_cell_length_c   3.13266900
_cell_angle_alpha   90.00000000
_cell_angle_beta   90.00000000
_cell_angle_gamma   90.00000000
_symmetry_Int_Tables_number   1
_chemical_formula_structural   LuHf2Co5B2
_chemical_formula_sum   'Lu2 Hf4 Co10 B4'
_cell_volume   248.18618632
_cell_formula_units_Z   2
loop_
 _symmetry_equiv_pos_site_id
 _symmetry_equiv_pos_as_xyz
  1  'x, y, z'
loop_
 _atom_site_type_symbol
 _atom_site_label
 _atom_site_symmetry_multiplicity
 _atom_site_fract_x
 _atom_site_fract_y
 _atom_site_fract_z
 _atom_site_occupancy
  Lu  Lu0  1  0.824408  0.325249  0.000000  1
  Lu  Lu1  1  0.324408  0.174751  0.000000  1
  Hf  Hf2  1  0.000563  0.000962  0.000000  1
  Hf  Hf3  1  0.500563  0.499038  0.000000  1
  Hf  Hf4  1  0.674470  0.824879  0.000000  1
  Hf  Hf5  1  0.174470  0.675121  0.000000  1
  Co  Co6  1  0.501148  0.992346  0.500000  1
  Co  Co7  1  0.001148  0.507654  0.500000  1
  Co  Co8  1  0.070346  0.234578  0.500000  1
  Co  Co9  1  0.228322  0.920757  0.500000  1
  Co  Co10  1  0.769205  0.061382  0.500000  1
  Co  Co11  1  0.930254  0.775042  0.500000  1
  Co  Co12  1  0.430254  0.724958  0.500000  1
  Co  Co13  1  0.570346  0.265422  0.500000  1
  Co  Co14  1  0.728322  0.579243  0.500000  1
  Co  Co15  1  0.269205  0.438618  0.500000  1
  B  B16  1  0.618849  0.113098  0.000000  1
  B  B17  1  0.118849  0.386902  0.000000  1
  B  B18  1  0.882435  0.623771  0.000000  1
  B  B19  1  0.382435  0.876229  0.000000  1
