# generated using pymatgen
data_Y3Al7Pd2
_symmetry_space_group_name_H-M   'P 1'
_cell_length_a   9.23671889
_cell_length_b   9.23671940
_cell_length_c   9.23671873
_cell_angle_alpha   34.79965344
_cell_angle_beta   34.79964761
_cell_angle_gamma   34.79965023
_symmetry_Int_Tables_number   1
_chemical_formula_structural   Y3Al7Pd2
_chemical_formula_sum   'Y3 Al7 Pd2'
_cell_volume   229.10106619
_cell_formula_units_Z   1
loop_
 _symmetry_equiv_pos_site_id
 _symmetry_equiv_pos_as_xyz
  1  'x, y, z'
loop_
 _atom_site_type_symbol
 _atom_site_label
 _atom_site_symmetry_multiplicity
 _atom_site_fract_x
 _atom_site_fract_y
 _atom_site_fract_z
 _atom_site_occupancy
  Y  Y0  1  0.000000  0.000000  0.000000  1
  Y  Y1  1  0.857213  0.857213  0.857213  1
  Y  Y2  1  0.142787  0.142787  0.142787  1
  Al  Al3  1  0.417580  0.417580  0.926607  1
  Al  Al4  1  0.926607  0.417580  0.417580  1
  Al  Al5  1  0.417580  0.926607  0.417580  1
  Al  Al6  1  0.500000  0.500000  0.500000  1
  Al  Al7  1  0.582420  0.073393  0.582420  1
  Al  Al8  1  0.073393  0.582420  0.582420  1
  Al  Al9  1  0.582420  0.582420  0.073393  1
  Pd  Pd10  1  0.664676  0.664676  0.664676  1
  Pd  Pd11  1  0.335324  0.335324  0.335324  1
