# generated using pymatgen
data_Tb20Si12F
_symmetry_space_group_name_H-M   'P 1'
_cell_length_a   14.76051000
_cell_length_b   6.38190113
_cell_length_c   8.46920202
_cell_angle_alpha   89.96930981
_cell_angle_beta   90.00000000
_cell_angle_gamma   90.00000000
_symmetry_Int_Tables_number   1
_chemical_formula_structural   Tb20Si12F
_chemical_formula_sum   'Tb20 Si12 F1'
_cell_volume   797.79969371
_cell_formula_units_Z   1
loop_
 _symmetry_equiv_pos_site_id
 _symmetry_equiv_pos_as_xyz
  1  'x, y, z'
loop_
 _atom_site_type_symbol
 _atom_site_label
 _atom_site_symmetry_multiplicity
 _atom_site_fract_x
 _atom_site_fract_y
 _atom_site_fract_z
 _atom_site_occupancy
  Tb  Tb0  1  0.667277  0.500000  0.500000  1
  Tb  Tb1  1  0.167960  0.500000  0.000000  1
  Tb  Tb2  1  0.832040  0.500000  0.000000  1
  Tb  Tb3  1  0.332723  0.500000  0.500000  1
  Tb  Tb4  1  0.833256  0.000000  0.000000  1
  Tb  Tb5  1  0.333543  0.000000  0.500000  1
  Tb  Tb6  1  0.666457  0.000000  0.500000  1
  Tb  Tb7  1  0.166744  0.000000  0.000000  1
  Tb  Tb8  1  0.500000  0.249190  0.755750  1
  Tb  Tb9  1  0.000000  0.250343  0.252064  1
  Tb  Tb10  1  0.620871  0.250098  0.123119  1
  Tb  Tb11  1  0.122908  0.244330  0.624468  1
  Tb  Tb12  1  0.877092  0.244330  0.624468  1
  Tb  Tb13  1  0.379129  0.250098  0.123119  1
  Tb  Tb14  1  0.000000  0.749657  0.747936  1
  Tb  Tb15  1  0.500000  0.750810  0.244250  1
  Tb  Tb16  1  0.877092  0.755670  0.375532  1
  Tb  Tb17  1  0.379129  0.749902  0.876881  1
  Tb  Tb18  1  0.620871  0.749902  0.876881  1
  Tb  Tb19  1  0.122908  0.755670  0.375532  1
  Si  Si20  1  0.000000  0.251130  0.893890  1
  Si  Si21  1  0.500000  0.249815  0.394606  1
  Si  Si22  1  0.803246  0.247683  0.303834  1
  Si  Si23  1  0.302458  0.248624  0.802970  1
  Si  Si24  1  0.697542  0.248624  0.802970  1
  Si  Si25  1  0.196754  0.247683  0.303834  1
  Si  Si26  1  0.500000  0.750185  0.605394  1
  Si  Si27  1  0.000000  0.748870  0.106110  1
  Si  Si28  1  0.697542  0.751376  0.197030  1
  Si  Si29  1  0.196754  0.752317  0.696166  1
  Si  Si30  1  0.803246  0.752317  0.696166  1
  Si  Si31  1  0.302458  0.751376  0.197030  1
  F  F32  1  0.000000  0.500000  0.500000  1
