# generated using pymatgen
data_Li2BeO2
_symmetry_space_group_name_H-M   'P 1'
_cell_length_a   6.41119000
_cell_length_b   4.87730837
_cell_length_c   5.08470305
_cell_angle_alpha   82.05692651
_cell_angle_beta   90.00000000
_cell_angle_gamma   90.00000000
_symmetry_Int_Tables_number   1
_chemical_formula_structural   Li2BeO2
_chemical_formula_sum   'Li8 Be4 O8'
_cell_volume   157.46993799
_cell_formula_units_Z   4
loop_
 _symmetry_equiv_pos_site_id
 _symmetry_equiv_pos_as_xyz
  1  'x, y, z'
loop_
 _atom_site_type_symbol
 _atom_site_label
 _atom_site_symmetry_multiplicity
 _atom_site_fract_x
 _atom_site_fract_y
 _atom_site_fract_z
 _atom_site_occupancy
  Li  Li0  1  0.621276  0.068209  0.325869  1
  Li  Li1  1  0.121276  0.431791  0.674131  1
  Li  Li2  1  0.378724  0.931791  0.674131  1
  Li  Li3  1  0.878724  0.568209  0.325869  1
  Li  Li4  1  0.874221  0.199557  0.946921  1
  Li  Li5  1  0.374221  0.300443  0.053079  1
  Li  Li6  1  0.125779  0.800443  0.053079  1
  Li  Li7  1  0.625779  0.699557  0.946921  1
  Be  Be8  1  0.627825  0.399063  0.622260  1
  Be  Be9  1  0.127825  0.100937  0.377740  1
  Be  Be10  1  0.372175  0.600937  0.377740  1
  Be  Be11  1  0.872175  0.899063  0.622260  1
  O  O12  1  0.161353  0.433900  0.280270  1
  O  O13  1  0.661353  0.066100  0.719730  1
  O  O14  1  0.838647  0.566100  0.719730  1
  O  O15  1  0.338647  0.933900  0.280270  1
  O  O16  1  0.591702  0.466184  0.285504  1
  O  O17  1  0.091702  0.033816  0.714496  1
  O  O18  1  0.408298  0.533816  0.714496  1
  O  O19  1  0.908298  0.966184  0.285504  1
