# generated using pymatgen
data_Er3Sn3IrPtRh
_symmetry_space_group_name_H-M   'P 1'
_cell_length_a   7.55898700
_cell_length_b   7.55898645
_cell_length_c   3.84456400
_cell_angle_alpha   90.00000000
_cell_angle_beta   90.00000000
_cell_angle_gamma   119.99998928
_symmetry_Int_Tables_number   1
_chemical_formula_structural   Er3Sn3IrPtRh
_chemical_formula_sum   'Er3 Sn3 Ir1 Pt1 Rh1'
_cell_volume   190.24135863
_cell_formula_units_Z   1
loop_
 _symmetry_equiv_pos_site_id
 _symmetry_equiv_pos_as_xyz
  1  'x, y, z'
loop_
 _atom_site_type_symbol
 _atom_site_label
 _atom_site_symmetry_multiplicity
 _atom_site_fract_x
 _atom_site_fract_y
 _atom_site_fract_z
 _atom_site_occupancy
  Er  Er0  1  0.400887  0.408724  0.000000  1
  Er  Er1  1  0.007836  0.599113  0.000000  1
  Er  Er2  1  0.591276  0.992164  0.000000  1
  Sn  Sn3  1  0.737577  0.739610  0.500000  1
  Sn  Sn4  1  0.002033  0.262423  0.500000  1
  Sn  Sn5  1  0.260390  0.997967  0.500000  1
  Ir  Ir6  1  0.333333  0.666667  0.500000  1
  Pt  Pt7  1  0.666667  0.333333  0.500000  1
  Rh  Rh8  1  0.000000  0.000000  0.000000  1
