# generated using pymatgen
data_Ti6Si6IrRu4Rh
_symmetry_space_group_name_H-M   'P 1'
_cell_length_a   7.37842579
_cell_length_b   7.38448453
_cell_length_c   7.38448498
_cell_angle_alpha   128.16792622
_cell_angle_beta   121.30965241
_cell_angle_gamma   82.10734063
_symmetry_Int_Tables_number   1
_chemical_formula_structural   Ti6Si6IrRu4Rh
_chemical_formula_sum   'Ti6 Si6 Ir1 Ru4 Rh1'
_cell_volume   259.94567537
_cell_formula_units_Z   1
loop_
 _symmetry_equiv_pos_site_id
 _symmetry_equiv_pos_as_xyz
  1  'x, y, z'
loop_
 _atom_site_type_symbol
 _atom_site_label
 _atom_site_symmetry_multiplicity
 _atom_site_fract_x
 _atom_site_fract_y
 _atom_site_fract_z
 _atom_site_occupancy
  Ti  Ti0  1  0.247207  0.909402  0.163155  1
  Ti  Ti1  1  0.976510  0.496690  0.017408  1
  Ti  Ti2  1  0.023490  0.040898  0.520179  1
  Ti  Ti3  1  0.451129  0.498780  0.548546  1
  Ti  Ti4  1  0.752793  0.915946  0.662194  1
  Ti  Ti5  1  0.548871  0.097418  0.047651  1
  Si  Si6  1  0.782486  0.533932  0.252232  1
  Si  Si7  1  0.172446  0.164142  0.003976  1
  Si  Si8  1  0.661582  0.164058  0.491663  1
  Si  Si9  1  0.338418  0.830081  0.502477  1
  Si  Si10  1  0.217514  0.469747  0.751447  1
  Si  Si11  1  0.827554  0.831529  0.991694  1
  Ir  Ir12  1  0.500000  0.246154  0.746154  1
  Ru  Ru13  1  0.839088  0.498409  0.588288  1
  Ru  Ru14  1  0.590053  0.749474  0.088884  1
  Ru  Ru15  1  0.409947  0.498832  0.159422  1
  Ru  Ru16  1  0.160912  0.749201  0.659321  1
  Rh  Rh17  1  0.000000  0.247517  0.247517  1
