# generated using pymatgen
data_Y5HoAl7Pt16
_symmetry_space_group_name_H-M   'P 1'
_cell_length_a   8.98829821
_cell_length_b   8.98851348
_cell_length_c   8.98851300
_cell_angle_alpha   59.99841557
_cell_angle_beta   60.00079572
_cell_angle_gamma   60.00079470
_symmetry_Int_Tables_number   1
_chemical_formula_structural   Y5HoAl7Pt16
_chemical_formula_sum   'Y5 Ho1 Al7 Pt16'
_cell_volume   513.49736447
_cell_formula_units_Z   1
loop_
 _symmetry_equiv_pos_site_id
 _symmetry_equiv_pos_as_xyz
  1  'x, y, z'
loop_
 _atom_site_type_symbol
 _atom_site_label
 _atom_site_symmetry_multiplicity
 _atom_site_fract_x
 _atom_site_fract_y
 _atom_site_fract_z
 _atom_site_occupancy
  Y  Y0  1  0.713007  0.712991  0.286887  1
  Y  Y1  1  0.287154  0.712961  0.286865  1
  Y  Y2  1  0.712875  0.287116  0.287128  1
  Y  Y3  1  0.287138  0.286868  0.712979  1
  Y  Y4  1  0.713005  0.286883  0.712989  1
  Ho  Ho5  1  0.286355  0.713648  0.713643  1
  Al  Al6  1  0.999927  0.000073  0.000072  1
  Al  Al7  1  0.999957  0.000045  0.500041  1
  Al  Al8  1  0.499955  0.000045  0.500041  1
  Al  Al9  1  0.999923  0.500076  0.500075  1
  Al  Al10  1  0.499955  0.500043  0.000043  1
  Al  Al11  1  0.999957  0.500043  0.000043  1
  Al  Al12  1  0.499922  0.000078  0.000076  1
  Pt  Pt13  1  0.880939  0.880939  0.357173  1
  Pt  Pt14  1  0.880936  0.357181  0.880936  1
  Pt  Pt15  1  0.357026  0.880660  0.880666  1
  Pt  Pt16  1  0.881653  0.880661  0.880668  1
  Pt  Pt17  1  0.119357  0.118243  0.643048  1
  Pt  Pt18  1  0.119359  0.643042  0.118247  1
  Pt  Pt19  1  0.642767  0.119038  0.119031  1
  Pt  Pt20  1  0.119161  0.119037  0.119026  1
  Pt  Pt21  1  0.662701  0.662952  0.011640  1
  Pt  Pt22  1  0.662709  0.011631  0.662955  1
  Pt  Pt23  1  0.012419  0.662845  0.662841  1
  Pt  Pt24  1  0.661891  0.662841  0.662837  1
  Pt  Pt25  1  0.337217  0.337988  0.987579  1
  Pt  Pt26  1  0.337211  0.987589  0.337984  1
  Pt  Pt27  1  0.988351  0.337236  0.337242  1
  Pt  Pt28  1  0.337172  0.337245  0.337241  1
