# generated using pymatgen
data_Ho6Al24FeNiOs6
_symmetry_space_group_name_H-M   'P 1'
_cell_length_a   8.76953500
_cell_length_b   8.76953517
_cell_length_c   9.50400200
_cell_angle_alpha   90.00000000
_cell_angle_beta   90.00000000
_cell_angle_gamma   120.00000312
_symmetry_Int_Tables_number   1
_chemical_formula_structural   Ho6Al24FeNiOs6
_chemical_formula_sum   'Ho6 Al24 Fe1 Ni1 Os6'
_cell_volume   632.98042133
_cell_formula_units_Z   1
loop_
 _symmetry_equiv_pos_site_id
 _symmetry_equiv_pos_as_xyz
  1  'x, y, z'
loop_
 _atom_site_type_symbol
 _atom_site_label
 _atom_site_symmetry_multiplicity
 _atom_site_fract_x
 _atom_site_fract_y
 _atom_site_fract_z
 _atom_site_occupancy
  Ho  Ho0  1  0.194305  0.388608  0.250668  1
  Ho  Ho1  1  0.805695  0.611392  0.749332  1
  Ho  Ho2  1  0.611392  0.805695  0.250668  1
  Ho  Ho3  1  0.388608  0.194305  0.749332  1
  Ho  Ho4  1  0.194305  0.805695  0.250668  1
  Ho  Ho5  1  0.805695  0.194305  0.749332  1
  Al  Al6  1  0.333333  0.666667  0.017520  1
  Al  Al7  1  0.666667  0.333333  0.982480  1
  Al  Al8  1  0.666667  0.333333  0.516488  1
  Al  Al9  1  0.333333  0.666667  0.483512  1
  Al  Al10  1  0.159113  0.318227  0.575109  1
  Al  Al11  1  0.840887  0.681773  0.424891  1
  Al  Al12  1  0.681773  0.840887  0.575109  1
  Al  Al13  1  0.838523  0.677046  0.077284  1
  Al  Al14  1  0.318227  0.159113  0.424891  1
  Al  Al15  1  0.161477  0.322954  0.922716  1
  Al  Al16  1  0.159113  0.840887  0.575109  1
  Al  Al17  1  0.322954  0.161477  0.077284  1
  Al  Al18  1  0.840887  0.159113  0.424891  1
  Al  Al19  1  0.677046  0.838523  0.922716  1
  Al  Al20  1  0.838523  0.161477  0.077284  1
  Al  Al21  1  0.161477  0.838523  0.922716  1
  Al  Al22  1  0.561631  0.123263  0.251002  1
  Al  Al23  1  0.438369  0.876737  0.748998  1
  Al  Al24  1  0.876737  0.438369  0.251002  1
  Al  Al25  1  0.123263  0.561631  0.748998  1
  Al  Al26  1  0.561631  0.438369  0.251002  1
  Al  Al27  1  0.438369  0.561631  0.748998  1
  Al  Al28  1  0.000000  0.000000  0.251336  1
  Al  Al29  1  0.000000  0.000000  0.748664  1
  Fe  Fe30  1  0.000000  0.000000  0.500000  1
  Ni  Ni31  1  0.000000  0.000000  0.000000  1
  Os  Os32  1  0.500000  0.000000  0.000000  1
  Os  Os33  1  0.000000  0.500000  0.000000  1
  Os  Os34  1  0.500000  0.000000  0.500000  1
  Os  Os35  1  0.500000  0.500000  0.000000  1
  Os  Os36  1  0.000000  0.500000  0.500000  1
  Os  Os37  1  0.500000  0.500000  0.500000  1
