# generated using pymatgen
data_Y6Sc2AgAu9
_symmetry_space_group_name_H-M   'P 1'
_cell_length_a   7.95510826
_cell_length_b   7.95510800
_cell_length_c   7.95510730
_cell_angle_alpha   66.17384115
_cell_angle_beta   66.17384209
_cell_angle_gamma   66.17383050
_symmetry_Int_Tables_number   1
_chemical_formula_structural   Y6Sc2AgAu9
_chemical_formula_sum   'Y6 Sc2 Ag1 Au9'
_cell_volume   403.46116931
_cell_formula_units_Z   1
loop_
 _symmetry_equiv_pos_site_id
 _symmetry_equiv_pos_as_xyz
  1  'x, y, z'
loop_
 _atom_site_type_symbol
 _atom_site_label
 _atom_site_symmetry_multiplicity
 _atom_site_fract_x
 _atom_site_fract_y
 _atom_site_fract_z
 _atom_site_occupancy
  Y  Y0  1  0.894795  0.187022  0.619715  1
  Y  Y1  1  0.619715  0.894795  0.187022  1
  Y  Y2  1  0.187022  0.619715  0.894795  1
  Y  Y3  1  0.105205  0.812978  0.380285  1
  Y  Y4  1  0.380285  0.105205  0.812978  1
  Y  Y5  1  0.812978  0.380285  0.105205  1
  Sc  Sc6  1  0.660882  0.660882  0.660882  1
  Sc  Sc7  1  0.339118  0.339118  0.339118  1
  Ag  Ag8  1  0.500000  0.500000  0.500000  1
  Au  Au9  1  0.000000  0.000000  0.000000  1
  Au  Au10  1  0.807068  0.807068  0.807068  1
  Au  Au11  1  0.192932  0.192932  0.192932  1
  Au  Au12  1  0.933565  0.551022  0.321217  1
  Au  Au13  1  0.321217  0.933565  0.551022  1
  Au  Au14  1  0.551022  0.321217  0.933565  1
  Au  Au15  1  0.066435  0.448978  0.678783  1
  Au  Au16  1  0.678783  0.066435  0.448978  1
  Au  Au17  1  0.448978  0.678783  0.066435  1
