# generated using pymatgen
data_Er11TmSi12Rh3Au
_symmetry_space_group_name_H-M   'P 1'
_cell_length_a   4.21367400
_cell_length_b   10.66368533
_cell_length_c   12.26537830
_cell_angle_alpha   89.92322021
_cell_angle_beta   90.00000000
_cell_angle_gamma   90.00000000
_symmetry_Int_Tables_number   1
_chemical_formula_structural   Er11TmSi12Rh3Au
_chemical_formula_sum   'Er11 Tm1 Si12 Rh3 Au1'
_cell_volume   551.12334951
_cell_formula_units_Z   1
loop_
 _symmetry_equiv_pos_site_id
 _symmetry_equiv_pos_as_xyz
  1  'x, y, z'
loop_
 _atom_site_type_symbol
 _atom_site_label
 _atom_site_symmetry_multiplicity
 _atom_site_fract_x
 _atom_site_fract_y
 _atom_site_fract_z
 _atom_site_occupancy
  Er  Er0  1  0.250000  0.880266  0.022824  1
  Er  Er1  1  0.250000  0.624265  0.518029  1
  Er  Er2  1  0.750000  0.120300  0.980775  1
  Er  Er3  1  0.750000  0.378566  0.478193  1
  Er  Er4  1  0.250000  0.921591  0.599518  1
  Er  Er5  1  0.250000  0.579438  0.103206  1
  Er  Er6  1  0.750000  0.079845  0.394794  1
  Er  Er7  1  0.750000  0.419976  0.897822  1
  Er  Er8  1  0.250000  0.669328  0.803094  1
  Er  Er9  1  0.750000  0.340567  0.199455  1
  Er  Er10  1  0.750000  0.156164  0.700005  1
  Tm  Tm11  1  0.250000  0.841014  0.300391  1
  Si  Si12  1  0.250000  0.009897  0.821864  1
  Si  Si13  1  0.250000  0.484831  0.324304  1
  Si  Si14  1  0.750000  0.984911  0.178154  1
  Si  Si15  1  0.750000  0.526979  0.675404  1
  Si  Si16  1  0.250000  0.239759  0.848929  1
  Si  Si17  1  0.250000  0.251954  0.340381  1
  Si  Si18  1  0.750000  0.752271  0.159528  1
  Si  Si19  1  0.750000  0.752744  0.657347  1
  Si  Si20  1  0.250000  0.186189  0.535864  1
  Si  Si21  1  0.250000  0.300934  0.044375  1
  Si  Si22  1  0.750000  0.801800  0.455729  1
  Si  Si23  1  0.750000  0.699079  0.960026  1
  Rh  Rh24  1  0.250000  0.107738  0.181866  1
  Rh  Rh25  1  0.750000  0.608964  0.318091  1
  Rh  Rh26  1  0.750000  0.890162  0.817990  1
  Au  Au27  1  0.250000  0.390475  0.682045  1
