# generated using pymatgen
data_Pr5Nd11Cd4(CoPt)2
_symmetry_space_group_name_H-M   'P 1'
_cell_length_a   9.93110415
_cell_length_b   9.93242301
_cell_length_c   9.93357201
_cell_angle_alpha   59.99536659
_cell_angle_beta   59.99564341
_cell_angle_gamma   60.22139738
_symmetry_Int_Tables_number   1
_chemical_formula_structural   Pr5Nd11Cd4(CoPt)2
_chemical_formula_sum   'Pr5 Nd11 Cd4 Co2 Pt2'
_cell_volume   693.96086812
_cell_formula_units_Z   1
loop_
 _symmetry_equiv_pos_site_id
 _symmetry_equiv_pos_as_xyz
  1  'x, y, z'
loop_
 _atom_site_type_symbol
 _atom_site_label
 _atom_site_symmetry_multiplicity
 _atom_site_fract_x
 _atom_site_fract_y
 _atom_site_fract_z
 _atom_site_occupancy
  Pr  Pr0  1  0.561494  0.937559  0.937789  1
  Pr  Pr1  1  0.561735  0.937355  0.563186  1
  Pr  Pr2  1  0.937482  0.561534  0.937544  1
  Pr  Pr3  1  0.560247  0.560003  0.939806  1
  Pr  Pr4  1  0.935787  0.935630  0.564201  1
  Nd  Nd5  1  0.344612  0.344862  0.357760  1
  Nd  Nd6  1  0.344786  0.344751  0.952794  1
  Nd  Nd7  1  0.340502  0.958032  0.350739  1
  Nd  Nd8  1  0.957997  0.340613  0.350879  1
  Nd  Nd9  1  0.819344  0.189729  0.189369  1
  Nd  Nd10  1  0.189697  0.819333  0.801586  1
  Nd  Nd11  1  0.189637  0.819192  0.189556  1
  Nd  Nd12  1  0.819387  0.189863  0.801449  1
  Nd  Nd13  1  0.188361  0.188656  0.811384  1
  Nd  Nd14  1  0.808084  0.807948  0.192102  1
  Nd  Nd15  1  0.937605  0.561425  0.563111  1
  Cd  Cd16  1  0.579887  0.579659  0.578977  1
  Cd  Cd17  1  0.579652  0.579651  0.261700  1
  Cd  Cd18  1  0.580841  0.260075  0.579531  1
  Cd  Cd19  1  0.259839  0.580844  0.579537  1
  Co  Co20  1  0.142353  0.142336  0.141371  1
  Co  Co21  1  0.142287  0.142540  0.573879  1
  Pt  Pt22  1  0.144704  0.573632  0.140966  1
  Pt  Pt23  1  0.573680  0.144777  0.140781  1
