# generated using pymatgen
data_Er4VRe2B16W
_symmetry_space_group_name_H-M   'P 1'
_cell_length_a   3.55710900
_cell_length_b   5.97793552
_cell_length_c   11.54812324
_cell_angle_alpha   89.89915536
_cell_angle_beta   90.00000000
_cell_angle_gamma   90.00000000
_symmetry_Int_Tables_number   1
_chemical_formula_structural   Er4VRe2B16W
_chemical_formula_sum   'Er4 V1 Re2 B16 W1'
_cell_volume   245.56085504
_cell_formula_units_Z   1
loop_
 _symmetry_equiv_pos_site_id
 _symmetry_equiv_pos_as_xyz
  1  'x, y, z'
loop_
 _atom_site_type_symbol
 _atom_site_label
 _atom_site_symmetry_multiplicity
 _atom_site_fract_x
 _atom_site_fract_y
 _atom_site_fract_z
 _atom_site_occupancy
  Er  Er0  1  0.500000  0.125962  0.852885  1
  Er  Er1  1  0.500000  0.875279  0.148374  1
  Er  Er2  1  0.500000  0.627315  0.652214  1
  Er  Er3  1  0.500000  0.372810  0.346343  1
  V  V4  1  0.500000  0.371327  0.083112  1
  Re  Re5  1  0.500000  0.868370  0.414796  1
  Re  Re6  1  0.500000  0.627262  0.916840  1
  B  B7  1  0.000000  0.289574  0.688303  1
  B  B8  1  0.000000  0.713416  0.313205  1
  B  B9  1  0.000000  0.786074  0.815813  1
  B  B10  1  0.000000  0.213334  0.184929  1
  B  B11  1  0.000000  0.368051  0.530965  1
  B  B12  1  0.000000  0.634258  0.466999  1
  B  B13  1  0.000000  0.865011  0.968117  1
  B  B14  1  0.000000  0.134852  0.032515  1
  B  B15  1  0.000000  0.023405  0.305462  1
  B  B16  1  0.000000  0.974142  0.694843  1
  B  B17  1  0.000000  0.523347  0.192575  1
  B  B18  1  0.000000  0.477720  0.808042  1
  B  B19  1  0.000000  0.114146  0.450463  1
  B  B20  1  0.000000  0.882766  0.546849  1
  B  B21  1  0.000000  0.614064  0.047554  1
  B  B22  1  0.000000  0.385430  0.953284  1
  W  W23  1  0.500000  0.132084  0.585520  1
