# generated using pymatgen
data_Gd7YMg2(SiB4)4
_symmetry_space_group_name_H-M   'P 1'
_cell_length_a   7.20200000
_cell_length_b   7.20200000
_cell_length_c   7.95168100
_cell_angle_alpha   90.00190654
_cell_angle_beta   89.99809346
_cell_angle_gamma   90.00041370
_symmetry_Int_Tables_number   1
_chemical_formula_structural   Gd7YMg2(SiB4)4
_chemical_formula_sum   'Gd7 Y1 Mg2 Si4 B16'
_cell_volume   412.44418303
_cell_formula_units_Z   1
loop_
 _symmetry_equiv_pos_site_id
 _symmetry_equiv_pos_as_xyz
  1  'x, y, z'
loop_
 _atom_site_type_symbol
 _atom_site_label
 _atom_site_symmetry_multiplicity
 _atom_site_fract_x
 _atom_site_fract_y
 _atom_site_fract_z
 _atom_site_occupancy
  Gd  Gd0  1  0.683274  0.183330  0.234461  1
  Gd  Gd1  1  0.316754  0.816788  0.765651  1
  Gd  Gd2  1  0.316670  0.816726  0.234461  1
  Gd  Gd3  1  0.816738  0.683262  0.234406  1
  Gd  Gd4  1  0.816690  0.683310  0.765685  1
  Gd  Gd5  1  0.683212  0.183246  0.765651  1
  Gd  Gd6  1  0.183347  0.316653  0.765635  1
  Y  Y7  1  0.183019  0.316981  0.232747  1
  Mg  Mg8  1  0.000136  0.000212  0.499653  1
  Mg  Mg9  1  0.499788  0.499864  0.499653  1
  Si  Si10  1  0.115257  0.614438  0.499522  1
  Si  Si11  1  0.885562  0.384743  0.499522  1
  Si  Si12  1  0.384511  0.115489  0.499573  1
  Si  Si13  1  0.614709  0.885291  0.499722  1
  B  B14  1  0.173891  0.039939  0.000207  1
  B  B15  1  0.826323  0.960302  0.000304  1
  B  B16  1  0.960267  0.173823  0.000202  1
  B  B17  1  0.326177  0.539733  0.000202  1
  B  B18  1  0.039885  0.826341  0.000305  1
  B  B19  1  0.673659  0.460115  0.000305  1
  B  B20  1  0.539698  0.673677  0.000304  1
  B  B21  1  0.460061  0.326109  0.000207  1
  B  B22  1  0.089655  0.589500  0.000214  1
  B  B23  1  0.910500  0.410345  0.000214  1
  B  B24  1  0.410467  0.089533  0.999852  1
  B  B25  1  0.589586  0.910414  0.000200  1
  B  B26  1  0.000099  0.000095  0.159948  1
  B  B27  1  0.000171  0.000010  0.840624  1
  B  B28  1  0.499990  0.499829  0.840624  1
  B  B29  1  0.499905  0.499901  0.159948  1
