# generated using pymatgen
data_Nd2DyHo(Ni5Sn)4
_symmetry_space_group_name_H-M   'P 1'
_cell_length_a   4.87711931
_cell_length_b   4.89414228
_cell_length_c   19.69367100
_cell_angle_alpha   90.00000000
_cell_angle_beta   90.00000000
_cell_angle_gamma   120.12151985
_symmetry_Int_Tables_number   1
_chemical_formula_structural   Nd2DyHo(Ni5Sn)4
_chemical_formula_sum   'Nd2 Dy1 Ho1 Ni20 Sn4'
_cell_volume   406.59700754
_cell_formula_units_Z   1
loop_
 _symmetry_equiv_pos_site_id
 _symmetry_equiv_pos_as_xyz
  1  'x, y, z'
loop_
 _atom_site_type_symbol
 _atom_site_label
 _atom_site_symmetry_multiplicity
 _atom_site_fract_x
 _atom_site_fract_y
 _atom_site_fract_z
 _atom_site_occupancy
  Nd  Nd0  1  0.000084  0.000054  0.499937  1
  Nd  Nd1  1  0.000084  0.000054  0.000063  1
  Dy  Dy2  1  0.666700  0.333006  0.750000  1
  Ho  Ho3  1  0.333032  0.666820  0.250000  1
  Ni  Ni4  1  0.001233  0.001148  0.250000  1
  Ni  Ni5  1  0.998592  0.998883  0.750000  1
  Ni  Ni6  1  0.334671  0.667025  0.750000  1
  Ni  Ni7  1  0.665108  0.332608  0.250000  1
  Ni  Ni8  1  0.331281  0.665248  0.956831  1
  Ni  Ni9  1  0.669012  0.334990  0.043388  1
  Ni  Ni10  1  0.669012  0.334990  0.456612  1
  Ni  Ni11  1  0.331281  0.665248  0.543169  1
  Ni  Ni12  1  0.833093  0.166124  0.352428  1
  Ni  Ni13  1  0.833438  0.667898  0.352368  1
  Ni  Ni14  1  0.332081  0.166580  0.352856  1
  Ni  Ni15  1  0.166904  0.833827  0.647368  1
  Ni  Ni16  1  0.166516  0.332076  0.647382  1
  Ni  Ni17  1  0.667854  0.833353  0.646939  1
  Ni  Ni18  1  0.166904  0.833827  0.852632  1
  Ni  Ni19  1  0.166516  0.332076  0.852618  1
  Ni  Ni20  1  0.667854  0.833353  0.853061  1
  Ni  Ni21  1  0.833093  0.166124  0.147572  1
  Ni  Ni22  1  0.833438  0.667898  0.147632  1
  Ni  Ni23  1  0.332081  0.166580  0.147144  1
  Sn  Sn24  1  0.332569  0.666624  0.411396  1
  Sn  Sn25  1  0.667501  0.333482  0.588341  1
  Sn  Sn26  1  0.667501  0.333482  0.911659  1
  Sn  Sn27  1  0.332569  0.666624  0.088604  1
