# generated using pymatgen
data_Sc2MnFe3Si4
_symmetry_space_group_name_H-M   'P 1'
_cell_length_a   5.00526300
_cell_length_b   7.09016600
_cell_length_c   7.47213200
_cell_angle_alpha   90.00000000
_cell_angle_beta   90.00000000
_cell_angle_gamma   90.00000000
_symmetry_Int_Tables_number   1
_chemical_formula_structural   Sc2MnFe3Si4
_chemical_formula_sum   'Sc4 Mn2 Fe6 Si8'
_cell_volume   265.17210794
_cell_formula_units_Z   2
loop_
 _symmetry_equiv_pos_site_id
 _symmetry_equiv_pos_as_xyz
  1  'x, y, z'
loop_
 _atom_site_type_symbol
 _atom_site_label
 _atom_site_symmetry_multiplicity
 _atom_site_fract_x
 _atom_site_fract_y
 _atom_site_fract_z
 _atom_site_occupancy
  Sc  Sc0  1  0.751670  0.904544  0.248902  1
  Sc  Sc1  1  0.251670  0.095456  0.751098  1
  Sc  Sc2  1  0.748330  0.404544  0.751098  1
  Sc  Sc3  1  0.248330  0.595456  0.248902  1
  Mn  Mn4  1  0.000000  0.750000  0.622476  1
  Mn  Mn5  1  0.500000  0.250000  0.377524  1
  Fe  Fe6  1  0.747961  0.510408  0.115307  1
  Fe  Fe7  1  0.247961  0.489592  0.884693  1
  Fe  Fe8  1  0.752039  0.010409  0.884693  1
  Fe  Fe9  1  0.252039  0.989592  0.115307  1
  Fe  Fe10  1  0.000000  0.250000  0.382071  1
  Fe  Fe11  1  0.500000  0.750000  0.617929  1
  Si  Si12  1  0.749386  0.548903  0.416073  1
  Si  Si13  1  0.249386  0.451097  0.583927  1
  Si  Si14  1  0.750614  0.048903  0.583927  1
  Si  Si15  1  0.250614  0.951097  0.416073  1
  Si  Si16  1  0.000000  0.750000  0.954054  1
  Si  Si17  1  0.500000  0.250000  0.045946  1
  Si  Si18  1  0.000000  0.250000  0.050591  1
  Si  Si19  1  0.500000  0.750000  0.949409  1
