# generated using pymatgen
data_Tb2Dy2CuPt3
_symmetry_space_group_name_H-M   'P 1'
_cell_length_a   4.52880000
_cell_length_b   5.59030388
_cell_length_c   7.01824706
_cell_angle_alpha   89.76191488
_cell_angle_beta   90.00000000
_cell_angle_gamma   90.00000000
_symmetry_Int_Tables_number   1
_chemical_formula_structural   Tb2Dy2CuPt3
_chemical_formula_sum   'Tb2 Dy2 Cu1 Pt3'
_cell_volume   177.68201085
_cell_formula_units_Z   1
loop_
 _symmetry_equiv_pos_site_id
 _symmetry_equiv_pos_as_xyz
  1  'x, y, z'
loop_
 _atom_site_type_symbol
 _atom_site_label
 _atom_site_symmetry_multiplicity
 _atom_site_fract_x
 _atom_site_fract_y
 _atom_site_fract_z
 _atom_site_occupancy
  Tb  Tb0  1  0.500000  0.364801  0.686666  1
  Tb  Tb1  1  0.500000  0.139553  0.177366  1
  Dy  Dy2  1  0.000000  0.640793  0.316963  1
  Dy  Dy3  1  0.000000  0.856070  0.819063  1
  Cu  Cu4  1  0.000000  0.137105  0.463105  1
  Pt  Pt5  1  0.000000  0.339685  0.955668  1
  Pt  Pt6  1  0.500000  0.865813  0.535116  1
  Pt  Pt7  1  0.500000  0.656181  0.046053  1
