# generated using pymatgen
data_YEr(H2Cl)2
_symmetry_space_group_name_H-M   'P 1'
_cell_length_a   11.04911333
_cell_length_b   11.04911354
_cell_length_c   11.04911148
_cell_angle_alpha   19.23404650
_cell_angle_beta   19.23404226
_cell_angle_gamma   19.23404402
_symmetry_Int_Tables_number   1
_chemical_formula_structural   YEr(H2Cl)2
_chemical_formula_sum   'Y1 Er1 H4 Cl2'
_cell_volume   127.96512907
_cell_formula_units_Z   1
loop_
 _symmetry_equiv_pos_site_id
 _symmetry_equiv_pos_as_xyz
  1  'x, y, z'
loop_
 _atom_site_type_symbol
 _atom_site_label
 _atom_site_symmetry_multiplicity
 _atom_site_fract_x
 _atom_site_fract_y
 _atom_site_fract_z
 _atom_site_occupancy
  Y  Y0  1  0.882795  0.882795  0.882795  1
  Er  Er1  1  0.117281  0.117281  0.117281  1
  H  H2  1  0.814662  0.814662  0.814662  1
  H  H3  1  0.184521  0.184521  0.184521  1
  H  H4  1  0.542315  0.542315  0.542315  1
  H  H5  1  0.457507  0.457507  0.457507  1
  Cl  Cl6  1  0.729924  0.729924  0.729924  1
  Cl  Cl7  1  0.270994  0.270994  0.270994  1
