# generated using pymatgen
data_Dy4ScPb4
_symmetry_space_group_name_H-M   'P 1'
_cell_length_a   8.35690993
_cell_length_b   8.30723500
_cell_length_c   7.99023908
_cell_angle_alpha   90.00000000
_cell_angle_beta   111.71768956
_cell_angle_gamma   90.00000000
_symmetry_Int_Tables_number   1
_chemical_formula_structural   Dy4ScPb4
_chemical_formula_sum   'Dy8 Sc2 Pb8'
_cell_volume   515.33103046
_cell_formula_units_Z   2
loop_
 _symmetry_equiv_pos_site_id
 _symmetry_equiv_pos_as_xyz
  1  'x, y, z'
loop_
 _atom_site_type_symbol
 _atom_site_label
 _atom_site_symmetry_multiplicity
 _atom_site_fract_x
 _atom_site_fract_y
 _atom_site_fract_z
 _atom_site_occupancy
  Dy  Dy0  1  0.692684  0.319917  0.048989  1
  Dy  Dy1  1  0.745242  0.841605  0.235649  1
  Dy  Dy2  1  0.254758  0.341606  0.264351  1
  Dy  Dy3  1  0.307315  0.819918  0.451011  1
  Dy  Dy4  1  0.692685  0.180083  0.548990  1
  Dy  Dy5  1  0.745242  0.658395  0.735649  1
  Dy  Dy6  1  0.254758  0.158395  0.764351  1
  Dy  Dy7  1  0.307316  0.680082  0.951011  1
  Sc  Sc8  1  0.000000  0.000000  0.000000  1
  Sc  Sc9  1  0.000000  0.500000  0.500000  1
  Pb  Pb10  1  0.016511  0.646808  0.146495  1
  Pb  Pb11  1  0.408712  0.034480  0.175226  1
  Pb  Pb12  1  0.591289  0.534480  0.324774  1
  Pb  Pb13  1  0.983488  0.146808  0.353504  1
  Pb  Pb14  1  0.016512  0.853192  0.646495  1
  Pb  Pb15  1  0.408711  0.465520  0.675225  1
  Pb  Pb16  1  0.591289  0.965520  0.824774  1
  Pb  Pb17  1  0.983488  0.353193  0.853504  1
