# generated using pymatgen
data_Lu6Al24Co3Os5
_symmetry_space_group_name_H-M   'P 1'
_cell_length_a   8.71114690
_cell_length_b   8.74887936
_cell_length_c   9.43031175
_cell_angle_alpha   90.00000101
_cell_angle_beta   89.64950219
_cell_angle_gamma   120.14337696
_symmetry_Int_Tables_number   1
_chemical_formula_structural   Lu6Al24Co3Os5
_chemical_formula_sum   'Lu6 Al24 Co3 Os5'
_cell_volume   621.50455338
_cell_formula_units_Z   1
loop_
 _symmetry_equiv_pos_site_id
 _symmetry_equiv_pos_as_xyz
  1  'x, y, z'
loop_
 _atom_site_type_symbol
 _atom_site_label
 _atom_site_symmetry_multiplicity
 _atom_site_fract_x
 _atom_site_fract_y
 _atom_site_fract_z
 _atom_site_occupancy
  Lu  Lu0  1  0.198577  0.390750  0.250601  1
  Lu  Lu1  1  0.801423  0.609250  0.749399  1
  Lu  Lu2  1  0.607490  0.803745  0.247436  1
  Lu  Lu3  1  0.392510  0.196255  0.752564  1
  Lu  Lu4  1  0.198577  0.807828  0.250601  1
  Lu  Lu5  1  0.801423  0.192172  0.749399  1
  Al  Al6  1  0.325924  0.662963  0.017267  1
  Al  Al7  1  0.674076  0.337037  0.982733  1
  Al  Al8  1  0.666699  0.333349  0.516211  1
  Al  Al9  1  0.333301  0.666651  0.483789  1
  Al  Al10  1  0.158459  0.318360  0.577099  1
  Al  Al11  1  0.841541  0.681640  0.422901  1
  Al  Al12  1  0.681550  0.840776  0.575457  1
  Al  Al13  1  0.842245  0.680023  0.075217  1
  Al  Al14  1  0.318450  0.159224  0.424543  1
  Al  Al15  1  0.157755  0.319977  0.924783  1
  Al  Al16  1  0.158459  0.840100  0.577099  1
  Al  Al17  1  0.320791  0.160395  0.075645  1
  Al  Al18  1  0.841541  0.159900  0.422901  1
  Al  Al19  1  0.679209  0.839605  0.924355  1
  Al  Al20  1  0.842245  0.162220  0.075217  1
  Al  Al21  1  0.157755  0.837780  0.924783  1
  Al  Al22  1  0.563417  0.124273  0.248857  1
  Al  Al23  1  0.436583  0.875727  0.751143  1
  Al  Al24  1  0.883756  0.441879  0.243525  1
  Al  Al25  1  0.116244  0.558121  0.756475  1
  Al  Al26  1  0.563417  0.439145  0.248857  1
  Al  Al27  1  0.436583  0.560855  0.751143  1
  Al  Al28  1  0.000768  0.000384  0.250036  1
  Al  Al29  1  0.999232  0.999616  0.749964  1
  Co  Co30  1  0.000000  0.500000  0.000000  1
  Co  Co31  1  0.000000  0.000000  0.000000  1
  Co  Co32  1  0.000000  0.000000  0.500000  1
  Os  Os33  1  0.500000  0.000000  0.000000  1
  Os  Os34  1  0.500000  0.000000  0.500000  1
  Os  Os35  1  0.500000  0.500000  0.000000  1
  Os  Os36  1  0.000000  0.500000  0.500000  1
  Os  Os37  1  0.500000  0.500000  0.500000  1
