# generated using pymatgen
data_Na2AcAu4
_symmetry_space_group_name_H-M   'P 1'
_cell_length_a   5.94427296
_cell_length_b   5.94427298
_cell_length_c   5.94427300
_cell_angle_alpha   102.93034306
_cell_angle_beta   102.93034311
_cell_angle_gamma   123.53644786
_symmetry_Int_Tables_number   1
_chemical_formula_structural   Na2AcAu4
_chemical_formula_sum   'Na2 Ac1 Au4'
_cell_volume   154.24677516
_cell_formula_units_Z   1
loop_
 _symmetry_equiv_pos_site_id
 _symmetry_equiv_pos_as_xyz
  1  'x, y, z'
loop_
 _atom_site_type_symbol
 _atom_site_label
 _atom_site_symmetry_multiplicity
 _atom_site_fract_x
 _atom_site_fract_y
 _atom_site_fract_z
 _atom_site_occupancy
  Na  Na0  1  0.250000  0.750000  0.500000  1
  Na  Na1  1  0.750000  0.250000  0.500000  1
  Ac  Ac2  1  0.000000  0.000000  0.000000  1
  Au  Au3  1  0.303657  0.303657  0.607313  1
  Au  Au4  1  0.696343  0.696343  0.392687  1
  Au  Au5  1  0.696343  0.303657  0.000000  1
  Au  Au6  1  0.303657  0.696343  0.000000  1
