# generated using pymatgen
data_CaYb3Al8
_symmetry_space_group_name_H-M   'P 1'
_cell_length_a   9.67100390
_cell_length_b   9.67100374
_cell_length_c   9.67100363
_cell_angle_alpha   34.01582937
_cell_angle_beta   34.01583344
_cell_angle_gamma   34.01582407
_symmetry_Int_Tables_number   1
_chemical_formula_structural   CaYb3Al8
_chemical_formula_sum   'Ca1 Yb3 Al8'
_cell_volume   252.32835452
_cell_formula_units_Z   1
loop_
 _symmetry_equiv_pos_site_id
 _symmetry_equiv_pos_as_xyz
  1  'x, y, z'
loop_
 _atom_site_type_symbol
 _atom_site_label
 _atom_site_symmetry_multiplicity
 _atom_site_fract_x
 _atom_site_fract_y
 _atom_site_fract_z
 _atom_site_occupancy
  Ca  Ca0  1  0.062224  0.062224  0.062224  1
  Yb  Yb1  1  0.562014  0.562014  0.562014  1
  Yb  Yb2  1  0.437989  0.437989  0.437989  1
  Yb  Yb3  1  0.937722  0.937722  0.937722  1
  Al  Al4  1  0.750179  0.750179  0.750179  1
  Al  Al5  1  0.249836  0.249836  0.249836  1
  Al  Al6  1  0.000623  0.499939  0.499939  1
  Al  Al7  1  0.500010  0.999761  0.999761  1
  Al  Al8  1  0.499939  0.000623  0.499939  1
  Al  Al9  1  0.999761  0.500010  0.999761  1
  Al  Al10  1  0.499939  0.499939  0.000623  1
  Al  Al11  1  0.999761  0.999761  0.500010  1
