# generated using pymatgen
data_La2YPa3N8
_symmetry_space_group_name_H-M   'P 1'
_cell_length_a   6.99700607
_cell_length_b   6.99677520
_cell_length_c   6.90315500
_cell_angle_alpha   120.44437184
_cell_angle_beta   90.00804122
_cell_angle_gamma   119.99541219
_symmetry_Int_Tables_number   1
_chemical_formula_structural   La2YPa3N8
_chemical_formula_sum   'La2 Y1 Pa3 N8'
_cell_volume   237.35156896
_cell_formula_units_Z   1
loop_
 _symmetry_equiv_pos_site_id
 _symmetry_equiv_pos_as_xyz
  1  'x, y, z'
loop_
 _atom_site_type_symbol
 _atom_site_label
 _atom_site_symmetry_multiplicity
 _atom_site_fract_x
 _atom_site_fract_y
 _atom_site_fract_z
 _atom_site_occupancy
  La  La0  1  0.996046  0.992078  0.988119  1
  La  La1  1  0.753955  0.507922  0.261881  1
  Y  Y2  1  0.375000  0.750000  0.125000  1
  Pa  Pa3  1  0.375000  0.750000  0.624999  1
  Pa  Pa4  1  0.375000  0.249999  0.624999  1
  Pa  Pa5  1  0.874999  0.249999  0.625000  1
  N  N6  1  0.615300  0.230652  0.406495  1
  N  N7  1  0.175843  0.791193  0.406494  1
  N  N8  1  0.615357  0.791200  0.406554  1
  N  N9  1  0.142212  0.284479  0.426694  1
  N  N10  1  0.607787  0.215522  0.823306  1
  N  N11  1  0.134643  0.708799  0.843444  1
  N  N12  1  0.134701  0.269349  0.843505  1
  N  N13  1  0.574157  0.708806  0.843506  1
