# generated using pymatgen
data_La4AlOs
_symmetry_space_group_name_H-M   'P 1'
_cell_length_a   9.98073297
_cell_length_b   9.98073364
_cell_length_c   9.98073300
_cell_angle_alpha   59.99999880
_cell_angle_beta   59.99999658
_cell_angle_gamma   60.00000185
_symmetry_Int_Tables_number   1
_chemical_formula_structural   La4AlOs
_chemical_formula_sum   'La16 Al4 Os4'
_cell_volume   703.02753076
_cell_formula_units_Z   4
loop_
 _symmetry_equiv_pos_site_id
 _symmetry_equiv_pos_as_xyz
  1  'x, y, z'
loop_
 _atom_site_type_symbol
 _atom_site_label
 _atom_site_symmetry_multiplicity
 _atom_site_fract_x
 _atom_site_fract_y
 _atom_site_fract_z
 _atom_site_occupancy
  La  La0  1  0.901795  0.901795  0.901795  1
  La  La1  1  0.444166  0.444166  0.055834  1
  La  La2  1  0.055834  0.055834  0.444166  1
  La  La3  1  0.444166  0.055834  0.055834  1
  La  La4  1  0.309564  0.690436  0.309564  1
  La  La5  1  0.690436  0.690436  0.309564  1
  La  La6  1  0.690436  0.309564  0.309564  1
  La  La7  1  0.294614  0.901795  0.901795  1
  La  La8  1  0.901795  0.294614  0.901795  1
  La  La9  1  0.309564  0.690436  0.690436  1
  La  La10  1  0.901795  0.901795  0.294614  1
  La  La11  1  0.055834  0.444166  0.055834  1
  La  La12  1  0.309564  0.309564  0.690436  1
  La  La13  1  0.055834  0.444166  0.444166  1
  La  La14  1  0.444166  0.055834  0.444166  1
  La  La15  1  0.690436  0.309564  0.690436  1
  Al  Al16  1  0.676286  0.676286  0.971142  1
  Al  Al17  1  0.971142  0.676286  0.676286  1
  Al  Al18  1  0.676286  0.971142  0.676286  1
  Al  Al19  1  0.676286  0.676286  0.676286  1
  Os  Os20  1  0.112452  0.112452  0.662644  1
  Os  Os21  1  0.112452  0.112452  0.112452  1
  Os  Os22  1  0.112452  0.662644  0.112452  1
  Os  Os23  1  0.662644  0.112452  0.112452  1
