# generated using pymatgen
data_Pr8NdThRu4
_symmetry_space_group_name_H-M   'P 1'
_cell_length_a   9.01326441
_cell_length_b   9.01326434
_cell_length_c   7.37110520
_cell_angle_alpha   83.48754542
_cell_angle_beta   83.48754581
_cell_angle_gamma   43.30172115
_symmetry_Int_Tables_number   1
_chemical_formula_structural   Pr8NdThRu4
_chemical_formula_sum   'Pr8 Nd1 Th1 Ru4'
_cell_volume   407.62605528
_cell_formula_units_Z   1
loop_
 _symmetry_equiv_pos_site_id
 _symmetry_equiv_pos_as_xyz
  1  'x, y, z'
loop_
 _atom_site_type_symbol
 _atom_site_label
 _atom_site_symmetry_multiplicity
 _atom_site_fract_x
 _atom_site_fract_y
 _atom_site_fract_z
 _atom_site_occupancy
  Pr  Pr0  1  0.017518  0.798682  0.916132  1
  Pr  Pr1  1  0.201318  0.982482  0.583868  1
  Pr  Pr2  1  0.983568  0.201199  0.086620  1
  Pr  Pr3  1  0.798801  0.016432  0.413380  1
  Pr  Pr4  1  0.355770  0.211034  0.812779  1
  Pr  Pr5  1  0.788966  0.644230  0.687221  1
  Pr  Pr6  1  0.641554  0.790581  0.184884  1
  Pr  Pr7  1  0.209419  0.358446  0.315116  1
  Nd  Nd8  1  0.426211  0.573789  0.250000  1
  Th  Th9  1  0.571427  0.428573  0.750000  1
  Ru  Ru10  1  0.195767  0.592065  0.577087  1
  Ru  Ru11  1  0.407935  0.804233  0.922913  1
  Ru  Ru12  1  0.805276  0.403532  0.441014  1
  Ru  Ru13  1  0.596468  0.194724  0.058986  1
