# generated using pymatgen
data_Sr4In2PdRh3
_symmetry_space_group_name_H-M   'P 1'
_cell_length_a   6.13717242
_cell_length_b   6.10833007
_cell_length_c   8.19459096
_cell_angle_alpha   78.57917885
_cell_angle_beta   78.40674195
_cell_angle_gamma   59.26391886
_symmetry_Int_Tables_number   1
_chemical_formula_structural   Sr4In2PdRh3
_chemical_formula_sum   'Sr4 In2 Pd1 Rh3'
_cell_volume   256.99679905
_cell_formula_units_Z   1
loop_
 _symmetry_equiv_pos_site_id
 _symmetry_equiv_pos_as_xyz
  1  'x, y, z'
loop_
 _atom_site_type_symbol
 _atom_site_label
 _atom_site_symmetry_multiplicity
 _atom_site_fract_x
 _atom_site_fract_y
 _atom_site_fract_z
 _atom_site_occupancy
  Sr  Sr0  1  0.507394  0.790625  0.351018  1
  Sr  Sr1  1  0.210125  0.493071  0.145028  1
  Sr  Sr2  1  0.493321  0.212728  0.649617  1
  Sr  Sr3  1  0.787606  0.503528  0.854225  1
  In  In4  1  0.884733  0.119595  0.243747  1
  In  In5  1  0.113637  0.891792  0.755471  1
  Pd  Pd6  1  0.003742  0.715824  0.505999  1
  Rh  Rh7  1  0.712118  0.002698  0.006324  1
  Rh  Rh8  1  0.996518  0.274847  0.492833  1
  Rh  Rh9  1  0.290806  0.995292  0.995738  1
