# generated using pymatgen
data_NdHo9Sn5Bi3
_symmetry_space_group_name_H-M   'P 1'
_cell_length_a   8.18651429
_cell_length_b   8.19464042
_cell_length_c   15.56984536
_cell_angle_alpha   90.01443704
_cell_angle_beta   88.92790674
_cell_angle_gamma   90.08945008
_symmetry_Int_Tables_number   1
_chemical_formula_structural   NdHo9Sn5Bi3
_chemical_formula_sum   'Nd2 Ho18 Sn10 Bi6'
_cell_volume   1044.32734977
_cell_formula_units_Z   2
loop_
 _symmetry_equiv_pos_site_id
 _symmetry_equiv_pos_as_xyz
  1  'x, y, z'
loop_
 _atom_site_type_symbol
 _atom_site_label
 _atom_site_symmetry_multiplicity
 _atom_site_fract_x
 _atom_site_fract_y
 _atom_site_fract_z
 _atom_site_occupancy
  Nd  Nd0  1  0.964145  0.827699  0.603426  1
  Nd  Nd1  1  0.538885  0.321340  0.395671  1
  Ho  Ho2  1  0.056712  0.166962  0.391177  1
  Ho  Ho3  1  0.395572  0.839029  0.120562  1
  Ho  Ho4  1  0.119024  0.336112  0.624676  1
  Ho  Ho5  1  0.444748  0.671420  0.888935  1
  Ho  Ho6  1  0.888349  0.665515  0.122684  1
  Ho  Ho7  1  0.108882  0.338120  0.878059  1
  Ho  Ho8  1  0.219622  0.498568  0.249651  1
  Ho  Ho9  1  0.720408  0.998847  0.245667  1
  Ho  Ho10  1  0.446547  0.676724  0.610969  1
  Ho  Ho11  1  0.280621  0.000904  0.746556  1
  Ho  Ho12  1  0.614216  0.159782  0.624008  1
  Ho  Ho13  1  0.779533  0.500952  0.750600  1
  Ho  Ho14  1  0.880873  0.659329  0.374650  1
  Ho  Ho15  1  0.052116  0.163202  0.110157  1
  Ho  Ho16  1  0.934733  0.836222  0.888894  1
  Ho  Ho17  1  0.611021  0.158345  0.879651  1
  Ho  Ho18  1  0.562769  0.326606  0.113060  1
  Ho  Ho19  1  0.382838  0.842050  0.377329  1
  Sn  Sn20  1  0.641652  0.857013  0.749903  1
  Sn  Sn21  1  0.860525  0.354401  0.250808  1
  Sn  Sn22  1  0.582550  0.628155  0.249801  1
  Sn  Sn23  1  0.416557  0.372569  0.752589  1
  Sn  Sn24  1  0.142788  0.643301  0.753486  1
  Sn  Sn25  1  0.914612  0.130037  0.751167  1
  Sn  Sn26  1  0.283947  0.034201  0.542061  1
  Sn  Sn27  1  0.731624  0.982110  0.044503  1
  Sn  Sn28  1  0.355027  0.141287  0.247453  1
  Sn  Sn29  1  0.085889  0.870270  0.249172  1
  Bi  Bi30  1  0.771742  0.477479  0.545813  1
  Bi  Bi31  1  0.727182  0.975004  0.453834  1
  Bi  Bi32  1  0.216024  0.533513  0.458293  1
  Bi  Bi33  1  0.265766  0.015468  0.954126  1
  Bi  Bi34  1  0.768079  0.483478  0.955686  1
  Bi  Bi35  1  0.234423  0.513985  0.044926  1
