# generated using pymatgen
data_Ta2Nb8Si5Sn
_symmetry_space_group_name_H-M   'P 1'
_cell_length_a   7.64562778
_cell_length_b   7.64562652
_cell_length_c   7.64562825
_cell_angle_alpha   127.99318110
_cell_angle_beta   127.99316964
_cell_angle_gamma   76.63607607
_symmetry_Int_Tables_number   1
_chemical_formula_structural   Ta2Nb8Si5Sn
_chemical_formula_sum   'Ta2 Nb8 Si5 Sn1'
_cell_volume   269.60458853
_cell_formula_units_Z   1
loop_
 _symmetry_equiv_pos_site_id
 _symmetry_equiv_pos_as_xyz
  1  'x, y, z'
loop_
 _atom_site_type_symbol
 _atom_site_label
 _atom_site_symmetry_multiplicity
 _atom_site_fract_x
 _atom_site_fract_y
 _atom_site_fract_z
 _atom_site_occupancy
  Ta  Ta0  1  0.002117  0.002117  0.000000  1
  Ta  Ta1  1  0.497883  0.497883  0.000000  1
  Nb  Nb2  1  0.026377  0.197783  0.515044  1
  Nb  Nb3  1  0.682738  0.511333  0.484956  1
  Nb  Nb4  1  0.511333  0.026377  0.828594  1
  Nb  Nb5  1  0.197783  0.682738  0.171406  1
  Nb  Nb6  1  0.988667  0.817262  0.515044  1
  Nb  Nb7  1  0.302217  0.473623  0.484956  1
  Nb  Nb8  1  0.473623  0.988667  0.171406  1
  Nb  Nb9  1  0.817262  0.302217  0.828594  1
  Si  Si10  1  0.250000  0.250000  0.000000  1
  Si  Si11  1  0.369849  0.130151  0.500000  1
  Si  Si12  1  0.630151  0.869849  0.500000  1
  Si  Si13  1  0.869849  0.369849  0.239698  1
  Si  Si14  1  0.130151  0.630151  0.760302  1
  Sn  Sn15  1  0.750000  0.750000  0.000000  1
