# generated using pymatgen
data_Tm10(SnSb)3
_symmetry_space_group_name_H-M   'P 1'
_cell_length_a   6.31147000
_cell_length_b   8.86799513
_cell_length_c   8.86799600
_cell_angle_alpha   59.99934660
_cell_angle_beta   90.00024200
_cell_angle_gamma   89.99976659
_symmetry_Int_Tables_number   1
_chemical_formula_structural   Tm10(SnSb)3
_chemical_formula_sum   'Tm10 Sn3 Sb3'
_cell_volume   429.84237690
_cell_formula_units_Z   1
loop_
 _symmetry_equiv_pos_site_id
 _symmetry_equiv_pos_as_xyz
  1  'x, y, z'
loop_
 _atom_site_type_symbol
 _atom_site_label
 _atom_site_symmetry_multiplicity
 _atom_site_fract_x
 _atom_site_fract_y
 _atom_site_fract_z
 _atom_site_occupancy
  Tm  Tm0  1  0.501466  0.333288  0.333318  1
  Tm  Tm1  1  0.501466  0.666682  0.666712  1
  Tm  Tm2  1  0.998516  0.666636  0.666664  1
  Tm  Tm3  1  0.998516  0.333336  0.333364  1
  Tm  Tm4  1  0.749981  0.239239  0.760761  1
  Tm  Tm5  1  0.750019  0.760763  0.000017  1
  Tm  Tm6  1  0.750019  0.999983  0.239237  1
  Tm  Tm7  1  0.250027  0.761449  0.238551  1
  Tm  Tm8  1  0.249994  0.238572  0.999994  1
  Tm  Tm9  1  0.249994  0.000006  0.761428  1
  Sn  Sn10  1  0.749772  0.605800  0.394200  1
  Sn  Sn11  1  0.750123  0.394242  0.000017  1
  Sn  Sn12  1  0.750123  0.999983  0.605758  1
  Sb  Sb13  1  0.250031  0.394292  0.605708  1
  Sb  Sb14  1  0.249976  0.605736  0.000006  1
  Sb  Sb15  1  0.249976  0.999994  0.394264  1
