# generated using pymatgen
data_Pr3YSc6(Si5Ir2)4
_symmetry_space_group_name_H-M   'P 1'
_cell_length_a   12.57382715
_cell_length_b   12.57382580
_cell_length_c   4.17053200
_cell_angle_alpha   90.00000000
_cell_angle_beta   90.00000000
_cell_angle_gamma   90.11575076
_symmetry_Int_Tables_number   1
_chemical_formula_structural   Pr3YSc6(Si5Ir2)4
_chemical_formula_sum   'Pr3 Y1 Sc6 Si20 Ir8'
_cell_volume   659.36440234
_cell_formula_units_Z   1
loop_
 _symmetry_equiv_pos_site_id
 _symmetry_equiv_pos_as_xyz
  1  'x, y, z'
loop_
 _atom_site_type_symbol
 _atom_site_label
 _atom_site_symmetry_multiplicity
 _atom_site_fract_x
 _atom_site_fract_y
 _atom_site_fract_z
 _atom_site_occupancy
  Pr  Pr0  1  0.116068  0.615901  0.500000  1
  Pr  Pr1  1  0.884099  0.383932  0.500000  1
  Pr  Pr2  1  0.615222  0.884778  0.500000  1
  Y  Y3  1  0.383288  0.116712  0.500000  1
  Sc  Sc4  1  0.674729  0.176553  0.500000  1
  Sc  Sc5  1  0.323447  0.825271  0.500000  1
  Sc  Sc6  1  0.176859  0.323141  0.500000  1
  Sc  Sc7  1  0.823802  0.676198  0.500000  1
  Sc  Sc8  1  0.001089  0.000352  0.000000  1
  Sc  Sc9  1  0.499648  0.498911  0.000000  1
  Si  Si10  1  0.568013  0.068160  0.000000  1
  Si  Si11  1  0.431840  0.931987  0.000000  1
  Si  Si12  1  0.069486  0.430514  0.000000  1
  Si  Si13  1  0.930691  0.569309  0.000000  1
  Si  Si14  1  0.201265  0.163406  0.000000  1
  Si  Si15  1  0.799795  0.837010  0.000000  1
  Si  Si16  1  0.163684  0.801334  0.000000  1
  Si  Si17  1  0.698666  0.336316  0.000000  1
  Si  Si18  1  0.836472  0.200012  0.000000  1
  Si  Si19  1  0.299988  0.663528  0.000000  1
  Si  Si20  1  0.662990  0.700205  0.000000  1
  Si  Si21  1  0.336594  0.298735  0.000000  1
  Si  Si22  1  0.009945  0.148937  0.500000  1
  Si  Si23  1  0.992137  0.851198  0.500000  1
  Si  Si24  1  0.151642  0.993087  0.500000  1
  Si  Si25  1  0.506913  0.348358  0.500000  1
  Si  Si26  1  0.851198  0.009935  0.500000  1
  Si  Si27  1  0.490065  0.648802  0.500000  1
  Si  Si28  1  0.648802  0.507863  0.500000  1
  Si  Si29  1  0.351063  0.490055  0.500000  1
  Ir  Ir30  1  0.024832  0.241064  0.000000  1
  Ir  Ir31  1  0.975471  0.759039  0.000000  1
  Ir  Ir32  1  0.244814  0.977594  0.000000  1
  Ir  Ir33  1  0.522406  0.255186  0.000000  1
  Ir  Ir34  1  0.757947  0.024868  0.000000  1
  Ir  Ir35  1  0.475132  0.742053  0.000000  1
  Ir  Ir36  1  0.740961  0.524529  0.000000  1
  Ir  Ir37  1  0.258936  0.475168  0.000000  1
