# generated using pymatgen
data_YEr4(Hg2Pt)2
_symmetry_space_group_name_H-M   'P 1'
_cell_length_a   3.64359800
_cell_length_b   7.92898600
_cell_length_c   18.11116700
_cell_angle_alpha   90.00000000
_cell_angle_beta   90.00000000
_cell_angle_gamma   90.00000000
_symmetry_Int_Tables_number   1
_chemical_formula_structural   YEr4(Hg2Pt)2
_chemical_formula_sum   'Y2 Er8 Hg8 Pt4'
_cell_volume   523.23229437
_cell_formula_units_Z   2
loop_
 _symmetry_equiv_pos_site_id
 _symmetry_equiv_pos_as_xyz
  1  'x, y, z'
loop_
 _atom_site_type_symbol
 _atom_site_label
 _atom_site_symmetry_multiplicity
 _atom_site_fract_x
 _atom_site_fract_y
 _atom_site_fract_z
 _atom_site_occupancy
  Y  Y0  1  0.000000  0.000000  0.000000  1
  Y  Y1  1  0.000000  0.500000  0.500000  1
  Er  Er2  1  0.000000  0.112721  0.413570  1
  Er  Er3  1  0.000000  0.887279  0.586430  1
  Er  Er4  1  0.000000  0.387279  0.913570  1
  Er  Er5  1  0.000000  0.612721  0.086430  1
  Er  Er6  1  0.000000  0.238695  0.217066  1
  Er  Er7  1  0.000000  0.761305  0.782934  1
  Er  Er8  1  0.000000  0.261305  0.717066  1
  Er  Er9  1  0.000000  0.738695  0.282934  1
  Hg  Hg10  1  0.500000  0.423453  0.354449  1
  Hg  Hg11  1  0.500000  0.576547  0.645551  1
  Hg  Hg12  1  0.500000  0.076547  0.854449  1
  Hg  Hg13  1  0.500000  0.923453  0.145551  1
  Hg  Hg14  1  0.500000  0.290719  0.063190  1
  Hg  Hg15  1  0.500000  0.709281  0.936810  1
  Hg  Hg16  1  0.500000  0.209281  0.563190  1
  Hg  Hg17  1  0.500000  0.790719  0.436810  1
  Pt  Pt18  1  0.500000  0.025977  0.302984  1
  Pt  Pt19  1  0.500000  0.974023  0.697016  1
  Pt  Pt20  1  0.500000  0.474023  0.802984  1
  Pt  Pt21  1  0.500000  0.525977  0.197016  1
