# generated using pymatgen
data_La3Be2(AsPd5)4
_symmetry_space_group_name_H-M   'P 1'
_cell_length_a   8.96145704
_cell_length_b   8.79425123
_cell_length_c   8.79425092
_cell_angle_alpha   61.26193199
_cell_angle_beta   59.36902886
_cell_angle_gamma   59.36903784
_symmetry_Int_Tables_number   1
_chemical_formula_structural   La3Be2(AsPd5)4
_chemical_formula_sum   'La3 Be2 As4 Pd20'
_cell_volume   489.71242076
_cell_formula_units_Z   1
loop_
 _symmetry_equiv_pos_site_id
 _symmetry_equiv_pos_as_xyz
  1  'x, y, z'
loop_
 _atom_site_type_symbol
 _atom_site_label
 _atom_site_symmetry_multiplicity
 _atom_site_fract_x
 _atom_site_fract_y
 _atom_site_fract_z
 _atom_site_occupancy
  La  La0  1  0.250000  0.250000  0.250000  1
  La  La1  1  0.750000  0.750000  0.750000  1
  La  La2  1  0.000000  0.000000  0.000000  1
  Be  Be3  1  0.730864  0.269136  0.269136  1
  Be  Be4  1  0.269136  0.730864  0.730864  1
  As  As5  1  0.266903  0.733097  0.266903  1
  As  As6  1  0.733097  0.266903  0.733097  1
  As  As7  1  0.266903  0.266903  0.733097  1
  As  As8  1  0.733097  0.733097  0.266903  1
  Pd  Pd9  1  0.394827  0.379749  0.379749  1
  Pd  Pd10  1  0.605173  0.620251  0.620251  1
  Pd  Pd11  1  0.379749  0.394827  0.845678  1
  Pd  Pd12  1  0.379749  0.845678  0.394827  1
  Pd  Pd13  1  0.620251  0.605173  0.154322  1
  Pd  Pd14  1  0.620251  0.154322  0.605173  1
  Pd  Pd15  1  0.845678  0.379749  0.379749  1
  Pd  Pd16  1  0.154322  0.620251  0.620251  1
  Pd  Pd17  1  0.348784  0.000000  0.000000  1
  Pd  Pd18  1  0.651216  0.000000  0.000000  1
  Pd  Pd19  1  0.000000  0.348784  0.651216  1
  Pd  Pd20  1  0.000000  0.651216  0.348784  1
  Pd  Pd21  1  0.987430  0.345930  0.012570  1
  Pd  Pd22  1  0.654070  0.012570  0.345930  1
  Pd  Pd23  1  0.012570  0.654070  0.987430  1
  Pd  Pd24  1  0.345930  0.987430  0.654070  1
  Pd  Pd25  1  0.987430  0.012570  0.345930  1
  Pd  Pd26  1  0.012570  0.987430  0.654070  1
  Pd  Pd27  1  0.654070  0.345930  0.012570  1
  Pd  Pd28  1  0.345930  0.654070  0.987430  1
