# generated using pymatgen
data_Yb3Sc(B4Ru5)2
_symmetry_space_group_name_H-M   'P 1'
_cell_length_a   2.99888300
_cell_length_b   8.64907437
_cell_length_c   10.17493468
_cell_angle_alpha   90.23814173
_cell_angle_beta   90.00000000
_cell_angle_gamma   90.00000000
_symmetry_Int_Tables_number   1
_chemical_formula_structural   Yb3Sc(B4Ru5)2
_chemical_formula_sum   'Yb3 Sc1 B8 Ru10'
_cell_volume   263.91072067
_cell_formula_units_Z   1
loop_
 _symmetry_equiv_pos_site_id
 _symmetry_equiv_pos_as_xyz
  1  'x, y, z'
loop_
 _atom_site_type_symbol
 _atom_site_label
 _atom_site_symmetry_multiplicity
 _atom_site_fract_x
 _atom_site_fract_y
 _atom_site_fract_z
 _atom_site_occupancy
  Yb  Yb0  1  0.500000  0.841936  0.182836  1
  Yb  Yb1  1  0.500000  0.157944  0.818147  1
  Yb  Yb2  1  0.500000  0.657131  0.681205  1
  Sc  Sc3  1  0.500000  0.344061  0.317764  1
  B  B4  1  0.500000  0.965770  0.589555  1
  B  B5  1  0.500000  0.036562  0.410912  1
  B  B6  1  0.500000  0.852906  0.899927  1
  B  B7  1  0.500000  0.148863  0.100747  1
  B  B8  1  0.500000  0.646192  0.399465  1
  B  B9  1  0.500000  0.352001  0.600992  1
  B  B10  1  0.500000  0.465393  0.910506  1
  B  B11  1  0.500000  0.534580  0.088776  1
  Ru  Ru12  1  0.000000  0.657044  0.955476  1
  Ru  Ru13  1  0.000000  0.343150  0.047338  1
  Ru  Ru14  1  0.000000  0.842152  0.452733  1
  Ru  Ru15  1  0.000000  0.157410  0.544092  1
  Ru  Ru16  1  0.000000  0.000782  0.001464  1
  Ru  Ru17  1  0.000000  0.404480  0.759811  1
  Ru  Ru18  1  0.000000  0.590774  0.240347  1
  Ru  Ru19  1  0.000000  0.493819  0.496575  1
  Ru  Ru20  1  0.000000  0.904678  0.739859  1
  Ru  Ru21  1  0.000000  0.102373  0.261474  1
