# generated using pymatgen
data_Mg4ScP12Ir12Ru7
_symmetry_space_group_name_H-M   'P 1'
_cell_length_a   12.65803076
_cell_length_b   12.57866715
_cell_length_c   3.89484600
_cell_angle_alpha   90.00000000
_cell_angle_beta   90.00000000
_cell_angle_gamma   120.55161333
_symmetry_Int_Tables_number   1
_chemical_formula_structural   Mg4ScP12Ir12Ru7
_chemical_formula_sum   'Mg4 Sc1 P12 Ir12 Ru7'
_cell_volume   534.04858173
_cell_formula_units_Z   1
loop_
 _symmetry_equiv_pos_site_id
 _symmetry_equiv_pos_as_xyz
  1  'x, y, z'
loop_
 _atom_site_type_symbol
 _atom_site_label
 _atom_site_symmetry_multiplicity
 _atom_site_fract_x
 _atom_site_fract_y
 _atom_site_fract_z
 _atom_site_occupancy
  Mg  Mg0  1  0.331829  0.666800  0.000000  1
  Mg  Mg1  1  0.823491  0.999007  0.500000  1
  Mg  Mg2  1  0.997146  0.818311  0.500000  1
  Mg  Mg3  1  0.176815  0.174195  0.500000  1
  Sc  Sc4  1  0.668324  0.336231  0.000000  1
  P  P5  1  0.176204  0.994128  0.000000  1
  P  P6  1  0.002223  0.178554  0.000000  1
  P  P7  1  0.816470  0.820345  0.000000  1
  P  P8  1  0.172769  0.480762  0.500000  1
  P  P9  1  0.516982  0.689923  0.500000  1
  P  P10  1  0.310797  0.829545  0.500000  1
  P  P11  1  0.693509  0.521239  0.500000  1
  P  P12  1  0.832668  0.315325  0.500000  1
  P  P13  1  0.483650  0.171468  0.500000  1
  P  P14  1  0.634153  0.994196  0.000000  1
  P  P15  1  0.002010  0.639547  0.000000  1
  P  P16  1  0.358647  0.364930  0.000000  1
  Ir  Ir17  1  0.362174  0.491109  0.500000  1
  Ir  Ir18  1  0.506950  0.870984  0.500000  1
  Ir  Ir19  1  0.134563  0.636906  0.500000  1
  Ir  Ir20  1  0.868364  0.508256  0.500000  1
  Ir  Ir21  1  0.642184  0.139876  0.500000  1
  Ir  Ir22  1  0.499425  0.361416  0.500000  1
  Ir  Ir23  1  0.814707  0.184598  0.000000  1
  Ir  Ir24  1  0.369665  0.185897  0.000000  1
  Ir  Ir25  1  0.287008  0.002859  0.500000  1
  Ir  Ir26  1  0.996571  0.282560  0.500000  1
  Ir  Ir27  1  0.713506  0.714902  0.500000  1
  Ir  Ir28  1  0.999909  0.998240  0.000000  1
  Ru  Ru29  1  0.459236  0.009095  0.000000  1
  Ru  Ru30  1  0.994754  0.451104  0.000000  1
  Ru  Ru31  1  0.547521  0.542850  0.000000  1
  Ru  Ru32  1  0.180445  0.376069  0.000000  1
  Ru  Ru33  1  0.619771  0.803263  0.000000  1
  Ru  Ru34  1  0.195839  0.818039  0.000000  1
  Ru  Ru35  1  0.809721  0.627476  0.000000  1
