# generated using pymatgen
data_La4ErIrPt2
_symmetry_space_group_name_H-M   'P 1'
_cell_length_a   11.44257000
_cell_length_b   11.44257000
_cell_length_c   6.51820000
_cell_angle_alpha   90.00000000
_cell_angle_beta   90.00000000
_cell_angle_gamma   90.00000000
_symmetry_Int_Tables_number   1
_chemical_formula_structural   La4ErIrPt2
_chemical_formula_sum   'La16 Er4 Ir4 Pt8'
_cell_volume   853.44362316
_cell_formula_units_Z   4
loop_
 _symmetry_equiv_pos_site_id
 _symmetry_equiv_pos_as_xyz
  1  'x, y, z'
loop_
 _atom_site_type_symbol
 _atom_site_label
 _atom_site_symmetry_multiplicity
 _atom_site_fract_x
 _atom_site_fract_y
 _atom_site_fract_z
 _atom_site_occupancy
  La  La0  1  0.291606  0.087424  0.379376  1
  La  La1  1  0.291606  0.912576  0.879376  1
  La  La2  1  0.708394  0.087424  0.879376  1
  La  La3  1  0.708394  0.912576  0.379376  1
  La  La4  1  0.587424  0.791606  0.879376  1
  La  La5  1  0.587424  0.208394  0.379376  1
  La  La6  1  0.412576  0.791606  0.379376  1
  La  La7  1  0.412576  0.208394  0.879376  1
  La  La8  1  0.208394  0.412576  0.620624  1
  La  La9  1  0.208394  0.587424  0.120624  1
  La  La10  1  0.791606  0.412576  0.120624  1
  La  La11  1  0.791606  0.587424  0.620624  1
  La  La12  1  0.912576  0.708394  0.120624  1
  La  La13  1  0.912576  0.291606  0.620624  1
  La  La14  1  0.087424  0.708394  0.620624  1
  La  La15  1  0.087424  0.291606  0.120624  1
  Er  Er16  1  0.000000  0.000000  0.500000  1
  Er  Er17  1  0.000000  0.000000  0.000000  1
  Er  Er18  1  0.500000  0.500000  0.000000  1
  Er  Er19  1  0.500000  0.500000  0.500000  1
  Ir  Ir20  1  0.500000  0.000000  0.118434  1
  Ir  Ir21  1  0.500000  0.000000  0.618434  1
  Ir  Ir22  1  0.000000  0.500000  0.881566  1
  Ir  Ir23  1  0.000000  0.500000  0.381566  1
  Pt  Pt24  1  0.853559  0.146441  0.250000  1
  Pt  Pt25  1  0.853559  0.853559  0.750000  1
  Pt  Pt26  1  0.146441  0.146441  0.750000  1
  Pt  Pt27  1  0.146441  0.853559  0.250000  1
  Pt  Pt28  1  0.646441  0.353559  0.750000  1
  Pt  Pt29  1  0.646441  0.646441  0.250000  1
  Pt  Pt30  1  0.353559  0.353559  0.250000  1
  Pt  Pt31  1  0.353559  0.646441  0.750000  1
