# generated using pymatgen
data_Tm9Zn4
_symmetry_space_group_name_H-M   'P 1'
_cell_length_a   8.44283583
_cell_length_b   8.44283568
_cell_length_c   8.44281783
_cell_angle_alpha   94.99104044
_cell_angle_beta   94.99098658
_cell_angle_gamma   145.69014031
_symmetry_Int_Tables_number   1
_chemical_formula_structural   Tm9Zn4
_chemical_formula_sum   'Tm9 Zn4'
_cell_volume   324.13289417
_cell_formula_units_Z   1
loop_
 _symmetry_equiv_pos_site_id
 _symmetry_equiv_pos_as_xyz
  1  'x, y, z'
loop_
 _atom_site_type_symbol
 _atom_site_label
 _atom_site_symmetry_multiplicity
 _atom_site_fract_x
 _atom_site_fract_y
 _atom_site_fract_z
 _atom_site_occupancy
  Tm  Tm0  1  0.499999  0.499999  0.000000  1
  Tm  Tm1  1  0.181918  0.888468  0.070388  1
  Tm  Tm2  1  0.111531  0.181918  0.293449  1
  Tm  Tm3  1  0.883694  0.401207  0.284902  1
  Tm  Tm4  1  0.598791  0.883694  0.482487  1
  Tm  Tm5  1  0.401208  0.116305  0.517512  1
  Tm  Tm6  1  0.116305  0.598792  0.715098  1
  Tm  Tm7  1  0.888468  0.818081  0.706551  1
  Tm  Tm8  1  0.818081  0.111531  0.929612  1
  Zn  Zn9  1  0.392863  0.736421  0.129286  1
  Zn  Zn10  1  0.736421  0.607135  0.343559  1
  Zn  Zn11  1  0.263578  0.392864  0.656441  1
  Zn  Zn12  1  0.607136  0.263578  0.870714  1
