# generated using pymatgen
data_Tm2Ga9Ru5
_symmetry_space_group_name_H-M   'P 1'
_cell_length_a   6.16266811
_cell_length_b   6.16266812
_cell_length_c   8.01248974
_cell_angle_alpha   112.61682094
_cell_angle_beta   112.61682175
_cell_angle_gamma   89.99999936
_symmetry_Int_Tables_number   1
_chemical_formula_structural   Tm2Ga9Ru5
_chemical_formula_sum   'Tm2 Ga9 Ru5'
_cell_volume   255.36327339
_cell_formula_units_Z   1
loop_
 _symmetry_equiv_pos_site_id
 _symmetry_equiv_pos_as_xyz
  1  'x, y, z'
loop_
 _atom_site_type_symbol
 _atom_site_label
 _atom_site_symmetry_multiplicity
 _atom_site_fract_x
 _atom_site_fract_y
 _atom_site_fract_z
 _atom_site_occupancy
  Tm  Tm0  1  0.500000  0.000000  0.000000  1
  Tm  Tm1  1  0.000000  0.500000  0.000000  1
  Ga  Ga2  1  0.000000  0.000000  0.000000  1
  Ga  Ga3  1  0.436565  0.436565  0.294642  1
  Ga  Ga4  1  0.858077  0.436565  0.294642  1
  Ga  Ga5  1  0.436565  0.858077  0.294642  1
  Ga  Ga6  1  0.858077  0.858077  0.294642  1
  Ga  Ga7  1  0.141923  0.141923  0.705358  1
  Ga  Ga8  1  0.563435  0.141923  0.705358  1
  Ga  Ga9  1  0.141923  0.563435  0.705358  1
  Ga  Ga10  1  0.563435  0.563435  0.705358  1
  Ru  Ru11  1  0.500000  0.500000  0.000000  1
  Ru  Ru12  1  0.181759  0.181759  0.363517  1
  Ru  Ru13  1  0.750000  0.250000  0.499999  1
  Ru  Ru14  1  0.250000  0.750000  0.499999  1
  Ru  Ru15  1  0.818242  0.818242  0.636483  1
