# generated using pymatgen
data_Tb3Er3Bi2Mo
_symmetry_space_group_name_H-M   'P 1'
_cell_length_a   8.28772800
_cell_length_b   8.28772888
_cell_length_c   4.36111200
_cell_angle_alpha   90.00000000
_cell_angle_beta   90.00000000
_cell_angle_gamma   119.99999650
_symmetry_Int_Tables_number   1
_chemical_formula_structural   Tb3Er3Bi2Mo
_chemical_formula_sum   'Tb3 Er3 Bi2 Mo1'
_cell_volume   259.41728610
_cell_formula_units_Z   1
loop_
 _symmetry_equiv_pos_site_id
 _symmetry_equiv_pos_as_xyz
  1  'x, y, z'
loop_
 _atom_site_type_symbol
 _atom_site_label
 _atom_site_symmetry_multiplicity
 _atom_site_fract_x
 _atom_site_fract_y
 _atom_site_fract_z
 _atom_site_occupancy
  Tb  Tb0  1  0.000000  0.608471  0.500000  1
  Tb  Tb1  1  0.391529  0.391529  0.500000  1
  Tb  Tb2  1  0.608471  0.000000  0.500000  1
  Er  Er3  1  0.234293  0.000000  0.000000  1
  Er  Er4  1  0.765707  0.765707  0.000000  1
  Er  Er5  1  0.000000  0.234293  0.000000  1
  Bi  Bi6  1  0.333333  0.666667  0.000000  1
  Bi  Bi7  1  0.666667  0.333333  0.000000  1
  Mo  Mo8  1  0.000000  0.000000  0.500000  1
