# generated using pymatgen
data_Tb4Ho6Sn5Bi
_symmetry_space_group_name_H-M   'P 1'
_cell_length_a   8.98439228
_cell_length_b   8.98003802
_cell_length_c   6.53034400
_cell_angle_alpha   90.00000000
_cell_angle_beta   90.00000000
_cell_angle_gamma   119.79801036
_symmetry_Int_Tables_number   1
_chemical_formula_structural   Tb4Ho6Sn5Bi
_chemical_formula_sum   'Tb4 Ho6 Sn5 Bi1'
_cell_volume   457.20811868
_cell_formula_units_Z   1
loop_
 _symmetry_equiv_pos_site_id
 _symmetry_equiv_pos_as_xyz
  1  'x, y, z'
loop_
 _atom_site_type_symbol
 _atom_site_label
 _atom_site_symmetry_multiplicity
 _atom_site_fract_x
 _atom_site_fract_y
 _atom_site_fract_z
 _atom_site_occupancy
  Tb  Tb0  1  0.994541  0.757949  0.750000  1
  Tb  Tb1  1  0.000424  0.238837  0.250000  1
  Tb  Tb2  1  0.764631  0.999722  0.750000  1
  Tb  Tb3  1  0.237270  0.242731  0.750000  1
  Ho  Ho4  1  0.761297  0.760854  0.250000  1
  Ho  Ho5  1  0.237492  0.000070  0.250000  1
  Ho  Ho6  1  0.332344  0.662868  0.498286  1
  Ho  Ho7  1  0.670314  0.337193  0.001814  1
  Ho  Ho8  1  0.670314  0.337193  0.498186  1
  Ho  Ho9  1  0.332344  0.662868  0.001714  1
  Sn  Sn10  1  0.395300  0.393560  0.250000  1
  Sn  Sn11  1  0.001599  0.606336  0.250000  1
  Sn  Sn12  1  0.999279  0.395953  0.750000  1
  Sn  Sn13  1  0.603951  0.604338  0.750000  1
  Sn  Sn14  1  0.604853  0.999826  0.250000  1
  Bi  Bi15  1  0.394046  0.999701  0.750000  1
