# generated using pymatgen
data_SrPr3Pu4O14
_symmetry_space_group_name_H-M   'P 1'
_cell_length_a   7.87138319
_cell_length_b   7.87138458
_cell_length_c   7.84162900
_cell_angle_alpha   59.87439326
_cell_angle_beta   59.87438738
_cell_angle_gamma   60.00000786
_symmetry_Int_Tables_number   1
_chemical_formula_structural   SrPr3Pu4O14
_chemical_formula_sum   'Sr1 Pr3 Pu4 O14'
_cell_volume   342.89909918
_cell_formula_units_Z   1
loop_
 _symmetry_equiv_pos_site_id
 _symmetry_equiv_pos_as_xyz
  1  'x, y, z'
loop_
 _atom_site_type_symbol
 _atom_site_label
 _atom_site_symmetry_multiplicity
 _atom_site_fract_x
 _atom_site_fract_y
 _atom_site_fract_z
 _atom_site_occupancy
  Sr  Sr0  1  0.125000  0.125000  0.625000  1
  Pr  Pr1  1  0.625000  0.125000  0.125000  1
  Pr  Pr2  1  0.125000  0.625000  0.125000  1
  Pr  Pr3  1  0.125000  0.125000  0.125000  1
  Pu  Pu4  1  0.125000  0.625000  0.625000  1
  Pu  Pu5  1  0.625000  0.125000  0.625000  1
  Pu  Pu6  1  0.625000  0.625000  0.125000  1
  Pu  Pu7  1  0.625000  0.625000  0.625000  1
  O  O8  1  0.254878  0.254878  0.235365  1
  O  O9  1  0.995122  0.995122  0.014635  1
  O  O10  1  0.714553  0.714553  0.284032  1
  O  O11  1  0.289498  0.289498  0.717386  1
  O  O12  1  0.703619  0.289498  0.717386  1
  O  O13  1  0.286863  0.714553  0.284032  1
  O  O14  1  0.289498  0.703619  0.717386  1
  O  O15  1  0.714553  0.286863  0.284032  1
  O  O16  1  0.535447  0.535447  0.965968  1
  O  O17  1  0.960502  0.960502  0.532614  1
  O  O18  1  0.546381  0.960502  0.532614  1
  O  O19  1  0.963137  0.535447  0.965968  1
  O  O20  1  0.960502  0.546381  0.532614  1
  O  O21  1  0.535447  0.963137  0.965968  1
