# generated using pymatgen
data_Pr9Tm(Pb3Cl)2
_symmetry_space_group_name_H-M   'P 1'
_cell_length_a   9.54527400
_cell_length_b   9.54527457
_cell_length_c   6.86456800
_cell_angle_alpha   90.00000000
_cell_angle_beta   90.00000000
_cell_angle_gamma   119.99999111
_symmetry_Int_Tables_number   1
_chemical_formula_structural   Pr9Tm(Pb3Cl)2
_chemical_formula_sum   'Pr9 Tm1 Pb6 Cl2'
_cell_volume   541.65244355
_cell_formula_units_Z   1
loop_
 _symmetry_equiv_pos_site_id
 _symmetry_equiv_pos_as_xyz
  1  'x, y, z'
loop_
 _atom_site_type_symbol
 _atom_site_label
 _atom_site_symmetry_multiplicity
 _atom_site_fract_x
 _atom_site_fract_y
 _atom_site_fract_z
 _atom_site_occupancy
  Pr  Pr0  1  0.258691  0.999685  0.248722  1
  Pr  Pr1  1  0.740995  0.999685  0.751278  1
  Pr  Pr2  1  0.000315  0.259005  0.248722  1
  Pr  Pr3  1  0.000315  0.741309  0.751278  1
  Pr  Pr4  1  0.740995  0.741309  0.248722  1
  Pr  Pr5  1  0.258691  0.259005  0.751278  1
  Pr  Pr6  1  0.666667  0.333333  0.000000  1
  Pr  Pr7  1  0.666667  0.333333  0.500000  1
  Pr  Pr8  1  0.333333  0.666667  0.500000  1
  Tm  Tm9  1  0.333333  0.666667  0.000000  1
  Pb  Pb10  1  0.608750  0.996780  0.247283  1
  Pb  Pb11  1  0.388030  0.996780  0.752717  1
  Pb  Pb12  1  0.003220  0.611970  0.247283  1
  Pb  Pb13  1  0.003220  0.391250  0.752717  1
  Pb  Pb14  1  0.388030  0.391250  0.247283  1
  Pb  Pb15  1  0.608750  0.611970  0.752717  1
  Cl  Cl16  1  0.000000  0.000000  0.000000  1
  Cl  Cl17  1  0.000000  0.000000  0.500000  1
