# generated using pymatgen
data_PrEu7(CdIr)2
_symmetry_space_group_name_H-M   'P 1'
_cell_length_a   10.19866152
_cell_length_b   10.19866265
_cell_length_c   10.20068800
_cell_angle_alpha   59.99342400
_cell_angle_beta   59.99342032
_cell_angle_gamma   60.06322719
_symmetry_Int_Tables_number   1
_chemical_formula_structural   PrEu7(CdIr)2
_chemical_formula_sum   'Pr2 Eu14 Cd4 Ir4'
_cell_volume   750.52426317
_cell_formula_units_Z   2
loop_
 _symmetry_equiv_pos_site_id
 _symmetry_equiv_pos_as_xyz
  1  'x, y, z'
loop_
 _atom_site_type_symbol
 _atom_site_label
 _atom_site_symmetry_multiplicity
 _atom_site_fract_x
 _atom_site_fract_y
 _atom_site_fract_z
 _atom_site_occupancy
  Pr  Pr0  1  0.342487  0.342487  0.343029  1
  Pr  Pr1  1  0.342487  0.342487  0.971995  1
  Eu  Eu2  1  0.342900  0.969145  0.343977  1
  Eu  Eu3  1  0.969145  0.342900  0.343977  1
  Eu  Eu4  1  0.807982  0.192684  0.192481  1
  Eu  Eu5  1  0.192684  0.807982  0.806853  1
  Eu  Eu6  1  0.192684  0.807982  0.192481  1
  Eu  Eu7  1  0.807982  0.192684  0.806853  1
  Eu  Eu8  1  0.192814  0.192814  0.807186  1
  Eu  Eu9  1  0.807385  0.807385  0.192615  1
  Eu  Eu10  1  0.945532  0.553737  0.554588  1
  Eu  Eu11  1  0.553737  0.945532  0.946142  1
  Eu  Eu12  1  0.553737  0.945532  0.554588  1
  Eu  Eu13  1  0.945532  0.553737  0.946142  1
  Eu  Eu14  1  0.554587  0.554587  0.945413  1
  Eu  Eu15  1  0.945845  0.945845  0.554155  1
  Cd  Cd16  1  0.577540  0.577540  0.579803  1
  Cd  Cd17  1  0.577540  0.577540  0.265118  1
  Cd  Cd18  1  0.577314  0.263317  0.579685  1
  Cd  Cd19  1  0.263317  0.577314  0.579685  1
  Ir  Ir20  1  0.141025  0.141025  0.134762  1
  Ir  Ir21  1  0.141025  0.141025  0.583188  1
  Ir  Ir22  1  0.144507  0.580211  0.137642  1
  Ir  Ir23  1  0.580211  0.144507  0.137642  1
