# generated using pymatgen
data_Yb2UAs3
_symmetry_space_group_name_H-M   'P 1'
_cell_length_a   7.22124002
_cell_length_b   7.22123918
_cell_length_c   7.22123903
_cell_angle_alpha   146.14657711
_cell_angle_beta   132.38727038
_cell_angle_gamma   59.69495338
_symmetry_Int_Tables_number   1
_chemical_formula_structural   Yb2UAs3
_chemical_formula_sum   'Yb2 U1 As3'
_cell_volume   153.53489508
_cell_formula_units_Z   1
loop_
 _symmetry_equiv_pos_site_id
 _symmetry_equiv_pos_as_xyz
  1  'x, y, z'
loop_
 _atom_site_type_symbol
 _atom_site_label
 _atom_site_symmetry_multiplicity
 _atom_site_fract_x
 _atom_site_fract_y
 _atom_site_fract_z
 _atom_site_occupancy
  Yb  Yb0  1  0.669008  0.669008  0.000000  1
  Yb  Yb1  1  0.330992  0.330992  0.000000  1
  U  U2  1  0.000000  0.000000  0.000000  1
  As  As3  1  0.500000  0.000000  0.500000  1
  As  As4  1  0.151245  0.651245  0.500000  1
  As  As5  1  0.848755  0.348755  0.500000  1
