# generated using pymatgen
data_Tm11In9Ru4
_symmetry_space_group_name_H-M   'P 1'
_cell_length_a   3.66559300
_cell_length_b   12.92999547
_cell_length_c   12.92999616
_cell_angle_alpha   112.38972786
_cell_angle_beta   90.00000000
_cell_angle_gamma   90.00000000
_symmetry_Int_Tables_number   1
_chemical_formula_structural   Tm11In9Ru4
_chemical_formula_sum   'Tm11 In9 Ru4'
_cell_volume   566.63270125
_cell_formula_units_Z   1
loop_
 _symmetry_equiv_pos_site_id
 _symmetry_equiv_pos_as_xyz
  1  'x, y, z'
loop_
 _atom_site_type_symbol
 _atom_site_label
 _atom_site_symmetry_multiplicity
 _atom_site_fract_x
 _atom_site_fract_y
 _atom_site_fract_z
 _atom_site_occupancy
  Tm  Tm0  1  0.000000  0.917768  0.582203  1
  Tm  Tm1  1  0.000000  0.082232  0.417797  1
  Tm  Tm2  1  0.000000  0.582203  0.917768  1
  Tm  Tm3  1  0.000000  0.417797  0.082232  1
  Tm  Tm4  1  0.000000  0.161351  0.838649  1
  Tm  Tm5  1  0.000000  0.838649  0.161351  1
  Tm  Tm6  1  0.000000  0.374991  0.625009  1
  Tm  Tm7  1  0.000000  0.625009  0.374991  1
  Tm  Tm8  1  0.000000  0.688816  0.688816  1
  Tm  Tm9  1  0.000000  0.311184  0.311184  1
  Tm  Tm10  1  0.000000  0.000000  0.000000  1
  In  In11  1  0.500000  0.155572  0.630558  1
  In  In12  1  0.500000  0.844428  0.369442  1
  In  In13  1  0.500000  0.630558  0.155572  1
  In  In14  1  0.500000  0.369442  0.844428  1
  In  In15  1  0.500000  0.926469  0.781103  1
  In  In16  1  0.500000  0.073531  0.218897  1
  In  In17  1  0.500000  0.781103  0.926469  1
  In  In18  1  0.500000  0.218897  0.073531  1
  In  In19  1  0.500000  0.500000  0.500000  1
  Ru  Ru20  1  0.500000  0.747867  0.550818  1
  Ru  Ru21  1  0.500000  0.252133  0.449182  1
  Ru  Ru22  1  0.500000  0.550818  0.747867  1
  Ru  Ru23  1  0.500000  0.449182  0.252133  1
