# generated using pymatgen
data_NpZn(SeO5)2
_symmetry_space_group_name_H-M   'P 1'
_cell_length_a   5.58966062
_cell_length_b   5.97184407
_cell_length_c   7.62602256
_cell_angle_alpha   71.79231672
_cell_angle_beta   75.90637884
_cell_angle_gamma   101.19157545
_symmetry_Int_Tables_number   1
_chemical_formula_structural   NpZn(SeO5)2
_chemical_formula_sum   'Np1 Zn1 Se2 O10'
_cell_volume   224.22557394
_cell_formula_units_Z   1
loop_
 _symmetry_equiv_pos_site_id
 _symmetry_equiv_pos_as_xyz
  1  'x, y, z'
loop_
 _atom_site_type_symbol
 _atom_site_label
 _atom_site_symmetry_multiplicity
 _atom_site_fract_x
 _atom_site_fract_y
 _atom_site_fract_z
 _atom_site_occupancy
  Np  Np0  1  0.000000  0.000000  0.000000  1
  Zn  Zn1  1  0.000000  0.000000  0.500000  1
  Se  Se2  1  0.331521  0.680641  0.732570  1
  Se  Se3  1  0.668479  0.319359  0.267430  1
  O  O4  1  0.317013  0.848498  0.876721  1
  O  O5  1  0.682987  0.151502  0.123279  1
  O  O6  1  0.104814  0.690658  0.626161  1
  O  O7  1  0.895186  0.309342  0.373839  1
  O  O8  1  0.264629  0.388044  0.891978  1
  O  O9  1  0.735371  0.611956  0.108022  1
  O  O10  1  0.624808  0.764157  0.574857  1
  O  O11  1  0.375192  0.235843  0.425143  1
  O  O12  1  0.928644  0.061203  0.772940  1
  O  O13  1  0.071356  0.938797  0.227060  1
