# generated using pymatgen
data_Tm2Ga2CoCu
_symmetry_space_group_name_H-M   'P 1'
_cell_length_a   4.29168300
_cell_length_b   6.77037900
_cell_length_c   7.33287900
_cell_angle_alpha   90.00000000
_cell_angle_beta   90.00000000
_cell_angle_gamma   90.00000000
_symmetry_Int_Tables_number   1
_chemical_formula_structural   Tm2Ga2CoCu
_chemical_formula_sum   'Tm4 Ga4 Co2 Cu2'
_cell_volume   213.06648210
_cell_formula_units_Z   2
loop_
 _symmetry_equiv_pos_site_id
 _symmetry_equiv_pos_as_xyz
  1  'x, y, z'
loop_
 _atom_site_type_symbol
 _atom_site_label
 _atom_site_symmetry_multiplicity
 _atom_site_fract_x
 _atom_site_fract_y
 _atom_site_fract_z
 _atom_site_occupancy
  Tm  Tm0  1  0.250000  0.023979  0.811440  1
  Tm  Tm1  1  0.250000  0.523979  0.688560  1
  Tm  Tm2  1  0.750000  0.990109  0.203987  1
  Tm  Tm3  1  0.750000  0.490109  0.296013  1
  Ga  Ga4  1  0.250000  0.178281  0.418329  1
  Ga  Ga5  1  0.250000  0.678281  0.081671  1
  Ga  Ga6  1  0.750000  0.816612  0.573916  1
  Ga  Ga7  1  0.750000  0.316612  0.926084  1
  Co  Co8  1  0.250000  0.783725  0.405729  1
  Co  Co9  1  0.250000  0.283725  0.094271  1
  Cu  Cu10  1  0.750000  0.207294  0.594322  1
  Cu  Cu11  1  0.750000  0.707294  0.905678  1
