# generated using pymatgen
data_LuMnSbO6
_symmetry_space_group_name_H-M   'P 1'
_cell_length_a   5.11557802
_cell_length_b   5.11446369
_cell_length_c   4.80174200
_cell_angle_alpha   90.02041470
_cell_angle_beta   90.01770613
_cell_angle_gamma   119.97652834
_symmetry_Int_Tables_number   1
_chemical_formula_structural   LuMnSbO6
_chemical_formula_sum   'Lu1 Mn1 Sb1 O6'
_cell_volume   108.82453960
_cell_formula_units_Z   1
loop_
 _symmetry_equiv_pos_site_id
 _symmetry_equiv_pos_as_xyz
  1  'x, y, z'
loop_
 _atom_site_type_symbol
 _atom_site_label
 _atom_site_symmetry_multiplicity
 _atom_site_fract_x
 _atom_site_fract_y
 _atom_site_fract_z
 _atom_site_occupancy
  Lu  Lu0  1  0.482450  0.517770  0.499963  1
  Mn  Mn1  1  0.815761  0.184115  0.000155  1
  Sb  Sb2  1  0.149297  0.850663  0.999845  1
  O  O3  1  0.120991  0.166073  0.224931  1
  O  O4  1  0.492759  0.879902  0.225292  1
  O  O5  1  0.834751  0.507892  0.225307  1
  O  O6  1  0.492200  0.165273  0.774726  1
  O  O7  1  0.120028  0.507072  0.774796  1
  O  O8  1  0.833918  0.879101  0.774955  1
