# generated using pymatgen
data_Ce2Si2RuPt3
_symmetry_space_group_name_H-M   'P 1'
_cell_length_a   9.47556312
_cell_length_b   9.47556392
_cell_length_c   4.08868000
_cell_angle_alpha   90.00000000
_cell_angle_beta   90.00000000
_cell_angle_gamma   155.46549397
_symmetry_Int_Tables_number   1
_chemical_formula_structural   Ce2Si2RuPt3
_chemical_formula_sum   'Ce2 Si2 Ru1 Pt3'
_cell_volume   152.43813933
_cell_formula_units_Z   1
loop_
 _symmetry_equiv_pos_site_id
 _symmetry_equiv_pos_as_xyz
  1  'x, y, z'
loop_
 _atom_site_type_symbol
 _atom_site_label
 _atom_site_symmetry_multiplicity
 _atom_site_fract_x
 _atom_site_fract_y
 _atom_site_fract_z
 _atom_site_occupancy
  Ce  Ce0  1  0.104021  0.895979  0.750000  1
  Ce  Ce1  1  0.895629  0.104371  0.250000  1
  Si  Si2  1  0.320113  0.679887  0.750000  1
  Si  Si3  1  0.679955  0.320045  0.250000  1
  Ru  Ru4  1  0.749963  0.250037  0.750000  1
  Pt  Pt5  1  0.550504  0.449496  0.250000  1
  Pt  Pt6  1  0.449549  0.550451  0.750000  1
  Pt  Pt7  1  0.250265  0.749735  0.250000  1
