# generated using pymatgen
data_Ac7Pt3
_symmetry_space_group_name_H-M   'P 1'
_cell_length_a   10.79172800
_cell_length_b   10.79172835
_cell_length_c   6.92138400
_cell_angle_alpha   90.00000000
_cell_angle_beta   90.00000000
_cell_angle_gamma   119.99999893
_symmetry_Int_Tables_number   1
_chemical_formula_structural   Ac7Pt3
_chemical_formula_sum   'Ac14 Pt6'
_cell_volume   698.08061182
_cell_formula_units_Z   2
loop_
 _symmetry_equiv_pos_site_id
 _symmetry_equiv_pos_as_xyz
  1  'x, y, z'
loop_
 _atom_site_type_symbol
 _atom_site_label
 _atom_site_symmetry_multiplicity
 _atom_site_fract_x
 _atom_site_fract_y
 _atom_site_fract_z
 _atom_site_occupancy
  Ac  Ac0  1  0.666667  0.333333  0.538846  1
  Ac  Ac1  1  0.333333  0.666667  0.038846  1
  Ac  Ac2  1  0.873551  0.747102  0.744313  1
  Ac  Ac3  1  0.252898  0.126449  0.744313  1
  Ac  Ac4  1  0.873551  0.126449  0.744313  1
  Ac  Ac5  1  0.126449  0.252898  0.244313  1
  Ac  Ac6  1  0.747102  0.873551  0.244313  1
  Ac  Ac7  1  0.126449  0.873551  0.244313  1
  Ac  Ac8  1  0.459975  0.919951  0.564697  1
  Ac  Ac9  1  0.080049  0.540025  0.564697  1
  Ac  Ac10  1  0.459975  0.540025  0.564697  1
  Ac  Ac11  1  0.540025  0.080049  0.064697  1
  Ac  Ac12  1  0.919951  0.459975  0.064697  1
  Ac  Ac13  1  0.540025  0.459975  0.064697  1
  Pt  Pt14  1  0.188625  0.377251  0.813795  1
  Pt  Pt15  1  0.622749  0.811375  0.813795  1
  Pt  Pt16  1  0.188625  0.811375  0.813795  1
  Pt  Pt17  1  0.811375  0.622749  0.313795  1
  Pt  Pt18  1  0.377251  0.188625  0.313795  1
  Pt  Pt19  1  0.811375  0.188625  0.313795  1
