# generated using pymatgen
data_Ti2PtAu3
_symmetry_space_group_name_H-M   'P 1'
_cell_length_a   4.94505684
_cell_length_b   4.93614340
_cell_length_c   4.84722400
_cell_angle_alpha   90.00000000
_cell_angle_beta   90.00000000
_cell_angle_gamma   121.26280017
_symmetry_Int_Tables_number   1
_chemical_formula_structural   Ti2PtAu3
_chemical_formula_sum   'Ti2 Pt1 Au3'
_cell_volume   101.13805622
_cell_formula_units_Z   1
loop_
 _symmetry_equiv_pos_site_id
 _symmetry_equiv_pos_as_xyz
  1  'x, y, z'
loop_
 _atom_site_type_symbol
 _atom_site_label
 _atom_site_symmetry_multiplicity
 _atom_site_fract_x
 _atom_site_fract_y
 _atom_site_fract_z
 _atom_site_occupancy
  Ti  Ti0  1  0.754596  0.756696  0.250000  1
  Ti  Ti1  1  0.236732  0.251878  0.750000  1
  Pt  Pt2  1  0.103406  0.410637  0.250000  1
  Au  Au3  1  0.575829  0.908273  0.750000  1
  Au  Au4  1  0.904666  0.582538  0.750000  1
  Au  Au5  1  0.424770  0.089977  0.250000  1
