# generated using pymatgen
data_CdHg2(P3Pd10)2
_symmetry_space_group_name_H-M   'P 1'
_cell_length_a   8.62409977
_cell_length_b   8.62409443
_cell_length_c   8.62409600
_cell_angle_alpha   59.99999802
_cell_angle_beta   60.00000016
_cell_angle_gamma   60.00001552
_symmetry_Int_Tables_number   1
_chemical_formula_structural   CdHg2(P3Pd10)2
_chemical_formula_sum   'Cd1 Hg2 P6 Pd20'
_cell_volume   453.55076609
_cell_formula_units_Z   1
loop_
 _symmetry_equiv_pos_site_id
 _symmetry_equiv_pos_as_xyz
  1  'x, y, z'
loop_
 _atom_site_type_symbol
 _atom_site_label
 _atom_site_symmetry_multiplicity
 _atom_site_fract_x
 _atom_site_fract_y
 _atom_site_fract_z
 _atom_site_occupancy
  Cd  Cd0  1  0.000000  0.000000  0.000000  1
  Hg  Hg1  1  0.250000  0.250000  0.250000  1
  Hg  Hg2  1  0.750000  0.750000  0.750000  1
  P  P3  1  0.733568  0.733568  0.266432  1
  P  P4  1  0.266432  0.266432  0.733568  1
  P  P5  1  0.266432  0.733568  0.733568  1
  P  P6  1  0.733568  0.266432  0.733568  1
  P  P7  1  0.266432  0.733568  0.266432  1
  P  P8  1  0.733568  0.266432  0.266432  1
  Pd  Pd9  1  0.616258  0.616258  0.616257  1
  Pd  Pd10  1  0.383743  0.848773  0.383742  1
  Pd  Pd11  1  0.657803  0.342196  0.000000  1
  Pd  Pd12  1  0.000000  0.342198  0.657803  1
  Pd  Pd13  1  0.657803  0.000000  0.000000  1
  Pd  Pd14  1  0.616258  0.616258  0.151228  1
  Pd  Pd15  1  0.000000  0.000000  0.657803  1
  Pd  Pd16  1  0.000000  0.342197  0.000000  1
  Pd  Pd17  1  0.657803  0.000000  0.342197  1
  Pd  Pd18  1  0.342197  0.000000  0.000000  1
  Pd  Pd19  1  0.000000  0.657803  0.000000  1
  Pd  Pd20  1  0.342197  0.000000  0.657803  1
  Pd  Pd21  1  0.000000  0.657802  0.342197  1
  Pd  Pd22  1  0.342197  0.657804  0.000000  1
  Pd  Pd23  1  0.151227  0.616258  0.616258  1
  Pd  Pd24  1  0.383742  0.383742  0.383743  1
  Pd  Pd25  1  0.848773  0.383742  0.383742  1
  Pd  Pd26  1  0.383742  0.383742  0.848772  1
  Pd  Pd27  1  0.616257  0.151227  0.616258  1
  Pd  Pd28  1  0.000000  0.000000  0.342197  1
