# generated using pymatgen
data_Ta6B4Os9Ru
_symmetry_space_group_name_H-M   'P 1'
_cell_length_a   9.55151519
_cell_length_b   9.55151519
_cell_length_c   3.01446800
_cell_angle_alpha   90.00000000
_cell_angle_beta   90.00000000
_cell_angle_gamma   90.02277071
_symmetry_Int_Tables_number   1
_chemical_formula_structural   Ta6B4Os9Ru
_chemical_formula_sum   'Ta6 B4 Os9 Ru1'
_cell_volume   275.01424198
_cell_formula_units_Z   1
loop_
 _symmetry_equiv_pos_site_id
 _symmetry_equiv_pos_as_xyz
  1  'x, y, z'
loop_
 _atom_site_type_symbol
 _atom_site_label
 _atom_site_symmetry_multiplicity
 _atom_site_fract_x
 _atom_site_fract_y
 _atom_site_fract_z
 _atom_site_occupancy
  Ta  Ta0  1  0.823476  0.676524  0.000000  1
  Ta  Ta1  1  0.176524  0.323476  0.000000  1
  Ta  Ta2  1  0.322567  0.822567  0.000000  1
  Ta  Ta3  1  0.677433  0.177433  0.000000  1
  Ta  Ta4  1  0.500000  0.500000  0.000000  1
  Ta  Ta5  1  0.000000  0.000000  0.000000  1
  B  B6  1  0.621011  0.878989  0.000000  1
  B  B7  1  0.378989  0.121011  0.000000  1
  B  B8  1  0.120582  0.620582  0.000000  1
  B  B9  1  0.879418  0.379418  0.000000  1
  Os  Os10  1  0.571630  0.718587  0.500000  1
  Os  Os11  1  0.428370  0.281413  0.500000  1
  Os  Os12  1  0.070936  0.780526  0.500000  1
  Os  Os13  1  0.929064  0.219474  0.500000  1
  Os  Os14  1  0.280526  0.570936  0.500000  1
  Os  Os15  1  0.719474  0.429064  0.500000  1
  Os  Os16  1  0.218587  0.071630  0.500000  1
  Os  Os17  1  0.781413  0.928370  0.500000  1
  Os  Os18  1  0.500000  0.000000  0.500000  1
  Ru  Ru19  1  0.000000  0.500000  0.500000  1
