# generated using pymatgen
data_Dy5Er3In2IrRu
_symmetry_space_group_name_H-M   'P 1'
_cell_length_a   9.63298159
_cell_length_b   9.63973145
_cell_length_c   9.63817836
_cell_angle_alpha   59.95900767
_cell_angle_beta   60.02849010
_cell_angle_gamma   60.02626155
_symmetry_Int_Tables_number   1
_chemical_formula_structural   Dy5Er3In2IrRu
_chemical_formula_sum   'Dy10 Er6 In4 Ir2 Ru2'
_cell_volume   632.92226112
_cell_formula_units_Z   2
loop_
 _symmetry_equiv_pos_site_id
 _symmetry_equiv_pos_as_xyz
  1  'x, y, z'
loop_
 _atom_site_type_symbol
 _atom_site_label
 _atom_site_symmetry_multiplicity
 _atom_site_fract_x
 _atom_site_fract_y
 _atom_site_fract_z
 _atom_site_occupancy
  Dy  Dy0  1  0.441295  0.058919  0.443055  1
  Dy  Dy1  1  0.058919  0.441295  0.056730  1
  Dy  Dy2  1  0.440957  0.440957  0.059043  1
  Dy  Dy3  1  0.056737  0.056737  0.443263  1
  Dy  Dy4  1  0.190373  0.808051  0.810232  1
  Dy  Dy5  1  0.808051  0.190373  0.191344  1
  Dy  Dy6  1  0.807665  0.190580  0.810192  1
  Dy  Dy7  1  0.190580  0.807665  0.191563  1
  Dy  Dy8  1  0.809701  0.809701  0.190299  1
  Dy  Dy9  1  0.192744  0.192744  0.807256  1
  Er  Er10  1  0.597737  0.597667  0.598846  1
  Er  Er11  1  0.597667  0.597737  0.205751  1
  Er  Er12  1  0.597160  0.209185  0.596917  1
  Er  Er13  1  0.209185  0.597160  0.596738  1
  Er  Er14  1  0.057614  0.442428  0.444108  1
  Er  Er15  1  0.442428  0.057614  0.055850  1
  In  In16  1  0.831743  0.832153  0.832095  1
  In  In17  1  0.832153  0.831743  0.504010  1
  In  In18  1  0.833059  0.501375  0.832538  1
  In  In19  1  0.501375  0.833059  0.833029  1
  Ir  Ir20  1  0.392913  0.828947  0.388243  1
  Ir  Ir21  1  0.828947  0.392913  0.389897  1
  Ru  Ru22  1  0.389982  0.391017  0.387497  1
  Ru  Ru23  1  0.391017  0.389982  0.831505  1
