# generated using pymatgen
data_BaLiZn10
_symmetry_space_group_name_H-M   'P 1'
_cell_length_a   8.54299316
_cell_length_b   8.54299321
_cell_length_c   8.54299257
_cell_angle_alpha   99.35162202
_cell_angle_beta   99.35162116
_cell_angle_gamma   132.45524596
_symmetry_Int_Tables_number   1
_chemical_formula_structural   BaLiZn10
_chemical_formula_sum   'Ba2 Li2 Zn20'
_cell_volume   420.98430741
_cell_formula_units_Z   2
loop_
 _symmetry_equiv_pos_site_id
 _symmetry_equiv_pos_as_xyz
  1  'x, y, z'
loop_
 _atom_site_type_symbol
 _atom_site_label
 _atom_site_symmetry_multiplicity
 _atom_site_fract_x
 _atom_site_fract_y
 _atom_site_fract_z
 _atom_site_occupancy
  Ba  Ba0  1  0.000000  0.000000  0.000000  1
  Ba  Ba1  1  0.250000  0.750000  0.500000  1
  Li  Li2  1  0.750000  0.250000  0.500000  1
  Li  Li3  1  0.500000  0.500000  0.000000  1
  Zn  Zn4  1  0.125000  0.375000  0.750000  1
  Zn  Zn5  1  0.625000  0.875000  0.250000  1
  Zn  Zn6  1  0.625000  0.375000  0.750000  1
  Zn  Zn7  1  0.625000  0.375000  0.250000  1
  Zn  Zn8  1  0.187294  0.518467  0.085152  1
  Zn  Zn9  1  0.187294  0.102142  0.668829  1
  Zn  Zn10  1  0.768467  0.937294  0.585152  1
  Zn  Zn11  1  0.768467  0.183313  0.831171  1
  Zn  Zn12  1  0.433313  0.518467  0.331171  1
  Zn  Zn13  1  0.433313  0.102142  0.914848  1
  Zn  Zn14  1  0.352142  0.937294  0.168829  1
  Zn  Zn15  1  0.352142  0.183313  0.414848  1
  Zn  Zn16  1  0.062706  0.231533  0.414848  1
  Zn  Zn17  1  0.062706  0.647858  0.831171  1
  Zn  Zn18  1  0.481533  0.812706  0.914848  1
  Zn  Zn19  1  0.481533  0.566687  0.668829  1
  Zn  Zn20  1  0.816687  0.231533  0.168829  1
  Zn  Zn21  1  0.816687  0.647858  0.585152  1
  Zn  Zn22  1  0.897858  0.812706  0.331171  1
  Zn  Zn23  1  0.897858  0.566687  0.085152  1
