# generated using pymatgen
data_Dy5Er5(Pb3Cl)2
_symmetry_space_group_name_H-M   'P 1'
_cell_length_a   9.18730010
_cell_length_b   9.18730063
_cell_length_c   6.57768700
_cell_angle_alpha   90.00000000
_cell_angle_beta   90.00000000
_cell_angle_gamma   119.98281428
_symmetry_Int_Tables_number   1
_chemical_formula_structural   Dy5Er5(Pb3Cl)2
_chemical_formula_sum   'Dy5 Er5 Pb6 Cl2'
_cell_volume   480.90007925
_cell_formula_units_Z   1
loop_
 _symmetry_equiv_pos_site_id
 _symmetry_equiv_pos_as_xyz
  1  'x, y, z'
loop_
 _atom_site_type_symbol
 _atom_site_label
 _atom_site_symmetry_multiplicity
 _atom_site_fract_x
 _atom_site_fract_y
 _atom_site_fract_z
 _atom_site_occupancy
  Dy  Dy0  1  0.260779  0.000046  0.250000  1
  Dy  Dy1  1  0.739173  0.000023  0.750000  1
  Dy  Dy2  1  0.000046  0.260779  0.250000  1
  Dy  Dy3  1  0.000023  0.739173  0.750000  1
  Dy  Dy4  1  0.739247  0.739247  0.250000  1
  Er  Er5  1  0.261039  0.261039  0.750000  1
  Er  Er6  1  0.333333  0.666623  0.999980  1
  Er  Er7  1  0.666623  0.333333  0.999980  1
  Er  Er8  1  0.666623  0.333333  0.500020  1
  Er  Er9  1  0.333333  0.666623  0.500020  1
  Pb  Pb10  1  0.610243  0.999998  0.250000  1
  Pb  Pb11  1  0.389481  0.000515  0.750000  1
  Pb  Pb12  1  0.999998  0.610243  0.250000  1
  Pb  Pb13  1  0.000515  0.389481  0.750000  1
  Pb  Pb14  1  0.389653  0.389653  0.250000  1
  Pb  Pb15  1  0.609521  0.609521  0.750000  1
  Cl  Cl16  1  0.000185  0.000185  0.999764  1
  Cl  Cl17  1  0.000185  0.000185  0.500236  1
