# generated using pymatgen
data_FeTcIr5Rh
_symmetry_space_group_name_H-M   'P 1'
_cell_length_a   5.47022602
_cell_length_b   5.47022746
_cell_length_c   4.38619500
_cell_angle_alpha   90.00000000
_cell_angle_beta   90.00000000
_cell_angle_gamma   119.90151592
_symmetry_Int_Tables_number   1
_chemical_formula_structural   FeTcIr5Rh
_chemical_formula_sum   'Fe1 Tc1 Ir5 Rh1'
_cell_volume   113.77827844
_cell_formula_units_Z   1
loop_
 _symmetry_equiv_pos_site_id
 _symmetry_equiv_pos_as_xyz
  1  'x, y, z'
loop_
 _atom_site_type_symbol
 _atom_site_label
 _atom_site_symmetry_multiplicity
 _atom_site_fract_x
 _atom_site_fract_y
 _atom_site_fract_z
 _atom_site_occupancy
  Fe  Fe0  1  0.666611  0.333389  0.250000  1
  Tc  Tc1  1  0.333357  0.666643  0.750000  1
  Ir  Ir2  1  0.167336  0.334802  0.250000  1
  Ir  Ir3  1  0.665198  0.832664  0.250000  1
  Ir  Ir4  1  0.167553  0.832447  0.250000  1
  Ir  Ir5  1  0.831985  0.664621  0.750000  1
  Ir  Ir6  1  0.335379  0.168015  0.750000  1
  Rh  Rh7  1  0.832581  0.167419  0.750000  1
