# generated using pymatgen
data_Zn3Bi(Pt2O7)2
_symmetry_space_group_name_H-M   'P 1'
_cell_length_a   7.06140378
_cell_length_b   7.06140389
_cell_length_c   7.14775726
_cell_angle_alpha   60.39884674
_cell_angle_beta   60.39884740
_cell_angle_gamma   59.99999712
_symmetry_Int_Tables_number   1
_chemical_formula_structural   Zn3Bi(Pt2O7)2
_chemical_formula_sum   'Zn3 Bi1 Pt4 O14'
_cell_volume   253.52974669
_cell_formula_units_Z   1
loop_
 _symmetry_equiv_pos_site_id
 _symmetry_equiv_pos_as_xyz
  1  'x, y, z'
loop_
 _atom_site_type_symbol
 _atom_site_label
 _atom_site_symmetry_multiplicity
 _atom_site_fract_x
 _atom_site_fract_y
 _atom_site_fract_z
 _atom_site_occupancy
  Zn  Zn0  1  0.125000  0.625000  0.125000  1
  Zn  Zn1  1  0.625000  0.125000  0.125000  1
  Zn  Zn2  1  0.125000  0.125000  0.125000  1
  Bi  Bi3  1  0.125000  0.125000  0.625000  1
  Pt  Pt4  1  0.625000  0.625000  0.125000  1
  Pt  Pt5  1  0.625000  0.125000  0.625000  1
  Pt  Pt6  1  0.125000  0.625000  0.625000  1
  Pt  Pt7  1  0.625000  0.625000  0.625000  1
  O  O8  1  0.251732  0.251732  0.244805  1
  O  O9  1  0.998268  0.998268  0.005195  1
  O  O10  1  0.535534  0.966045  0.532377  1
  O  O11  1  0.283681  0.715175  0.285968  1
  O  O12  1  0.534825  0.534825  0.964032  1
  O  O13  1  0.966045  0.535534  0.532377  1
  O  O14  1  0.534825  0.966319  0.964032  1
  O  O15  1  0.966045  0.966045  0.532377  1
  O  O16  1  0.966319  0.534825  0.964032  1
  O  O17  1  0.715175  0.283681  0.285968  1
  O  O18  1  0.283955  0.714466  0.717623  1
  O  O19  1  0.714466  0.283955  0.717623  1
  O  O20  1  0.283955  0.283955  0.717623  1
  O  O21  1  0.715175  0.715175  0.285968  1
