# generated using pymatgen
data_Y3TmIn4
_symmetry_space_group_name_H-M   'P 1'
_cell_length_a   6.50513298
_cell_length_b   6.50513288
_cell_length_c   10.31176400
_cell_angle_alpha   90.00000000
_cell_angle_beta   90.00000000
_cell_angle_gamma   103.45257768
_symmetry_Int_Tables_number   1
_chemical_formula_structural   Y3TmIn4
_chemical_formula_sum   'Y6 Tm2 In8'
_cell_volume   424.38787962
_cell_formula_units_Z   2
loop_
 _symmetry_equiv_pos_site_id
 _symmetry_equiv_pos_as_xyz
  1  'x, y, z'
loop_
 _atom_site_type_symbol
 _atom_site_label
 _atom_site_symmetry_multiplicity
 _atom_site_fract_x
 _atom_site_fract_y
 _atom_site_fract_z
 _atom_site_occupancy
  Y  Y0  1  0.523016  0.523016  0.250000  1
  Y  Y1  1  0.476984  0.476984  0.750000  1
  Y  Y2  1  0.246773  0.753227  0.500000  1
  Y  Y3  1  0.246773  0.753227  0.000000  1
  Y  Y4  1  0.753227  0.246773  0.500000  1
  Y  Y5  1  0.753227  0.246773  0.000000  1
  Tm  Tm6  1  0.988863  0.988863  0.250000  1
  Tm  Tm7  1  0.011137  0.011137  0.750000  1
  In  In8  1  0.251941  0.251941  0.011891  1
  In  In9  1  0.748059  0.748059  0.988109  1
  In  In10  1  0.251941  0.251941  0.488109  1
  In  In11  1  0.748059  0.748059  0.511891  1
  In  In12  1  0.493358  0.014574  0.250000  1
  In  In13  1  0.985426  0.506642  0.750000  1
  In  In14  1  0.506642  0.985426  0.750000  1
  In  In15  1  0.014574  0.493358  0.250000  1
