# generated using pymatgen
data_Mg(IrO3)2
_symmetry_space_group_name_H-M   'P 1'
_cell_length_a   4.58762300
_cell_length_b   4.58762300
_cell_length_c   9.35979800
_cell_angle_alpha   90.00000000
_cell_angle_beta   90.00000000
_cell_angle_gamma   90.00000000
_symmetry_Int_Tables_number   1
_chemical_formula_structural   Mg(IrO3)2
_chemical_formula_sum   'Mg2 Ir4 O12'
_cell_volume   196.98897429
_cell_formula_units_Z   2
loop_
 _symmetry_equiv_pos_site_id
 _symmetry_equiv_pos_as_xyz
  1  'x, y, z'
loop_
 _atom_site_type_symbol
 _atom_site_label
 _atom_site_symmetry_multiplicity
 _atom_site_fract_x
 _atom_site_fract_y
 _atom_site_fract_z
 _atom_site_occupancy
  Mg  Mg0  1  0.000000  0.000000  0.000000  1
  Mg  Mg1  1  0.500000  0.500000  0.500000  1
  Ir  Ir2  1  0.500000  0.500000  0.831011  1
  Ir  Ir3  1  0.000000  0.000000  0.331011  1
  Ir  Ir4  1  0.500000  0.500000  0.168989  1
  Ir  Ir5  1  0.000000  0.000000  0.668989  1
  O  O6  1  0.699644  0.699644  0.669453  1
  O  O7  1  0.300356  0.300356  0.669453  1
  O  O8  1  0.699644  0.699644  0.330547  1
  O  O9  1  0.199644  0.800356  0.169453  1
  O  O10  1  0.800356  0.199644  0.169453  1
  O  O11  1  0.800356  0.199644  0.830547  1
  O  O12  1  0.314382  0.314382  0.000000  1
  O  O13  1  0.185618  0.814382  0.500000  1
  O  O14  1  0.814382  0.185618  0.500000  1
  O  O15  1  0.685618  0.685618  0.000000  1
  O  O16  1  0.300356  0.300356  0.330547  1
  O  O17  1  0.199644  0.800356  0.830547  1
