# generated using pymatgen
data_Li6AlZn5Pd12
_symmetry_space_group_name_H-M   'P 1'
_cell_length_a   4.30377200
_cell_length_b   5.99443700
_cell_length_c   12.90753800
_cell_angle_alpha   90.00000000
_cell_angle_beta   90.00000000
_cell_angle_gamma   90.00000000
_symmetry_Int_Tables_number   1
_chemical_formula_structural   Li6AlZn5Pd12
_chemical_formula_sum   'Li6 Al1 Zn5 Pd12'
_cell_volume   332.99757303
_cell_formula_units_Z   1
loop_
 _symmetry_equiv_pos_site_id
 _symmetry_equiv_pos_as_xyz
  1  'x, y, z'
loop_
 _atom_site_type_symbol
 _atom_site_label
 _atom_site_symmetry_multiplicity
 _atom_site_fract_x
 _atom_site_fract_y
 _atom_site_fract_z
 _atom_site_occupancy
  Li  Li0  1  0.999998  0.500000  0.000622  1
  Li  Li1  1  0.500012  0.000000  0.166780  1
  Li  Li2  1  0.000002  0.500000  0.333338  1
  Li  Li3  1  0.499999  0.000000  0.499879  1
  Li  Li4  1  0.999997  0.500000  0.666032  1
  Li  Li5  1  0.499995  0.000000  0.833336  1
  Al  Al6  1  0.499995  0.500000  0.833337  1
  Zn  Zn7  1  0.999998  0.000000  0.000099  1
  Zn  Zn8  1  0.500003  0.500000  0.166362  1
  Zn  Zn9  1  0.000003  0.000000  0.333341  1
  Zn  Zn10  1  0.499999  0.500000  0.500299  1
  Zn  Zn11  1  0.999996  0.000000  0.666565  1
  Pd  Pd12  1  0.499999  0.251592  0.997920  1
  Pd  Pd13  1  0.499999  0.748408  0.997920  1
  Pd  Pd14  1  0.000005  0.250163  0.166630  1
  Pd  Pd15  1  0.000005  0.749837  0.166630  1
  Pd  Pd16  1  0.500005  0.249967  0.333329  1
  Pd  Pd17  1  0.500005  0.750033  0.333329  1
  Pd  Pd18  1  0.999998  0.250159  0.500046  1
  Pd  Pd19  1  0.999998  0.749841  0.500046  1
  Pd  Pd20  1  0.499997  0.251593  0.668751  1
  Pd  Pd21  1  0.499997  0.748407  0.668751  1
  Pd  Pd22  1  0.999995  0.254733  0.833330  1
  Pd  Pd23  1  0.999995  0.745267  0.833330  1
