# generated using pymatgen
data_Yb4AlFe7O16
_symmetry_space_group_name_H-M   'P 1'
_cell_length_a   3.04934100
_cell_length_b   9.10979032
_cell_length_c   10.74506700
_cell_angle_alpha   89.27498682
_cell_angle_beta   90.00000000
_cell_angle_gamma   90.00000000
_symmetry_Int_Tables_number   1
_chemical_formula_structural   Yb4AlFe7O16
_chemical_formula_sum   'Yb4 Al1 Fe7 O16'
_cell_volume   298.46178454
_cell_formula_units_Z   1
loop_
 _symmetry_equiv_pos_site_id
 _symmetry_equiv_pos_as_xyz
  1  'x, y, z'
loop_
 _atom_site_type_symbol
 _atom_site_label
 _atom_site_symmetry_multiplicity
 _atom_site_fract_x
 _atom_site_fract_y
 _atom_site_fract_z
 _atom_site_occupancy
  Yb  Yb0  1  0.750000  0.255774  0.845458  1
  Yb  Yb1  1  0.250000  0.739109  0.152310  1
  Yb  Yb2  1  0.750000  0.757119  0.657784  1
  Yb  Yb3  1  0.250000  0.243904  0.343461  1
  Al  Al4  1  0.250000  0.580090  0.892838  1
  Fe  Fe5  1  0.250000  0.566808  0.388151  1
  Fe  Fe6  1  0.750000  0.435862  0.615215  1
  Fe  Fe7  1  0.250000  0.066625  0.112289  1
  Fe  Fe8  1  0.750000  0.927218  0.891264  1
  Fe  Fe9  1  0.750000  0.918751  0.396190  1
  Fe  Fe10  1  0.250000  0.080951  0.605752  1
  Fe  Fe11  1  0.750000  0.421513  0.100046  1
  O  O12  1  0.250000  0.584722  0.574849  1
  O  O13  1  0.750000  0.416731  0.426522  1
  O  O14  1  0.250000  0.081229  0.926254  1
  O  O15  1  0.750000  0.914133  0.077251  1
  O  O16  1  0.250000  0.477420  0.213394  1
  O  O17  1  0.750000  0.530950  0.787872  1
  O  O18  1  0.250000  0.979241  0.285520  1
  O  O19  1  0.750000  0.019835  0.718104  1
  O  O20  1  0.250000  0.877335  0.526057  1
  O  O21  1  0.750000  0.123276  0.476525  1
  O  O22  1  0.250000  0.386846  0.968142  1
  O  O23  1  0.750000  0.621685  0.014763  1
  O  O24  1  0.750000  0.706792  0.330344  1
  O  O25  1  0.250000  0.294238  0.671275  1
  O  O26  1  0.750000  0.207716  0.164309  1
  O  O27  1  0.250000  0.784125  0.838062  1
