# generated using pymatgen
data_TbNd5Al19Si5Os8
_symmetry_space_group_name_H-M   'P 1'
_cell_length_a   8.77557200
_cell_length_b   8.76262873
_cell_length_c   9.69165900
_cell_angle_alpha   90.00000000
_cell_angle_beta   90.00000000
_cell_angle_gamma   120.04887409
_symmetry_Int_Tables_number   1
_chemical_formula_structural   TbNd5Al19Si5Os8
_chemical_formula_sum   'Tb1 Nd5 Al19 Si5 Os8'
_cell_volume   645.09623348
_cell_formula_units_Z   1
loop_
 _symmetry_equiv_pos_site_id
 _symmetry_equiv_pos_as_xyz
  1  'x, y, z'
loop_
 _atom_site_type_symbol
 _atom_site_label
 _atom_site_symmetry_multiplicity
 _atom_site_fract_x
 _atom_site_fract_y
 _atom_site_fract_z
 _atom_site_occupancy
  Tb  Tb0  1  0.194604  0.389210  0.250000  1
  Nd  Nd1  1  0.808022  0.616044  0.750000  1
  Nd  Nd2  1  0.613044  0.808155  0.250000  1
  Nd  Nd3  1  0.385457  0.192818  0.750000  1
  Nd  Nd4  1  0.195110  0.808155  0.250000  1
  Nd  Nd5  1  0.807362  0.192818  0.750000  1
  Al  Al6  1  0.165094  0.330186  0.574096  1
  Al  Al7  1  0.834101  0.668204  0.423829  1
  Al  Al8  1  0.668789  0.834767  0.574030  1
  Al  Al9  1  0.834101  0.668204  0.076171  1
  Al  Al10  1  0.328807  0.166228  0.423962  1
  Al  Al11  1  0.165094  0.330186  0.925904  1
  Al  Al12  1  0.165978  0.834767  0.574030  1
  Al  Al13  1  0.328807  0.166228  0.076038  1
  Al  Al14  1  0.837420  0.166228  0.423962  1
  Al  Al15  1  0.668789  0.834767  0.925970  1
  Al  Al16  1  0.837420  0.166228  0.076038  1
  Al  Al17  1  0.165978  0.834767  0.925970  1
  Al  Al18  1  0.435788  0.871575  0.750000  1
  Al  Al19  1  0.871358  0.431280  0.250000  1
  Al  Al20  1  0.129987  0.565454  0.750000  1
  Al  Al21  1  0.559922  0.431280  0.250000  1
  Al  Al22  1  0.435466  0.565454  0.750000  1
  Al  Al23  1  0.001727  0.003453  0.250000  1
  Al  Al24  1  0.000673  0.001346  0.750000  1
  Si  Si25  1  0.331853  0.663707  0.034684  1
  Si  Si26  1  0.667259  0.334517  0.966430  1
  Si  Si27  1  0.667259  0.334517  0.533570  1
  Si  Si28  1  0.331853  0.663707  0.465316  1
  Si  Si29  1  0.565019  0.130038  0.250000  1
  Os  Os30  1  0.500952  0.001903  0.006694  1
  Os  Os31  1  0.999450  0.498485  0.001412  1
  Os  Os32  1  0.500952  0.001903  0.493306  1
  Os  Os33  1  0.499036  0.498485  0.001412  1
  Os  Os34  1  0.999450  0.498485  0.498588  1
  Os  Os35  1  0.499036  0.498485  0.498588  1
  Os  Os36  1  0.999490  0.998980  0.000259  1
  Os  Os37  1  0.999490  0.998980  0.499741  1
