# generated using pymatgen
data_Mn6HgS7
_symmetry_space_group_name_H-M   'P 1'
_cell_length_a   8.90661411
_cell_length_b   8.90661388
_cell_length_c   8.90661595
_cell_angle_alpha   61.55848748
_cell_angle_beta   61.55848999
_cell_angle_gamma   61.55848448
_symmetry_Int_Tables_number   1
_chemical_formula_structural   Mn6HgS7
_chemical_formula_sum   'Mn12 Hg2 S14'
_cell_volume   517.07151817
_cell_formula_units_Z   2
loop_
 _symmetry_equiv_pos_site_id
 _symmetry_equiv_pos_as_xyz
  1  'x, y, z'
loop_
 _atom_site_type_symbol
 _atom_site_label
 _atom_site_symmetry_multiplicity
 _atom_site_fract_x
 _atom_site_fract_y
 _atom_site_fract_z
 _atom_site_occupancy
  Mn  Mn0  1  0.612057  0.303360  0.443846  1
  Mn  Mn1  1  0.303360  0.443846  0.612057  1
  Mn  Mn2  1  0.443846  0.612057  0.303360  1
  Mn  Mn3  1  0.387943  0.696640  0.556154  1
  Mn  Mn4  1  0.696640  0.556154  0.387943  1
  Mn  Mn5  1  0.556154  0.387943  0.696640  1
  Mn  Mn6  1  0.370934  0.195877  0.504668  1
  Mn  Mn7  1  0.195877  0.504668  0.370934  1
  Mn  Mn8  1  0.504668  0.370934  0.195877  1
  Mn  Mn9  1  0.629066  0.804123  0.495332  1
  Mn  Mn10  1  0.804123  0.495332  0.629066  1
  Mn  Mn11  1  0.495332  0.629066  0.804123  1
  Hg  Hg12  1  0.111967  0.111967  0.111967  1
  Hg  Hg13  1  0.888033  0.888033  0.888033  1
  S  S14  1  0.660421  0.330338  0.909894  1
  S  S15  1  0.090106  0.339579  0.669662  1
  S  S16  1  0.278430  0.278430  0.278430  1
  S  S17  1  0.721570  0.721570  0.721570  1
  S  S18  1  0.837590  0.267443  0.526164  1
  S  S19  1  0.267443  0.526164  0.837590  1
  S  S20  1  0.526164  0.837590  0.267443  1
  S  S21  1  0.162410  0.732557  0.473836  1
  S  S22  1  0.732557  0.473836  0.162410  1
  S  S23  1  0.473836  0.162410  0.732557  1
  S  S24  1  0.339579  0.669662  0.090106  1
  S  S25  1  0.669662  0.090106  0.339579  1
  S  S26  1  0.909894  0.660421  0.330338  1
  S  S27  1  0.330338  0.909894  0.660421  1
