# generated using pymatgen
data_La2AgAs2(PPd5)4
_symmetry_space_group_name_H-M   'P 1'
_cell_length_a   8.71461979
_cell_length_b   8.82133965
_cell_length_c   8.82133889
_cell_angle_alpha   59.20121766
_cell_angle_beta   60.39938795
_cell_angle_gamma   60.39938933
_symmetry_Int_Tables_number   1
_chemical_formula_structural   La2AgAs2(PPd5)4
_chemical_formula_sum   'La2 Ag1 As2 P4 Pd20'
_cell_volume   479.37662579
_cell_formula_units_Z   1
loop_
 _symmetry_equiv_pos_site_id
 _symmetry_equiv_pos_as_xyz
  1  'x, y, z'
loop_
 _atom_site_type_symbol
 _atom_site_label
 _atom_site_symmetry_multiplicity
 _atom_site_fract_x
 _atom_site_fract_y
 _atom_site_fract_z
 _atom_site_occupancy
  La  La0  1  0.250000  0.250000  0.250000  1
  La  La1  1  0.750000  0.750000  0.750000  1
  Ag  Ag2  1  0.000000  0.000000  0.000000  1
  As  As3  1  0.739505  0.260495  0.260495  1
  As  As4  1  0.260495  0.739505  0.739505  1
  P  P5  1  0.262265  0.737735  0.262265  1
  P  P6  1  0.737735  0.262265  0.737735  1
  P  P7  1  0.262265  0.262265  0.737735  1
  P  P8  1  0.737735  0.737735  0.262265  1
  Pd  Pd9  1  0.379770  0.389513  0.389513  1
  Pd  Pd10  1  0.620230  0.610487  0.610487  1
  Pd  Pd11  1  0.389513  0.379770  0.841203  1
  Pd  Pd12  1  0.389513  0.841203  0.379770  1
  Pd  Pd13  1  0.610487  0.620230  0.158797  1
  Pd  Pd14  1  0.610487  0.158797  0.620230  1
  Pd  Pd15  1  0.841203  0.389513  0.389513  1
  Pd  Pd16  1  0.158797  0.610487  0.610487  1
  Pd  Pd17  1  0.344490  0.000000  0.000000  1
  Pd  Pd18  1  0.655510  0.000000  0.000000  1
  Pd  Pd19  1  0.000000  0.344490  0.655510  1
  Pd  Pd20  1  0.000000  0.655510  0.344490  1
  Pd  Pd21  1  0.010881  0.347140  0.989119  1
  Pd  Pd22  1  0.652860  0.989119  0.347140  1
  Pd  Pd23  1  0.989119  0.652860  0.010881  1
  Pd  Pd24  1  0.347140  0.010881  0.652860  1
  Pd  Pd25  1  0.010881  0.989119  0.347140  1
  Pd  Pd26  1  0.989119  0.010881  0.652860  1
  Pd  Pd27  1  0.652860  0.347140  0.989119  1
  Pd  Pd28  1  0.347140  0.652860  0.010881  1
