# generated using pymatgen
data_P2PtO6
_symmetry_space_group_name_H-M   'P 1'
_cell_length_a   4.39890700
_cell_length_b   4.70767200
_cell_length_c   12.55865700
_cell_angle_alpha   90.00000000
_cell_angle_beta   90.00000000
_cell_angle_gamma   90.00000000
_symmetry_Int_Tables_number   1
_chemical_formula_structural   P2PtO6
_chemical_formula_sum   'P4 Pt2 O12'
_cell_volume   260.07234645
_cell_formula_units_Z   2
loop_
 _symmetry_equiv_pos_site_id
 _symmetry_equiv_pos_as_xyz
  1  'x, y, z'
loop_
 _atom_site_type_symbol
 _atom_site_label
 _atom_site_symmetry_multiplicity
 _atom_site_fract_x
 _atom_site_fract_y
 _atom_site_fract_z
 _atom_site_occupancy
  P  P0  1  0.500000  0.500000  0.327769  1
  P  P1  1  0.000000  0.500000  0.172231  1
  P  P2  1  0.500000  0.500000  0.672231  1
  P  P3  1  0.000000  0.500000  0.827769  1
  Pt  Pt4  1  0.500000  0.000000  0.500000  1
  Pt  Pt5  1  0.000000  0.000000  0.000000  1
  O  O6  1  0.750000  0.639029  0.250000  1
  O  O7  1  0.250000  0.360971  0.250000  1
  O  O8  1  0.250000  0.360971  0.750000  1
  O  O9  1  0.750000  0.639029  0.750000  1
  O  O10  1  0.837338  0.263767  0.114039  1
  O  O11  1  0.337338  0.736233  0.385961  1
  O  O12  1  0.837338  0.263767  0.885961  1
  O  O13  1  0.337338  0.736233  0.614039  1
  O  O14  1  0.662662  0.263767  0.614039  1
  O  O15  1  0.162662  0.736233  0.885961  1
  O  O16  1  0.162662  0.736233  0.114039  1
  O  O17  1  0.662662  0.263767  0.385961  1
