# generated using pymatgen
data_Pr(ZrIr)2
_symmetry_space_group_name_H-M   'P 1'
_cell_length_a   4.54833055
_cell_length_b   4.54832853
_cell_length_c   6.42457788
_cell_angle_alpha   110.82754133
_cell_angle_beta   110.82751363
_cell_angle_gamma   89.80216256
_symmetry_Int_Tables_number   1
_chemical_formula_structural   Pr(ZrIr)2
_chemical_formula_sum   'Pr1 Zr2 Ir2'
_cell_volume   114.94902961
_cell_formula_units_Z   1
loop_
 _symmetry_equiv_pos_site_id
 _symmetry_equiv_pos_as_xyz
  1  'x, y, z'
loop_
 _atom_site_type_symbol
 _atom_site_label
 _atom_site_symmetry_multiplicity
 _atom_site_fract_x
 _atom_site_fract_y
 _atom_site_fract_z
 _atom_site_occupancy
  Pr  Pr0  1  0.000001  0.000001  0.000001  1
  Zr  Zr1  1  0.750085  0.249914  0.500000  1
  Zr  Zr2  1  0.249914  0.750085  0.500000  1
  Ir  Ir3  1  0.617319  0.617320  0.234951  1
  Ir  Ir4  1  0.382682  0.382681  0.765050  1
