# generated using pymatgen
data_MnBe8ZnIr2
_symmetry_space_group_name_H-M   'P 1'
_cell_length_a   4.33013600
_cell_length_b   4.33013533
_cell_length_c   7.05005900
_cell_angle_alpha   90.00000000
_cell_angle_beta   90.00000000
_cell_angle_gamma   120.00000515
_symmetry_Int_Tables_number   1
_chemical_formula_structural   MnBe8ZnIr2
_chemical_formula_sum   'Mn1 Be8 Zn1 Ir2'
_cell_volume   114.47914224
_cell_formula_units_Z   1
loop_
 _symmetry_equiv_pos_site_id
 _symmetry_equiv_pos_as_xyz
  1  'x, y, z'
loop_
 _atom_site_type_symbol
 _atom_site_label
 _atom_site_symmetry_multiplicity
 _atom_site_fract_x
 _atom_site_fract_y
 _atom_site_fract_z
 _atom_site_occupancy
  Mn  Mn0  1  0.333333  0.666667  0.437837  1
  Be  Be1  1  0.000000  0.000000  0.001648  1
  Be  Be2  1  0.000000  0.000000  0.503653  1
  Be  Be3  1  0.832502  0.665005  0.250490  1
  Be  Be4  1  0.169842  0.830158  0.749192  1
  Be  Be5  1  0.660315  0.830158  0.749192  1
  Be  Be6  1  0.334995  0.167498  0.250490  1
  Be  Be7  1  0.832502  0.167498  0.250490  1
  Be  Be8  1  0.169842  0.339685  0.749192  1
  Zn  Zn9  1  0.666667  0.333333  0.937080  1
  Ir  Ir10  1  0.333333  0.666667  0.065074  1
  Ir  Ir11  1  0.666667  0.333333  0.555658  1
