# generated using pymatgen
data_Cs4Rb2HoInSb4
_symmetry_space_group_name_H-M   'P 1'
_cell_length_a   10.46569323
_cell_length_b   10.46569279
_cell_length_c   10.46569311
_cell_angle_alpha   130.48206234
_cell_angle_beta   137.85851990
_cell_angle_gamma   67.00192550
_symmetry_Int_Tables_number   1
_chemical_formula_structural   Cs4Rb2HoInSb4
_chemical_formula_sum   'Cs4 Rb2 Ho1 In1 Sb4'
_cell_volume   575.70208344
_cell_formula_units_Z   1
loop_
 _symmetry_equiv_pos_site_id
 _symmetry_equiv_pos_as_xyz
  1  'x, y, z'
loop_
 _atom_site_type_symbol
 _atom_site_label
 _atom_site_symmetry_multiplicity
 _atom_site_fract_x
 _atom_site_fract_y
 _atom_site_fract_z
 _atom_site_occupancy
  Cs  Cs0  1  0.688506  0.465526  0.793806  1
  Cs  Cs1  1  0.811494  0.105300  0.277021  1
  Cs  Cs2  1  0.171721  0.894700  0.706194  1
  Cs  Cs3  1  0.328279  0.534474  0.222979  1
  Rb  Rb4  1  0.750000  0.000000  0.750000  1
  Rb  Rb5  1  0.250000  0.000000  0.250000  1
  Ho  Ho6  1  0.250000  0.500000  0.750000  1
  In  In7  1  0.750000  0.500000  0.250000  1
  Sb  Sb8  1  0.408959  0.212538  0.813783  1
  Sb  Sb9  1  0.601245  0.787462  0.196422  1
  Sb  Sb10  1  0.091041  0.404823  0.303578  1
  Sb  Sb11  1  0.898755  0.595177  0.686217  1
