# generated using pymatgen
data_SrHo2Al7Cu2
_symmetry_space_group_name_H-M   'P 1'
_cell_length_a   9.11150893
_cell_length_b   9.11150897
_cell_length_c   9.11150973
_cell_angle_alpha   35.70831609
_cell_angle_beta   35.70831698
_cell_angle_gamma   35.70831100
_symmetry_Int_Tables_number   1
_chemical_formula_structural   SrHo2Al7Cu2
_chemical_formula_sum   'Sr1 Ho2 Al7 Cu2'
_cell_volume   230.36326088
_cell_formula_units_Z   1
loop_
 _symmetry_equiv_pos_site_id
 _symmetry_equiv_pos_as_xyz
  1  'x, y, z'
loop_
 _atom_site_type_symbol
 _atom_site_label
 _atom_site_symmetry_multiplicity
 _atom_site_fract_x
 _atom_site_fract_y
 _atom_site_fract_z
 _atom_site_occupancy
  Sr  Sr0  1  0.000000  0.000000  0.000000  1
  Ho  Ho1  1  0.857507  0.857507  0.857507  1
  Ho  Ho2  1  0.142493  0.142493  0.142493  1
  Al  Al3  1  0.416804  0.416804  0.926752  1
  Al  Al4  1  0.926752  0.416804  0.416804  1
  Al  Al5  1  0.416804  0.926752  0.416804  1
  Al  Al6  1  0.500000  0.500000  0.500000  1
  Al  Al7  1  0.583196  0.073248  0.583196  1
  Al  Al8  1  0.073248  0.583196  0.583196  1
  Al  Al9  1  0.583196  0.583196  0.073248  1
  Cu  Cu10  1  0.664472  0.664472  0.664472  1
  Cu  Cu11  1  0.335528  0.335528  0.335528  1
