# generated using pymatgen
data_Nd8ZnCu2Si12Hg
_symmetry_space_group_name_H-M   'P 1'
_cell_length_a   8.18959400
_cell_length_b   8.18959448
_cell_length_c   8.59393300
_cell_angle_alpha   90.00000000
_cell_angle_beta   90.00000000
_cell_angle_gamma   119.99999808
_symmetry_Int_Tables_number   1
_chemical_formula_structural   Nd8ZnCu2Si12Hg
_chemical_formula_sum   'Nd8 Zn1 Cu2 Si12 Hg1'
_cell_volume   499.16873176
_cell_formula_units_Z   1
loop_
 _symmetry_equiv_pos_site_id
 _symmetry_equiv_pos_as_xyz
  1  'x, y, z'
loop_
 _atom_site_type_symbol
 _atom_site_label
 _atom_site_symmetry_multiplicity
 _atom_site_fract_x
 _atom_site_fract_y
 _atom_site_fract_z
 _atom_site_occupancy
  Nd  Nd0  1  0.000000  0.000000  0.747873  1
  Nd  Nd1  1  0.000000  0.000000  0.252385  1
  Nd  Nd2  1  0.497327  0.502673  0.746969  1
  Nd  Nd3  1  0.497327  0.994654  0.746969  1
  Nd  Nd4  1  0.005346  0.502673  0.746969  1
  Nd  Nd5  1  0.497907  0.502093  0.252870  1
  Nd  Nd6  1  0.004187  0.502093  0.252870  1
  Nd  Nd7  1  0.497907  0.995813  0.252870  1
  Zn  Zn8  1  0.666667  0.333333  0.501145  1
  Cu  Cu9  1  0.333333  0.666667  0.499526  1
  Cu  Cu10  1  0.333333  0.666667  0.000149  1
  Si  Si11  1  0.841922  0.158078  0.000478  1
  Si  Si12  1  0.841922  0.683841  0.000478  1
  Si  Si13  1  0.316159  0.158078  0.000478  1
  Si  Si14  1  0.834769  0.165231  0.500285  1
  Si  Si15  1  0.834769  0.669538  0.500285  1
  Si  Si16  1  0.330462  0.165231  0.500285  1
  Si  Si17  1  0.170446  0.829554  0.499711  1
  Si  Si18  1  0.659108  0.829554  0.499711  1
  Si  Si19  1  0.170446  0.340892  0.499711  1
  Si  Si20  1  0.171636  0.828364  0.999996  1
  Si  Si21  1  0.656727  0.828364  0.999996  1
  Si  Si22  1  0.171636  0.343273  0.999996  1
  Hg  Hg23  1  0.666667  0.333333  0.997999  1
