# generated using pymatgen
data_Cs4TiVBr12
_symmetry_space_group_name_H-M   'P 1'
_cell_length_a   7.85692300
_cell_length_b   7.85687900
_cell_length_c   10.91739500
_cell_angle_alpha   90.00000000
_cell_angle_beta   90.00000000
_cell_angle_gamma   90.00000000
_symmetry_Int_Tables_number   1
_chemical_formula_structural   Cs4TiVBr12
_chemical_formula_sum   'Cs4 Ti1 V1 Br12'
_cell_volume   673.94054611
_cell_formula_units_Z   1
loop_
 _symmetry_equiv_pos_site_id
 _symmetry_equiv_pos_as_xyz
  1  'x, y, z'
loop_
 _atom_site_type_symbol
 _atom_site_label
 _atom_site_symmetry_multiplicity
 _atom_site_fract_x
 _atom_site_fract_y
 _atom_site_fract_z
 _atom_site_occupancy
  Cs  Cs0  1  0.500000  0.000000  0.746753  1
  Cs  Cs1  1  0.000000  0.500000  0.253248  1
  Cs  Cs2  1  0.500000  0.000000  0.253247  1
  Cs  Cs3  1  0.000000  0.500000  0.746752  1
  Ti  Ti4  1  0.000000  0.000000  0.000000  1
  V  V5  1  0.500000  0.500000  0.500000  1
  Br  Br6  1  0.000000  0.000000  0.767914  1
  Br  Br7  1  0.500000  0.500000  0.272490  1
  Br  Br8  1  0.726841  0.726844  0.500000  1
  Br  Br9  1  0.228499  0.228497  0.000000  1
  Br  Br10  1  0.726841  0.273156  0.500000  1
  Br  Br11  1  0.228499  0.771503  0.000000  1
  Br  Br12  1  0.000000  0.000000  0.232086  1
  Br  Br13  1  0.500000  0.500000  0.727510  1
  Br  Br14  1  0.273159  0.273156  0.500000  1
  Br  Br15  1  0.771501  0.771503  0.000000  1
  Br  Br16  1  0.273159  0.726844  0.500000  1
  Br  Br17  1  0.771501  0.228497  0.000000  1
