# generated using pymatgen
data_Y2HoUN4
_symmetry_space_group_name_H-M   'P 1'
_cell_length_a   5.96602491
_cell_length_b   5.96499637
_cell_length_c   4.89081204
_cell_angle_alpha   65.81094404
_cell_angle_beta   65.81511140
_cell_angle_gamma   48.40010761
_symmetry_Int_Tables_number   1
_chemical_formula_structural   Y2HoUN4
_chemical_formula_sum   'Y2 Ho1 U1 N4'
_cell_volume   116.28527217
_cell_formula_units_Z   1
loop_
 _symmetry_equiv_pos_site_id
 _symmetry_equiv_pos_as_xyz
  1  'x, y, z'
loop_
 _atom_site_type_symbol
 _atom_site_label
 _atom_site_symmetry_multiplicity
 _atom_site_fract_x
 _atom_site_fract_y
 _atom_site_fract_z
 _atom_site_occupancy
  Y  Y0  1  0.746958  0.753040  0.752917  1
  Y  Y1  1  0.247083  0.252915  0.253042  1
  Ho  Ho2  1  0.497021  0.502979  0.502979  1
  U  U3  1  0.997018  0.002979  0.002982  1
  N  N4  1  0.997016  0.002985  0.503282  1
  N  N5  1  0.228442  0.234258  0.771558  1
  N  N6  1  0.496718  0.503284  0.002984  1
  N  N7  1  0.765679  0.771625  0.234321  1
