# generated using pymatgen
data_Zr10CuSn2GeBi4
_symmetry_space_group_name_H-M   'P 1'
_cell_length_a   8.79701260
_cell_length_b   8.79701327
_cell_length_c   5.93507435
_cell_angle_alpha   90.03880741
_cell_angle_beta   90.03880185
_cell_angle_gamma   119.90797572
_symmetry_Int_Tables_number   1
_chemical_formula_structural   Zr10CuSn2GeBi4
_chemical_formula_sum   'Zr10 Cu1 Sn2 Ge1 Bi4'
_cell_volume   398.13360253
_cell_formula_units_Z   1
loop_
 _symmetry_equiv_pos_site_id
 _symmetry_equiv_pos_as_xyz
  1  'x, y, z'
loop_
 _atom_site_type_symbol
 _atom_site_label
 _atom_site_symmetry_multiplicity
 _atom_site_fract_x
 _atom_site_fract_y
 _atom_site_fract_z
 _atom_site_occupancy
  Zr  Zr0  1  0.666960  0.331010  0.503557  1
  Zr  Zr1  1  0.331010  0.666960  0.503557  1
  Zr  Zr2  1  0.331077  0.666963  0.996722  1
  Zr  Zr3  1  0.666963  0.331077  0.996722  1
  Zr  Zr4  1  0.741148  0.741148  0.249511  1
  Zr  Zr5  1  0.258656  0.998802  0.248648  1
  Zr  Zr6  1  0.998802  0.258656  0.248648  1
  Zr  Zr7  1  0.260957  0.260957  0.751476  1
  Zr  Zr8  1  0.738839  0.006124  0.751492  1
  Zr  Zr9  1  0.006124  0.738839  0.751492  1
  Cu  Cu10  1  0.999956  0.999956  0.992754  1
  Sn  Sn11  1  0.388433  0.000946  0.751484  1
  Sn  Sn12  1  0.000946  0.388433  0.751484  1
  Ge  Ge13  1  0.999832  0.999832  0.504905  1
  Bi  Bi14  1  0.389500  0.389500  0.248836  1
  Bi  Bi15  1  0.608047  0.998870  0.248522  1
  Bi  Bi16  1  0.998870  0.608047  0.248522  1
  Bi  Bi17  1  0.613883  0.613883  0.751668  1
