# generated using pymatgen
data_Ti4Nb3Re8Tc
_symmetry_space_group_name_H-M   'P 1'
_cell_length_a   6.30509672
_cell_length_b   6.30509672
_cell_length_c   6.30648580
_cell_angle_alpha   89.95924179
_cell_angle_beta   89.95924179
_cell_angle_gamma   89.96326223
_symmetry_Int_Tables_number   1
_chemical_formula_structural   Ti4Nb3Re8Tc
_chemical_formula_sum   'Ti4 Nb3 Re8 Tc1'
_cell_volume   250.70940115
_cell_formula_units_Z   1
loop_
 _symmetry_equiv_pos_site_id
 _symmetry_equiv_pos_as_xyz
  1  'x, y, z'
loop_
 _atom_site_type_symbol
 _atom_site_label
 _atom_site_symmetry_multiplicity
 _atom_site_fract_x
 _atom_site_fract_y
 _atom_site_fract_z
 _atom_site_occupancy
  Ti  Ti0  1  0.499733  0.499733  0.000403  1
  Ti  Ti1  1  0.000164  0.000164  0.000162  1
  Ti  Ti2  1  0.000416  0.499726  0.499731  1
  Ti  Ti3  1  0.499726  0.000416  0.499731  1
  Nb  Nb4  1  0.000246  0.000246  0.499722  1
  Nb  Nb5  1  0.000239  0.499725  0.000245  1
  Nb  Nb6  1  0.499725  0.000239  0.000245  1
  Re  Re7  1  0.500222  0.500222  0.500214  1
  Re  Re8  1  0.747834  0.747834  0.747792  1
  Re  Re9  1  0.747943  0.747943  0.252055  1
  Re  Re10  1  0.747527  0.252243  0.252283  1
  Re  Re11  1  0.747941  0.252042  0.747919  1
  Re  Re12  1  0.252244  0.252244  0.747515  1
  Re  Re13  1  0.252042  0.747941  0.747919  1
  Re  Re14  1  0.252243  0.747527  0.252283  1
  Tc  Tc15  1  0.251755  0.251755  0.251782  1
