# generated using pymatgen
data_ErTh(Ni5Sn)2
_symmetry_space_group_name_H-M   'P 1'
_cell_length_a   4.85168400
_cell_length_b   4.85168248
_cell_length_c   19.63928500
_cell_angle_alpha   90.00000000
_cell_angle_beta   90.00000000
_cell_angle_gamma   119.99998306
_symmetry_Int_Tables_number   1
_chemical_formula_structural   ErTh(Ni5Sn)2
_chemical_formula_sum   'Er2 Th2 Ni20 Sn4'
_cell_volume   400.35131192
_cell_formula_units_Z   2
loop_
 _symmetry_equiv_pos_site_id
 _symmetry_equiv_pos_as_xyz
  1  'x, y, z'
loop_
 _atom_site_type_symbol
 _atom_site_label
 _atom_site_symmetry_multiplicity
 _atom_site_fract_x
 _atom_site_fract_y
 _atom_site_fract_z
 _atom_site_occupancy
  Er  Er0  1  0.000000  0.000000  0.500000  1
  Er  Er1  1  0.000000  0.000000  0.000000  1
  Th  Th2  1  0.333333  0.666667  0.250000  1
  Th  Th3  1  0.666667  0.333333  0.750000  1
  Ni  Ni4  1  0.834135  0.165865  0.354800  1
  Ni  Ni5  1  0.834135  0.668272  0.354800  1
  Ni  Ni6  1  0.331728  0.165865  0.354800  1
  Ni  Ni7  1  0.165865  0.834135  0.645200  1
  Ni  Ni8  1  0.165865  0.331728  0.645200  1
  Ni  Ni9  1  0.668272  0.834135  0.645200  1
  Ni  Ni10  1  0.165865  0.834135  0.854800  1
  Ni  Ni11  1  0.165865  0.331728  0.854800  1
  Ni  Ni12  1  0.668272  0.834135  0.854800  1
  Ni  Ni13  1  0.834135  0.165865  0.145200  1
  Ni  Ni14  1  0.834135  0.668272  0.145200  1
  Ni  Ni15  1  0.331728  0.165865  0.145200  1
  Ni  Ni16  1  0.333333  0.666667  0.957848  1
  Ni  Ni17  1  0.666667  0.333333  0.042152  1
  Ni  Ni18  1  0.666667  0.333333  0.457848  1
  Ni  Ni19  1  0.333333  0.666667  0.542152  1
  Ni  Ni20  1  0.333333  0.666667  0.750000  1
  Ni  Ni21  1  0.666667  0.333333  0.250000  1
  Ni  Ni22  1  0.000000  0.000000  0.250000  1
  Ni  Ni23  1  0.000000  0.000000  0.750000  1
  Sn  Sn24  1  0.333333  0.666667  0.414578  1
  Sn  Sn25  1  0.666667  0.333333  0.585422  1
  Sn  Sn26  1  0.666667  0.333333  0.914578  1
  Sn  Sn27  1  0.333333  0.666667  0.085422  1
