# generated using pymatgen
data_PrDyS2
_symmetry_space_group_name_H-M   'P 1'
_cell_length_a   7.05761066
_cell_length_b   7.05761013
_cell_length_c   7.05761097
_cell_angle_alpha   32.65970807
_cell_angle_beta   32.65971775
_cell_angle_gamma   32.65971356
_symmetry_Int_Tables_number   1
_chemical_formula_structural   PrDyS2
_chemical_formula_sum   'Pr1 Dy1 S2'
_cell_volume   91.05519701
_cell_formula_units_Z   1
loop_
 _symmetry_equiv_pos_site_id
 _symmetry_equiv_pos_as_xyz
  1  'x, y, z'
loop_
 _atom_site_type_symbol
 _atom_site_label
 _atom_site_symmetry_multiplicity
 _atom_site_fract_x
 _atom_site_fract_y
 _atom_site_fract_z
 _atom_site_occupancy
  Pr  Pr0  1  0.500000  0.500000  0.500000  1
  Dy  Dy1  1  0.000000  0.000000  0.000000  1
  S  S2  1  0.742948  0.742948  0.742948  1
  S  S3  1  0.257052  0.257052  0.257052  1
