# generated using pymatgen
data_Ce8ZnPt6
_symmetry_space_group_name_H-M   'P 1'
_cell_length_a   7.64419583
_cell_length_b   7.64419638
_cell_length_c   7.64419452
_cell_angle_alpha   69.76751555
_cell_angle_beta   69.76751704
_cell_angle_gamma   69.76751439
_symmetry_Int_Tables_number   1
_chemical_formula_structural   Ce8ZnPt6
_chemical_formula_sum   'Ce8 Zn1 Pt6'
_cell_volume   380.05149017
_cell_formula_units_Z   1
loop_
 _symmetry_equiv_pos_site_id
 _symmetry_equiv_pos_as_xyz
  1  'x, y, z'
loop_
 _atom_site_type_symbol
 _atom_site_label
 _atom_site_symmetry_multiplicity
 _atom_site_fract_x
 _atom_site_fract_y
 _atom_site_fract_z
 _atom_site_occupancy
  Ce  Ce0  1  0.187869  0.187869  0.187869  1
  Ce  Ce1  1  0.812131  0.812131  0.812131  1
  Ce  Ce2  1  0.382058  0.679769  0.151346  1
  Ce  Ce3  1  0.679769  0.151346  0.382058  1
  Ce  Ce4  1  0.151346  0.382058  0.679769  1
  Ce  Ce5  1  0.617942  0.320231  0.848654  1
  Ce  Ce6  1  0.320231  0.848654  0.617942  1
  Ce  Ce7  1  0.848654  0.617942  0.320231  1
  Zn  Zn8  1  0.000000  0.000000  0.000000  1
  Pt  Pt9  1  0.043844  0.823617  0.419038  1
  Pt  Pt10  1  0.823617  0.419038  0.043844  1
  Pt  Pt11  1  0.419038  0.043844  0.823617  1
  Pt  Pt12  1  0.956156  0.176383  0.580962  1
  Pt  Pt13  1  0.176383  0.580962  0.956156  1
  Pt  Pt14  1  0.580962  0.956156  0.176383  1
