# generated using pymatgen
data_SmPa2(GaPt)3
_symmetry_space_group_name_H-M   'P 1'
_cell_length_a   7.21038183
_cell_length_b   7.19435203
_cell_length_c   4.06182000
_cell_angle_alpha   90.00000000
_cell_angle_beta   90.00000000
_cell_angle_gamma   119.92650065
_symmetry_Int_Tables_number   1
_chemical_formula_structural   SmPa2(GaPt)3
_chemical_formula_sum   'Sm1 Pa2 Ga3 Pt3'
_cell_volume   182.60910510
_cell_formula_units_Z   1
loop_
 _symmetry_equiv_pos_site_id
 _symmetry_equiv_pos_as_xyz
  1  'x, y, z'
loop_
 _atom_site_type_symbol
 _atom_site_label
 _atom_site_symmetry_multiplicity
 _atom_site_fract_x
 _atom_site_fract_y
 _atom_site_fract_z
 _atom_site_occupancy
  Sm  Sm0  1  0.000000  0.587879  0.500000  1
  Pa  Pa1  1  0.416913  0.415289  0.500000  1
  Pa  Pa2  1  0.583087  0.998375  0.500000  1
  Ga  Ga3  1  0.760436  0.752766  0.000000  1
  Ga  Ga4  1  0.239564  0.992330  0.000000  1
  Ga  Ga5  1  0.000000  0.250979  0.000000  1
  Pt  Pt6  1  0.648616  0.318547  0.000000  1
  Pt  Pt7  1  0.351384  0.669932  0.000000  1
  Pt  Pt8  1  0.000000  0.013901  0.500000  1
