# generated using pymatgen
data_Ca2HoLu3(GaNi2)6
_symmetry_space_group_name_H-M   'P 1'
_cell_length_a   5.20382600
_cell_length_b   5.20382592
_cell_length_c   15.80457400
_cell_angle_alpha   90.00000000
_cell_angle_beta   90.00000000
_cell_angle_gamma   119.99998778
_symmetry_Int_Tables_number   1
_chemical_formula_structural   Ca2HoLu3(GaNi2)6
_chemical_formula_sum   'Ca2 Ho1 Lu3 Ga6 Ni12'
_cell_volume   370.64573426
_cell_formula_units_Z   1
loop_
 _symmetry_equiv_pos_site_id
 _symmetry_equiv_pos_as_xyz
  1  'x, y, z'
loop_
 _atom_site_type_symbol
 _atom_site_label
 _atom_site_symmetry_multiplicity
 _atom_site_fract_x
 _atom_site_fract_y
 _atom_site_fract_z
 _atom_site_occupancy
  Ca  Ca0  1  0.333333  0.666667  0.750501  1
  Ca  Ca1  1  0.666667  0.333333  0.250002  1
  Ho  Ho2  1  0.333333  0.666667  0.543040  1
  Lu  Lu3  1  0.666667  0.333333  0.456528  1
  Lu  Lu4  1  0.666667  0.333333  0.042862  1
  Lu  Lu5  1  0.333333  0.666667  0.957121  1
  Ga  Ga6  1  0.000000  0.000000  0.250216  1
  Ga  Ga7  1  0.000000  0.000000  0.749925  1
  Ga  Ga8  1  0.333333  0.666667  0.250150  1
  Ga  Ga9  1  0.666667  0.333333  0.749927  1
  Ga  Ga10  1  0.000000  0.000000  0.999918  1
  Ga  Ga11  1  0.000000  0.000000  0.499703  1
  Ni  Ni12  1  0.169094  0.338187  0.124193  1
  Ni  Ni13  1  0.830851  0.661704  0.875932  1
  Ni  Ni14  1  0.661813  0.830906  0.124193  1
  Ni  Ni15  1  0.830990  0.661981  0.623739  1
  Ni  Ni16  1  0.338296  0.169149  0.875932  1
  Ni  Ni17  1  0.169221  0.338441  0.376171  1
  Ni  Ni18  1  0.169094  0.830906  0.124193  1
  Ni  Ni19  1  0.338019  0.169010  0.623739  1
  Ni  Ni20  1  0.830851  0.169149  0.875932  1
  Ni  Ni21  1  0.661559  0.830779  0.376171  1
  Ni  Ni22  1  0.830990  0.169010  0.623739  1
  Ni  Ni23  1  0.169221  0.830779  0.376171  1
