# generated using pymatgen
data_Sr4Lu2PtWO12
_symmetry_space_group_name_H-M   'P 1'
_cell_length_a   5.82094043
_cell_length_b   5.82732547
_cell_length_c   10.10014959
_cell_angle_alpha   54.27382565
_cell_angle_beta   90.14733151
_cell_angle_gamma   89.93609460
_symmetry_Int_Tables_number   1
_chemical_formula_structural   Sr4Lu2PtWO12
_chemical_formula_sum   'Sr4 Lu2 Pt1 W1 O12'
_cell_volume   278.12793593
_cell_formula_units_Z   1
loop_
 _symmetry_equiv_pos_site_id
 _symmetry_equiv_pos_as_xyz
  1  'x, y, z'
loop_
 _atom_site_type_symbol
 _atom_site_label
 _atom_site_symmetry_multiplicity
 _atom_site_fract_x
 _atom_site_fract_y
 _atom_site_fract_z
 _atom_site_occupancy
  Sr  Sr0  1  0.018054  0.227344  0.765297  1
  Sr  Sr1  1  0.473448  0.262791  0.231283  1
  Sr  Sr2  1  0.526552  0.737209  0.768717  1
  Sr  Sr3  1  0.981946  0.772656  0.234703  1
  Lu  Lu4  1  0.000000  0.000000  0.500000  1
  Lu  Lu5  1  0.500000  0.000000  0.000000  1
  Pt  Pt6  1  0.000000  0.500000  0.000000  1
  W  W7  1  0.500000  0.500000  0.500000  1
  O  O8  1  0.490230  0.338930  0.732549  1
  O  O9  1  0.285145  0.207593  0.539366  1
  O  O10  1  0.265711  0.758409  0.964289  1
  O  O11  1  0.243056  0.751916  0.459304  1
  O  O12  1  0.225069  0.201176  0.034667  1
  O  O13  1  0.013717  0.328034  0.244465  1
  O  O14  1  0.986283  0.671966  0.755535  1
  O  O15  1  0.774931  0.798824  0.965333  1
  O  O16  1  0.756944  0.248084  0.540696  1
  O  O17  1  0.734289  0.241591  0.035711  1
  O  O18  1  0.714855  0.792407  0.460634  1
  O  O19  1  0.509770  0.661070  0.267451  1
