# generated using pymatgen
data_Dy3HoLuRu2
_symmetry_space_group_name_H-M   'P 1'
_cell_length_a   6.30640353
_cell_length_b   7.24010247
_cell_length_c   8.43057917
_cell_angle_alpha   96.77856617
_cell_angle_beta   112.00709284
_cell_angle_gamma   89.91663341
_symmetry_Int_Tables_number   1
_chemical_formula_structural   Dy3HoLuRu2
_chemical_formula_sum   'Dy6 Ho2 Lu2 Ru4'
_cell_volume   354.00735273
_cell_formula_units_Z   2
loop_
 _symmetry_equiv_pos_site_id
 _symmetry_equiv_pos_as_xyz
  1  'x, y, z'
loop_
 _atom_site_type_symbol
 _atom_site_label
 _atom_site_symmetry_multiplicity
 _atom_site_fract_x
 _atom_site_fract_y
 _atom_site_fract_z
 _atom_site_occupancy
  Dy  Dy0  1  0.522956  0.083593  0.813999  1
  Dy  Dy1  1  0.477044  0.916407  0.186001  1
  Dy  Dy2  1  0.708647  0.416539  0.186156  1
  Dy  Dy3  1  0.291353  0.583461  0.813844  1
  Dy  Dy4  1  0.297504  0.312670  0.432254  1
  Dy  Dy5  1  0.702496  0.687330  0.567746  1
  Ho  Ho6  1  0.865313  0.186851  0.567683  1
  Ho  Ho7  1  0.134687  0.813149  0.432317  1
  Lu  Lu8  1  0.078065  0.250247  0.999882  1
  Lu  Lu9  1  0.921935  0.749753  0.000118  1
  Ru  Ru10  1  0.319380  0.576273  0.218192  1
  Ru  Ru11  1  0.680620  0.423727  0.781808  1
  Ru  Ru12  1  0.101322  0.924665  0.781407  1
  Ru  Ru13  1  0.898678  0.075335  0.218593  1
