# generated using pymatgen
data_TbSmSn(PRh2)6
_symmetry_space_group_name_H-M   'P 1'
_cell_length_a   3.88629803
_cell_length_b   9.80263457
_cell_length_c   9.79995272
_cell_angle_alpha   120.01347268
_cell_angle_beta   90.01778245
_cell_angle_gamma   89.97748589
_symmetry_Int_Tables_number   1
_chemical_formula_structural   TbSmSn(PRh2)6
_chemical_formula_sum   'Tb1 Sm1 Sn1 P6 Rh12'
_cell_volume   323.27678214
_cell_formula_units_Z   1
loop_
 _symmetry_equiv_pos_site_id
 _symmetry_equiv_pos_as_xyz
  1  'x, y, z'
loop_
 _atom_site_type_symbol
 _atom_site_label
 _atom_site_symmetry_multiplicity
 _atom_site_fract_x
 _atom_site_fract_y
 _atom_site_fract_z
 _atom_site_occupancy
  Tb  Tb0  1  0.752575  0.333208  0.666455  1
  Sm  Sm1  1  0.247271  0.666769  0.333524  1
  Sn  Sn2  1  0.503396  0.000041  0.000064  1
  P  P3  1  0.746012  0.883824  0.595899  1
  P  P4  1  0.746357  0.404330  0.287968  1
  P  P5  1  0.746174  0.712017  0.116341  1
  P  P6  1  0.253750  0.116797  0.405200  1
  P  P7  1  0.253360  0.594560  0.711541  1
  P  P8  1  0.253569  0.288437  0.882993  1
  Rh  Rh9  1  0.759117  0.126245  0.838900  1
  Rh  Rh10  1  0.759450  0.161307  0.287188  1
  Rh  Rh11  1  0.758701  0.712642  0.873996  1
  Rh  Rh12  1  0.240454  0.874203  0.160797  1
  Rh  Rh13  1  0.240178  0.839047  0.713676  1
  Rh  Rh14  1  0.240786  0.286595  0.125503  1
  Rh  Rh15  1  0.746996  0.613539  0.548815  1
  Rh  Rh16  1  0.747121  0.451408  0.064868  1
  Rh  Rh17  1  0.747128  0.935281  0.386472  1
  Rh  Rh18  1  0.252668  0.385105  0.452911  1
  Rh  Rh19  1  0.252406  0.546857  0.932000  1
  Rh  Rh20  1  0.252530  0.067788  0.614887  1
