# generated using pymatgen
data_Na3PrNd3Au10
_symmetry_space_group_name_H-M   'P 1'
_cell_length_a   8.86733500
_cell_length_b   8.86733514
_cell_length_c   10.39332800
_cell_angle_alpha   90.00000000
_cell_angle_beta   90.00000000
_cell_angle_gamma   108.53624690
_symmetry_Int_Tables_number   1
_chemical_formula_structural   Na3PrNd3Au10
_chemical_formula_sum   'Na6 Pr2 Nd6 Au20'
_cell_volume   774.82822131
_cell_formula_units_Z   2
loop_
 _symmetry_equiv_pos_site_id
 _symmetry_equiv_pos_as_xyz
  1  'x, y, z'
loop_
 _atom_site_type_symbol
 _atom_site_label
 _atom_site_symmetry_multiplicity
 _atom_site_fract_x
 _atom_site_fract_y
 _atom_site_fract_z
 _atom_site_occupancy
  Na  Na0  1  0.512885  0.012885  0.250000  1
  Na  Na1  1  0.986349  0.486349  0.750000  1
  Na  Na2  1  0.000056  0.000056  0.999826  1
  Na  Na3  1  0.012885  0.512885  0.250000  1
  Na  Na4  1  0.486349  0.986349  0.750000  1
  Na  Na5  1  0.500056  0.500056  0.500174  1
  Pr  Pr6  1  0.698680  0.698680  0.801130  1
  Pr  Pr7  1  0.198680  0.198680  0.698870  1
  Nd  Nd8  1  0.699849  0.299687  0.000197  1
  Nd  Nd9  1  0.199849  0.799687  0.499803  1
  Nd  Nd10  1  0.802828  0.802828  0.301688  1
  Nd  Nd11  1  0.302828  0.302828  0.198312  1
  Nd  Nd12  1  0.799687  0.199849  0.499803  1
  Nd  Nd13  1  0.299687  0.699849  0.000197  1
  Au  Au14  1  0.149939  0.431488  0.487558  1
  Au  Au15  1  0.902716  0.902716  0.593773  1
  Au  Au16  1  0.568815  0.850132  0.510785  1
  Au  Au17  1  0.878415  0.160192  0.209737  1
  Au  Au18  1  0.378415  0.660192  0.290263  1
  Au  Au19  1  0.660192  0.378415  0.290263  1
  Au  Au20  1  0.402716  0.402716  0.906227  1
  Au  Au21  1  0.931488  0.649939  0.012442  1
  Au  Au22  1  0.338035  0.621435  0.709970  1
  Au  Au23  1  0.350132  0.068815  0.989215  1
  Au  Au24  1  0.598500  0.598500  0.095914  1
  Au  Au25  1  0.649939  0.931488  0.012442  1
  Au  Au26  1  0.098500  0.098500  0.404086  1
  Au  Au27  1  0.621435  0.338035  0.709970  1
  Au  Au28  1  0.121435  0.838035  0.790030  1
  Au  Au29  1  0.068815  0.350132  0.989215  1
  Au  Au30  1  0.850132  0.568815  0.510785  1
  Au  Au31  1  0.160192  0.878415  0.209737  1
  Au  Au32  1  0.431488  0.149939  0.487558  1
  Au  Au33  1  0.838035  0.121435  0.790030  1
