# generated using pymatgen
data_Sm3Y(Ni12P5)2
_symmetry_space_group_name_H-M   'P 1'
_cell_length_a   3.65803700
_cell_length_b   10.75674794
_cell_length_c   13.11907702
_cell_angle_alpha   71.72729348
_cell_angle_beta   90.00000000
_cell_angle_gamma   90.00000000
_symmetry_Int_Tables_number   1
_chemical_formula_structural   Sm3Y(Ni12P5)2
_chemical_formula_sum   'Sm3 Y1 Ni24 P10'
_cell_volume   490.18680188
_cell_formula_units_Z   1
loop_
 _symmetry_equiv_pos_site_id
 _symmetry_equiv_pos_as_xyz
  1  'x, y, z'
loop_
 _atom_site_type_symbol
 _atom_site_label
 _atom_site_symmetry_multiplicity
 _atom_site_fract_x
 _atom_site_fract_y
 _atom_site_fract_z
 _atom_site_occupancy
  Sm  Sm0  1  0.750000  0.719259  0.317542  1
  Sm  Sm1  1  0.250000  0.245384  0.187313  1
  Sm  Sm2  1  0.750000  0.755792  0.812298  1
  Y  Y3  1  0.250000  0.280528  0.682339  1
  Ni  Ni4  1  0.250000  0.838947  0.137482  1
  Ni  Ni5  1  0.750000  0.163367  0.860601  1
  Ni  Ni6  1  0.250000  0.286555  0.439887  1
  Ni  Ni7  1  0.750000  0.711425  0.562177  1
  Ni  Ni8  1  0.250000  0.071021  0.015594  1
  Ni  Ni9  1  0.750000  0.930635  0.983839  1
  Ni  Ni10  1  0.250000  0.063651  0.446763  1
  Ni  Ni11  1  0.750000  0.935531  0.553666  1
  Ni  Ni12  1  0.250000  0.597302  0.696488  1
  Ni  Ni13  1  0.750000  0.401574  0.304336  1
  Ni  Ni14  1  0.250000  0.584203  0.006884  1
  Ni  Ni15  1  0.750000  0.416708  0.992494  1
  Ni  Ni16  1  0.250000  0.577303  0.510795  1
  Ni  Ni17  1  0.750000  0.419357  0.491051  1
  Ni  Ni18  1  0.250000  0.299177  0.916502  1
  Ni  Ni19  1  0.750000  0.701437  0.081827  1
  Ni  Ni20  1  0.250000  0.994674  0.660154  1
  Ni  Ni21  1  0.750000  0.005999  0.339618  1
  Ni  Ni22  1  0.250000  0.838132  0.437886  1
  Ni  Ni23  1  0.750000  0.161913  0.563272  1
  Ni  Ni24  1  0.250000  0.991497  0.848062  1
  Ni  Ni25  1  0.750000  0.010974  0.151305  1
  Ni  Ni26  1  0.250000  0.563199  0.203776  1
  Ni  Ni27  1  0.750000  0.434819  0.795803  1
  P  P28  1  0.250000  0.510612  0.870488  1
  P  P29  1  0.750000  0.489398  0.129726  1
  P  P30  1  0.250000  0.801107  0.982760  1
  P  P31  1  0.750000  0.200274  0.016020  1
  P  P32  1  0.250000  0.495421  0.378013  1
  P  P33  1  0.750000  0.501647  0.622677  1
  P  P34  1  0.250000  0.812464  0.611522  1
  P  P35  1  0.750000  0.186705  0.389448  1
  P  P36  1  0.250000  0.947695  0.259956  1
  P  P37  1  0.750000  0.054311  0.739636  1
