# generated using pymatgen
data_Tb3Tm5(CuP)12
_symmetry_space_group_name_H-M   'P 1'
_cell_length_a   3.82536800
_cell_length_b   10.61639525
_cell_length_c   12.88061949
_cell_angle_alpha   89.94460886
_cell_angle_beta   90.00000000
_cell_angle_gamma   90.00000000
_symmetry_Int_Tables_number   1
_chemical_formula_structural   Tb3Tm5(CuP)12
_chemical_formula_sum   'Tb3 Tm5 Cu12 P12'
_cell_volume   523.10256257
_cell_formula_units_Z   1
loop_
 _symmetry_equiv_pos_site_id
 _symmetry_equiv_pos_as_xyz
  1  'x, y, z'
loop_
 _atom_site_type_symbol
 _atom_site_label
 _atom_site_symmetry_multiplicity
 _atom_site_fract_x
 _atom_site_fract_y
 _atom_site_fract_z
 _atom_site_occupancy
  Tb  Tb0  1  0.250000  0.931746  0.792199  1
  Tb  Tb1  1  0.750000  0.431374  0.707763  1
  Tb  Tb2  1  0.250000  0.568496  0.292306  1
  Tm  Tm3  1  0.750000  0.068625  0.208095  1
  Tm  Tm4  1  0.250000  0.840986  0.503065  1
  Tm  Tm5  1  0.750000  0.340502  0.996758  1
  Tm  Tm6  1  0.250000  0.658890  0.003453  1
  Tm  Tm7  1  0.750000  0.158328  0.495741  1
  Cu  Cu8  1  0.250000  0.405163  0.512824  1
  Cu  Cu9  1  0.750000  0.905571  0.988520  1
  Cu  Cu10  1  0.250000  0.094602  0.013535  1
  Cu  Cu11  1  0.750000  0.594954  0.487811  1
  Cu  Cu12  1  0.250000  0.271567  0.331838  1
  Cu  Cu13  1  0.750000  0.771984  0.168703  1
  Cu  Cu14  1  0.250000  0.228997  0.831390  1
  Cu  Cu15  1  0.750000  0.729207  0.668784  1
  Cu  Cu16  1  0.250000  0.861030  0.281956  1
  Cu  Cu17  1  0.750000  0.357681  0.217510  1
  Cu  Cu18  1  0.250000  0.640769  0.782195  1
  Cu  Cu19  1  0.750000  0.140671  0.717210  1
  P  P20  1  0.250000  0.241630  0.640575  1
  P  P21  1  0.750000  0.742131  0.859161  1
  P  P22  1  0.250000  0.255699  0.141910  1
  P  P23  1  0.750000  0.758203  0.358865  1
  P  P24  1  0.250000  0.606565  0.601899  1
  P  P25  1  0.750000  0.106409  0.897725  1
  P  P26  1  0.250000  0.894439  0.102492  1
  P  P27  1  0.750000  0.393680  0.397943  1
  P  P28  1  0.250000  0.056546  0.369572  1
  P  P29  1  0.750000  0.556022  0.128480  1
  P  P30  1  0.250000  0.443758  0.871890  1
  P  P31  1  0.750000  0.943776  0.627830  1
