# generated using pymatgen
data_Dy6ScCo16P12Ru
_symmetry_space_group_name_H-M   'P 1'
_cell_length_a   3.71612100
_cell_length_b   10.59915200
_cell_length_c   12.30493400
_cell_angle_alpha   90.00000000
_cell_angle_beta   90.00000000
_cell_angle_gamma   90.00000000
_symmetry_Int_Tables_number   1
_chemical_formula_structural   Dy6ScCo16P12Ru
_chemical_formula_sum   'Dy6 Sc1 Co16 P12 Ru1'
_cell_volume   484.66343442
_cell_formula_units_Z   1
loop_
 _symmetry_equiv_pos_site_id
 _symmetry_equiv_pos_as_xyz
  1  'x, y, z'
loop_
 _atom_site_type_symbol
 _atom_site_label
 _atom_site_symmetry_multiplicity
 _atom_site_fract_x
 _atom_site_fract_y
 _atom_site_fract_z
 _atom_site_occupancy
  Dy  Dy0  1  0.000000  0.500000  0.527515  1
  Dy  Dy1  1  0.500000  0.000000  0.474739  1
  Dy  Dy2  1  0.500000  0.820732  0.207125  1
  Dy  Dy3  1  0.500000  0.179268  0.207125  1
  Dy  Dy4  1  0.000000  0.682275  0.795368  1
  Dy  Dy5  1  0.000000  0.317725  0.795368  1
  Sc  Sc6  1  0.500000  0.500000  0.153303  1
  Co  Co7  1  0.500000  0.500000  0.704105  1
  Co  Co8  1  0.000000  0.000000  0.296388  1
  Co  Co9  1  0.000000  0.500000  0.984625  1
  Co  Co10  1  0.500000  0.000000  0.012252  1
  Co  Co11  1  0.500000  0.326865  0.990108  1
  Co  Co12  1  0.500000  0.673135  0.990108  1
  Co  Co13  1  0.000000  0.162940  0.005232  1
  Co  Co14  1  0.000000  0.837060  0.005232  1
  Co  Co15  1  0.500000  0.294540  0.434852  1
  Co  Co16  1  0.500000  0.705460  0.434852  1
  Co  Co17  1  0.000000  0.201988  0.570765  1
  Co  Co18  1  0.000000  0.798012  0.570765  1
  Co  Co19  1  0.500000  0.879970  0.706240  1
  Co  Co20  1  0.500000  0.120030  0.706240  1
  Co  Co21  1  0.000000  0.622770  0.296525  1
  Co  Co22  1  0.000000  0.377230  0.296525  1
  P  P23  1  0.500000  0.500000  0.883683  1
  P  P24  1  0.000000  0.000000  0.117236  1
  P  P25  1  0.500000  0.500000  0.357989  1
  P  P26  1  0.000000  0.000000  0.648252  1
  P  P27  1  0.500000  0.310313  0.617498  1
  P  P28  1  0.500000  0.689687  0.617498  1
  P  P29  1  0.000000  0.189156  0.385701  1
  P  P30  1  0.000000  0.810844  0.385701  1
  P  P31  1  0.500000  0.848897  0.890118  1
  P  P32  1  0.500000  0.151103  0.890118  1
  P  P33  1  0.000000  0.662259  0.102155  1
  P  P34  1  0.000000  0.337741  0.102155  1
  Ru  Ru35  1  0.000000  0.000000  0.836537  1
