# generated using pymatgen
data_Pr8YThIr4
_symmetry_space_group_name_H-M   'P 1'
_cell_length_a   6.75440553
_cell_length_b   7.28782757
_cell_length_c   9.07499248
_cell_angle_alpha   96.50096993
_cell_angle_beta   111.84790743
_cell_angle_gamma   89.99999482
_symmetry_Int_Tables_number   1
_chemical_formula_structural   Pr8YThIr4
_chemical_formula_sum   'Pr8 Y1 Th1 Ir4'
_cell_volume   411.53430736
_cell_formula_units_Z   1
loop_
 _symmetry_equiv_pos_site_id
 _symmetry_equiv_pos_as_xyz
  1  'x, y, z'
loop_
 _atom_site_type_symbol
 _atom_site_label
 _atom_site_symmetry_multiplicity
 _atom_site_fract_x
 _atom_site_fract_y
 _atom_site_fract_z
 _atom_site_occupancy
  Pr  Pr0  1  0.981007  0.925545  0.184003  1
  Pr  Pr1  1  0.797003  0.574455  0.815997  1
  Pr  Pr2  1  0.018781  0.079939  0.816760  1
  Pr  Pr3  1  0.202022  0.420061  0.183240  1
  Pr  Pr4  1  0.650631  0.813776  0.435485  1
  Pr  Pr5  1  0.215145  0.686224  0.564515  1
  Pr  Pr6  1  0.354635  0.186686  0.570467  1
  Pr  Pr7  1  0.784169  0.313314  0.429533  1
  Y  Y8  1  0.564644  0.250000  0.000000  1
  Th  Th9  1  0.434982  0.750000  0.000000  1
  Ir  Ir10  1  0.801264  0.574208  0.207707  1
  Ir  Ir11  1  0.593556  0.925792  0.792293  1
  Ir  Ir12  1  0.196715  0.434519  0.791270  1
  Ir  Ir13  1  0.405447  0.065481  0.208730  1
