# generated using pymatgen
data_ZrBe9W2
_symmetry_space_group_name_H-M   'P 1'
_cell_length_a   7.54189312
_cell_length_b   7.54189320
_cell_length_c   7.54189296
_cell_angle_alpha   34.67265549
_cell_angle_beta   34.67265458
_cell_angle_gamma   34.67265355
_symmetry_Int_Tables_number   1
_chemical_formula_structural   ZrBe9W2
_chemical_formula_sum   'Zr1 Be9 W2'
_cell_volume   123.89243891
_cell_formula_units_Z   1
loop_
 _symmetry_equiv_pos_site_id
 _symmetry_equiv_pos_as_xyz
  1  'x, y, z'
loop_
 _atom_site_type_symbol
 _atom_site_label
 _atom_site_symmetry_multiplicity
 _atom_site_fract_x
 _atom_site_fract_y
 _atom_site_fract_z
 _atom_site_occupancy
  Zr  Zr0  1  0.000000  0.000000  0.000000  1
  Be  Be1  1  0.413298  0.920392  0.413298  1
  Be  Be2  1  0.413298  0.413298  0.920392  1
  Be  Be3  1  0.920392  0.413298  0.413298  1
  Be  Be4  1  0.586702  0.079608  0.586702  1
  Be  Be5  1  0.586702  0.586702  0.079608  1
  Be  Be6  1  0.079608  0.586702  0.586702  1
  Be  Be7  1  0.666022  0.666022  0.666022  1
  Be  Be8  1  0.333978  0.333978  0.333978  1
  Be  Be9  1  0.500000  0.500000  0.500000  1
  W  W10  1  0.855770  0.855770  0.855770  1
  W  W11  1  0.144230  0.144230  0.144230  1
