# generated using pymatgen
data_TbHo7(Si4Mo3)4
_symmetry_space_group_name_H-M   'P 1'
_cell_length_a   6.76592609
_cell_length_b   6.94747610
_cell_length_c   12.92262238
_cell_angle_alpha   90.02118436
_cell_angle_beta   90.00445722
_cell_angle_gamma   90.00066037
_symmetry_Int_Tables_number   1
_chemical_formula_structural   TbHo7(Si4Mo3)4
_chemical_formula_sum   'Tb1 Ho7 Si16 Mo12'
_cell_volume   607.44216329
_cell_formula_units_Z   1
loop_
 _symmetry_equiv_pos_site_id
 _symmetry_equiv_pos_as_xyz
  1  'x, y, z'
loop_
 _atom_site_type_symbol
 _atom_site_label
 _atom_site_symmetry_multiplicity
 _atom_site_fract_x
 _atom_site_fract_y
 _atom_site_fract_z
 _atom_site_occupancy
  Tb  Tb0  1  0.997134  0.166911  0.093654  1
  Ho  Ho1  1  0.497030  0.332862  0.093971  1
  Ho  Ho2  1  0.997127  0.167249  0.406012  1
  Ho  Ho3  1  0.502944  0.667154  0.594102  1
  Ho  Ho4  1  0.002799  0.832629  0.906027  1
  Ho  Ho5  1  0.502817  0.667354  0.906089  1
  Ho  Ho6  1  0.002777  0.832727  0.594098  1
  Ho  Ho7  1  0.497056  0.332771  0.405825  1
  Si  Si8  1  0.658997  0.041687  0.547397  1
  Si  Si9  1  0.159443  0.458700  0.952542  1
  Si  Si10  1  0.341435  0.958133  0.047297  1
  Si  Si11  1  0.840875  0.541591  0.452550  1
  Si  Si12  1  0.340970  0.958308  0.452534  1
  Si  Si13  1  0.840569  0.542202  0.047349  1
  Si  Si14  1  0.658634  0.041515  0.952580  1
  Si  Si15  1  0.159128  0.458412  0.547405  1
  Si  Si16  1  0.534744  0.366083  0.750123  1
  Si  Si17  1  0.034810  0.133743  0.750048  1
  Si  Si18  1  0.465285  0.633906  0.249825  1
  Si  Si19  1  0.965290  0.865992  0.250093  1
  Si  Si20  1  0.802592  0.629475  0.750138  1
  Si  Si21  1  0.302568  0.870321  0.750097  1
  Si  Si22  1  0.197735  0.370839  0.250227  1
  Si  Si23  1  0.696957  0.129576  0.250193  1
  Mo  Mo24  1  0.830454  0.334721  0.625171  1
  Mo  Mo25  1  0.330325  0.165246  0.874868  1
  Mo  Mo26  1  0.169678  0.665268  0.125117  1
  Mo  Mo27  1  0.669767  0.834779  0.374806  1
  Mo  Mo28  1  0.169591  0.665360  0.374742  1
  Mo  Mo29  1  0.669500  0.834653  0.125122  1
  Mo  Mo30  1  0.830386  0.334587  0.874781  1
  Mo  Mo31  1  0.330330  0.165149  0.625151  1
  Mo  Mo32  1  0.666131  0.998603  0.750064  1
  Mo  Mo33  1  0.166151  0.501348  0.750076  1
  Mo  Mo34  1  0.334154  0.001364  0.249969  1
  Mo  Mo35  1  0.833821  0.498787  0.249962  1
