# generated using pymatgen
data_Tl2Si(PdSe2)3
_symmetry_space_group_name_H-M   'P 1'
_cell_length_a   8.16505551
_cell_length_b   8.16505600
_cell_length_c   8.16505600
_cell_angle_alpha   51.21907888
_cell_angle_beta   51.21906713
_cell_angle_gamma   51.21907741
_symmetry_Int_Tables_number   1
_chemical_formula_structural   Tl2Si(PdSe2)3
_chemical_formula_sum   'Tl2 Si1 Pd3 Se6'
_cell_volume   305.28090772
_cell_formula_units_Z   1
loop_
 _symmetry_equiv_pos_site_id
 _symmetry_equiv_pos_as_xyz
  1  'x, y, z'
loop_
 _atom_site_type_symbol
 _atom_site_label
 _atom_site_symmetry_multiplicity
 _atom_site_fract_x
 _atom_site_fract_y
 _atom_site_fract_z
 _atom_site_occupancy
  Tl  Tl0  1  0.783312  0.783312  0.783312  1
  Tl  Tl1  1  0.216688  0.216688  0.216688  1
  Si  Si2  1  0.000000  0.000000  0.000000  1
  Pd  Pd3  1  0.500000  0.500000  0.000000  1
  Pd  Pd4  1  0.500000  0.000000  0.500000  1
  Pd  Pd5  1  0.000000  0.500000  0.500000  1
  Se  Se6  1  0.770437  0.770437  0.262820  1
  Se  Se7  1  0.262820  0.770437  0.770437  1
  Se  Se8  1  0.770437  0.262820  0.770437  1
  Se  Se9  1  0.737180  0.229563  0.229563  1
  Se  Se10  1  0.229563  0.229563  0.737180  1
  Se  Se11  1  0.229563  0.737180  0.229563  1
