# generated using pymatgen
data_K2AlFeF7
_symmetry_space_group_name_H-M   'P 1'
_cell_length_a   7.60134252
_cell_length_b   7.60134262
_cell_length_c   7.60134314
_cell_angle_alpha   119.73620772
_cell_angle_beta   116.40942963
_cell_angle_gamma   93.39447166
_symmetry_Int_Tables_number   1
_chemical_formula_structural   K2AlFeF7
_chemical_formula_sum   'K4 Al2 Fe2 F14'
_cell_volume   318.69544551
_cell_formula_units_Z   2
loop_
 _symmetry_equiv_pos_site_id
 _symmetry_equiv_pos_as_xyz
  1  'x, y, z'
loop_
 _atom_site_type_symbol
 _atom_site_label
 _atom_site_symmetry_multiplicity
 _atom_site_fract_x
 _atom_site_fract_y
 _atom_site_fract_z
 _atom_site_occupancy
  K  K0  1  0.000000  0.000000  0.000000  1
  K  K1  1  0.500000  0.500000  0.000000  1
  K  K2  1  0.500000  0.000000  0.000000  1
  K  K3  1  0.500000  0.500000  0.500000  1
  Al  Al4  1  0.500000  0.000000  0.500000  1
  Al  Al5  1  0.000000  0.500000  0.500000  1
  Fe  Fe6  1  0.000000  0.000000  0.500000  1
  Fe  Fe7  1  0.000000  0.500000  0.000000  1
  F  F8  1  0.381445  0.081401  0.300044  1
  F  F9  1  0.718643  0.418599  0.300044  1
  F  F10  1  0.682678  0.285488  0.745826  1
  F  F11  1  0.960336  0.214512  0.397190  1
  F  F12  1  0.960336  0.563148  0.745826  1
  F  F13  1  0.682678  0.936852  0.397190  1
  F  F14  1  0.317322  0.063148  0.602810  1
  F  F15  1  0.039664  0.436852  0.254174  1
  F  F16  1  0.039664  0.785488  0.602810  1
  F  F17  1  0.317322  0.714512  0.254174  1
  F  F18  1  0.881970  0.750000  0.131970  1
  F  F19  1  0.618555  0.918599  0.699956  1
  F  F20  1  0.281357  0.581401  0.699956  1
  F  F21  1  0.118030  0.250000  0.868030  1
