# generated using pymatgen
data_CrCu3Se3S
_symmetry_space_group_name_H-M   'P 1'
_cell_length_a   5.56132370
_cell_length_b   5.56132284
_cell_length_c   5.56132379
_cell_angle_alpha   89.07122396
_cell_angle_beta   89.07122363
_cell_angle_gamma   89.07121148
_symmetry_Int_Tables_number   1
_chemical_formula_structural   CrCu3Se3S
_chemical_formula_sum   'Cr1 Cu3 Se3 S1'
_cell_volume   171.93531154
_cell_formula_units_Z   1
loop_
 _symmetry_equiv_pos_site_id
 _symmetry_equiv_pos_as_xyz
  1  'x, y, z'
loop_
 _atom_site_type_symbol
 _atom_site_label
 _atom_site_symmetry_multiplicity
 _atom_site_fract_x
 _atom_site_fract_y
 _atom_site_fract_z
 _atom_site_occupancy
  Cr  Cr0  1  0.000029  0.000029  0.000029  1
  Cu  Cu1  1  0.006489  0.496587  0.006489  1
  Cu  Cu2  1  0.006489  0.006489  0.496587  1
  Cu  Cu3  1  0.496587  0.006489  0.006489  1
  Se  Se4  1  0.249884  0.757634  0.757634  1
  Se  Se5  1  0.757634  0.757634  0.249884  1
  Se  Se6  1  0.757634  0.249884  0.757634  1
  S  S7  1  0.225253  0.225253  0.225253  1
