# generated using pymatgen
data_Y2ThSc(Co4P3)2
_symmetry_space_group_name_H-M   'P 1'
_cell_length_a   3.75864700
_cell_length_b   10.74030300
_cell_length_c   12.41894400
_cell_angle_alpha   90.00000000
_cell_angle_beta   90.00000000
_cell_angle_gamma   90.00000000
_symmetry_Int_Tables_number   1
_chemical_formula_structural   Y2ThSc(Co4P3)2
_chemical_formula_sum   'Y4 Th2 Sc2 Co16 P12'
_cell_volume   501.34044534
_cell_formula_units_Z   2
loop_
 _symmetry_equiv_pos_site_id
 _symmetry_equiv_pos_as_xyz
  1  'x, y, z'
loop_
 _atom_site_type_symbol
 _atom_site_label
 _atom_site_symmetry_multiplicity
 _atom_site_fract_x
 _atom_site_fract_y
 _atom_site_fract_z
 _atom_site_occupancy
  Y  Y0  1  0.500000  0.819431  0.203420  1
  Y  Y1  1  0.500000  0.180569  0.203420  1
  Y  Y2  1  0.000000  0.680569  0.796580  1
  Y  Y3  1  0.000000  0.319431  0.796580  1
  Th  Th4  1  0.000000  0.500000  0.530540  1
  Th  Th5  1  0.500000  0.000000  0.469460  1
  Sc  Sc6  1  0.500000  0.500000  0.152674  1
  Sc  Sc7  1  0.000000  0.000000  0.847326  1
  Co  Co8  1  0.500000  0.500000  0.702726  1
  Co  Co9  1  0.000000  0.000000  0.297274  1
  Co  Co10  1  0.000000  0.500000  0.985832  1
  Co  Co11  1  0.500000  0.000000  0.014168  1
  Co  Co12  1  0.500000  0.332071  0.993749  1
  Co  Co13  1  0.500000  0.667929  0.993749  1
  Co  Co14  1  0.000000  0.167929  0.006251  1
  Co  Co15  1  0.000000  0.832071  0.006251  1
  Co  Co16  1  0.500000  0.296514  0.432544  1
  Co  Co17  1  0.500000  0.703486  0.432544  1
  Co  Co18  1  0.000000  0.203486  0.567456  1
  Co  Co19  1  0.000000  0.796514  0.567456  1
  Co  Co20  1  0.500000  0.878838  0.705862  1
  Co  Co21  1  0.500000  0.121162  0.705862  1
  Co  Co22  1  0.000000  0.621162  0.294138  1
  Co  Co23  1  0.000000  0.378838  0.294138  1
  P  P24  1  0.500000  0.500000  0.883800  1
  P  P25  1  0.000000  0.000000  0.116200  1
  P  P26  1  0.500000  0.500000  0.354045  1
  P  P27  1  0.000000  0.000000  0.645955  1
  P  P28  1  0.500000  0.304646  0.617404  1
  P  P29  1  0.500000  0.695354  0.617404  1
  P  P30  1  0.000000  0.195354  0.382596  1
  P  P31  1  0.000000  0.804646  0.382596  1
  P  P32  1  0.500000  0.839973  0.894971  1
  P  P33  1  0.500000  0.160027  0.894971  1
  P  P34  1  0.000000  0.660027  0.105029  1
  P  P35  1  0.000000  0.339973  0.105029  1
