# generated using pymatgen
data_CrCo6(ReMo2)2
_symmetry_space_group_name_H-M   'P 1'
_cell_length_a   8.97207038
_cell_length_b   8.97207034
_cell_length_c   8.97207180
_cell_angle_alpha   30.48944007
_cell_angle_beta   30.48944362
_cell_angle_gamma   30.48944125
_symmetry_Int_Tables_number   1
_chemical_formula_structural   CrCo6(ReMo2)2
_chemical_formula_sum   'Cr1 Co6 Re2 Mo4'
_cell_volume   164.81183197
_cell_formula_units_Z   1
loop_
 _symmetry_equiv_pos_site_id
 _symmetry_equiv_pos_as_xyz
  1  'x, y, z'
loop_
 _atom_site_type_symbol
 _atom_site_label
 _atom_site_symmetry_multiplicity
 _atom_site_fract_x
 _atom_site_fract_y
 _atom_site_fract_z
 _atom_site_occupancy
  Cr  Cr0  1  0.999662  0.999662  0.999662  1
  Co  Co1  1  0.091044  0.091044  0.589133  1
  Co  Co2  1  0.412716  0.907830  0.907830  1
  Co  Co3  1  0.589133  0.091044  0.091044  1
  Co  Co4  1  0.907830  0.907830  0.412716  1
  Co  Co5  1  0.907830  0.412716  0.907830  1
  Co  Co6  1  0.091044  0.589133  0.091044  1
  Re  Re7  1  0.836899  0.836899  0.836899  1
  Re  Re8  1  0.652223  0.652223  0.652223  1
  Mo  Mo9  1  0.451008  0.451008  0.451008  1
  Mo  Mo10  1  0.549553  0.549553  0.549553  1
  Mo  Mo11  1  0.162977  0.162977  0.162977  1
  Mo  Mo12  1  0.348079  0.348079  0.348079  1
