# generated using pymatgen
data_Dy17Lu3Si15Pt
_symmetry_space_group_name_H-M   'P 1'
_cell_length_a   7.42686120
_cell_length_b   7.67006252
_cell_length_c   14.59603500
_cell_angle_alpha   89.76240679
_cell_angle_beta   89.67267251
_cell_angle_gamma   90.21078173
_symmetry_Int_Tables_number   1
_chemical_formula_structural   Dy17Lu3Si15Pt
_chemical_formula_sum   'Dy17 Lu3 Si15 Pt1'
_cell_volume   831.42926955
_cell_formula_units_Z   1
loop_
 _symmetry_equiv_pos_site_id
 _symmetry_equiv_pos_as_xyz
  1  'x, y, z'
loop_
 _atom_site_type_symbol
 _atom_site_label
 _atom_site_symmetry_multiplicity
 _atom_site_fract_x
 _atom_site_fract_y
 _atom_site_fract_z
 _atom_site_occupancy
  Dy  Dy0  1  0.353836  0.010246  0.751775  1
  Dy  Dy1  1  0.973632  0.816240  0.099025  1
  Dy  Dy2  1  0.471642  0.682778  0.401078  1
  Dy  Dy3  1  0.529662  0.322374  0.900527  1
  Dy  Dy4  1  0.029831  0.184142  0.599158  1
  Dy  Dy5  1  0.028849  0.184301  0.900711  1
  Dy  Dy6  1  0.530041  0.317610  0.598372  1
  Dy  Dy7  1  0.472977  0.682728  0.101316  1
  Dy  Dy8  1  0.968999  0.816862  0.400215  1
  Dy  Dy9  1  0.682629  0.815039  0.880813  1
  Dy  Dy10  1  0.179510  0.681232  0.621707  1
  Dy  Dy11  1  0.817329  0.332519  0.119968  1
  Dy  Dy12  1  0.315026  0.177075  0.375951  1
  Dy  Dy13  1  0.319755  0.178551  0.124095  1
  Dy  Dy14  1  0.818393  0.320625  0.377034  1
  Dy  Dy15  1  0.178207  0.673587  0.877914  1
  Dy  Dy16  1  0.683285  0.820360  0.622534  1
  Lu  Lu17  1  0.647680  0.992521  0.249482  1
  Lu  Lu18  1  0.148659  0.510886  0.248859  1
  Lu  Lu19  1  0.847567  0.487186  0.755007  1
  Si  Si20  1  0.766720  0.631807  0.252338  1
  Si  Si21  1  0.266559  0.870237  0.251043  1
  Si  Si22  1  0.735320  0.125450  0.748801  1
  Si  Si23  1  0.233364  0.373794  0.746202  1
  Si  Si24  1  0.016311  0.104368  0.248890  1
  Si  Si25  1  0.520424  0.397482  0.251733  1
  Si  Si26  1  0.474483  0.605088  0.746518  1
  Si  Si27  1  0.978976  0.896725  0.748387  1
  Si  Si28  1  0.354779  0.972347  0.539808  1
  Si  Si29  1  0.646362  0.026721  0.043378  1
  Si  Si30  1  0.147238  0.470563  0.459691  1
  Si  Si31  1  0.155659  0.473806  0.043308  1
  Si  Si32  1  0.643618  0.028080  0.458568  1
  Si  Si33  1  0.354035  0.968806  0.962237  1
  Si  Si34  1  0.854207  0.528468  0.539843  1
  Pt  Pt35  1  0.854438  0.519400  0.953715  1
