# generated using pymatgen
data_Y3HoGa18(Co2Pd)2
_symmetry_space_group_name_H-M   'P 1'
_cell_length_a   7.47977100
_cell_length_b   7.48005179
_cell_length_c   9.43543800
_cell_angle_alpha   90.00000000
_cell_angle_beta   90.00000000
_cell_angle_gamma   119.54119682
_symmetry_Int_Tables_number   1
_chemical_formula_structural   Y3HoGa18(Co2Pd)2
_chemical_formula_sum   'Y3 Ho1 Ga18 Co4 Pd2'
_cell_volume   459.27724402
_cell_formula_units_Z   1
loop_
 _symmetry_equiv_pos_site_id
 _symmetry_equiv_pos_as_xyz
  1  'x, y, z'
loop_
 _atom_site_type_symbol
 _atom_site_label
 _atom_site_symmetry_multiplicity
 _atom_site_fract_x
 _atom_site_fract_y
 _atom_site_fract_z
 _atom_site_occupancy
  Y  Y0  1  0.322816  0.003260  0.250000  1
  Y  Y1  1  0.996739  0.677245  0.750000  1
  Y  Y2  1  0.003200  0.322758  0.250000  1
  Ho  Ho3  1  0.677176  0.996807  0.750000  1
  Ga  Ga4  1  0.000739  0.654410  0.075124  1
  Ga  Ga5  1  0.654474  0.000821  0.425182  1
  Ga  Ga6  1  0.000739  0.654410  0.424876  1
  Ga  Ga7  1  0.998827  0.345176  0.924656  1
  Ga  Ga8  1  0.654474  0.000821  0.074818  1
  Ga  Ga9  1  0.345992  0.999260  0.924626  1
  Ga  Ga10  1  0.656679  0.656961  0.563201  1
  Ga  Ga11  1  0.343381  0.343353  0.062963  1
  Ga  Ga12  1  0.656679  0.656961  0.936799  1
  Ga  Ga13  1  0.343381  0.343353  0.437037  1
  Ga  Ga14  1  0.142032  0.142316  0.750000  1
  Ga  Ga15  1  0.857600  0.857614  0.250000  1
  Ga  Ga16  1  0.665401  0.442985  0.250000  1
  Ga  Ga17  1  0.334942  0.557393  0.750000  1
  Ga  Ga18  1  0.443031  0.665427  0.250000  1
  Ga  Ga19  1  0.557111  0.334274  0.750000  1
  Ga  Ga20  1  0.345992  0.999260  0.575374  1
  Ga  Ga21  1  0.998827  0.345176  0.575344  1
  Co  Co22  1  0.670736  0.329210  0.999923  1
  Co  Co23  1  0.329317  0.670791  0.500068  1
  Co  Co24  1  0.329317  0.670791  0.999932  1
  Co  Co25  1  0.670736  0.329210  0.500077  1
  Pd  Pd26  1  0.999832  0.999978  0.999860  1
  Pd  Pd27  1  0.999832  0.999978  0.500140  1
