# generated using pymatgen
data_PaMnF7
_symmetry_space_group_name_H-M   'P 1'
_cell_length_a   5.83856500
_cell_length_b   9.30851762
_cell_length_c   12.16803841
_cell_angle_alpha   60.88368139
_cell_angle_beta   90.00000000
_cell_angle_gamma   90.00000000
_symmetry_Int_Tables_number   1
_chemical_formula_structural   PaMnF7
_chemical_formula_sum   'Pa4 Mn4 F28'
_cell_volume   577.74551322
_cell_formula_units_Z   4
loop_
 _symmetry_equiv_pos_site_id
 _symmetry_equiv_pos_as_xyz
  1  'x, y, z'
loop_
 _atom_site_type_symbol
 _atom_site_label
 _atom_site_symmetry_multiplicity
 _atom_site_fract_x
 _atom_site_fract_y
 _atom_site_fract_z
 _atom_site_occupancy
  Pa  Pa0  1  0.250522  0.801913  0.264538  1
  Pa  Pa1  1  0.749478  0.198087  0.735462  1
  Pa  Pa2  1  0.750522  0.198087  0.235462  1
  Pa  Pa3  1  0.249478  0.801913  0.764538  1
  Mn  Mn4  1  0.752629  0.726181  0.038979  1
  Mn  Mn5  1  0.247371  0.273819  0.961021  1
  Mn  Mn6  1  0.252629  0.273819  0.461021  1
  Mn  Mn7  1  0.747371  0.726181  0.538979  1
  F  F8  1  0.970997  0.712075  0.406224  1
  F  F9  1  0.029003  0.287925  0.593776  1
  F  F10  1  0.470997  0.287925  0.093776  1
  F  F11  1  0.529003  0.712075  0.906224  1
  F  F12  1  0.506835  0.742229  0.162618  1
  F  F13  1  0.493165  0.257771  0.837382  1
  F  F14  1  0.006835  0.257771  0.337382  1
  F  F15  1  0.993165  0.742229  0.662618  1
  F  F16  1  0.987740  0.745086  0.167983  1
  F  F17  1  0.012260  0.254914  0.832017  1
  F  F18  1  0.487740  0.254914  0.332017  1
  F  F19  1  0.512260  0.745086  0.667983  1
  F  F20  1  0.772316  0.468279  0.143558  1
  F  F21  1  0.227684  0.531721  0.856442  1
  F  F22  1  0.272316  0.531721  0.356442  1
  F  F23  1  0.727684  0.468279  0.643558  1
  F  F24  1  0.943396  0.264233  0.064622  1
  F  F25  1  0.056604  0.735767  0.935378  1
  F  F26  1  0.443396  0.735767  0.435378  1
  F  F27  1  0.556604  0.264233  0.564622  1
  F  F28  1  0.745341  0.986934  0.428372  1
  F  F29  1  0.254659  0.013066  0.571628  1
  F  F30  1  0.245341  0.013066  0.071628  1
  F  F31  1  0.754659  0.986934  0.928372  1
  F  F32  1  0.590811  0.985294  0.228336  1
  F  F33  1  0.409189  0.014706  0.771664  1
  F  F34  1  0.090811  0.014706  0.271664  1
  F  F35  1  0.909189  0.985294  0.728336  1
