# generated using pymatgen
data_HfTh2MoN6
_symmetry_space_group_name_H-M   'P 1'
_cell_length_a   5.68533748
_cell_length_b   5.80680800
_cell_length_c   8.06942844
_cell_angle_alpha   90.00000000
_cell_angle_beta   90.25054513
_cell_angle_gamma   90.00000000
_symmetry_Int_Tables_number   1
_chemical_formula_structural   HfTh2MoN6
_chemical_formula_sum   'Hf2 Th4 Mo2 N12'
_cell_volume   266.39884551
_cell_formula_units_Z   2
loop_
 _symmetry_equiv_pos_site_id
 _symmetry_equiv_pos_as_xyz
  1  'x, y, z'
loop_
 _atom_site_type_symbol
 _atom_site_label
 _atom_site_symmetry_multiplicity
 _atom_site_fract_x
 _atom_site_fract_y
 _atom_site_fract_z
 _atom_site_occupancy
  Hf  Hf0  1  0.000000  0.500000  0.000000  1
  Hf  Hf1  1  0.500000  0.000000  0.500000  1
  Th  Th2  1  0.506911  0.549750  0.250362  1
  Th  Th3  1  0.993089  0.049750  0.249638  1
  Th  Th4  1  0.493089  0.450250  0.749638  1
  Th  Th5  1  0.006911  0.950250  0.750362  1
  Mo  Mo6  1  0.000000  0.500000  0.500000  1
  Mo  Mo7  1  0.500000  0.000000  0.000000  1
  N  N8  1  0.404413  0.969699  0.242262  1
  N  N9  1  0.095587  0.469699  0.257738  1
  N  N10  1  0.595587  0.030301  0.757738  1
  N  N11  1  0.904413  0.530301  0.742262  1
  N  N12  1  0.793370  0.809498  0.048590  1
  N  N13  1  0.706630  0.309498  0.451410  1
  N  N14  1  0.191132  0.203653  0.551279  1
  N  N15  1  0.308868  0.703653  0.948721  1
  N  N16  1  0.206630  0.190502  0.951410  1
  N  N17  1  0.293370  0.690502  0.548590  1
  N  N18  1  0.808868  0.796347  0.448721  1
  N  N19  1  0.691132  0.296347  0.051279  1
