# generated using pymatgen
data_LiHo8Sc10Si16Hg
_symmetry_space_group_name_H-M   'P 1'
_cell_length_a   6.98501177
_cell_length_b   7.39136159
_cell_length_c   13.98163900
_cell_angle_alpha   90.00000000
_cell_angle_beta   90.00000000
_cell_angle_gamma   89.83465159
_symmetry_Int_Tables_number   1
_chemical_formula_structural   LiHo8Sc10Si16Hg
_chemical_formula_sum   'Li1 Ho8 Sc10 Si16 Hg1'
_cell_volume   721.85150627
_cell_formula_units_Z   1
loop_
 _symmetry_equiv_pos_site_id
 _symmetry_equiv_pos_as_xyz
  1  'x, y, z'
loop_
 _atom_site_type_symbol
 _atom_site_label
 _atom_site_symmetry_multiplicity
 _atom_site_fract_x
 _atom_site_fract_y
 _atom_site_fract_z
 _atom_site_occupancy
  Li  Li0  1  0.840270  0.493405  0.250000  1
  Ho  Ho1  1  0.009079  0.182252  0.098641  1
  Ho  Ho2  1  0.990344  0.817203  0.903074  1
  Ho  Ho3  1  0.486205  0.673540  0.903316  1
  Ho  Ho4  1  0.990344  0.817203  0.596926  1
  Ho  Ho5  1  0.514393  0.326010  0.097383  1
  Ho  Ho6  1  0.009079  0.182252  0.401359  1
  Ho  Ho7  1  0.514393  0.326010  0.402617  1
  Ho  Ho8  1  0.486205  0.673540  0.596684  1
  Sc  Sc9  1  0.341449  0.004255  0.250000  1
  Sc  Sc10  1  0.657452  0.997047  0.750000  1
  Sc  Sc11  1  0.324657  0.182867  0.625532  1
  Sc  Sc12  1  0.673548  0.817889  0.374142  1
  Sc  Sc13  1  0.164642  0.677597  0.372571  1
  Sc  Sc14  1  0.673548  0.817889  0.125858  1
  Sc  Sc15  1  0.838121  0.323136  0.626227  1
  Sc  Sc16  1  0.324657  0.182867  0.874468  1
  Sc  Sc17  1  0.838121  0.323136  0.873773  1
  Sc  Sc18  1  0.164642  0.677597  0.127429  1
  Si  Si19  1  0.026406  0.091235  0.750000  1
  Si  Si20  1  0.969465  0.899898  0.250000  1
  Si  Si21  1  0.464882  0.613711  0.250000  1
  Si  Si22  1  0.543844  0.380139  0.750000  1
  Si  Si23  1  0.292012  0.885374  0.750000  1
  Si  Si24  1  0.711611  0.120283  0.250000  1
  Si  Si25  1  0.219890  0.374184  0.250000  1
  Si  Si26  1  0.770815  0.631980  0.750000  1
  Si  Si27  1  0.163055  0.459350  0.528203  1
  Si  Si28  1  0.839330  0.538578  0.466984  1
  Si  Si29  1  0.342419  0.967492  0.461163  1
  Si  Si30  1  0.839330  0.538578  0.033016  1
  Si  Si31  1  0.656903  0.032612  0.539137  1
  Si  Si32  1  0.163055  0.459350  0.971797  1
  Si  Si33  1  0.656903  0.032612  0.960863  1
  Si  Si34  1  0.342419  0.967492  0.038837  1
  Hg  Hg35  1  0.156510  0.511431  0.750000  1
