# generated using pymatgen
data_Hf2Ta8Si6C
_symmetry_space_group_name_H-M   'P 1'
_cell_length_a   7.61579521
_cell_length_b   7.61401153
_cell_length_c   5.31087017
_cell_angle_alpha   89.87183178
_cell_angle_beta   90.25627708
_cell_angle_gamma   120.00774098
_symmetry_Int_Tables_number   1
_chemical_formula_structural   Hf2Ta8Si6C
_chemical_formula_sum   'Hf2 Ta8 Si6 C1'
_cell_volume   266.67780847
_cell_formula_units_Z   1
loop_
 _symmetry_equiv_pos_site_id
 _symmetry_equiv_pos_as_xyz
  1  'x, y, z'
loop_
 _atom_site_type_symbol
 _atom_site_label
 _atom_site_symmetry_multiplicity
 _atom_site_fract_x
 _atom_site_fract_y
 _atom_site_fract_z
 _atom_site_occupancy
  Hf  Hf0  1  0.000538  0.759463  0.253352  1
  Hf  Hf1  1  0.241075  0.240537  0.253352  1
  Ta  Ta2  1  0.760066  0.000000  0.261779  1
  Ta  Ta3  1  0.998369  0.241527  0.745132  1
  Ta  Ta4  1  0.756842  0.758473  0.745132  1
  Ta  Ta5  1  0.241136  0.000000  0.740598  1
  Ta  Ta6  1  0.332758  0.666255  0.999390  1
  Ta  Ta7  1  0.666504  0.333745  0.999390  1
  Ta  Ta8  1  0.667603  0.333221  0.499046  1
  Ta  Ta9  1  0.334381  0.666779  0.499046  1
  Si  Si10  1  0.998869  0.399750  0.240076  1
  Si  Si11  1  0.599119  0.600250  0.240076  1
  Si  Si12  1  0.406950  0.000000  0.240278  1
  Si  Si13  1  0.000199  0.600186  0.757250  1
  Si  Si14  1  0.400014  0.399814  0.757250  1
  Si  Si15  1  0.599130  0.000000  0.760652  1
  C  C16  1  0.996446  0.000000  0.508199  1
