# generated using pymatgen
data_Dy6TmHf3(Si5Ir2)4
_symmetry_space_group_name_H-M   'P 1'
_cell_length_a   12.55612801
_cell_length_b   12.55612847
_cell_length_c   4.19489300
_cell_angle_alpha   90.00000000
_cell_angle_beta   90.00000000
_cell_angle_gamma   90.06045748
_symmetry_Int_Tables_number   1
_chemical_formula_structural   Dy6TmHf3(Si5Ir2)4
_chemical_formula_sum   'Dy6 Tm1 Hf3 Si20 Ir8'
_cell_volume   661.35117760
_cell_formula_units_Z   1
loop_
 _symmetry_equiv_pos_site_id
 _symmetry_equiv_pos_as_xyz
  1  'x, y, z'
loop_
 _atom_site_type_symbol
 _atom_site_label
 _atom_site_symmetry_multiplicity
 _atom_site_fract_x
 _atom_site_fract_y
 _atom_site_fract_z
 _atom_site_occupancy
  Dy  Dy0  1  0.499820  0.501474  0.000000  1
  Dy  Dy1  1  0.998526  0.000180  0.000000  1
  Dy  Dy2  1  0.884482  0.382237  0.500000  1
  Dy  Dy3  1  0.117763  0.615518  0.500000  1
  Dy  Dy4  1  0.384178  0.115822  0.500000  1
  Dy  Dy5  1  0.611915  0.888085  0.500000  1
  Tm  Tm6  1  0.825081  0.674919  0.500000  1
  Hf  Hf7  1  0.674013  0.174601  0.500000  1
  Hf  Hf8  1  0.325399  0.825987  0.500000  1
  Hf  Hf9  1  0.174502  0.325498  0.500000  1
  Si  Si10  1  0.565861  0.067707  0.000000  1
  Si  Si11  1  0.432293  0.934139  0.000000  1
  Si  Si12  1  0.067282  0.432718  0.000000  1
  Si  Si13  1  0.934209  0.565791  0.000000  1
  Si  Si14  1  0.662636  0.701744  0.000000  1
  Si  Si15  1  0.334872  0.299693  0.000000  1
  Si  Si16  1  0.165943  0.800269  0.000000  1
  Si  Si17  1  0.835014  0.200386  0.000000  1
  Si  Si18  1  0.299614  0.664986  0.000000  1
  Si  Si19  1  0.699731  0.334057  0.000000  1
  Si  Si20  1  0.200307  0.165128  0.000000  1
  Si  Si21  1  0.798256  0.837364  0.000000  1
  Si  Si22  1  0.657272  0.498872  0.500000  1
  Si  Si23  1  0.343318  0.490292  0.500000  1
  Si  Si24  1  0.156483  0.991783  0.500000  1
  Si  Si25  1  0.840574  0.004860  0.500000  1
  Si  Si26  1  0.495140  0.659426  0.500000  1
  Si  Si27  1  0.508217  0.343517  0.500000  1
  Si  Si28  1  0.009708  0.156682  0.500000  1
  Si  Si29  1  0.001128  0.842728  0.500000  1
  Ir  Ir30  1  0.744743  0.519876  0.000000  1
  Ir  Ir31  1  0.254092  0.478099  0.000000  1
  Ir  Ir32  1  0.245650  0.979242  0.000000  1
  Ir  Ir33  1  0.752804  0.023610  0.000000  1
  Ir  Ir34  1  0.476390  0.747196  0.000000  1
  Ir  Ir35  1  0.520758  0.254350  0.000000  1
  Ir  Ir36  1  0.021901  0.245908  0.000000  1
  Ir  Ir37  1  0.980124  0.755257  0.000000  1
