# generated using pymatgen
data_Mn4MoRu
_symmetry_space_group_name_H-M   'P 1'
_cell_length_a   4.67920800
_cell_length_b   4.67920800
_cell_length_c   7.67560900
_cell_angle_alpha   90.00000000
_cell_angle_beta   90.00000000
_cell_angle_gamma   119.99999999
_symmetry_Int_Tables_number   1
_chemical_formula_structural   Mn4MoRu
_chemical_formula_sum   'Mn8 Mo2 Ru2'
_cell_volume   145.54194588
_cell_formula_units_Z   2
loop_
 _symmetry_equiv_pos_site_id
 _symmetry_equiv_pos_as_xyz
  1  'x, y, z'
loop_
 _atom_site_type_symbol
 _atom_site_label
 _atom_site_symmetry_multiplicity
 _atom_site_fract_x
 _atom_site_fract_y
 _atom_site_fract_z
 _atom_site_occupancy
  Mn  Mn0  1  0.000000  0.000000  0.001574  1
  Mn  Mn1  1  0.347438  0.173719  0.250000  1
  Mn  Mn2  1  0.826280  0.173719  0.250000  1
  Mn  Mn3  1  0.826282  0.652561  0.250000  1
  Mn  Mn4  1  0.000000  0.000000  0.498426  1
  Mn  Mn5  1  0.173732  0.347464  0.749999  1
  Mn  Mn6  1  0.173732  0.826268  0.749999  1
  Mn  Mn7  1  0.652536  0.826268  0.749999  1
  Mo  Mo8  1  0.333333  0.666666  0.063141  1
  Mo  Mo9  1  0.333333  0.666666  0.436858  1
  Ru  Ru10  1  0.666667  0.333333  0.572630  1
  Ru  Ru11  1  0.666667  0.333333  0.927370  1
