# generated using pymatgen
data_Lu3Al3GaGeIr
_symmetry_space_group_name_H-M   'P 1'
_cell_length_a   6.85183700
_cell_length_b   6.85183683
_cell_length_c   4.21954500
_cell_angle_alpha   90.00000000
_cell_angle_beta   90.00000000
_cell_angle_gamma   119.99999598
_symmetry_Int_Tables_number   1
_chemical_formula_structural   Lu3Al3GaGeIr
_chemical_formula_sum   'Lu3 Al3 Ga1 Ge1 Ir1'
_cell_volume   171.55773637
_cell_formula_units_Z   1
loop_
 _symmetry_equiv_pos_site_id
 _symmetry_equiv_pos_as_xyz
  1  'x, y, z'
loop_
 _atom_site_type_symbol
 _atom_site_label
 _atom_site_symmetry_multiplicity
 _atom_site_fract_x
 _atom_site_fract_y
 _atom_site_fract_z
 _atom_site_occupancy
  Lu  Lu0  1  0.416544  0.001725  0.000000  1
  Lu  Lu1  1  0.998275  0.414819  0.000000  1
  Lu  Lu2  1  0.585180  0.583455  0.000000  1
  Al  Al3  1  0.768704  0.003450  0.500001  1
  Al  Al4  1  0.234744  0.231295  0.500001  1
  Al  Al5  1  0.996550  0.765255  0.500001  1
  Ga  Ga6  1  0.666667  0.333334  0.500001  1
  Ge  Ge7  1  0.333333  0.666667  0.500001  1
  Ir  Ir8  1  0.000000  0.000000  0.000000  1
