# generated using pymatgen
data_Er2Lu2Ga3Co4Si
_symmetry_space_group_name_H-M   'P 1'
_cell_length_a   4.29237700
_cell_length_b   6.87743855
_cell_length_c   6.90419303
_cell_angle_alpha   89.82901082
_cell_angle_beta   90.00000000
_cell_angle_gamma   90.00000000
_symmetry_Int_Tables_number   1
_chemical_formula_structural   Er2Lu2Ga3Co4Si
_chemical_formula_sum   'Er2 Lu2 Ga3 Co4 Si1'
_cell_volume   203.81473047
_cell_formula_units_Z   1
loop_
 _symmetry_equiv_pos_site_id
 _symmetry_equiv_pos_as_xyz
  1  'x, y, z'
loop_
 _atom_site_type_symbol
 _atom_site_label
 _atom_site_symmetry_multiplicity
 _atom_site_fract_x
 _atom_site_fract_y
 _atom_site_fract_z
 _atom_site_occupancy
  Er  Er0  1  0.250000  0.483176  0.195421  1
  Er  Er1  1  0.250000  0.986356  0.305465  1
  Lu  Lu2  1  0.750000  0.515323  0.804580  1
  Lu  Lu3  1  0.750000  0.022117  0.696468  1
  Ga  Ga4  1  0.750000  0.199698  0.103596  1
  Ga  Ga5  1  0.750000  0.698791  0.397442  1
  Ga  Ga6  1  0.250000  0.804004  0.892211  1
  Co  Co7  1  0.750000  0.340526  0.447710  1
  Co  Co8  1  0.750000  0.842989  0.062689  1
  Co  Co9  1  0.250000  0.639537  0.565191  1
  Co  Co10  1  0.250000  0.164585  0.922829  1
  Si  Si11  1  0.250000  0.302900  0.606398  1
