# generated using pymatgen
data_CaDy5TmSn23Ir6
_symmetry_space_group_name_H-M   'P 1'
_cell_length_a   9.88588708
_cell_length_b   9.88588777
_cell_length_c   10.09477526
_cell_angle_alpha   90.01584706
_cell_angle_beta   89.98415348
_cell_angle_gamma   120.01589529
_symmetry_Int_Tables_number   1
_chemical_formula_structural   CaDy5TmSn23Ir6
_chemical_formula_sum   'Ca1 Dy5 Tm1 Sn23 Ir6'
_cell_volume   854.25789531
_cell_formula_units_Z   1
loop_
 _symmetry_equiv_pos_site_id
 _symmetry_equiv_pos_as_xyz
  1  'x, y, z'
loop_
 _atom_site_type_symbol
 _atom_site_label
 _atom_site_symmetry_multiplicity
 _atom_site_fract_x
 _atom_site_fract_y
 _atom_site_fract_z
 _atom_site_occupancy
  Ca  Ca0  1  0.999837  0.000163  0.000282  1
  Dy  Dy1  1  0.518786  0.481214  0.693061  1
  Dy  Dy2  1  0.481141  0.962560  0.306661  1
  Dy  Dy3  1  0.518680  0.037459  0.693205  1
  Dy  Dy4  1  0.037440  0.518859  0.306661  1
  Dy  Dy5  1  0.962541  0.481320  0.693205  1
  Tm  Tm6  1  0.482482  0.517518  0.306014  1
  Sn  Sn7  1  0.352101  0.000503  0.000160  1
  Sn  Sn8  1  0.647853  0.999744  0.000102  1
  Sn  Sn9  1  0.000256  0.352147  0.000102  1
  Sn  Sn10  1  0.999497  0.647899  0.000160  1
  Sn  Sn11  1  0.647855  0.648133  0.999879  1
  Sn  Sn12  1  0.351867  0.352145  0.999879  1
  Sn  Sn13  1  0.333259  0.666741  0.824360  1
  Sn  Sn14  1  0.666793  0.333207  0.175727  1
  Sn  Sn15  1  0.999901  0.000099  0.499920  1
  Sn  Sn16  1  0.777923  0.222077  0.458397  1
  Sn  Sn17  1  0.221950  0.778050  0.541609  1
  Sn  Sn18  1  0.777450  0.556012  0.458313  1
  Sn  Sn19  1  0.222603  0.444115  0.541010  1
  Sn  Sn20  1  0.443988  0.222550  0.458313  1
  Sn  Sn21  1  0.555885  0.777397  0.541010  1
  Sn  Sn22  1  0.334460  0.665540  0.122790  1
  Sn  Sn23  1  0.666679  0.333321  0.878469  1
  Sn  Sn24  1  0.117473  0.882527  0.282379  1
  Sn  Sn25  1  0.882353  0.117647  0.717414  1
  Sn  Sn26  1  0.118727  0.236947  0.282800  1
  Sn  Sn27  1  0.882034  0.764145  0.717440  1
  Sn  Sn28  1  0.763053  0.881273  0.282800  1
  Sn  Sn29  1  0.235855  0.117966  0.717440  1
  Ir  Ir30  1  0.829802  0.170198  0.200690  1
  Ir  Ir31  1  0.170357  0.829643  0.799651  1
  Ir  Ir32  1  0.828359  0.658681  0.200932  1
  Ir  Ir33  1  0.170399  0.340961  0.799117  1
  Ir  Ir34  1  0.341319  0.171641  0.200932  1
  Ir  Ir35  1  0.659039  0.829601  0.799117  1
