# generated using pymatgen
data_Nd3In3Ga2Ag
_symmetry_space_group_name_H-M   'P 1'
_cell_length_a   7.52642300
_cell_length_b   7.52642367
_cell_length_c   4.57236800
_cell_angle_alpha   90.00000000
_cell_angle_beta   90.00000000
_cell_angle_gamma   120.00000146
_symmetry_Int_Tables_number   1
_chemical_formula_structural   Nd3In3Ga2Ag
_chemical_formula_sum   'Nd3 In3 Ga2 Ag1'
_cell_volume   224.31023288
_cell_formula_units_Z   1
loop_
 _symmetry_equiv_pos_site_id
 _symmetry_equiv_pos_as_xyz
  1  'x, y, z'
loop_
 _atom_site_type_symbol
 _atom_site_label
 _atom_site_symmetry_multiplicity
 _atom_site_fract_x
 _atom_site_fract_y
 _atom_site_fract_z
 _atom_site_occupancy
  Nd  Nd0  1  0.417520  0.417520  0.500000  1
  Nd  Nd1  1  0.582480  0.000000  0.500000  1
  Nd  Nd2  1  0.000000  0.582480  0.500000  1
  In  In3  1  0.750641  0.750641  0.000000  1
  In  In4  1  0.249359  0.000000  0.000000  1
  In  In5  1  0.000000  0.249359  0.000000  1
  Ga  Ga6  1  0.666667  0.333333  0.000000  1
  Ga  Ga7  1  0.333333  0.666667  0.000000  1
  Ag  Ag8  1  0.000000  0.000000  0.500000  1
