# generated using pymatgen
data_Tb5TmU4O20
_symmetry_space_group_name_H-M   'P 1'
_cell_length_a   6.65673085
_cell_length_b   7.50759279
_cell_length_c   8.41210512
_cell_angle_alpha   100.91758103
_cell_angle_beta   97.62873541
_cell_angle_gamma   107.23756633
_symmetry_Int_Tables_number   1
_chemical_formula_structural   Tb5TmU4O20
_chemical_formula_sum   'Tb5 Tm1 U4 O20'
_cell_volume   386.17445523
_cell_formula_units_Z   1
loop_
 _symmetry_equiv_pos_site_id
 _symmetry_equiv_pos_as_xyz
  1  'x, y, z'
loop_
 _atom_site_type_symbol
 _atom_site_label
 _atom_site_symmetry_multiplicity
 _atom_site_fract_x
 _atom_site_fract_y
 _atom_site_fract_z
 _atom_site_occupancy
  Tb  Tb0  1  0.614696  0.702749  0.699188  1
  Tb  Tb1  1  0.385304  0.297251  0.300812  1
  Tb  Tb2  1  0.197362  0.895725  0.890925  1
  Tb  Tb3  1  0.802638  0.104275  0.109075  1
  Tb  Tb4  1  0.000000  0.000000  0.500000  1
  Tm  Tm5  1  0.000000  0.500000  0.500000  1
  U  U6  1  0.400803  0.803946  0.302342  1
  U  U7  1  0.198864  0.399728  0.898392  1
  U  U8  1  0.801136  0.600272  0.101608  1
  U  U9  1  0.599197  0.196054  0.697658  1
  O  O10  1  0.440112  0.532426  0.137607  1
  O  O11  1  0.555779  0.988133  0.840935  1
  O  O12  1  0.267810  0.144411  0.744618  1
  O  O13  1  0.357792  0.594804  0.443337  1
  O  O14  1  0.053683  0.726890  0.334162  1
  O  O15  1  0.444221  0.011867  0.159065  1
  O  O16  1  0.150120  0.184153  0.031974  1
  O  O17  1  0.559888  0.467574  0.862393  1
  O  O18  1  0.854329  0.336758  0.949917  1
  O  O19  1  0.255672  0.605025  0.757168  1
  O  O20  1  0.953822  0.767879  0.649947  1
  O  O21  1  0.353334  0.062185  0.453011  1
  O  O22  1  0.646666  0.937815  0.546989  1
  O  O23  1  0.046178  0.232121  0.350053  1
  O  O24  1  0.744328  0.394975  0.242832  1
  O  O25  1  0.145671  0.663242  0.050083  1
  O  O26  1  0.849880  0.815847  0.968026  1
  O  O27  1  0.946317  0.273110  0.665838  1
  O  O28  1  0.642208  0.405196  0.556663  1
  O  O29  1  0.732190  0.855589  0.255382  1
