# generated using pymatgen
data_Ho3Lu5Sc12Si15Bi
_symmetry_space_group_name_H-M   'P 1'
_cell_length_a   7.12446699
_cell_length_b   7.35776858
_cell_length_c   13.97546827
_cell_angle_alpha   90.05285312
_cell_angle_beta   88.50860839
_cell_angle_gamma   90.08988073
_symmetry_Int_Tables_number   1
_chemical_formula_structural   Ho3Lu5Sc12Si15Bi
_chemical_formula_sum   'Ho3 Lu5 Sc12 Si15 Bi1'
_cell_volume   732.34719737
_cell_formula_units_Z   1
loop_
 _symmetry_equiv_pos_site_id
 _symmetry_equiv_pos_as_xyz
  1  'x, y, z'
loop_
 _atom_site_type_symbol
 _atom_site_label
 _atom_site_symmetry_multiplicity
 _atom_site_fract_x
 _atom_site_fract_y
 _atom_site_fract_z
 _atom_site_occupancy
  Ho  Ho0  1  0.996271  0.170518  0.399291  1
  Ho  Ho1  1  0.509695  0.315521  0.397541  1
  Ho  Ho2  1  0.514230  0.687859  0.601588  1
  Lu  Lu3  1  0.010957  0.177652  0.095736  1
  Lu  Lu4  1  0.989232  0.823601  0.905344  1
  Lu  Lu5  1  0.490240  0.677088  0.904271  1
  Lu  Lu6  1  0.996674  0.832505  0.599229  1
  Lu  Lu7  1  0.510035  0.323072  0.096558  1
  Sc  Sc8  1  0.168140  0.502153  0.756722  1
  Sc  Sc9  1  0.830944  0.497872  0.250427  1
  Sc  Sc10  1  0.330494  0.002173  0.249566  1
  Sc  Sc11  1  0.671437  0.997812  0.751935  1
  Sc  Sc12  1  0.353499  0.154763  0.631404  1
  Sc  Sc13  1  0.653526  0.828589  0.372748  1
  Sc  Sc14  1  0.149688  0.682473  0.368229  1
  Sc  Sc15  1  0.664690  0.821619  0.122525  1
  Sc  Sc16  1  0.830819  0.326944  0.626886  1
  Sc  Sc17  1  0.333336  0.176463  0.876406  1
  Sc  Sc18  1  0.834191  0.322942  0.876147  1
  Sc  Sc19  1  0.166092  0.677011  0.123848  1
  Si  Si20  1  0.041160  0.116136  0.752044  1
  Si  Si21  1  0.956563  0.886697  0.244900  1
  Si  Si22  1  0.457650  0.614481  0.246820  1
  Si  Si23  1  0.539054  0.386836  0.753562  1
  Si  Si24  1  0.291277  0.866265  0.754632  1
  Si  Si25  1  0.708039  0.127870  0.244385  1
  Si  Si26  1  0.207046  0.371158  0.246910  1
  Si  Si27  1  0.797277  0.631592  0.753269  1
  Si  Si28  1  0.810076  0.542192  0.457020  1
  Si  Si29  1  0.321528  0.961198  0.460075  1
  Si  Si30  1  0.840480  0.532906  0.039444  1
  Si  Si31  1  0.680557  0.038971  0.539452  1
  Si  Si32  1  0.158612  0.466169  0.961564  1
  Si  Si33  1  0.658370  0.033913  0.960400  1
  Si  Si34  1  0.339856  0.966645  0.039727  1
  Bi  Bi35  1  0.188264  0.458336  0.539394  1
