# generated using pymatgen
data_Dy13Tm3(InIr)4
_symmetry_space_group_name_H-M   'P 1'
_cell_length_a   9.65160883
_cell_length_b   9.65030493
_cell_length_c   9.64022776
_cell_angle_alpha   60.11167404
_cell_angle_beta   59.98084584
_cell_angle_gamma   60.03849809
_symmetry_Int_Tables_number   1
_chemical_formula_structural   Dy13Tm3(InIr)4
_chemical_formula_sum   'Dy13 Tm3 In4 Ir4'
_cell_volume   635.53811619
_cell_formula_units_Z   1
loop_
 _symmetry_equiv_pos_site_id
 _symmetry_equiv_pos_as_xyz
  1  'x, y, z'
loop_
 _atom_site_type_symbol
 _atom_site_label
 _atom_site_symmetry_multiplicity
 _atom_site_fract_x
 _atom_site_fract_y
 _atom_site_fract_z
 _atom_site_occupancy
  Dy  Dy0  1  0.309558  0.690635  0.311147  1
  Dy  Dy1  1  0.940125  0.559456  0.559144  1
  Dy  Dy2  1  0.310195  0.311991  0.689854  1
  Dy  Dy3  1  0.097525  0.098658  0.098393  1
  Dy  Dy4  1  0.558655  0.558763  0.940177  1
  Dy  Dy5  1  0.099348  0.100478  0.702212  1
  Dy  Dy6  1  0.690162  0.310857  0.689333  1
  Dy  Dy7  1  0.691056  0.689987  0.309842  1
  Dy  Dy8  1  0.690374  0.311333  0.310884  1
  Dy  Dy9  1  0.307915  0.691422  0.691610  1
  Dy  Dy10  1  0.559541  0.939521  0.559116  1
  Dy  Dy11  1  0.703330  0.099566  0.099412  1
  Dy  Dy12  1  0.559931  0.939308  0.939665  1
  Tm  Tm13  1  0.099093  0.703520  0.099922  1
  Tm  Tm14  1  0.940831  0.939402  0.559110  1
  Tm  Tm15  1  0.941457  0.558568  0.940342  1
  In  In16  1  0.332938  0.334053  0.333000  1
  In  In17  1  0.001206  0.333079  0.332398  1
  In  In18  1  0.332737  0.001394  0.332432  1
  In  In19  1  0.332474  0.333078  0.001448  1
  Ir  Ir20  1  0.893919  0.887778  0.890722  1
  Ir  Ir21  1  0.891993  0.890296  0.326239  1
  Ir  Ir22  1  0.324813  0.889330  0.891762  1
  Ir  Ir23  1  0.890823  0.327527  0.891834  1
