# generated using pymatgen
data_Sr(LaB8)3
_symmetry_space_group_name_H-M   'P 1'
_cell_length_a   4.16435200
_cell_length_b   5.89440300
_cell_length_c   11.76916900
_cell_angle_alpha   90.00000000
_cell_angle_beta   90.00000000
_cell_angle_gamma   90.00000000
_symmetry_Int_Tables_number   1
_chemical_formula_structural   Sr(LaB8)3
_chemical_formula_sum   'Sr1 La3 B24'
_cell_volume   288.89036418
_cell_formula_units_Z   1
loop_
 _symmetry_equiv_pos_site_id
 _symmetry_equiv_pos_as_xyz
  1  'x, y, z'
loop_
 _atom_site_type_symbol
 _atom_site_label
 _atom_site_symmetry_multiplicity
 _atom_site_fract_x
 _atom_site_fract_y
 _atom_site_fract_z
 _atom_site_occupancy
  Sr  Sr0  1  0.000000  0.000000  0.000000  1
  La  La1  1  0.000000  0.500000  0.253118  1
  La  La2  1  0.000000  0.000000  0.500000  1
  La  La3  1  0.000000  0.500000  0.746882  1
  B  B4  1  0.199362  0.500000  0.500000  1
  B  B5  1  0.200497  0.000000  0.749372  1
  B  B6  1  0.201063  0.500000  0.000000  1
  B  B7  1  0.200497  0.000000  0.250628  1
  B  B8  1  0.500000  0.649765  0.575127  1
  B  B9  1  0.500000  0.149930  0.824251  1
  B  B10  1  0.500000  0.648948  0.075097  1
  B  B11  1  0.500000  0.150197  0.325270  1
  B  B12  1  0.500000  0.350235  0.575127  1
  B  B13  1  0.500000  0.850070  0.824251  1
  B  B14  1  0.500000  0.351052  0.075097  1
  B  B15  1  0.500000  0.849803  0.325270  1
  B  B16  1  0.500000  0.350235  0.424873  1
  B  B17  1  0.500000  0.849803  0.674730  1
  B  B18  1  0.500000  0.351052  0.924903  1
  B  B19  1  0.500000  0.850070  0.175749  1
  B  B20  1  0.500000  0.649765  0.424873  1
  B  B21  1  0.500000  0.150197  0.674730  1
  B  B22  1  0.500000  0.648948  0.924903  1
  B  B23  1  0.500000  0.149930  0.175749  1
  B  B24  1  0.800638  0.500000  0.500000  1
  B  B25  1  0.799503  0.000000  0.749372  1
  B  B26  1  0.798937  0.500000  0.000000  1
  B  B27  1  0.799503  0.000000  0.250628  1
