# generated using pymatgen
data_TbDy6Tm13Pt16
_symmetry_space_group_name_H-M   'P 1'
_cell_length_a   7.39870659
_cell_length_b   7.50141192
_cell_length_c   14.69930409
_cell_angle_alpha   90.01101787
_cell_angle_beta   90.05036927
_cell_angle_gamma   89.96081221
_symmetry_Int_Tables_number   1
_chemical_formula_structural   TbDy6Tm13Pt16
_chemical_formula_sum   'Tb1 Dy6 Tm13 Pt16'
_cell_volume   815.82181954
_cell_formula_units_Z   1
loop_
 _symmetry_equiv_pos_site_id
 _symmetry_equiv_pos_as_xyz
  1  'x, y, z'
loop_
 _atom_site_type_symbol
 _atom_site_label
 _atom_site_symmetry_multiplicity
 _atom_site_fract_x
 _atom_site_fract_y
 _atom_site_fract_z
 _atom_site_occupancy
  Tb  Tb0  1  0.978403  0.826839  0.595946  1
  Dy  Dy1  1  0.979809  0.826884  0.903568  1
  Dy  Dy2  1  0.520394  0.326723  0.095814  1
  Dy  Dy3  1  0.021713  0.172808  0.403703  1
  Dy  Dy4  1  0.520630  0.328896  0.404580  1
  Dy  Dy5  1  0.020388  0.172817  0.095894  1
  Dy  Dy6  1  0.479640  0.673010  0.904022  1
  Tm  Tm7  1  0.635472  0.169357  0.621177  1
  Tm  Tm8  1  0.136510  0.330520  0.878351  1
  Tm  Tm9  1  0.363704  0.830589  0.121387  1
  Tm  Tm10  1  0.864169  0.668811  0.378828  1
  Tm  Tm11  1  0.365632  0.829902  0.379366  1
  Tm  Tm12  1  0.864013  0.669682  0.121052  1
  Tm  Tm13  1  0.636204  0.169480  0.878313  1
  Tm  Tm14  1  0.136465  0.331014  0.620723  1
  Tm  Tm15  1  0.478194  0.673012  0.597050  1
  Tm  Tm16  1  0.798100  0.510017  0.749451  1
  Tm  Tm17  1  0.298096  0.989649  0.749613  1
  Tm  Tm18  1  0.201816  0.489575  0.250091  1
  Tm  Tm19  1  0.701842  0.010524  0.250204  1
  Pt  Pt20  1  0.696467  0.973269  0.457113  1
  Pt  Pt21  1  0.195347  0.527350  0.042400  1
  Pt  Pt22  1  0.305067  0.027240  0.957229  1
  Pt  Pt23  1  0.800289  0.474946  0.543498  1
  Pt  Pt24  1  0.305534  0.024092  0.544003  1
  Pt  Pt25  1  0.805087  0.472411  0.957093  1
  Pt  Pt26  1  0.695069  0.972407  0.042328  1
  Pt  Pt27  1  0.196100  0.529427  0.458802  1
  Pt  Pt28  1  0.430912  0.380814  0.749365  1
  Pt  Pt29  1  0.930114  0.119778  0.749716  1
  Pt  Pt30  1  0.569536  0.620012  0.250070  1
  Pt  Pt31  1  0.069671  0.879395  0.250344  1
  Pt  Pt32  1  0.659214  0.858726  0.748909  1
  Pt  Pt33  1  0.161389  0.640084  0.749367  1
  Pt  Pt34  1  0.339355  0.140300  0.250494  1
  Pt  Pt35  1  0.839656  0.359640  0.250137  1
