# generated using pymatgen
data_La3PrPt4F28
_symmetry_space_group_name_H-M   'P 1'
_cell_length_a   5.73677702
_cell_length_b   9.28867006
_cell_length_c   12.44317515
_cell_angle_alpha   61.93082177
_cell_angle_beta   89.99692760
_cell_angle_gamma   89.99076772
_symmetry_Int_Tables_number   1
_chemical_formula_structural   La3PrPt4F28
_chemical_formula_sum   'La3 Pr1 Pt4 F28'
_cell_volume   585.07080490
_cell_formula_units_Z   1
loop_
 _symmetry_equiv_pos_site_id
 _symmetry_equiv_pos_as_xyz
  1  'x, y, z'
loop_
 _atom_site_type_symbol
 _atom_site_label
 _atom_site_symmetry_multiplicity
 _atom_site_fract_x
 _atom_site_fract_y
 _atom_site_fract_z
 _atom_site_occupancy
  La  La0  1  0.760459  0.810084  0.764423  1
  La  La1  1  0.260340  0.189683  0.735482  1
  La  La2  1  0.239463  0.188512  0.235628  1
  Pr  Pr3  1  0.739427  0.810093  0.264309  1
  Pt  Pt4  1  0.756725  0.272449  0.957817  1
  Pt  Pt5  1  0.256727  0.726733  0.541391  1
  Pt  Pt6  1  0.242878  0.726718  0.043995  1
  Pt  Pt7  1  0.743173  0.274893  0.456623  1
  F  F8  1  0.429913  0.707388  0.918780  1
  F  F9  1  0.928655  0.293362  0.582623  1
  F  F10  1  0.571636  0.292527  0.083126  1
  F  F11  1  0.068226  0.707977  0.416141  1
  F  F12  1  0.451965  0.282324  0.538073  1
  F  F13  1  0.953141  0.718386  0.961961  1
  F  F14  1  0.547650  0.718944  0.459282  1
  F  F15  1  0.048253  0.281223  0.038305  1
  F  F16  1  0.765382  0.512167  0.862166  1
  F  F17  1  0.265860  0.487101  0.636551  1
  F  F18  1  0.234075  0.486965  0.138767  1
  F  F19  1  0.734280  0.514986  0.361493  1
  F  F20  1  0.757118  0.032333  0.049819  1
  F  F21  1  0.256993  0.966479  0.451610  1
  F  F22  1  0.242753  0.966429  0.952431  1
  F  F23  1  0.742961  0.035143  0.547751  1
  F  F24  1  0.971287  0.727947  0.628533  1
  F  F25  1  0.469654  0.270911  0.871813  1
  F  F26  1  0.029913  0.272720  0.370733  1
  F  F27  1  0.528870  0.728795  0.131023  1
  F  F28  1  0.058212  0.742404  0.171783  1
  F  F29  1  0.561142  0.259366  0.328241  1
  F  F30  1  0.938549  0.257153  0.829199  1
  F  F31  1  0.440483  0.741185  0.669794  1
  F  F32  1  0.407542  0.965977  0.231503  1
  F  F33  1  0.906219  0.031497  0.268708  1
  F  F34  1  0.595029  0.033046  0.768793  1
  F  F35  1  0.095045  0.966100  0.731327  1
