# generated using pymatgen
data_ErMg2P6BrN12
_symmetry_space_group_name_H-M   'P 1'
_cell_length_a   7.36798699
_cell_length_b   7.35290078
_cell_length_c   7.36798713
_cell_angle_alpha   109.62267315
_cell_angle_beta   109.65089181
_cell_angle_gamma   109.62264092
_symmetry_Int_Tables_number   1
_chemical_formula_structural   ErMg2P6BrN12
_chemical_formula_sum   'Er1 Mg2 P6 Br1 N12'
_cell_volume   305.43651499
_cell_formula_units_Z   1
loop_
 _symmetry_equiv_pos_site_id
 _symmetry_equiv_pos_as_xyz
  1  'x, y, z'
loop_
 _atom_site_type_symbol
 _atom_site_label
 _atom_site_symmetry_multiplicity
 _atom_site_fract_x
 _atom_site_fract_y
 _atom_site_fract_z
 _atom_site_occupancy
  Er  Er0  1  0.021295  0.365376  0.021295  1
  Mg  Mg1  1  0.004249  0.002540  0.385109  1
  Mg  Mg2  1  0.385109  0.002540  0.004249  1
  P  P3  1  0.501322  0.258630  0.748843  1
  P  P4  1  0.250137  0.752354  0.498598  1
  P  P5  1  0.740559  0.502701  0.258026  1
  P  P6  1  0.748843  0.258630  0.501322  1
  P  P7  1  0.498598  0.752354  0.250137  1
  P  P8  1  0.258026  0.502701  0.740559  1
  Br  Br9  1  0.006781  0.972743  0.006781  1
  N  N10  1  0.382670  0.675084  0.382670  1
  N  N11  1  0.701834  0.424495  0.425084  1
  N  N12  1  0.425084  0.424495  0.701834  1
  N  N13  1  0.722774  0.288763  0.722774  1
  N  N14  1  0.990849  0.577860  0.288927  1
  N  N15  1  0.288927  0.577860  0.990849  1
  N  N16  1  0.285682  0.002641  0.567763  1
  N  N17  1  0.999342  0.282674  0.570769  1
  N  N18  1  0.717842  0.725121  0.291545  1
  N  N19  1  0.567763  0.002641  0.285682  1
  N  N20  1  0.291545  0.725121  0.717842  1
  N  N21  1  0.570769  0.282674  0.999342  1
