# generated using pymatgen
data_Nd3Co7(P3Rh)2
_symmetry_space_group_name_H-M   'P 1'
_cell_length_a   3.80662300
_cell_length_b   10.77876500
_cell_length_c   12.58156800
_cell_angle_alpha   90.00000000
_cell_angle_beta   90.00000000
_cell_angle_gamma   90.00000000
_symmetry_Int_Tables_number   1
_chemical_formula_structural   Nd3Co7(P3Rh)2
_chemical_formula_sum   'Nd6 Co14 P12 Rh4'
_cell_volume   516.23047622
_cell_formula_units_Z   2
loop_
 _symmetry_equiv_pos_site_id
 _symmetry_equiv_pos_as_xyz
  1  'x, y, z'
loop_
 _atom_site_type_symbol
 _atom_site_label
 _atom_site_symmetry_multiplicity
 _atom_site_fract_x
 _atom_site_fract_y
 _atom_site_fract_z
 _atom_site_occupancy
  Nd  Nd0  1  0.000000  0.500000  0.520275  1
  Nd  Nd1  1  0.500000  0.000000  0.479725  1
  Nd  Nd2  1  0.500000  0.814336  0.206221  1
  Nd  Nd3  1  0.500000  0.185664  0.206221  1
  Nd  Nd4  1  0.000000  0.685664  0.793779  1
  Nd  Nd5  1  0.000000  0.314336  0.793779  1
  Co  Co6  1  0.000000  0.500000  0.989341  1
  Co  Co7  1  0.500000  0.000000  0.010659  1
  Co  Co8  1  0.500000  0.332362  0.994821  1
  Co  Co9  1  0.500000  0.667638  0.994821  1
  Co  Co10  1  0.000000  0.167638  0.005179  1
  Co  Co11  1  0.000000  0.832362  0.005179  1
  Co  Co12  1  0.500000  0.300394  0.428832  1
  Co  Co13  1  0.500000  0.699606  0.428832  1
  Co  Co14  1  0.000000  0.199606  0.571168  1
  Co  Co15  1  0.000000  0.800394  0.571168  1
  Co  Co16  1  0.500000  0.882928  0.711424  1
  Co  Co17  1  0.500000  0.117072  0.711424  1
  Co  Co18  1  0.000000  0.617072  0.288576  1
  Co  Co19  1  0.000000  0.382928  0.288576  1
  P  P20  1  0.500000  0.500000  0.893499  1
  P  P21  1  0.000000  0.000000  0.106501  1
  P  P22  1  0.500000  0.500000  0.345241  1
  P  P23  1  0.000000  0.000000  0.654759  1
  P  P24  1  0.500000  0.297925  0.611391  1
  P  P25  1  0.500000  0.702075  0.611391  1
  P  P26  1  0.000000  0.202075  0.388609  1
  P  P27  1  0.000000  0.797925  0.388609  1
  P  P28  1  0.500000  0.845746  0.897413  1
  P  P29  1  0.500000  0.154254  0.897413  1
  P  P30  1  0.000000  0.654254  0.102587  1
  P  P31  1  0.000000  0.345746  0.102587  1
  Rh  Rh32  1  0.500000  0.500000  0.158343  1
  Rh  Rh33  1  0.000000  0.000000  0.841657  1
  Rh  Rh34  1  0.500000  0.500000  0.704687  1
  Rh  Rh35  1  0.000000  0.000000  0.295313  1
