# generated using pymatgen
data_Y5Ho11(In3Os)2
_symmetry_space_group_name_H-M   'P 1'
_cell_length_a   10.35216432
_cell_length_b   10.35216474
_cell_length_c   7.10346894
_cell_angle_alpha   89.94855103
_cell_angle_beta   90.05145116
_cell_angle_gamma   119.94336654
_symmetry_Int_Tables_number   1
_chemical_formula_structural   Y5Ho11(In3Os)2
_chemical_formula_sum   'Y5 Ho11 In6 Os2'
_cell_volume   659.64575901
_cell_formula_units_Z   1
loop_
 _symmetry_equiv_pos_site_id
 _symmetry_equiv_pos_as_xyz
  1  'x, y, z'
loop_
 _atom_site_type_symbol
 _atom_site_label
 _atom_site_symmetry_multiplicity
 _atom_site_fract_x
 _atom_site_fract_y
 _atom_site_fract_z
 _atom_site_occupancy
  Y  Y0  1  0.532565  0.065161  0.507525  1
  Y  Y1  1  0.934839  0.467435  0.507525  1
  Y  Y2  1  0.532460  0.467540  0.507438  1
  Y  Y3  1  0.467401  0.934897  0.007452  1
  Y  Y4  1  0.065103  0.532599  0.007452  1
  Ho  Ho5  1  0.466716  0.533284  0.006915  1
  Ho  Ho6  1  0.177431  0.354232  0.713073  1
  Ho  Ho7  1  0.645768  0.822569  0.713073  1
  Ho  Ho8  1  0.177246  0.822754  0.712663  1
  Ho  Ho9  1  0.822398  0.645560  0.212342  1
  Ho  Ho10  1  0.354440  0.177602  0.212342  1
  Ho  Ho11  1  0.822864  0.177136  0.212711  1
  Ho  Ho12  1  0.666404  0.333596  0.883941  1
  Ho  Ho13  1  0.333536  0.666464  0.383766  1
  Ho  Ho14  1  0.999979  0.000021  0.491734  1
  Ho  Ho15  1  0.000039  0.999961  0.991619  1
  In  In16  1  0.837250  0.674319  0.754662  1
  In  In17  1  0.325681  0.162750  0.754662  1
  In  In18  1  0.837072  0.162928  0.754691  1
  In  In19  1  0.163261  0.326117  0.254322  1
  In  In20  1  0.673883  0.836739  0.254322  1
  In  In21  1  0.162923  0.837077  0.254740  1
  Os  Os22  1  0.666674  0.333326  0.279070  1
  Os  Os23  1  0.334067  0.665933  0.780005  1
