# generated using pymatgen
data_Er2Tm6Re(TcB8)3
_symmetry_space_group_name_H-M   'P 1'
_cell_length_a   3.64596600
_cell_length_b   9.10246705
_cell_length_c   11.46907900
_cell_angle_alpha   90.02678204
_cell_angle_beta   90.00000000
_cell_angle_gamma   90.00000000
_symmetry_Int_Tables_number   1
_chemical_formula_structural   Er2Tm6Re(TcB8)3
_chemical_formula_sum   'Er2 Tm6 Re1 Tc3 B24'
_cell_volume   380.62755646
_cell_formula_units_Z   1
loop_
 _symmetry_equiv_pos_site_id
 _symmetry_equiv_pos_as_xyz
  1  'x, y, z'
loop_
 _atom_site_type_symbol
 _atom_site_label
 _atom_site_symmetry_multiplicity
 _atom_site_fract_x
 _atom_site_fract_y
 _atom_site_fract_z
 _atom_site_occupancy
  Er  Er0  1  0.000000  0.323825  0.414015  1
  Er  Er1  1  0.000000  0.676346  0.585869  1
  Tm  Tm2  1  0.000000  0.823792  0.086120  1
  Tm  Tm3  1  0.000000  0.176593  0.914256  1
  Tm  Tm4  1  0.000000  0.942993  0.369301  1
  Tm  Tm5  1  0.000000  0.057569  0.629800  1
  Tm  Tm6  1  0.000000  0.442980  0.130580  1
  Tm  Tm7  1  0.000000  0.555987  0.869919  1
  Re  Re8  1  0.000000  0.861119  0.820762  1
  Tc  Tc9  1  0.000000  0.639279  0.320333  1
  Tc  Tc10  1  0.000000  0.360764  0.679623  1
  Tc  Tc11  1  0.000000  0.139060  0.179413  1
  B  B12  1  0.500000  0.553498  0.433189  1
  B  B13  1  0.500000  0.446575  0.566818  1
  B  B14  1  0.500000  0.053427  0.066763  1
  B  B15  1  0.500000  0.946836  0.933601  1
  B  B16  1  0.500000  0.749980  0.419039  1
  B  B17  1  0.500000  0.250212  0.580899  1
  B  B18  1  0.500000  0.249846  0.080763  1
  B  B19  1  0.500000  0.749717  0.919441  1
  B  B20  1  0.500000  0.792796  0.264907  1
  B  B21  1  0.500000  0.207227  0.734927  1
  B  B22  1  0.500000  0.292674  0.234945  1
  B  B23  1  0.500000  0.706907  0.765179  1
  B  B24  1  0.500000  0.630977  0.184912  1
  B  B25  1  0.500000  0.368845  0.815084  1
  B  B26  1  0.500000  0.130872  0.314978  1
  B  B27  1  0.500000  0.869324  0.684852  1
  B  B28  1  0.500000  0.981730  0.211721  1
  B  B29  1  0.500000  0.018662  0.788080  1
  B  B30  1  0.500000  0.481870  0.288109  1
  B  B31  1  0.500000  0.518007  0.711972  1
  B  B32  1  0.500000  0.599641  0.027927  1
  B  B33  1  0.500000  0.399888  0.972291  1
  B  B34  1  0.500000  0.099667  0.471981  1
  B  B35  1  0.500000  0.900517  0.527632  1
