# generated using pymatgen
data_Tm3CoSi3Rh
_symmetry_space_group_name_H-M   'P 1'
_cell_length_a   5.59929515
_cell_length_b   5.59929493
_cell_length_c   13.53454218
_cell_angle_alpha   89.61420654
_cell_angle_beta   90.38579337
_cell_angle_gamma   136.95257074
_symmetry_Int_Tables_number   1
_chemical_formula_structural   Tm3CoSi3Rh
_chemical_formula_sum   'Tm6 Co2 Si6 Rh2'
_cell_volume   289.64593145
_cell_formula_units_Z   2
loop_
 _symmetry_equiv_pos_site_id
 _symmetry_equiv_pos_as_xyz
  1  'x, y, z'
loop_
 _atom_site_type_symbol
 _atom_site_label
 _atom_site_symmetry_multiplicity
 _atom_site_fract_x
 _atom_site_fract_y
 _atom_site_fract_z
 _atom_site_occupancy
  Tm  Tm0  1  0.640767  0.359233  0.249037  1
  Tm  Tm1  1  0.359233  0.640767  0.750963  1
  Tm  Tm2  1  0.919788  0.080212  0.110078  1
  Tm  Tm3  1  0.080212  0.919788  0.889922  1
  Tm  Tm4  1  0.081111  0.918889  0.615734  1
  Tm  Tm5  1  0.918889  0.081111  0.384266  1
  Co  Co6  1  0.214507  0.785493  0.079415  1
  Co  Co7  1  0.785493  0.214507  0.920585  1
  Si  Si8  1  0.334248  0.665752  0.243874  1
  Si  Si9  1  0.665752  0.334248  0.756126  1
  Si  Si10  1  0.619286  0.380714  0.039661  1
  Si  Si11  1  0.380714  0.619286  0.960339  1
  Si  Si12  1  0.392500  0.607500  0.538185  1
  Si  Si13  1  0.607500  0.392500  0.461815  1
  Rh  Rh14  1  0.788511  0.211489  0.588201  1
  Rh  Rh15  1  0.211489  0.788511  0.411799  1
