# generated using pymatgen
data_BaAlV7O16
_symmetry_space_group_name_H-M   'P 1'
_cell_length_a   6.04577627
_cell_length_b   7.18566681
_cell_length_c   7.22105686
_cell_angle_alpha   88.20595138
_cell_angle_beta   77.79471303
_cell_angle_gamma   77.69139244
_symmetry_Int_Tables_number   1
_chemical_formula_structural   BaAlV7O16
_chemical_formula_sum   'Ba1 Al1 V7 O16'
_cell_volume   299.53400251
_cell_formula_units_Z   1
loop_
 _symmetry_equiv_pos_site_id
 _symmetry_equiv_pos_as_xyz
  1  'x, y, z'
loop_
 _atom_site_type_symbol
 _atom_site_label
 _atom_site_symmetry_multiplicity
 _atom_site_fract_x
 _atom_site_fract_y
 _atom_site_fract_z
 _atom_site_occupancy
  Ba  Ba0  1  0.997422  0.997351  0.997432  1
  Al  Al1  1  0.582562  0.511868  0.181773  1
  V  V2  1  0.089497  0.501060  0.184732  1
  V  V3  1  0.178541  0.815717  0.505128  1
  V  V4  1  0.664893  0.818064  0.512902  1
  V  V5  1  0.337366  0.185940  0.481598  1
  V  V6  1  0.835246  0.184926  0.490787  1
  V  V7  1  0.432508  0.488031  0.821535  1
  V  V8  1  0.922897  0.497424  0.821859  1
  O  O9  1  0.827828  0.641011  0.051585  1
  O  O10  1  0.331412  0.641774  0.048418  1
  O  O11  1  0.984098  0.695906  0.373121  1
  O  O12  1  0.488213  0.694598  0.377843  1
  O  O13  1  0.855050  0.962275  0.643813  1
  O  O14  1  0.351156  0.950313  0.641238  1
  O  O15  1  0.349327  0.376197  0.284619  1
  O  O16  1  0.836495  0.362086  0.290010  1
  O  O17  1  0.164205  0.639854  0.712387  1
  O  O18  1  0.670436  0.635314  0.708514  1
  O  O19  1  0.146530  0.035837  0.352933  1
  O  O20  1  0.665250  0.035445  0.356755  1
  O  O21  1  0.016817  0.303471  0.629401  1
  O  O22  1  0.524480  0.308598  0.625928  1
  O  O23  1  0.174752  0.355550  0.952594  1
  O  O24  1  0.680121  0.361392  0.953089  1
