# generated using pymatgen
data_Dy6Ho10Cd4Ni3Ru
_symmetry_space_group_name_H-M   'P 1'
_cell_length_a   9.55946318
_cell_length_b   9.55946055
_cell_length_c   9.55946143
_cell_angle_alpha   59.67215538
_cell_angle_beta   59.67216046
_cell_angle_gamma   59.67216478
_symmetry_Int_Tables_number   1
_chemical_formula_structural   Dy6Ho10Cd4Ni3Ru
_chemical_formula_sum   'Dy6 Ho10 Cd4 Ni3 Ru1'
_cell_volume   613.11018800
_cell_formula_units_Z   1
loop_
 _symmetry_equiv_pos_site_id
 _symmetry_equiv_pos_as_xyz
  1  'x, y, z'
loop_
 _atom_site_type_symbol
 _atom_site_label
 _atom_site_symmetry_multiplicity
 _atom_site_fract_x
 _atom_site_fract_y
 _atom_site_fract_z
 _atom_site_occupancy
  Dy  Dy0  1  0.186099  0.815416  0.815416  1
  Dy  Dy1  1  0.809190  0.187893  0.187893  1
  Dy  Dy2  1  0.815416  0.186099  0.815416  1
  Dy  Dy3  1  0.187893  0.809190  0.187893  1
  Dy  Dy4  1  0.815416  0.815416  0.186099  1
  Dy  Dy5  1  0.187893  0.187893  0.809190  1
  Ho  Ho6  1  0.597461  0.597461  0.597461  1
  Ho  Ho7  1  0.600517  0.600517  0.204419  1
  Ho  Ho8  1  0.600517  0.204419  0.600517  1
  Ho  Ho9  1  0.204419  0.600517  0.600517  1
  Ho  Ho10  1  0.060331  0.438129  0.438129  1
  Ho  Ho11  1  0.436464  0.061734  0.061734  1
  Ho  Ho12  1  0.438129  0.060331  0.438129  1
  Ho  Ho13  1  0.061734  0.436464  0.061734  1
  Ho  Ho14  1  0.438129  0.438129  0.060331  1
  Ho  Ho15  1  0.061734  0.061734  0.436464  1
  Cd  Cd16  1  0.829895  0.829895  0.829895  1
  Cd  Cd17  1  0.830167  0.830167  0.505858  1
  Cd  Cd18  1  0.830167  0.505858  0.830167  1
  Cd  Cd19  1  0.505858  0.830167  0.830167  1
  Ni  Ni20  1  0.392425  0.392425  0.824519  1
  Ni  Ni21  1  0.392425  0.824519  0.392425  1
  Ni  Ni22  1  0.824519  0.392425  0.392425  1
  Ru  Ru23  1  0.393204  0.393204  0.393204  1
