# generated using pymatgen
data_Li4CaNd(TmSi4)2
_symmetry_space_group_name_H-M   'P 1'
_cell_length_a   3.79899600
_cell_length_b   7.74440449
_cell_length_c   10.27674526
_cell_angle_alpha   89.46658222
_cell_angle_beta   90.00000000
_cell_angle_gamma   90.00000000
_symmetry_Int_Tables_number   1
_chemical_formula_structural   Li4CaNd(TmSi4)2
_chemical_formula_sum   'Li4 Ca1 Nd1 Tm2 Si8'
_cell_volume   302.33862551
_cell_formula_units_Z   1
loop_
 _symmetry_equiv_pos_site_id
 _symmetry_equiv_pos_as_xyz
  1  'x, y, z'
loop_
 _atom_site_type_symbol
 _atom_site_label
 _atom_site_symmetry_multiplicity
 _atom_site_fract_x
 _atom_site_fract_y
 _atom_site_fract_z
 _atom_site_occupancy
  Li  Li0  1  0.250000  0.998538  0.390427  1
  Li  Li1  1  0.750000  0.006869  0.610069  1
  Li  Li2  1  0.250000  0.487641  0.109153  1
  Li  Li3  1  0.750000  0.509380  0.894346  1
  Ca  Ca4  1  0.750000  0.361803  0.363835  1
  Nd  Nd5  1  0.250000  0.636892  0.635764  1
  Tm  Tm6  1  0.250000  0.128824  0.865007  1
  Tm  Tm7  1  0.750000  0.870035  0.132660  1
  Si  Si8  1  0.750000  0.259175  0.060540  1
  Si  Si9  1  0.250000  0.737482  0.938740  1
  Si  Si10  1  0.750000  0.778184  0.425038  1
  Si  Si11  1  0.250000  0.229666  0.574288  1
  Si  Si12  1  0.750000  0.843556  0.823758  1
  Si  Si13  1  0.250000  0.152183  0.172525  1
  Si  Si14  1  0.750000  0.332861  0.687691  1
  Si  Si15  1  0.250000  0.666910  0.316159  1
