# generated using pymatgen
data_BeSi(Mo2H)2
_symmetry_space_group_name_H-M   'P 1'
_cell_length_a   4.90676260
_cell_length_b   4.90676241
_cell_length_c   4.90676277
_cell_angle_alpha   104.56876208
_cell_angle_beta   104.56875184
_cell_angle_gamma   119.79620753
_symmetry_Int_Tables_number   1
_chemical_formula_structural   BeSi(Mo2H)2
_chemical_formula_sum   'Be1 Si1 Mo4 H2'
_cell_volume   88.69268641
_cell_formula_units_Z   1
loop_
 _symmetry_equiv_pos_site_id
 _symmetry_equiv_pos_as_xyz
  1  'x, y, z'
loop_
 _atom_site_type_symbol
 _atom_site_label
 _atom_site_symmetry_multiplicity
 _atom_site_fract_x
 _atom_site_fract_y
 _atom_site_fract_z
 _atom_site_occupancy
  Be  Be0  1  0.250000  0.250000  0.000000  1
  Si  Si1  1  0.750000  0.750000  0.000000  1
  Mo  Mo2  1  0.167836  0.667836  0.835675  1
  Mo  Mo3  1  0.832164  0.332164  0.164325  1
  Mo  Mo4  1  0.332164  0.167836  0.500000  1
  Mo  Mo5  1  0.667836  0.832164  0.500000  1
  H  H6  1  0.750000  0.250000  0.500000  1
  H  H7  1  0.250000  0.750000  0.500000  1
