# generated using pymatgen
data_Y9Er(GeB4)4
_symmetry_space_group_name_H-M   'P 1'
_cell_length_a   7.26120100
_cell_length_b   7.26120100
_cell_length_c   8.16032700
_cell_angle_alpha   90.00000000
_cell_angle_beta   90.00000000
_cell_angle_gamma   90.00000000
_symmetry_Int_Tables_number   1
_chemical_formula_structural   Y9Er(GeB4)4
_chemical_formula_sum   'Y9 Er1 Ge4 B16'
_cell_volume   430.25356718
_cell_formula_units_Z   1
loop_
 _symmetry_equiv_pos_site_id
 _symmetry_equiv_pos_as_xyz
  1  'x, y, z'
loop_
 _atom_site_type_symbol
 _atom_site_label
 _atom_site_symmetry_multiplicity
 _atom_site_fract_x
 _atom_site_fract_y
 _atom_site_fract_z
 _atom_site_occupancy
  Y  Y0  1  0.680512  0.180155  0.220779  1
  Y  Y1  1  0.319488  0.819845  0.779221  1
  Y  Y2  1  0.319488  0.819845  0.220779  1
  Y  Y3  1  0.819845  0.680512  0.220779  1
  Y  Y4  1  0.819845  0.680512  0.779221  1
  Y  Y5  1  0.680512  0.180155  0.779221  1
  Y  Y6  1  0.180155  0.319488  0.779221  1
  Y  Y7  1  0.180155  0.319488  0.220779  1
  Y  Y8  1  0.500000  0.500000  0.500000  1
  Er  Er9  1  0.000000  0.000000  0.500000  1
  Ge  Ge10  1  0.118636  0.621748  0.500000  1
  Ge  Ge11  1  0.881364  0.378252  0.500000  1
  Ge  Ge12  1  0.378252  0.118636  0.500000  1
  Ge  Ge13  1  0.621748  0.881364  0.500000  1
  B  B14  1  0.171878  0.039435  0.000000  1
  B  B15  1  0.828122  0.960565  0.000000  1
  B  B16  1  0.960565  0.171878  0.000000  1
  B  B17  1  0.328138  0.539393  0.000000  1
  B  B18  1  0.039435  0.828122  0.000000  1
  B  B19  1  0.671862  0.460607  0.000000  1
  B  B20  1  0.539393  0.671862  0.000000  1
  B  B21  1  0.460607  0.328138  0.000000  1
  B  B22  1  0.090291  0.590261  0.000000  1
  B  B23  1  0.909709  0.409739  0.000000  1
  B  B24  1  0.409739  0.090291  0.000000  1
  B  B25  1  0.590261  0.909709  0.000000  1
  B  B26  1  0.000000  0.000000  0.161583  1
  B  B27  1  0.000000  0.000000  0.838417  1
  B  B28  1  0.500000  0.500000  0.838758  1
  B  B29  1  0.500000  0.500000  0.161242  1
