# generated using pymatgen
data_Hf3Mn4NbSi3P
_symmetry_space_group_name_H-M   'P 1'
_cell_length_a   3.59642100
_cell_length_b   6.49214929
_cell_length_c   7.57714500
_cell_angle_alpha   90.26916719
_cell_angle_beta   90.00000000
_cell_angle_gamma   90.00000000
_symmetry_Int_Tables_number   1
_chemical_formula_structural   Hf3Mn4NbSi3P
_chemical_formula_sum   'Hf3 Mn4 Nb1 Si3 P1'
_cell_volume   176.91303330
_cell_formula_units_Z   1
loop_
 _symmetry_equiv_pos_site_id
 _symmetry_equiv_pos_as_xyz
  1  'x, y, z'
loop_
 _atom_site_type_symbol
 _atom_site_label
 _atom_site_symmetry_multiplicity
 _atom_site_fract_x
 _atom_site_fract_y
 _atom_site_fract_z
 _atom_site_occupancy
  Hf  Hf0  1  0.750000  0.467388  0.823758  1
  Hf  Hf1  1  0.750000  0.970569  0.674806  1
  Hf  Hf2  1  0.250000  0.032050  0.324326  1
  Mn  Mn3  1  0.250000  0.633535  0.562487  1
  Mn  Mn4  1  0.750000  0.360610  0.440680  1
  Mn  Mn5  1  0.750000  0.864963  0.063385  1
  Mn  Mn6  1  0.250000  0.139755  0.935063  1
  Nb  Nb7  1  0.250000  0.531190  0.174089  1
  Si  Si8  1  0.250000  0.768494  0.876862  1
  Si  Si9  1  0.750000  0.237540  0.127438  1
  Si  Si10  1  0.750000  0.725353  0.370248  1
  P  P11  1  0.250000  0.268553  0.626858  1
