# generated using pymatgen
data_YEr7Ga12CoNi3
_symmetry_space_group_name_H-M   'P 1'
_cell_length_a   6.96767400
_cell_length_b   8.70823858
_cell_length_c   8.70823900
_cell_angle_alpha   119.99999780
_cell_angle_beta   90.00000000
_cell_angle_gamma   90.00000000
_symmetry_Int_Tables_number   1
_chemical_formula_structural   YEr7Ga12CoNi3
_chemical_formula_sum   'Y1 Er7 Ga12 Co1 Ni3'
_cell_volume   457.59273744
_cell_formula_units_Z   1
loop_
 _symmetry_equiv_pos_site_id
 _symmetry_equiv_pos_as_xyz
  1  'x, y, z'
loop_
 _atom_site_type_symbol
 _atom_site_label
 _atom_site_symmetry_multiplicity
 _atom_site_fract_x
 _atom_site_fract_y
 _atom_site_fract_z
 _atom_site_occupancy
  Y  Y0  1  0.748279  0.000000  0.000000  1
  Er  Er1  1  0.249850  0.000000  0.000000  1
  Er  Er2  1  0.750212  0.478173  0.521827  1
  Er  Er3  1  0.253025  0.525033  0.474967  1
  Er  Er4  1  0.750212  0.043654  0.521827  1
  Er  Er5  1  0.253025  0.949934  0.474967  1
  Er  Er6  1  0.750212  0.478173  0.956346  1
  Er  Er7  1  0.253025  0.525033  0.050066  1
  Ga  Ga8  1  0.954821  0.828617  0.171383  1
  Ga  Ga9  1  0.047229  0.171821  0.828179  1
  Ga  Ga10  1  0.954821  0.342767  0.171383  1
  Ga  Ga11  1  0.454323  0.171420  0.828580  1
  Ga  Ga12  1  0.047229  0.656357  0.828179  1
  Ga  Ga13  1  0.545213  0.827124  0.172876  1
  Ga  Ga14  1  0.954821  0.828617  0.657233  1
  Ga  Ga15  1  0.454323  0.657158  0.828580  1
  Ga  Ga16  1  0.047229  0.171821  0.343643  1
  Ga  Ga17  1  0.545213  0.345753  0.172876  1
  Ga  Ga18  1  0.454323  0.171420  0.342842  1
  Ga  Ga19  1  0.545213  0.827124  0.654247  1
  Co  Co20  1  0.517118  0.666667  0.333333  1
  Ni  Ni21  1  0.969413  0.666667  0.333333  1
  Ni  Ni22  1  0.028467  0.333333  0.666667  1
  Ni  Ni23  1  0.472402  0.333333  0.666667  1
