# generated using pymatgen
data_Zr6Ta3Al13Ru5Rh2
_symmetry_space_group_name_H-M   'P 1'
_cell_length_a   8.83014263
_cell_length_b   8.83014279
_cell_length_c   8.81797806
_cell_angle_alpha   59.82497534
_cell_angle_beta   59.82497527
_cell_angle_gamma   59.67719115
_symmetry_Int_Tables_number   1
_chemical_formula_structural   Zr6Ta3Al13Ru5Rh2
_chemical_formula_sum   'Zr6 Ta3 Al13 Ru5 Rh2'
_cell_volume   483.69359476
_cell_formula_units_Z   1
loop_
 _symmetry_equiv_pos_site_id
 _symmetry_equiv_pos_as_xyz
  1  'x, y, z'
loop_
 _atom_site_type_symbol
 _atom_site_label
 _atom_site_symmetry_multiplicity
 _atom_site_fract_x
 _atom_site_fract_y
 _atom_site_fract_z
 _atom_site_occupancy
  Zr  Zr0  1  0.698629  0.698629  0.300018  1
  Zr  Zr1  1  0.305443  0.690495  0.306727  1
  Zr  Zr2  1  0.690495  0.305443  0.306727  1
  Zr  Zr3  1  0.303425  0.303425  0.692326  1
  Zr  Zr4  1  0.697235  0.301668  0.694634  1
  Zr  Zr5  1  0.301668  0.697235  0.694634  1
  Ta  Ta6  1  0.878468  0.878468  0.362744  1
  Ta  Ta7  1  0.876699  0.361261  0.877588  1
  Ta  Ta8  1  0.361261  0.876699  0.877588  1
  Al  Al9  1  0.882301  0.882301  0.879523  1
  Al  Al10  1  0.119490  0.119490  0.638400  1
  Al  Al11  1  0.120100  0.638634  0.120189  1
  Al  Al12  1  0.638634  0.120100  0.120189  1
  Al  Al13  1  0.120107  0.120107  0.122175  1
  Al  Al14  1  0.665111  0.665111  0.013001  1
  Al  Al15  1  0.665194  0.010416  0.666133  1
  Al  Al16  1  0.010416  0.665194  0.666133  1
  Al  Al17  1  0.660514  0.660514  0.659873  1
  Al  Al18  1  0.337059  0.337059  0.991764  1
  Al  Al19  1  0.335967  0.994270  0.335948  1
  Al  Al20  1  0.994270  0.335967  0.335948  1
  Al  Al21  1  0.334245  0.334245  0.334154  1
  Ru  Ru22  1  0.001501  0.001501  0.000960  1
  Ru  Ru23  1  0.998683  0.998683  0.498816  1
  Ru  Ru24  1  0.503197  0.997615  0.503898  1
  Ru  Ru25  1  0.997615  0.503197  0.503898  1
  Ru  Ru26  1  0.504004  0.504004  0.997264  1
  Rh  Rh27  1  0.999915  0.498356  0.999374  1
  Rh  Rh28  1  0.498356  0.999915  0.999374  1
