# generated using pymatgen
data_Sr12Zn9Co3TeW7O48
_symmetry_space_group_name_H-M   'P 1'
_cell_length_a   11.28850073
_cell_length_b   11.26465471
_cell_length_c   11.26465400
_cell_angle_alpha   109.42829445
_cell_angle_beta   109.51410796
_cell_angle_gamma   109.51410758
_symmetry_Int_Tables_number   1
_chemical_formula_structural   Sr12Zn9Co3TeW7O48
_chemical_formula_sum   'Sr12 Zn9 Co3 Te1 W7 O48'
_cell_volume   1102.09746441
_cell_formula_units_Z   1
loop_
 _symmetry_equiv_pos_site_id
 _symmetry_equiv_pos_as_xyz
  1  'x, y, z'
loop_
 _atom_site_type_symbol
 _atom_site_label
 _atom_site_symmetry_multiplicity
 _atom_site_fract_x
 _atom_site_fract_y
 _atom_site_fract_z
 _atom_site_occupancy
  Sr  Sr0  1  0.377124  0.750758  0.125059  1
  Sr  Sr1  1  0.252011  0.374903  0.125654  1
  Sr  Sr2  1  0.873745  0.625790  0.250843  1
  Sr  Sr3  1  0.374867  0.124929  0.250031  1
  Sr  Sr4  1  0.124903  0.249972  0.374906  1
  Sr  Sr5  1  0.749963  0.125043  0.375048  1
  Sr  Sr6  1  0.875122  0.750104  0.625120  1
  Sr  Sr7  1  0.250055  0.874962  0.625018  1
  Sr  Sr8  1  0.126385  0.374299  0.749226  1
  Sr  Sr9  1  0.625047  0.874996  0.749940  1
  Sr  Sr10  1  0.622858  0.249156  0.874907  1
  Sr  Sr11  1  0.747928  0.625082  0.874240  1
  Zn  Zn12  1  0.126320  0.873050  0.249483  1
  Zn  Zn13  1  0.625266  0.750371  0.375476  1
  Zn  Zn14  1  0.246776  0.623605  0.373055  1
  Zn  Zn15  1  0.374728  0.249626  0.624538  1
  Zn  Zn16  1  0.753249  0.376442  0.626987  1
  Zn  Zn17  1  0.873725  0.126968  0.750516  1
  Zn  Zn18  1  0.374887  0.625064  0.749610  1
  Zn  Zn19  1  0.123172  0.749494  0.876451  1
  Zn  Zn20  1  0.249805  0.124531  0.874896  1
  Co  Co21  1  0.750166  0.875419  0.125080  1
  Co  Co22  1  0.876577  0.250496  0.123779  1
  Co  Co23  1  0.625067  0.374926  0.250408  1
  Te  Te24  1  0.999961  0.500014  0.000023  1
  W  W25  1  0.000014  0.000118  0.000037  1
  W  W26  1  0.500037  0.999976  0.000085  1
  W  W27  1  0.500162  0.499999  0.000024  1
  W  W28  1  0.000017  0.000042  0.499994  1
  W  W29  1  0.499961  0.499942  0.499911  1
  W  W30  1  0.499976  0.000002  0.499959  1
  W  W31  1  0.999960  0.500008  0.500008  1
  O  O32  1  0.329389  0.904755  0.015336  1
  O  O33  1  0.186627  0.109952  0.016207  1
  O  O34  1  0.686146  0.670970  0.076349  1
  O  O35  1  0.888454  0.407370  0.076759  1
  O  O36  1  0.980468  0.669062  0.092234  1
  O  O37  1  0.609819  0.423649  0.094533  1
  O  O38  1  0.594780  0.923989  0.110250  1
  O  O39  1  0.017045  0.186626  0.111204  1
  O  O40  1  0.188565  0.576827  0.169085  1
  O  O41  1  0.484385  0.594260  0.170657  1
  O  O42  1  0.575699  0.170333  0.186589  1
  O  O43  1  0.109990  0.014646  0.185944  1
  O  O44  1  0.330759  0.924591  0.313171  1
  O  O45  1  0.484452  0.389802  0.313837  1
  O  O46  1  0.905329  0.016252  0.329654  1
  O  O47  1  0.924162  0.314252  0.328299  1
  O  O48  1  0.576705  0.906291  0.390111  1
  O  O49  1  0.313994  0.484675  0.389439  1
  O  O50  1  0.829330  0.515698  0.405930  1
  O  O51  1  0.075364  0.889456  0.404729  1
  O  O52  1  0.829573  0.813624  0.423944  1
  O  O53  1  0.093873  0.611418  0.424509  1
  O  O54  1  0.595365  0.171232  0.485354  1
  O  O55  1  0.388908  0.313239  0.483307  1
  O  O56  1  0.611026  0.686725  0.516701  1
  O  O57  1  0.404658  0.828751  0.514637  1
  O  O58  1  0.170447  0.186426  0.576007  1
  O  O59  1  0.906107  0.388465  0.575351  1
  O  O60  1  0.924597  0.110567  0.595246  1
  O  O61  1  0.170466  0.483803  0.593743  1
  O  O62  1  0.685876  0.515269  0.610495  1
  O  O63  1  0.423324  0.093751  0.609896  1
  O  O64  1  0.094307  0.983301  0.669973  1
  O  O65  1  0.075905  0.685853  0.671201  1
  O  O66  1  0.515986  0.610415  0.686433  1
  O  O67  1  0.669288  0.075428  0.686907  1
  O  O68  1  0.889939  0.985366  0.814050  1
  O  O69  1  0.424341  0.829915  0.813204  1
  O  O70  1  0.515673  0.405713  0.829290  1
  O  O71  1  0.811433  0.423170  0.830945  1
  O  O72  1  0.982373  0.813110  0.888520  1
  O  O73  1  0.405630  0.076023  0.889632  1
  O  O74  1  0.019469  0.330919  0.907787  1
  O  O75  1  0.390116  0.576422  0.905729  1
  O  O76  1  0.111679  0.592170  0.923188  1
  O  O77  1  0.313729  0.329392  0.923636  1
  O  O78  1  0.671065  0.095716  0.985317  1
  O  O79  1  0.813552  0.890268  0.984359  1
