# generated using pymatgen
data_YbEr3Ga2Co6(NiB)6
_symmetry_space_group_name_H-M   'P 1'
_cell_length_a   5.10496000
_cell_length_b   5.10496083
_cell_length_c   12.45862300
_cell_angle_alpha   90.00000000
_cell_angle_beta   90.00000000
_cell_angle_gamma   119.99999464
_symmetry_Int_Tables_number   1
_chemical_formula_structural   YbEr3Ga2Co6(NiB)6
_chemical_formula_sum   'Yb1 Er3 Ga2 Co6 Ni6 B6'
_cell_volume   281.18066694
_cell_formula_units_Z   1
loop_
 _symmetry_equiv_pos_site_id
 _symmetry_equiv_pos_as_xyz
  1  'x, y, z'
loop_
 _atom_site_type_symbol
 _atom_site_label
 _atom_site_symmetry_multiplicity
 _atom_site_fract_x
 _atom_site_fract_y
 _atom_site_fract_z
 _atom_site_occupancy
  Yb  Yb0  1  0.000000  0.000000  0.000000  1
  Er  Er1  1  0.000000  0.000000  0.500000  1
  Er  Er2  1  0.000000  0.000000  0.738981  1
  Er  Er3  1  0.000000  0.000000  0.261019  1
  Ga  Ga4  1  0.666667  0.333333  0.000000  1
  Ga  Ga5  1  0.333333  0.666667  0.000000  1
  Co  Co6  1  0.500000  0.500000  0.615384  1
  Co  Co7  1  0.500000  0.000000  0.615384  1
  Co  Co8  1  0.000000  0.500000  0.615384  1
  Co  Co9  1  0.500000  0.500000  0.384616  1
  Co  Co10  1  0.500000  0.000000  0.384616  1
  Co  Co11  1  0.000000  0.500000  0.384616  1
  Ni  Ni12  1  0.500000  0.500000  0.840762  1
  Ni  Ni13  1  0.500000  0.000000  0.840762  1
  Ni  Ni14  1  0.000000  0.500000  0.840762  1
  Ni  Ni15  1  0.500000  0.500000  0.159238  1
  Ni  Ni16  1  0.500000  0.000000  0.159238  1
  Ni  Ni17  1  0.000000  0.500000  0.159238  1
  B  B18  1  0.666667  0.333333  0.500000  1
  B  B19  1  0.333333  0.666667  0.500000  1
  B  B20  1  0.666667  0.333333  0.728994  1
  B  B21  1  0.333333  0.666667  0.728994  1
  B  B22  1  0.333333  0.666667  0.271006  1
  B  B23  1  0.666667  0.333333  0.271006  1
