# generated using pymatgen
data_NbCd2(SbPt)3
_symmetry_space_group_name_H-M   'P 1'
_cell_length_a   7.87843728
_cell_length_b   7.87856730
_cell_length_c   7.86022527
_cell_angle_alpha   99.61462713
_cell_angle_beta   99.61383929
_cell_angle_gamma   119.82766951
_symmetry_Int_Tables_number   1
_chemical_formula_structural   NbCd2(SbPt)3
_chemical_formula_sum   'Nb2 Cd4 Sb6 Pt6'
_cell_volume   399.07678904
_cell_formula_units_Z   2
loop_
 _symmetry_equiv_pos_site_id
 _symmetry_equiv_pos_as_xyz
  1  'x, y, z'
loop_
 _atom_site_type_symbol
 _atom_site_label
 _atom_site_symmetry_multiplicity
 _atom_site_fract_x
 _atom_site_fract_y
 _atom_site_fract_z
 _atom_site_occupancy
  Nb  Nb0  1  0.667680  0.832756  0.499766  1
  Nb  Nb1  1  0.832767  0.667692  0.999792  1
  Cd  Cd2  1  0.331764  0.164892  0.500030  1
  Cd  Cd3  1  0.999000  0.503209  0.500251  1
  Cd  Cd4  1  0.164893  0.331769  0.000024  1
  Cd  Cd5  1  0.503206  0.998995  0.000245  1
  Sb  Sb6  1  0.917438  0.091748  0.246973  1
  Sb  Sb7  1  0.256653  0.748304  0.248630  1
  Sb  Sb8  1  0.575955  0.409148  0.253995  1
  Sb  Sb9  1  0.091749  0.917439  0.746959  1
  Sb  Sb10  1  0.748302  0.256639  0.748620  1
  Sb  Sb11  1  0.409134  0.575953  0.753993  1
  Pt  Pt12  1  0.188795  0.020289  0.118381  1
  Pt  Pt13  1  0.872801  0.393348  0.119711  1
  Pt  Pt14  1  0.564927  0.711271  0.137288  1
  Pt  Pt15  1  0.020265  0.188774  0.618376  1
  Pt  Pt16  1  0.393365  0.872801  0.619704  1
  Pt  Pt17  1  0.711263  0.564932  0.637261  1
