# generated using pymatgen
data_Dy2Y2Al18Co5Au
_symmetry_space_group_name_H-M   'P 1'
_cell_length_a   7.43825631
_cell_length_b   7.43825702
_cell_length_c   9.35990100
_cell_angle_alpha   89.78924029
_cell_angle_beta   89.78704277
_cell_angle_gamma   119.15966844
_symmetry_Int_Tables_number   1
_chemical_formula_structural   Dy2Y2Al18Co5Au
_chemical_formula_sum   'Dy2 Y2 Al18 Co5 Au1'
_cell_volume   452.21835505
_cell_formula_units_Z   1
loop_
 _symmetry_equiv_pos_site_id
 _symmetry_equiv_pos_as_xyz
  1  'x, y, z'
loop_
 _atom_site_type_symbol
 _atom_site_label
 _atom_site_symmetry_multiplicity
 _atom_site_fract_x
 _atom_site_fract_y
 _atom_site_fract_z
 _atom_site_occupancy
  Dy  Dy0  1  0.995558  0.677585  0.251330  1
  Dy  Dy1  1  0.004442  0.322415  0.748670  1
  Y  Y2  1  0.677578  0.995548  0.251323  1
  Y  Y3  1  0.322422  0.004452  0.748677  1
  Al  Al4  1  0.137482  0.137451  0.263291  1
  Al  Al5  1  0.862518  0.862549  0.736709  1
  Al  Al6  1  0.332272  0.332291  0.542403  1
  Al  Al7  1  0.655039  0.655018  0.051873  1
  Al  Al8  1  0.344961  0.344982  0.948127  1
  Al  Al9  1  0.667728  0.667709  0.457597  1
  Al  Al10  1  0.340003  0.557859  0.252375  1
  Al  Al11  1  0.659997  0.442141  0.747625  1
  Al  Al12  1  0.557885  0.340061  0.252374  1
  Al  Al13  1  0.442115  0.659939  0.747626  1
  Al  Al14  1  0.001364  0.349735  0.076405  1
  Al  Al15  1  0.003330  0.663093  0.569666  1
  Al  Al16  1  0.336865  0.996646  0.430311  1
  Al  Al17  1  0.650313  0.998661  0.923572  1
  Al  Al18  1  0.998636  0.650265  0.923595  1
  Al  Al19  1  0.996670  0.336907  0.430334  1
  Al  Al20  1  0.663135  0.003354  0.569689  1
  Al  Al21  1  0.349687  0.001339  0.076428  1
  Co  Co22  1  0.000000  0.000000  0.500000  1
  Co  Co23  1  0.671039  0.328977  0.999996  1
  Co  Co24  1  0.329002  0.670961  0.499999  1
  Co  Co25  1  0.328961  0.671023  0.000004  1
  Co  Co26  1  0.670998  0.329039  0.500001  1
  Au  Au27  1  0.000000  0.000000  0.000000  1
