# generated using pymatgen
data_TbDyMgB2Rh5
_symmetry_space_group_name_H-M   'P 1'
_cell_length_a   9.67050476
_cell_length_b   9.67050476
_cell_length_c   3.19780200
_cell_angle_alpha   90.00000000
_cell_angle_beta   90.00000000
_cell_angle_gamma   89.91345055
_symmetry_Int_Tables_number   1
_chemical_formula_structural   TbDyMgB2Rh5
_chemical_formula_sum   'Tb2 Dy2 Mg2 B4 Rh10'
_cell_volume   299.05382408
_cell_formula_units_Z   2
loop_
 _symmetry_equiv_pos_site_id
 _symmetry_equiv_pos_as_xyz
  1  'x, y, z'
loop_
 _atom_site_type_symbol
 _atom_site_label
 _atom_site_symmetry_multiplicity
 _atom_site_fract_x
 _atom_site_fract_y
 _atom_site_fract_z
 _atom_site_occupancy
  Tb  Tb0  1  0.675812  0.175812  0.000000  1
  Tb  Tb1  1  0.324188  0.824188  0.000000  1
  Dy  Dy2  1  0.175786  0.324214  0.000000  1
  Dy  Dy3  1  0.824214  0.675786  0.000000  1
  Mg  Mg4  1  0.000000  0.000000  0.000000  1
  Mg  Mg5  1  0.500000  0.500000  0.000000  1
  B  B6  1  0.122268  0.622268  0.000000  1
  B  B7  1  0.877732  0.377732  0.000000  1
  B  B8  1  0.622509  0.877491  0.000000  1
  B  B9  1  0.377491  0.122509  0.000000  1
  Rh  Rh10  1  0.500000  0.000000  0.500000  1
  Rh  Rh11  1  0.000000  0.500000  0.500000  1
  Rh  Rh12  1  0.224514  0.070932  0.500000  1
  Rh  Rh13  1  0.775486  0.929068  0.500000  1
  Rh  Rh14  1  0.069958  0.774991  0.500000  1
  Rh  Rh15  1  0.725009  0.430042  0.500000  1
  Rh  Rh16  1  0.930042  0.225009  0.500000  1
  Rh  Rh17  1  0.274991  0.569958  0.500000  1
  Rh  Rh18  1  0.570932  0.724514  0.500000  1
  Rh  Rh19  1  0.429068  0.275486  0.500000  1
