# generated using pymatgen
data_Ca12InSb7Rh8
_symmetry_space_group_name_H-M   'P 1'
_cell_length_a   5.81743200
_cell_length_b   8.36526457
_cell_length_c   13.83406900
_cell_angle_alpha   89.80077549
_cell_angle_beta   90.00000000
_cell_angle_gamma   90.00000000
_symmetry_Int_Tables_number   1
_chemical_formula_structural   Ca12InSb7Rh8
_chemical_formula_sum   'Ca12 In1 Sb7 Rh8'
_cell_volume   673.22201381
_cell_formula_units_Z   1
loop_
 _symmetry_equiv_pos_site_id
 _symmetry_equiv_pos_as_xyz
  1  'x, y, z'
loop_
 _atom_site_type_symbol
 _atom_site_label
 _atom_site_symmetry_multiplicity
 _atom_site_fract_x
 _atom_site_fract_y
 _atom_site_fract_z
 _atom_site_occupancy
  Ca  Ca0  1  0.630720  0.257414  0.250476  1
  Ca  Ca1  1  0.370520  0.742508  0.749352  1
  Ca  Ca2  1  0.370520  0.757492  0.250648  1
  Ca  Ca3  1  0.630720  0.242586  0.749524  1
  Ca  Ca4  1  0.149555  0.395597  0.097725  1
  Ca  Ca5  1  0.849970  0.604890  0.902142  1
  Ca  Ca6  1  0.852373  0.604744  0.596780  1
  Ca  Ca7  1  0.852373  0.895256  0.403220  1
  Ca  Ca8  1  0.152930  0.397859  0.403042  1
  Ca  Ca9  1  0.152930  0.102141  0.596958  1
  Ca  Ca10  1  0.149555  0.104403  0.902275  1
  Ca  Ca11  1  0.849970  0.895110  0.097858  1
  In  In12  1  0.637428  0.250000  0.500000  1
  Sb  Sb13  1  0.135298  0.105914  0.248748  1
  Sb  Sb14  1  0.865896  0.895926  0.751008  1
  Sb  Sb15  1  0.865896  0.604074  0.248992  1
  Sb  Sb16  1  0.135298  0.394086  0.751252  1
  Sb  Sb17  1  0.635580  0.250000  0.000000  1
  Sb  Sb18  1  0.364742  0.750000  0.000000  1
  Sb  Sb19  1  0.359802  0.750000  0.500000  1
  Rh  Rh20  1  0.368542  0.033498  0.086895  1
  Rh  Rh21  1  0.631546  0.966238  0.912814  1
  Rh  Rh22  1  0.628617  0.960593  0.589395  1
  Rh  Rh23  1  0.628617  0.539407  0.410605  1
  Rh  Rh24  1  0.365256  0.029181  0.408805  1
  Rh  Rh25  1  0.365256  0.470819  0.591195  1
  Rh  Rh26  1  0.368542  0.466502  0.913105  1
  Rh  Rh27  1  0.631546  0.533762  0.087186  1
