# generated using pymatgen
data_DyTm9(InBi)3
_symmetry_space_group_name_H-M   'P 1'
_cell_length_a   6.53119600
_cell_length_b   8.93986965
_cell_length_c   8.95981972
_cell_angle_alpha   119.92637235
_cell_angle_beta   90.00009809
_cell_angle_gamma   89.99979555
_symmetry_Int_Tables_number   1
_chemical_formula_structural   DyTm9(InBi)3
_chemical_formula_sum   'Dy1 Tm9 In3 Bi3'
_cell_volume   453.39376277
_cell_formula_units_Z   1
loop_
 _symmetry_equiv_pos_site_id
 _symmetry_equiv_pos_as_xyz
  1  'x, y, z'
loop_
 _atom_site_type_symbol
 _atom_site_label
 _atom_site_symmetry_multiplicity
 _atom_site_fract_x
 _atom_site_fract_y
 _atom_site_fract_z
 _atom_site_occupancy
  Dy  Dy0  1  0.750002  0.233689  0.000000  1
  Tm  Tm1  1  0.491806  0.333458  0.667114  1
  Tm  Tm2  1  0.491806  0.666344  0.332886  1
  Tm  Tm3  1  0.008195  0.666341  0.332887  1
  Tm  Tm4  1  0.008195  0.333455  0.667113  1
  Tm  Tm5  1  0.749998  0.765104  0.764676  1
  Tm  Tm6  1  0.749998  0.000428  0.235324  1
  Tm  Tm7  1  0.250000  0.764752  0.000000  1
  Tm  Tm8  1  0.249999  0.235788  0.235953  1
  Tm  Tm9  1  0.249999  0.999835  0.764047  1
  In  In10  1  0.250000  0.393903  0.000000  1
  In  In11  1  0.249999  0.606201  0.605919  1
  In  In12  1  0.249999  0.000281  0.394081  1
  Bi  Bi13  1  0.750002  0.603510  0.000000  1
  Bi  Bi14  1  0.749999  0.397374  0.397835  1
  Bi  Bi15  1  0.749999  0.999540  0.602165  1
