# generated using pymatgen
data_Li4TbDy3(SiO4)4
_symmetry_space_group_name_H-M   'P 1'
_cell_length_a   6.24035534
_cell_length_b   5.45022391
_cell_length_c   10.94607959
_cell_angle_alpha   66.39057317
_cell_angle_beta   90.03709089
_cell_angle_gamma   90.02140302
_symmetry_Int_Tables_number   1
_chemical_formula_structural   Li4TbDy3(SiO4)4
_chemical_formula_sum   'Li4 Tb1 Dy3 Si4 O16'
_cell_volume   341.12878265
_cell_formula_units_Z   1
loop_
 _symmetry_equiv_pos_site_id
 _symmetry_equiv_pos_as_xyz
  1  'x, y, z'
loop_
 _atom_site_type_symbol
 _atom_site_label
 _atom_site_symmetry_multiplicity
 _atom_site_fract_x
 _atom_site_fract_y
 _atom_site_fract_z
 _atom_site_occupancy
  Li  Li0  1  0.133899  0.919337  0.429951  1
  Li  Li1  1  0.633935  0.080550  0.070134  1
  Li  Li2  1  0.866028  0.080792  0.570014  1
  Li  Li3  1  0.366232  0.919242  0.930014  1
  Tb  Tb4  1  0.116293  0.445483  0.847589  1
  Dy  Dy5  1  0.883721  0.554347  0.152380  1
  Dy  Dy6  1  0.616216  0.554518  0.652083  1
  Dy  Dy7  1  0.383857  0.445610  0.347693  1
  Si  Si8  1  0.651891  0.904398  0.359168  1
  Si  Si9  1  0.348474  0.095899  0.640448  1
  Si  Si10  1  0.151922  0.095282  0.141133  1
  Si  Si11  1  0.847609  0.904379  0.859200  1
  O  O12  1  0.857592  0.230994  0.775863  1
  O  O13  1  0.641387  0.231183  0.276259  1
  O  O14  1  0.163622  0.185120  0.524031  1
  O  O15  1  0.836497  0.759094  0.752416  1
  O  O16  1  0.141342  0.768551  0.223897  1
  O  O17  1  0.571162  0.226951  0.554992  1
  O  O18  1  0.662713  0.758397  0.252636  1
  O  O19  1  0.428979  0.773494  0.444636  1
  O  O20  1  0.070749  0.774519  0.944738  1
  O  O21  1  0.663474  0.814736  0.976044  1
  O  O22  1  0.162773  0.241564  0.247491  1
  O  O23  1  0.928779  0.226079  0.055834  1
  O  O24  1  0.336899  0.184188  0.024698  1
  O  O25  1  0.338057  0.241107  0.747269  1
  O  O26  1  0.359461  0.769284  0.723433  1
  O  O27  1  0.836437  0.814901  0.475958  1
