# generated using pymatgen
data_Ba6LaNd(BO3)6
_symmetry_space_group_name_H-M   'P 1'
_cell_length_a   8.33813006
_cell_length_b   8.33813100
_cell_length_c   8.33812992
_cell_angle_alpha   105.47405355
_cell_angle_beta   105.47405572
_cell_angle_gamma   105.47406708
_symmetry_Int_Tables_number   1
_chemical_formula_structural   Ba6LaNd(BO3)6
_chemical_formula_sum   'Ba6 La1 Nd1 B6 O18'
_cell_volume   501.52449933
_cell_formula_units_Z   1
loop_
 _symmetry_equiv_pos_site_id
 _symmetry_equiv_pos_as_xyz
  1  'x, y, z'
loop_
 _atom_site_type_symbol
 _atom_site_label
 _atom_site_symmetry_multiplicity
 _atom_site_fract_x
 _atom_site_fract_y
 _atom_site_fract_z
 _atom_site_occupancy
  Ba  Ba0  1  0.354817  0.732397  0.848986  1
  Ba  Ba1  1  0.848986  0.354817  0.732397  1
  Ba  Ba2  1  0.732397  0.848986  0.354817  1
  Ba  Ba3  1  0.645183  0.267603  0.151014  1
  Ba  Ba4  1  0.151014  0.645183  0.267603  1
  Ba  Ba5  1  0.267603  0.151014  0.645183  1
  La  La6  1  0.000000  0.000000  0.000000  1
  Nd  Nd7  1  0.500000  0.500000  0.500000  1
  B  B8  1  0.708400  0.615037  0.959093  1
  B  B9  1  0.959093  0.708400  0.615037  1
  B  B10  1  0.615037  0.959093  0.708400  1
  B  B11  1  0.040907  0.291600  0.384963  1
  B  B12  1  0.384963  0.040907  0.291600  1
  B  B13  1  0.291600  0.384963  0.040907  1
  O  O14  1  0.056608  0.810209  0.543284  1
  O  O15  1  0.543284  0.056608  0.810209  1
  O  O16  1  0.428482  0.495505  0.205873  1
  O  O17  1  0.495505  0.205873  0.428482  1
  O  O18  1  0.205873  0.428482  0.495505  1
  O  O19  1  0.794127  0.571518  0.504495  1
  O  O20  1  0.571518  0.504495  0.794127  1
  O  O21  1  0.504495  0.794127  0.571518  1
  O  O22  1  0.262498  0.202217  0.979170  1
  O  O23  1  0.202217  0.979170  0.262498  1
  O  O24  1  0.979170  0.262498  0.202217  1
  O  O25  1  0.737502  0.797783  0.020830  1
  O  O26  1  0.797783  0.020830  0.737502  1
  O  O27  1  0.020830  0.737502  0.797783  1
  O  O28  1  0.189791  0.456716  0.943392  1
  O  O29  1  0.456716  0.943392  0.189791  1
  O  O30  1  0.943392  0.189791  0.456716  1
  O  O31  1  0.810209  0.543284  0.056608  1
