# generated using pymatgen
data_Tb5TiIrO12
_symmetry_space_group_name_H-M   'P 1'
_cell_length_a   6.85519158
_cell_length_b   6.85519147
_cell_length_c   7.43912904
_cell_angle_alpha   74.21761898
_cell_angle_beta   74.21762165
_cell_angle_gamma   50.52019320
_symmetry_Int_Tables_number   1
_chemical_formula_structural   Tb5TiIrO12
_chemical_formula_sum   'Tb5 Ti1 Ir1 O12'
_cell_volume   257.34034564
_cell_formula_units_Z   1
loop_
 _symmetry_equiv_pos_site_id
 _symmetry_equiv_pos_as_xyz
  1  'x, y, z'
loop_
 _atom_site_type_symbol
 _atom_site_label
 _atom_site_symmetry_multiplicity
 _atom_site_fract_x
 _atom_site_fract_y
 _atom_site_fract_z
 _atom_site_occupancy
  Tb  Tb0  1  0.310097  0.298779  0.359624  1
  Tb  Tb1  1  0.701221  0.689903  0.640376  1
  Tb  Tb2  1  0.306406  0.314597  0.827898  1
  Tb  Tb3  1  0.685403  0.693594  0.172102  1
  Tb  Tb4  1  0.003708  0.996292  0.500000  1
  Ti  Ti5  1  0.777927  0.222073  0.000000  1
  Ir  Ir6  1  0.241187  0.758813  0.000000  1
  O  O7  1  0.898964  0.427393  0.918713  1
  O  O8  1  0.416967  0.908354  0.916680  1
  O  O9  1  0.091646  0.583033  0.083320  1
  O  O10  1  0.572607  0.101036  0.081287  1
  O  O11  1  0.098218  0.594917  0.573431  1
  O  O12  1  0.595141  0.094727  0.577885  1
  O  O13  1  0.905273  0.404859  0.422115  1
  O  O14  1  0.405083  0.901782  0.426569  1
  O  O15  1  0.997008  0.002513  0.807662  1
  O  O16  1  0.997487  0.002992  0.192338  1
  O  O17  1  0.497707  0.502051  0.817933  1
  O  O18  1  0.497949  0.502293  0.182067  1
