# generated using pymatgen
data_MgZr6Ti3Al12Pt7
_symmetry_space_group_name_H-M   'P 1'
_cell_length_a   8.84924944
_cell_length_b   8.84925061
_cell_length_c   8.86326205
_cell_angle_alpha   60.05228886
_cell_angle_beta   60.05228500
_cell_angle_gamma   60.00000142
_symmetry_Int_Tables_number   1
_chemical_formula_structural   MgZr6Ti3Al12Pt7
_chemical_formula_sum   'Mg1 Zr6 Ti3 Al12 Pt7'
_cell_volume   491.17279721
_cell_formula_units_Z   1
loop_
 _symmetry_equiv_pos_site_id
 _symmetry_equiv_pos_as_xyz
  1  'x, y, z'
loop_
 _atom_site_type_symbol
 _atom_site_label
 _atom_site_symmetry_multiplicity
 _atom_site_fract_x
 _atom_site_fract_y
 _atom_site_fract_z
 _atom_site_occupancy
  Mg  Mg0  1  0.883255  0.883255  0.350234  1
  Zr  Zr1  1  0.685876  0.685876  0.314260  1
  Zr  Zr2  1  0.313989  0.685876  0.314260  1
  Zr  Zr3  1  0.685876  0.313989  0.314260  1
  Zr  Zr4  1  0.311815  0.311815  0.689222  1
  Zr  Zr5  1  0.687150  0.311815  0.689222  1
  Zr  Zr6  1  0.311815  0.687150  0.689222  1
  Ti  Ti7  1  0.878860  0.360921  0.881358  1
  Ti  Ti8  1  0.360921  0.878860  0.881358  1
  Ti  Ti9  1  0.878860  0.878860  0.881358  1
  Al  Al10  1  0.121665  0.121665  0.635007  1
  Al  Al11  1  0.119693  0.640250  0.120365  1
  Al  Al12  1  0.640250  0.119693  0.120365  1
  Al  Al13  1  0.119693  0.119693  0.120365  1
  Al  Al14  1  0.663734  0.663734  0.008801  1
  Al  Al15  1  0.665824  0.004638  0.663715  1
  Al  Al16  1  0.004638  0.665824  0.663715  1
  Al  Al17  1  0.665824  0.665824  0.663715  1
  Al  Al18  1  0.334631  0.334631  0.996106  1
  Al  Al19  1  0.335566  0.994452  0.334415  1
  Al  Al20  1  0.994452  0.335566  0.334415  1
  Al  Al21  1  0.335566  0.335566  0.334415  1
  Pt  Pt22  1  0.005961  0.005961  0.982118  1
  Pt  Pt23  1  0.000410  0.000410  0.506366  1
  Pt  Pt24  1  0.492815  0.000410  0.506366  1
  Pt  Pt25  1  0.000410  0.492815  0.506366  1
  Pt  Pt26  1  0.500783  0.500783  0.999544  1
  Pt  Pt27  1  0.998888  0.500783  0.999544  1
  Pt  Pt28  1  0.500783  0.998888  0.999544  1
