# generated using pymatgen
data_La3Pr13Cd4OsPt3
_symmetry_space_group_name_H-M   'P 1'
_cell_length_a   10.11071644
_cell_length_b   10.13520697
_cell_length_c   10.13520658
_cell_angle_alpha   59.59870808
_cell_angle_beta   59.68951543
_cell_angle_gamma   59.68951124
_symmetry_Int_Tables_number   1
_chemical_formula_structural   La3Pr13Cd4OsPt3
_chemical_formula_sum   'La3 Pr13 Cd4 Os1 Pt3'
_cell_volume   728.71207468
_cell_formula_units_Z   1
loop_
 _symmetry_equiv_pos_site_id
 _symmetry_equiv_pos_as_xyz
  1  'x, y, z'
loop_
 _atom_site_type_symbol
 _atom_site_label
 _atom_site_symmetry_multiplicity
 _atom_site_fract_x
 _atom_site_fract_y
 _atom_site_fract_z
 _atom_site_occupancy
  La  La0  1  0.350258  0.350631  0.350631  1
  La  La1  1  0.345313  0.345703  0.955441  1
  La  La2  1  0.345313  0.955441  0.345703  1
  Pr  Pr3  1  0.950407  0.348583  0.348583  1
  Pr  Pr4  1  0.817431  0.188618  0.188618  1
  Pr  Pr5  1  0.189495  0.808551  0.808551  1
  Pr  Pr6  1  0.189000  0.815946  0.188411  1
  Pr  Pr7  1  0.808713  0.189052  0.808048  1
  Pr  Pr8  1  0.189000  0.188411  0.815946  1
  Pr  Pr9  1  0.808713  0.808048  0.189052  1
  Pr  Pr10  1  0.936626  0.564135  0.564135  1
  Pr  Pr11  1  0.557230  0.937348  0.937348  1
  Pr  Pr12  1  0.564192  0.936359  0.564279  1
  Pr  Pr13  1  0.937418  0.557634  0.937651  1
  Pr  Pr14  1  0.564192  0.564279  0.936359  1
  Pr  Pr15  1  0.937418  0.937651  0.557634  1
  Cd  Cd16  1  0.580020  0.579555  0.579555  1
  Cd  Cd17  1  0.580942  0.579867  0.258822  1
  Cd  Cd18  1  0.580942  0.258822  0.579867  1
  Cd  Cd19  1  0.258451  0.580284  0.580284  1
  Os  Os20  1  0.145797  0.142447  0.142447  1
  Pt  Pt21  1  0.144991  0.145012  0.572455  1
  Pt  Pt22  1  0.144991  0.572455  0.145012  1
  Pt  Pt23  1  0.573150  0.145174  0.145174  1
