# generated using pymatgen
data_CsY(SbAu)2
_symmetry_space_group_name_H-M   'P 1'
_cell_length_a   4.64446300
_cell_length_b   4.64446293
_cell_length_c   20.18067100
_cell_angle_alpha   90.00000000
_cell_angle_beta   90.00000000
_cell_angle_gamma   120.00002185
_symmetry_Int_Tables_number   1
_chemical_formula_structural   CsY(SbAu)2
_chemical_formula_sum   'Cs2 Y2 Sb4 Au4'
_cell_volume   376.99635115
_cell_formula_units_Z   2
loop_
 _symmetry_equiv_pos_site_id
 _symmetry_equiv_pos_as_xyz
  1  'x, y, z'
loop_
 _atom_site_type_symbol
 _atom_site_label
 _atom_site_symmetry_multiplicity
 _atom_site_fract_x
 _atom_site_fract_y
 _atom_site_fract_z
 _atom_site_occupancy
  Cs  Cs0  1  0.000000  0.000000  0.000000  1
  Cs  Cs1  1  0.000000  0.000000  0.500000  1
  Y  Y2  1  0.000000  0.000000  0.248324  1
  Y  Y3  1  0.000000  0.000000  0.751676  1
  Sb  Sb4  1  0.333333  0.666667  0.357300  1
  Sb  Sb5  1  0.666667  0.333333  0.642700  1
  Sb  Sb6  1  0.666667  0.333333  0.860262  1
  Sb  Sb7  1  0.333333  0.666667  0.139738  1
  Au  Au8  1  0.666667  0.333333  0.327740  1
  Au  Au9  1  0.333333  0.666667  0.672260  1
  Au  Au10  1  0.333333  0.666667  0.831342  1
  Au  Au11  1  0.666667  0.333333  0.168658  1
