# generated using pymatgen
data_Sc4Mn2Si7Ni16
_symmetry_space_group_name_H-M   'P 1'
_cell_length_a   8.00810060
_cell_length_b   7.95949870
_cell_length_c   8.00810060
_cell_angle_alpha   119.79943668
_cell_angle_beta   90.69336890
_cell_angle_gamma   119.79943668
_symmetry_Int_Tables_number   1
_chemical_formula_structural   Sc4Mn2Si7Ni16
_chemical_formula_sum   'Sc4 Mn2 Si7 Ni16'
_cell_volume   360.90923494
_cell_formula_units_Z   1
loop_
 _symmetry_equiv_pos_site_id
 _symmetry_equiv_pos_as_xyz
  1  'x, y, z'
loop_
 _atom_site_type_symbol
 _atom_site_label
 _atom_site_symmetry_multiplicity
 _atom_site_fract_x
 _atom_site_fract_y
 _atom_site_fract_z
 _atom_site_occupancy
  Sc  Sc0  1  0.200881  0.000000  0.200881  1
  Sc  Sc1  1  0.200881  0.401761  0.200881  1
  Sc  Sc2  1  0.799119  0.598240  0.799119  1
  Sc  Sc3  1  0.799120  0.000000  0.799120  1
  Mn  Mn4  1  0.797549  0.000000  0.202450  1
  Mn  Mn5  1  0.202450  0.000000  0.797549  1
  Si  Si6  1  0.500000  0.000000  0.000000  1
  Si  Si7  1  0.000000  0.500000  0.000000  1
  Si  Si8  1  0.500000  0.500000  0.000000  1
  Si  Si9  1  0.499999  0.000000  0.499999  1
  Si  Si10  1  0.000000  0.000000  0.500000  1
  Si  Si11  1  0.000000  0.500000  0.500000  1
  Si  Si12  1  0.500000  0.500000  0.500000  1
  Ni  Ni13  1  0.387522  0.766585  0.145646  1
  Ni  Ni14  1  0.503731  0.335427  0.167125  1
  Ni  Ni15  1  0.831696  0.335427  0.168303  1
  Ni  Ni16  1  0.831696  0.664572  0.168303  1
  Ni  Ni17  1  0.620938  0.233416  0.379063  1
  Ni  Ni18  1  0.145646  0.766585  0.387522  1
  Ni  Ni19  1  0.620938  0.766585  0.379063  1
  Ni  Ni20  1  0.832874  0.664572  0.496268  1
  Ni  Ni21  1  0.167125  0.335427  0.503731  1
  Ni  Ni22  1  0.854354  0.233416  0.612478  1
  Ni  Ni23  1  0.379063  0.233416  0.620938  1
  Ni  Ni24  1  0.379063  0.766585  0.620938  1
  Ni  Ni25  1  0.168303  0.335427  0.831696  1
  Ni  Ni26  1  0.168303  0.664572  0.831696  1
  Ni  Ni27  1  0.496268  0.664572  0.832874  1
  Ni  Ni28  1  0.612478  0.233416  0.854354  1
