# generated using pymatgen
data_Y2HoHf(Co5As3)4
_symmetry_space_group_name_H-M   'P 1'
_cell_length_a   3.77578200
_cell_length_b   12.16129568
_cell_length_c   10.66886600
_cell_angle_alpha   89.90447957
_cell_angle_beta   90.00000000
_cell_angle_gamma   90.00000000
_symmetry_Int_Tables_number   1
_chemical_formula_structural   Y2HoHf(Co5As3)4
_chemical_formula_sum   'Y2 Ho1 Hf1 Co20 As12'
_cell_volume   489.89658970
_cell_formula_units_Z   1
loop_
 _symmetry_equiv_pos_site_id
 _symmetry_equiv_pos_as_xyz
  1  'x, y, z'
loop_
 _atom_site_type_symbol
 _atom_site_label
 _atom_site_symmetry_multiplicity
 _atom_site_fract_x
 _atom_site_fract_y
 _atom_site_fract_z
 _atom_site_occupancy
  Y  Y0  1  0.250000  0.297039  0.917785  1
  Y  Y1  1  0.250000  0.798485  0.583163  1
  Ho  Ho2  1  0.750000  0.201737  0.417868  1
  Hf  Hf3  1  0.750000  0.698052  0.077890  1
  Co  Co4  1  0.750000  0.697452  0.381398  1
  Co  Co5  1  0.250000  0.303889  0.615550  1
  Co  Co6  1  0.250000  0.800070  0.889417  1
  Co  Co7  1  0.750000  0.195986  0.114965  1
  Co  Co8  1  0.750000  0.993389  0.214779  1
  Co  Co9  1  0.250000  0.006699  0.785803  1
  Co  Co10  1  0.250000  0.509893  0.713608  1
  Co  Co11  1  0.750000  0.493297  0.284298  1
  Co  Co12  1  0.750000  0.679193  0.784932  1
  Co  Co13  1  0.250000  0.322650  0.214803  1
  Co  Co14  1  0.250000  0.821246  0.282846  1
  Co  Co15  1  0.750000  0.178634  0.716867  1
  Co  Co16  1  0.750000  0.925880  0.973969  1
  Co  Co17  1  0.250000  0.064434  0.031063  1
  Co  Co18  1  0.250000  0.568890  0.467082  1
  Co  Co19  1  0.750000  0.432538  0.529292  1
  Co  Co20  1  0.750000  0.988963  0.592943  1
  Co  Co21  1  0.250000  0.012566  0.407502  1
  Co  Co22  1  0.250000  0.518193  0.092849  1
  Co  Co23  1  0.750000  0.491313  0.910133  1
  As  As24  1  0.750000  0.614208  0.584209  1
  As  As25  1  0.250000  0.386503  0.414041  1
  As  As26  1  0.250000  0.881410  0.086846  1
  As  As27  1  0.750000  0.109830  0.914876  1
  As  As28  1  0.750000  0.890875  0.399587  1
  As  As29  1  0.250000  0.110412  0.601077  1
  As  As30  1  0.250000  0.610714  0.900467  1
  As  As31  1  0.750000  0.390190  0.100301  1
  As  As32  1  0.750000  0.872034  0.770688  1
  As  As33  1  0.250000  0.129074  0.230289  1
  As  As34  1  0.250000  0.631812  0.265845  1
  As  As35  1  0.750000  0.372450  0.730969  1
