# generated using pymatgen
data_Cs6NdTe4Br
_symmetry_space_group_name_H-M   'P 1'
_cell_length_a   12.54944500
_cell_length_b   12.54944560
_cell_length_c   9.23124100
_cell_angle_alpha   90.00000000
_cell_angle_beta   90.00000000
_cell_angle_gamma   120.00000633
_symmetry_Int_Tables_number   1
_chemical_formula_structural   Cs6NdTe4Br
_chemical_formula_sum   'Cs12 Nd2 Te8 Br2'
_cell_volume   1259.04065264
_cell_formula_units_Z   2
loop_
 _symmetry_equiv_pos_site_id
 _symmetry_equiv_pos_as_xyz
  1  'x, y, z'
loop_
 _atom_site_type_symbol
 _atom_site_label
 _atom_site_symmetry_multiplicity
 _atom_site_fract_x
 _atom_site_fract_y
 _atom_site_fract_z
 _atom_site_occupancy
  Cs  Cs0  1  0.126726  0.873274  0.511659  1
  Cs  Cs1  1  0.746547  0.873274  0.511659  1
  Cs  Cs2  1  0.942507  0.471254  0.316602  1
  Cs  Cs3  1  0.528746  0.471254  0.316602  1
  Cs  Cs4  1  0.873274  0.746547  0.011659  1
  Cs  Cs5  1  0.253453  0.126726  0.011659  1
  Cs  Cs6  1  0.528746  0.057493  0.316602  1
  Cs  Cs7  1  0.126726  0.253453  0.511659  1
  Cs  Cs8  1  0.873274  0.126726  0.011659  1
  Cs  Cs9  1  0.057493  0.528746  0.816602  1
  Cs  Cs10  1  0.471254  0.942507  0.816602  1
  Cs  Cs11  1  0.471254  0.528746  0.816602  1
  Nd  Nd12  1  0.666667  0.333333  0.716464  1
  Nd  Nd13  1  0.333333  0.666667  0.216464  1
  Te  Te14  1  0.403399  0.201700  0.607440  1
  Te  Te15  1  0.596601  0.798300  0.107440  1
  Te  Te16  1  0.666667  0.333333  0.045590  1
  Te  Te17  1  0.798300  0.596601  0.607440  1
  Te  Te18  1  0.201700  0.403399  0.107440  1
  Te  Te19  1  0.333333  0.666667  0.545590  1
  Te  Te20  1  0.201700  0.798300  0.107440  1
  Te  Te21  1  0.798300  0.201700  0.607440  1
  Br  Br22  1  0.000000  0.000000  0.271444  1
  Br  Br23  1  0.000000  0.000000  0.771444  1
