# generated using pymatgen
data_KTa7S12
_symmetry_space_group_name_H-M   'P 1'
_cell_length_a   5.77024800
_cell_length_b   5.77024769
_cell_length_c   13.82581500
_cell_angle_alpha   90.00000000
_cell_angle_beta   90.00000000
_cell_angle_gamma   120.00000176
_symmetry_Int_Tables_number   1
_chemical_formula_structural   KTa7S12
_chemical_formula_sum   'K1 Ta7 S12'
_cell_volume   398.66701150
_cell_formula_units_Z   1
loop_
 _symmetry_equiv_pos_site_id
 _symmetry_equiv_pos_as_xyz
  1  'x, y, z'
loop_
 _atom_site_type_symbol
 _atom_site_label
 _atom_site_symmetry_multiplicity
 _atom_site_fract_x
 _atom_site_fract_y
 _atom_site_fract_z
 _atom_site_occupancy
  K  K0  1  0.333333  0.666667  0.250000  1
  Ta  Ta1  1  0.000000  0.000000  0.527768  1
  Ta  Ta2  1  0.000000  0.000000  0.972232  1
  Ta  Ta3  1  0.333333  0.666667  0.974007  1
  Ta  Ta4  1  0.666667  0.333333  0.974255  1
  Ta  Ta5  1  0.666667  0.333333  0.525745  1
  Ta  Ta6  1  0.333333  0.666667  0.525993  1
  Ta  Ta7  1  0.666667  0.333333  0.750000  1
  S  S8  1  0.331536  0.327124  0.413704  1
  S  S9  1  0.672876  0.004412  0.413704  1
  S  S10  1  0.995588  0.668464  0.413704  1
  S  S11  1  0.331476  0.335492  0.641357  1
  S  S12  1  0.004015  0.668524  0.641357  1
  S  S13  1  0.664508  0.995985  0.641357  1
  S  S14  1  0.664508  0.668524  0.858643  1
  S  S15  1  0.331476  0.995985  0.858643  1
  S  S16  1  0.004015  0.335492  0.858643  1
  S  S17  1  0.672876  0.668464  0.086296  1
  S  S18  1  0.995588  0.327124  0.086296  1
  S  S19  1  0.331536  0.004412  0.086296  1
