# generated using pymatgen
data_Tb2Sc3Sn4
_symmetry_space_group_name_H-M   'P 1'
_cell_length_a   7.70224200
_cell_length_b   7.97031400
_cell_length_c   14.85515600
_cell_angle_alpha   90.00000000
_cell_angle_beta   90.00000000
_cell_angle_gamma   90.00000000
_symmetry_Int_Tables_number   1
_chemical_formula_structural   Tb2Sc3Sn4
_chemical_formula_sum   'Tb8 Sc12 Sn16'
_cell_volume   911.94743874
_cell_formula_units_Z   4
loop_
 _symmetry_equiv_pos_site_id
 _symmetry_equiv_pos_as_xyz
  1  'x, y, z'
loop_
 _atom_site_type_symbol
 _atom_site_label
 _atom_site_symmetry_multiplicity
 _atom_site_fract_x
 _atom_site_fract_y
 _atom_site_fract_z
 _atom_site_occupancy
  Tb  Tb0  1  0.994254  0.177968  0.093822  1
  Tb  Tb1  1  0.005746  0.822032  0.906178  1
  Tb  Tb2  1  0.505746  0.677968  0.906178  1
  Tb  Tb3  1  0.005746  0.822032  0.593822  1
  Tb  Tb4  1  0.494254  0.322032  0.093822  1
  Tb  Tb5  1  0.994254  0.177968  0.406178  1
  Tb  Tb6  1  0.494254  0.322032  0.406178  1
  Tb  Tb7  1  0.505746  0.677968  0.593822  1
  Sc  Sc8  1  0.164547  0.496092  0.750000  1
  Sc  Sc9  1  0.835453  0.503908  0.250000  1
  Sc  Sc10  1  0.335453  0.996092  0.250000  1
  Sc  Sc11  1  0.664547  0.003908  0.750000  1
  Sc  Sc12  1  0.336419  0.161308  0.627513  1
  Sc  Sc13  1  0.663581  0.838692  0.372487  1
  Sc  Sc14  1  0.163581  0.661308  0.372487  1
  Sc  Sc15  1  0.663581  0.838692  0.127513  1
  Sc  Sc16  1  0.836419  0.338692  0.627513  1
  Sc  Sc17  1  0.336419  0.161308  0.872487  1
  Sc  Sc18  1  0.836419  0.338692  0.872487  1
  Sc  Sc19  1  0.163581  0.661308  0.127513  1
  Sn  Sn20  1  0.027102  0.123689  0.750000  1
  Sn  Sn21  1  0.972898  0.876311  0.250000  1
  Sn  Sn22  1  0.472898  0.623689  0.250000  1
  Sn  Sn23  1  0.527102  0.376311  0.750000  1
  Sn  Sn24  1  0.306991  0.849409  0.750000  1
  Sn  Sn25  1  0.693009  0.150591  0.250000  1
  Sn  Sn26  1  0.193009  0.349409  0.250000  1
  Sn  Sn27  1  0.806991  0.650591  0.750000  1
  Sn  Sn28  1  0.181185  0.457897  0.542478  1
  Sn  Sn29  1  0.818815  0.542103  0.457522  1
  Sn  Sn30  1  0.318815  0.957897  0.457522  1
  Sn  Sn31  1  0.818815  0.542103  0.042478  1
  Sn  Sn32  1  0.681185  0.042103  0.542478  1
  Sn  Sn33  1  0.181185  0.457897  0.957522  1
  Sn  Sn34  1  0.681185  0.042103  0.957522  1
  Sn  Sn35  1  0.318815  0.957897  0.042478  1
