# generated using pymatgen
data_K14Tl5V2InAs10
_symmetry_space_group_name_H-M   'P 1'
_cell_length_a   8.40073581
_cell_length_b   9.32041899
_cell_length_c   14.10031033
_cell_angle_alpha   86.34672047
_cell_angle_beta   81.50575343
_cell_angle_gamma   88.57920853
_symmetry_Int_Tables_number   1
_chemical_formula_structural   K14Tl5V2InAs10
_chemical_formula_sum   'K14 Tl5 V2 In1 As10'
_cell_volume   1089.56973319
_cell_formula_units_Z   1
loop_
 _symmetry_equiv_pos_site_id
 _symmetry_equiv_pos_as_xyz
  1  'x, y, z'
loop_
 _atom_site_type_symbol
 _atom_site_label
 _atom_site_symmetry_multiplicity
 _atom_site_fract_x
 _atom_site_fract_y
 _atom_site_fract_z
 _atom_site_occupancy
  K  K0  1  0.841438  0.351274  0.658123  1
  K  K1  1  0.823528  0.802648  0.134393  1
  K  K2  1  0.246612  0.016166  0.469274  1
  K  K3  1  0.270550  0.265452  0.247918  1
  K  K4  1  0.737693  0.491712  0.976537  1
  K  K5  1  0.256522  0.506740  0.023120  1
  K  K6  1  0.663919  0.087517  0.881196  1
  K  K7  1  0.756873  0.980632  0.529947  1
  K  K8  1  0.731942  0.733276  0.752227  1
  K  K9  1  0.337430  0.349581  0.608364  1
  K  K10  1  0.155074  0.650751  0.341442  1
  K  K11  1  0.171304  0.197791  0.864791  1
  K  K12  1  0.337907  0.909490  0.121016  1
  K  K13  1  0.653711  0.654463  0.389176  1
  Tl  Tl14  1  0.035285  0.826112  0.881101  1
  Tl  Tl15  1  0.967913  0.174838  0.118063  1
  Tl  Tl16  1  0.375156  0.972173  0.700503  1
  Tl  Tl17  1  0.095964  0.715775  0.613599  1
  Tl  Tl18  1  0.906937  0.288184  0.387380  1
  V  V19  1  0.353104  0.609855  0.777176  1
  V  V20  1  0.649304  0.388901  0.223004  1
  In  In21  1  0.635532  0.038660  0.298749  1
  As  As22  1  0.925778  0.460697  0.203548  1
  As  As23  1  0.623515  0.189322  0.120340  1
  As  As24  1  0.075082  0.540921  0.796051  1
  As  As25  1  0.562185  0.297048  0.388745  1
  As  As26  1  0.441406  0.698178  0.611750  1
  As  As27  1  0.009556  0.019446  0.696810  1
  As  As28  1  0.506118  0.410669  0.813980  1
  As  As29  1  0.491274  0.584033  0.185914  1
  As  As30  1  0.379355  0.804877  0.882469  1
  As  As31  1  0.982033  0.982816  0.303297  1
