# generated using pymatgen
data_Tb11Dy5(TmSn4)4
_symmetry_space_group_name_H-M   'P 1'
_cell_length_a   8.01854601
_cell_length_b   8.17537501
_cell_length_c   15.46656501
_cell_angle_alpha   90.00240933
_cell_angle_beta   90.00284811
_cell_angle_gamma   90.00553354
_symmetry_Int_Tables_number   1
_chemical_formula_structural   Tb11Dy5(TmSn4)4
_chemical_formula_sum   'Tb11 Dy5 Tm4 Sn16'
_cell_volume   1013.90479565
_cell_formula_units_Z   1
loop_
 _symmetry_equiv_pos_site_id
 _symmetry_equiv_pos_as_xyz
  1  'x, y, z'
loop_
 _atom_site_type_symbol
 _atom_site_label
 _atom_site_symmetry_multiplicity
 _atom_site_fract_x
 _atom_site_fract_y
 _atom_site_fract_z
 _atom_site_occupancy
  Tb  Tb0  1  0.133106  0.337130  0.377898  1
  Tb  Tb1  1  0.366909  0.837134  0.622092  1
  Tb  Tb2  1  0.866905  0.662866  0.877923  1
  Tb  Tb3  1  0.519859  0.320427  0.902680  1
  Tb  Tb4  1  0.019841  0.179557  0.597355  1
  Tb  Tb5  1  0.480156  0.679555  0.402641  1
  Tb  Tb6  1  0.980127  0.820456  0.097359  1
  Tb  Tb7  1  0.480122  0.679541  0.097328  1
  Tb  Tb8  1  0.980115  0.820485  0.402664  1
  Tb  Tb9  1  0.519879  0.320477  0.597329  1
  Tb  Tb10  1  0.019890  0.179532  0.902666  1
  Dy  Dy11  1  0.366846  0.837161  0.877915  1
  Dy  Dy12  1  0.866859  0.662825  0.622078  1
  Dy  Dy13  1  0.633141  0.162829  0.377904  1
  Dy  Dy14  1  0.133128  0.337176  0.122074  1
  Dy  Dy15  1  0.633122  0.162852  0.122108  1
  Tm  Tm16  1  0.198265  0.502731  0.750015  1
  Tm  Tm17  1  0.698264  0.997274  0.749990  1
  Tm  Tm18  1  0.801704  0.497218  0.249988  1
  Tm  Tm19  1  0.301778  0.002751  0.249969  1
  Sn  Sn20  1  0.293210  0.035982  0.042541  1
  Sn  Sn21  1  0.793052  0.464050  0.457483  1
  Sn  Sn22  1  0.706945  0.964052  0.542522  1
  Sn  Sn23  1  0.206953  0.535948  0.957480  1
  Sn  Sn24  1  0.706689  0.964163  0.957489  1
  Sn  Sn25  1  0.206724  0.535933  0.542597  1
  Sn  Sn26  1  0.293270  0.035937  0.457400  1
  Sn  Sn27  1  0.793175  0.463919  0.042628  1
  Sn  Sn28  1  0.563802  0.618331  0.749999  1
  Sn  Sn29  1  0.063803  0.881668  0.750009  1
  Sn  Sn30  1  0.436274  0.381594  0.249955  1
  Sn  Sn31  1  0.936107  0.118346  0.249963  1
  Sn  Sn32  1  0.328892  0.148388  0.750031  1
  Sn  Sn33  1  0.828900  0.351623  0.749970  1
  Sn  Sn34  1  0.671090  0.851697  0.249993  1
  Sn  Sn35  1  0.171097  0.648391  0.249965  1
