# generated using pymatgen
data_SmEr2Th3Si4
_symmetry_space_group_name_H-M   'P 1'
_cell_length_a   7.61459696
_cell_length_b   7.61459696
_cell_length_c   4.26921300
_cell_angle_alpha   90.00000000
_cell_angle_beta   90.00000000
_cell_angle_gamma   89.94260337
_symmetry_Int_Tables_number   1
_chemical_formula_structural   SmEr2Th3Si4
_chemical_formula_sum   'Sm1 Er2 Th3 Si4'
_cell_volume   247.53775449
_cell_formula_units_Z   1
loop_
 _symmetry_equiv_pos_site_id
 _symmetry_equiv_pos_as_xyz
  1  'x, y, z'
loop_
 _atom_site_type_symbol
 _atom_site_label
 _atom_site_symmetry_multiplicity
 _atom_site_fract_x
 _atom_site_fract_y
 _atom_site_fract_z
 _atom_site_occupancy
  Sm  Sm0  1  0.823346  0.676654  0.500000  1
  Er  Er1  1  0.999561  0.000721  0.000000  1
  Er  Er2  1  0.499279  0.500439  0.000000  1
  Th  Th3  1  0.678290  0.177993  0.500000  1
  Th  Th4  1  0.322007  0.821710  0.500000  1
  Th  Th5  1  0.177563  0.322437  0.500000  1
  Si  Si6  1  0.117079  0.616964  0.000000  1
  Si  Si7  1  0.883036  0.382921  0.000000  1
  Si  Si8  1  0.617279  0.882721  0.000000  1
  Si  Si9  1  0.382559  0.117441  0.000000  1
