# generated using pymatgen
data_Co2RuSe12
_symmetry_space_group_name_H-M   'P 1'
_cell_length_a   7.33400959
_cell_length_b   6.89620484
_cell_length_c   7.56307715
_cell_angle_alpha   104.51138624
_cell_angle_beta   94.76577423
_cell_angle_gamma   90.71692595
_symmetry_Int_Tables_number   1
_chemical_formula_structural   Co2RuSe12
_chemical_formula_sum   'Co2 Ru1 Se12'
_cell_volume   368.81279291
_cell_formula_units_Z   1
loop_
 _symmetry_equiv_pos_site_id
 _symmetry_equiv_pos_as_xyz
  1  'x, y, z'
loop_
 _atom_site_type_symbol
 _atom_site_label
 _atom_site_symmetry_multiplicity
 _atom_site_fract_x
 _atom_site_fract_y
 _atom_site_fract_z
 _atom_site_occupancy
  Co  Co0  1  0.026631  0.586420  0.302811  1
  Co  Co1  1  0.973334  0.413570  0.697185  1
  Ru  Ru2  1  0.999994  0.000001  0.000014  1
  Se  Se3  1  0.256316  0.528433  0.105554  1
  Se  Se4  1  0.830229  0.300386  0.141644  1
  Se  Se5  1  0.828001  0.781614  0.152418  1
  Se  Se6  1  0.241009  0.078544  0.255128  1
  Se  Se7  1  0.195831  0.403107  0.480886  1
  Se  Se8  1  0.231914  0.855144  0.455091  1
  Se  Se9  1  0.768082  0.144867  0.544911  1
  Se  Se10  1  0.804177  0.596895  0.519103  1
  Se  Se11  1  0.759006  0.921448  0.744874  1
  Se  Se12  1  0.172008  0.218411  0.847566  1
  Se  Se13  1  0.169774  0.699584  0.858374  1
  Se  Se14  1  0.743695  0.471577  0.894442  1
