# generated using pymatgen
data_YLu5ReBi2
_symmetry_space_group_name_H-M   'P 1'
_cell_length_a   8.16814500
_cell_length_b   8.12794285
_cell_length_c   4.30603900
_cell_angle_alpha   90.00000000
_cell_angle_beta   90.00000000
_cell_angle_gamma   120.16375726
_symmetry_Int_Tables_number   1
_chemical_formula_structural   YLu5ReBi2
_chemical_formula_sum   'Y1 Lu5 Re1 Bi2'
_cell_volume   247.16880719
_cell_formula_units_Z   1
loop_
 _symmetry_equiv_pos_site_id
 _symmetry_equiv_pos_as_xyz
  1  'x, y, z'
loop_
 _atom_site_type_symbol
 _atom_site_label
 _atom_site_symmetry_multiplicity
 _atom_site_fract_x
 _atom_site_fract_y
 _atom_site_fract_z
 _atom_site_occupancy
  Y  Y0  1  0.611701  0.000000  0.000000  1
  Lu  Lu1  1  0.231436  0.000000  0.500000  1
  Lu  Lu2  1  0.002149  0.231423  0.500000  1
  Lu  Lu3  1  0.770726  0.768577  0.500000  1
  Lu  Lu4  1  0.999740  0.618761  0.000000  1
  Lu  Lu5  1  0.380979  0.381239  0.000000  1
  Re  Re6  1  0.004087  0.000000  0.000000  1
  Bi  Bi7  1  0.332310  0.665440  0.500000  1
  Bi  Bi8  1  0.666872  0.334560  0.500000  1
