# generated using pymatgen
data_La6Mg2Cd21As
_symmetry_space_group_name_H-M   'P 1'
_cell_length_a   10.18582281
_cell_length_b   10.18582288
_cell_length_c   10.17850100
_cell_angle_alpha   60.02377263
_cell_angle_beta   60.02377239
_cell_angle_gamma   60.11112008
_symmetry_Int_Tables_number   1
_chemical_formula_structural   La6Mg2Cd21As
_chemical_formula_sum   'La6 Mg2 Cd21 As1'
_cell_volume   747.61958943
_cell_formula_units_Z   1
loop_
 _symmetry_equiv_pos_site_id
 _symmetry_equiv_pos_as_xyz
  1  'x, y, z'
loop_
 _atom_site_type_symbol
 _atom_site_label
 _atom_site_symmetry_multiplicity
 _atom_site_fract_x
 _atom_site_fract_y
 _atom_site_fract_z
 _atom_site_occupancy
  La  La0  1  0.789737  0.789737  0.210263  1
  La  La1  1  0.209432  0.790568  0.210837  1
  La  La2  1  0.790568  0.209432  0.210837  1
  La  La3  1  0.210263  0.210263  0.789737  1
  La  La4  1  0.790568  0.209432  0.789163  1
  La  La5  1  0.209432  0.790568  0.789163  1
  Mg  Mg6  1  0.500000  0.500000  0.000000  1
  Mg  Mg7  1  0.500000  0.500000  0.500000  1
  Cd  Cd8  1  0.831239  0.831239  0.505295  1
  Cd  Cd9  1  0.829109  0.505102  0.832894  1
  Cd  Cd10  1  0.505102  0.829109  0.832894  1
  Cd  Cd11  1  0.831239  0.831239  0.832228  1
  Cd  Cd12  1  0.168761  0.168761  0.494705  1
  Cd  Cd13  1  0.170891  0.494898  0.167106  1
  Cd  Cd14  1  0.494898  0.170891  0.167106  1
  Cd  Cd15  1  0.168761  0.168761  0.167772  1
  Cd  Cd16  1  0.620773  0.620773  0.134505  1
  Cd  Cd17  1  0.620591  0.135562  0.621922  1
  Cd  Cd18  1  0.135562  0.620591  0.621922  1
  Cd  Cd19  1  0.620773  0.620773  0.623949  1
  Cd  Cd20  1  0.379227  0.379227  0.865495  1
  Cd  Cd21  1  0.379409  0.864438  0.378078  1
  Cd  Cd22  1  0.864438  0.379409  0.378078  1
  Cd  Cd23  1  0.379227  0.379227  0.376051  1
  Cd  Cd24  1  0.000000  0.000000  0.500000  1
  Cd  Cd25  1  0.500000  0.000000  0.500000  1
  Cd  Cd26  1  0.000000  0.500000  0.500000  1
  Cd  Cd27  1  0.000000  0.500000  0.000000  1
  Cd  Cd28  1  0.500000  0.000000  0.000000  1
  As  As29  1  0.000000  0.000000  0.000000  1
