# generated using pymatgen
data_ZnF18
_symmetry_space_group_name_H-M   'P 1'
_cell_length_a   6.81812367
_cell_length_b   10.11311855
_cell_length_c   10.38995118
_cell_angle_alpha   92.06019367
_cell_angle_beta   95.69986481
_cell_angle_gamma   73.82670941
_symmetry_Int_Tables_number   1
_chemical_formula_structural   ZnF18
_chemical_formula_sum   'Zn2 F36'
_cell_volume   684.63238010
_cell_formula_units_Z   2
loop_
 _symmetry_equiv_pos_site_id
 _symmetry_equiv_pos_as_xyz
  1  'x, y, z'
loop_
 _atom_site_type_symbol
 _atom_site_label
 _atom_site_symmetry_multiplicity
 _atom_site_fract_x
 _atom_site_fract_y
 _atom_site_fract_z
 _atom_site_occupancy
  Zn  Zn0  1  0.681087  0.818759  0.826598  1
  Zn  Zn1  1  0.318913  0.181241  0.173402  1
  F  F2  1  0.331831  0.377514  0.896290  1
  F  F3  1  0.668169  0.622486  0.103710  1
  F  F4  1  0.298704  0.267212  0.584003  1
  F  F5  1  0.701296  0.732788  0.415997  1
  F  F6  1  0.908480  0.211690  0.828083  1
  F  F7  1  0.091520  0.788310  0.171917  1
  F  F8  1  0.679072  0.886393  0.000073  1
  F  F9  1  0.320928  0.113607  0.999927  1
  F  F10  1  0.853983  0.631459  0.862504  1
  F  F11  1  0.146017  0.368541  0.137496  1
  F  F12  1  0.457038  0.427437  0.818934  1
  F  F13  1  0.542962  0.572563  0.181066  1
  F  F14  1  0.703122  0.686595  0.687840  1
  F  F15  1  0.296878  0.313405  0.312160  1
  F  F16  1  0.753599  0.013062  0.522176  1
  F  F17  1  0.246401  0.986938  0.477824  1
  F  F18  1  0.286672  0.177045  0.683114  1
  F  F19  1  0.713328  0.822955  0.316886  1
  F  F20  1  0.815441  0.083774  0.633928  1
  F  F21  1  0.184559  0.916226  0.366072  1
  F  F22  1  0.877228  0.930913  0.883270  1
  F  F23  1  0.122772  0.069087  0.116730  1
  F  F24  1  0.899123  0.351574  0.804385  1
  F  F25  1  0.100877  0.648426  0.195615  1
  F  F26  1  0.267716  0.696406  0.933353  1
  F  F27  1  0.732284  0.303594  0.066647  1
  F  F28  1  0.462241  0.941353  0.737373  1
  F  F29  1  0.537759  0.058647  0.262627  1
  F  F30  1  0.109896  0.750782  0.573723  1
  F  F31  1  0.890104  0.249218  0.426277  1
  F  F32  1  0.157877  0.626171  0.645041  1
  F  F33  1  0.842123  0.373829  0.354959  1
  F  F34  1  0.305118  0.800497  0.856290  1
  F  F35  1  0.694882  0.199503  0.143710  1
  F  F36  1  0.514281  0.437534  0.533963  1
  F  F37  1  0.485719  0.562466  0.466037  1
