# generated using pymatgen
data_Nd3In3HgPd2
_symmetry_space_group_name_H-M   'P 1'
_cell_length_a   7.85993100
_cell_length_b   7.85993132
_cell_length_c   4.12655100
_cell_angle_alpha   90.00000000
_cell_angle_beta   90.00000000
_cell_angle_gamma   120.00000286
_symmetry_Int_Tables_number   1
_chemical_formula_structural   Nd3In3HgPd2
_chemical_formula_sum   'Nd3 In3 Hg1 Pd2'
_cell_volume   220.77775907
_cell_formula_units_Z   1
loop_
 _symmetry_equiv_pos_site_id
 _symmetry_equiv_pos_as_xyz
  1  'x, y, z'
loop_
 _atom_site_type_symbol
 _atom_site_label
 _atom_site_symmetry_multiplicity
 _atom_site_fract_x
 _atom_site_fract_y
 _atom_site_fract_z
 _atom_site_occupancy
  Nd  Nd0  1  0.983915  0.584414  0.000000  1
  Nd  Nd1  1  0.415586  0.399501  0.000000  1
  Nd  Nd2  1  0.600499  0.016085  0.000000  1
  In  In3  1  0.755696  0.748694  0.500000  1
  In  In4  1  0.992998  0.244304  0.500000  1
  In  In5  1  0.251306  0.007002  0.500000  1
  Hg  Hg6  1  0.333333  0.666667  0.500000  1
  Pd  Pd7  1  0.000000  0.000000  0.000000  1
  Pd  Pd8  1  0.666667  0.333333  0.500000  1
