# generated using pymatgen
data_YbU(SeO4)2
_symmetry_space_group_name_H-M   'P 1'
_cell_length_a   5.60113405
_cell_length_b   6.69981693
_cell_length_c   11.07283118
_cell_angle_alpha   104.30065891
_cell_angle_beta   93.22343230
_cell_angle_gamma   110.55723967
_symmetry_Int_Tables_number   1
_chemical_formula_structural   YbU(SeO4)2
_chemical_formula_sum   'Yb2 U2 Se4 O16'
_cell_volume   372.29975326
_cell_formula_units_Z   2
loop_
 _symmetry_equiv_pos_site_id
 _symmetry_equiv_pos_as_xyz
  1  'x, y, z'
loop_
 _atom_site_type_symbol
 _atom_site_label
 _atom_site_symmetry_multiplicity
 _atom_site_fract_x
 _atom_site_fract_y
 _atom_site_fract_z
 _atom_site_occupancy
  Yb  Yb0  1  0.669664  0.250200  0.438315  1
  Yb  Yb1  1  0.330335  0.749800  0.561685  1
  U  U2  1  0.166127  0.261976  0.170751  1
  U  U3  1  0.833874  0.738024  0.829250  1
  Se  Se4  1  0.316001  0.812244  0.126636  1
  Se  Se5  1  0.738917  0.705110  0.353412  1
  Se  Se6  1  0.261084  0.294890  0.646588  1
  Se  Se7  1  0.684001  0.187757  0.873364  1
  O  O8  1  0.111071  0.874194  0.029218  1
  O  O9  1  0.448881  0.351962  0.095459  1
  O  O10  1  0.107711  0.581046  0.161317  1
  O  O11  1  0.888172  0.177109  0.254242  1
  O  O12  1  0.330757  0.024847  0.256788  1
  O  O13  1  0.439728  0.481957  0.354584  1
  O  O14  1  0.929973  0.622272  0.437572  1
  O  O15  1  0.677517  0.908738  0.457254  1
  O  O16  1  0.322484  0.091263  0.542746  1
  O  O17  1  0.070028  0.377728  0.562428  1
  O  O18  1  0.560273  0.518042  0.645415  1
  O  O19  1  0.669244  0.975152  0.743212  1
  O  O20  1  0.111829  0.822891  0.745758  1
  O  O21  1  0.892290  0.418953  0.838683  1
  O  O22  1  0.551120  0.648038  0.904541  1
  O  O23  1  0.888928  0.125806  0.970782  1
