# generated using pymatgen
data_LaNd3RhAu3
_symmetry_space_group_name_H-M   'P 1'
_cell_length_a   4.79516500
_cell_length_b   5.78773481
_cell_length_c   7.50987685
_cell_angle_alpha   86.52219543
_cell_angle_beta   90.00000000
_cell_angle_gamma   90.00000000
_symmetry_Int_Tables_number   1
_chemical_formula_structural   LaNd3RhAu3
_chemical_formula_sum   'La1 Nd3 Rh1 Au3'
_cell_volume   208.03885219
_cell_formula_units_Z   1
loop_
 _symmetry_equiv_pos_site_id
 _symmetry_equiv_pos_as_xyz
  1  'x, y, z'
loop_
 _atom_site_type_symbol
 _atom_site_label
 _atom_site_symmetry_multiplicity
 _atom_site_fract_x
 _atom_site_fract_y
 _atom_site_fract_z
 _atom_site_occupancy
  La  La0  1  0.250000  0.377886  0.676634  1
  Nd  Nd1  1  0.250000  0.139121  0.192705  1
  Nd  Nd2  1  0.750000  0.652295  0.318548  1
  Nd  Nd3  1  0.750000  0.859815  0.807351  1
  Rh  Rh4  1  0.250000  0.826604  0.540525  1
  Au  Au5  1  0.250000  0.654594  0.041053  1
  Au  Au6  1  0.750000  0.143407  0.454188  1
  Au  Au7  1  0.750000  0.346280  0.968995  1
