# generated using pymatgen
data_TbTm11ZnCo4Bi
_symmetry_space_group_name_H-M   'P 1'
_cell_length_a   8.27124018
_cell_length_b   8.27124114
_cell_length_c   8.27269142
_cell_angle_alpha   109.81172704
_cell_angle_beta   111.34620846
_cell_angle_gamma   107.27412409
_symmetry_Int_Tables_number   1
_chemical_formula_structural   TbTm11ZnCo4Bi
_chemical_formula_sum   'Tb1 Tm11 Zn1 Co4 Bi1'
_cell_volume   435.16049479
_cell_formula_units_Z   1
loop_
 _symmetry_equiv_pos_site_id
 _symmetry_equiv_pos_as_xyz
  1  'x, y, z'
loop_
 _atom_site_type_symbol
 _atom_site_label
 _atom_site_symmetry_multiplicity
 _atom_site_fract_x
 _atom_site_fract_y
 _atom_site_fract_z
 _atom_site_occupancy
  Tb  Tb0  1  0.285233  0.183022  0.468255  1
  Tm  Tm1  1  0.714448  0.817790  0.532238  1
  Tm  Tm2  1  0.285752  0.817171  0.102923  1
  Tm  Tm3  1  0.714610  0.181996  0.896606  1
  Tm  Tm4  1  0.622211  0.314010  0.307849  1
  Tm  Tm5  1  0.378635  0.687293  0.692347  1
  Tm  Tm6  1  0.005054  0.313712  0.692347  1
  Tm  Tm7  1  0.993839  0.685638  0.307849  1
  Tm  Tm8  1  0.219258  0.426840  0.206575  1
  Tm  Tm9  1  0.781709  0.574491  0.793582  1
  Tm  Tm10  1  0.219091  0.011873  0.793582  1
  Tm  Tm11  1  0.779734  0.987317  0.206575  1
  Zn  Zn12  1  0.999250  0.999796  0.999046  1
  Co  Co13  1  0.999085  0.377001  0.376086  1
  Co  Co14  1  0.000362  0.623497  0.623859  1
  Co  Co15  1  0.387734  0.886211  0.500151  1
  Co  Co16  1  0.613940  0.112417  0.500151  1
  Bi  Bi17  1  0.500055  0.499924  0.999979  1
