# generated using pymatgen
data_Ce2Nd3GeBi3
_symmetry_space_group_name_H-M   'P 1'
_cell_length_a   9.75151700
_cell_length_b   9.75151723
_cell_length_c   6.51480300
_cell_angle_alpha   90.00000000
_cell_angle_beta   90.00000000
_cell_angle_gamma   119.99999583
_symmetry_Int_Tables_number   1
_chemical_formula_structural   Ce2Nd3GeBi3
_chemical_formula_sum   'Ce4 Nd6 Ge2 Bi6'
_cell_volume   536.50813589
_cell_formula_units_Z   2
loop_
 _symmetry_equiv_pos_site_id
 _symmetry_equiv_pos_as_xyz
  1  'x, y, z'
loop_
 _atom_site_type_symbol
 _atom_site_label
 _atom_site_symmetry_multiplicity
 _atom_site_fract_x
 _atom_site_fract_y
 _atom_site_fract_z
 _atom_site_occupancy
  Ce  Ce0  1  0.666667  0.333333  0.000000  1
  Ce  Ce1  1  0.333333  0.666667  0.000000  1
  Ce  Ce2  1  0.333333  0.666667  0.500000  1
  Ce  Ce3  1  0.666667  0.333333  0.500000  1
  Nd  Nd4  1  0.744018  0.744018  0.750000  1
  Nd  Nd5  1  0.255982  0.000000  0.750000  1
  Nd  Nd6  1  0.000000  0.255982  0.750000  1
  Nd  Nd7  1  0.255982  0.255982  0.250000  1
  Nd  Nd8  1  0.744018  0.000000  0.250000  1
  Nd  Nd9  1  0.000000  0.744018  0.250000  1
  Ge  Ge10  1  0.000000  0.000000  0.000000  1
  Ge  Ge11  1  0.000000  0.000000  0.500000  1
  Bi  Bi12  1  0.389123  0.389123  0.750000  1
  Bi  Bi13  1  0.610877  0.000000  0.750000  1
  Bi  Bi14  1  0.000000  0.610877  0.750000  1
  Bi  Bi15  1  0.610877  0.610877  0.250000  1
  Bi  Bi16  1  0.389123  0.000000  0.250000  1
  Bi  Bi17  1  0.000000  0.389123  0.250000  1
