# generated using pymatgen
data_In12TcIr3
_symmetry_space_group_name_H-M   'P 1'
_cell_length_a   7.12184131
_cell_length_b   7.12184131
_cell_length_c   7.37603800
_cell_angle_alpha   90.00000000
_cell_angle_beta   90.00000000
_cell_angle_gamma   90.19501282
_symmetry_Int_Tables_number   1
_chemical_formula_structural   In12TcIr3
_chemical_formula_sum   'In12 Tc1 Ir3'
_cell_volume   374.11508070
_cell_formula_units_Z   1
loop_
 _symmetry_equiv_pos_site_id
 _symmetry_equiv_pos_as_xyz
  1  'x, y, z'
loop_
 _atom_site_type_symbol
 _atom_site_label
 _atom_site_symmetry_multiplicity
 _atom_site_fract_x
 _atom_site_fract_y
 _atom_site_fract_z
 _atom_site_occupancy
  In  In0  1  0.346001  0.346001  0.259118  1
  In  In1  1  0.155041  0.848110  0.760722  1
  In  In2  1  0.155041  0.848110  0.239278  1
  In  In3  1  0.000221  0.497527  0.000000  1
  In  In4  1  0.848110  0.155041  0.239278  1
  In  In5  1  0.848110  0.155041  0.760722  1
  In  In6  1  0.497527  0.000221  0.000000  1
  In  In7  1  0.654537  0.654537  0.264523  1
  In  In8  1  0.654537  0.654537  0.735477  1
  In  In9  1  0.997829  0.506999  0.500000  1
  In  In10  1  0.346001  0.346001  0.740882  1
  In  In11  1  0.506999  0.997829  0.500000  1
  Tc  Tc12  1  0.152051  0.152051  0.000000  1
  Ir  Ir13  1  0.656593  0.341815  0.500000  1
  Ir  Ir14  1  0.341815  0.656593  0.500000  1
  Ir  Ir15  1  0.839587  0.839587  0.000000  1
