# generated using pymatgen
data_YEr3(B10Ir)2
_symmetry_space_group_name_H-M   'P 1'
_cell_length_a   4.16630400
_cell_length_b   5.67349916
_cell_length_c   11.32839932
_cell_angle_alpha   90.02707699
_cell_angle_beta   90.00000000
_cell_angle_gamma   90.00000000
_symmetry_Int_Tables_number   1
_chemical_formula_structural   YEr3(B10Ir)2
_chemical_formula_sum   'Y1 Er3 B20 Ir2'
_cell_volume   267.77526085
_cell_formula_units_Z   1
loop_
 _symmetry_equiv_pos_site_id
 _symmetry_equiv_pos_as_xyz
  1  'x, y, z'
loop_
 _atom_site_type_symbol
 _atom_site_label
 _atom_site_symmetry_multiplicity
 _atom_site_fract_x
 _atom_site_fract_y
 _atom_site_fract_z
 _atom_site_occupancy
  Y  Y0  1  0.500000  0.705041  0.134730  1
  Er  Er1  1  0.500000  0.205241  0.365646  1
  Er  Er2  1  0.500000  0.794622  0.634411  1
  Er  Er3  1  0.500000  0.294473  0.865603  1
  B  B4  1  0.000000  0.381608  0.042263  1
  B  B5  1  0.000000  0.618565  0.957323  1
  B  B6  1  0.000000  0.118568  0.542376  1
  B  B7  1  0.000000  0.881624  0.457739  1
  B  B8  1  0.000000  0.364334  0.197133  1
  B  B9  1  0.000000  0.635496  0.802800  1
  B  B10  1  0.000000  0.135492  0.697001  1
  B  B11  1  0.000000  0.864619  0.303106  1
  B  B12  1  0.000000  0.056504  0.193382  1
  B  B13  1  0.000000  0.943709  0.806457  1
  B  B14  1  0.000000  0.443646  0.693339  1
  B  B15  1  0.000000  0.556123  0.306905  1
  B  B16  1  0.301726  0.220203  0.119492  1
  B  B17  1  0.698199  0.779361  0.880317  1
  B  B18  1  0.301801  0.779361  0.880317  1
  B  B19  1  0.698188  0.279254  0.619514  1
  B  B20  1  0.698274  0.220203  0.119492  1
  B  B21  1  0.301749  0.720716  0.380872  1
  B  B22  1  0.698251  0.720716  0.380872  1
  B  B23  1  0.301812  0.279254  0.619514  1
  Ir  Ir24  1  0.000000  0.001288  0.999282  1
  Ir  Ir25  1  0.000000  0.499977  0.500116  1
