# generated using pymatgen
data_ErTm3Lu(ReO6)2
_symmetry_space_group_name_H-M   'P 1'
_cell_length_a   6.75095988
_cell_length_b   6.75096046
_cell_length_c   7.43102807
_cell_angle_alpha   73.79308792
_cell_angle_beta   73.79308512
_cell_angle_gamma   49.29896655
_symmetry_Int_Tables_number   1
_chemical_formula_structural   ErTm3Lu(ReO6)2
_chemical_formula_sum   'Er1 Tm3 Lu1 Re2 O12'
_cell_volume   244.34899398
_cell_formula_units_Z   1
loop_
 _symmetry_equiv_pos_site_id
 _symmetry_equiv_pos_as_xyz
  1  'x, y, z'
loop_
 _atom_site_type_symbol
 _atom_site_label
 _atom_site_symmetry_multiplicity
 _atom_site_fract_x
 _atom_site_fract_y
 _atom_site_fract_z
 _atom_site_occupancy
  Er  Er0  1  0.802156  0.802156  0.359553  1
  Tm  Tm1  1  0.197857  0.197857  0.640692  1
  Tm  Tm2  1  0.185114  0.185114  0.178254  1
  Tm  Tm3  1  0.814913  0.814913  0.821820  1
  Lu  Lu4  1  0.499926  0.499926  0.500164  1
  Re  Re5  1  0.285393  0.714786  0.999826  1
  Re  Re6  1  0.714786  0.285393  0.999826  1
  O  O7  1  0.413095  0.921802  0.912235  1
  O  O8  1  0.078846  0.586483  0.086814  1
  O  O9  1  0.586483  0.078846  0.086814  1
  O  O10  1  0.921802  0.413095  0.912235  1
  O  O11  1  0.598111  0.097082  0.572583  1
  O  O12  1  0.903899  0.399925  0.428698  1
  O  O13  1  0.399925  0.903899  0.428698  1
  O  O14  1  0.000847  0.000847  0.818679  1
  O  O15  1  0.999680  0.999680  0.180611  1
  O  O16  1  0.497632  0.497632  0.790640  1
  O  O17  1  0.502454  0.502454  0.209274  1
  O  O18  1  0.097082  0.598111  0.572583  1
