# generated using pymatgen
data_Rb6CdS4
_symmetry_space_group_name_H-M   'P 1'
_cell_length_a   10.45443700
_cell_length_b   10.45443723
_cell_length_c   8.12601700
_cell_angle_alpha   90.00000000
_cell_angle_beta   90.00000000
_cell_angle_gamma   120.00000244
_symmetry_Int_Tables_number   1
_chemical_formula_structural   Rb6CdS4
_chemical_formula_sum   'Rb12 Cd2 S8'
_cell_volume   769.14754249
_cell_formula_units_Z   2
loop_
 _symmetry_equiv_pos_site_id
 _symmetry_equiv_pos_as_xyz
  1  'x, y, z'
loop_
 _atom_site_type_symbol
 _atom_site_label
 _atom_site_symmetry_multiplicity
 _atom_site_fract_x
 _atom_site_fract_y
 _atom_site_fract_z
 _atom_site_occupancy
  Rb  Rb0  1  0.530439  0.060877  0.367099  1
  Rb  Rb1  1  0.469561  0.530439  0.867099  1
  Rb  Rb2  1  0.939123  0.469561  0.367099  1
  Rb  Rb3  1  0.530439  0.469561  0.367099  1
  Rb  Rb4  1  0.147273  0.852727  0.540876  1
  Rb  Rb5  1  0.294546  0.147273  0.040876  1
  Rb  Rb6  1  0.060877  0.530439  0.867099  1
  Rb  Rb7  1  0.852727  0.705454  0.040876  1
  Rb  Rb8  1  0.852727  0.147273  0.040876  1
  Rb  Rb9  1  0.705454  0.852727  0.540876  1
  Rb  Rb10  1  0.147273  0.294546  0.540876  1
  Rb  Rb11  1  0.469561  0.939123  0.867099  1
  Cd  Cd12  1  0.666667  0.333333  0.751457  1
  Cd  Cd13  1  0.333333  0.666667  0.251457  1
  S  S14  1  0.805429  0.194571  0.651840  1
  S  S15  1  0.610859  0.805429  0.151840  1
  S  S16  1  0.194571  0.389141  0.151840  1
  S  S17  1  0.805429  0.610859  0.651840  1
  S  S18  1  0.389141  0.194571  0.651840  1
  S  S19  1  0.194571  0.805429  0.151840  1
  S  S20  1  0.666667  0.333333  0.076793  1
  S  S21  1  0.333333  0.666667  0.576793  1
