# generated using pymatgen
data_Li3U5(Co4P3)4
_symmetry_space_group_name_H-M   'P 1'
_cell_length_a   12.01582100
_cell_length_b   12.01582141
_cell_length_c   3.72895700
_cell_angle_alpha   90.00000000
_cell_angle_beta   90.00000000
_cell_angle_gamma   119.99999611
_symmetry_Int_Tables_number   1
_chemical_formula_structural   Li3U5(Co4P3)4
_chemical_formula_sum   'Li3 U5 Co16 P12'
_cell_volume   466.25654274
_cell_formula_units_Z   1
loop_
 _symmetry_equiv_pos_site_id
 _symmetry_equiv_pos_as_xyz
  1  'x, y, z'
loop_
 _atom_site_type_symbol
 _atom_site_label
 _atom_site_symmetry_multiplicity
 _atom_site_fract_x
 _atom_site_fract_y
 _atom_site_fract_z
 _atom_site_occupancy
  Li  Li0  1  0.436311  0.436311  0.000000  1
  Li  Li1  1  0.563689  0.000000  0.000000  1
  Li  Li2  1  0.000000  0.563689  0.000000  1
  U  U3  1  0.666667  0.333333  0.000000  1
  U  U4  1  0.333333  0.666667  0.000000  1
  U  U5  1  0.815017  0.815017  0.500000  1
  U  U6  1  0.184983  0.000000  0.500000  1
  U  U7  1  0.000000  0.184983  0.500000  1
  Co  Co8  1  0.194855  0.376467  0.000000  1
  Co  Co9  1  0.181611  0.805145  0.000000  1
  Co  Co10  1  0.818389  0.623533  0.000000  1
  Co  Co11  1  0.805145  0.181611  0.000000  1
  Co  Co12  1  0.376467  0.194855  0.000000  1
  Co  Co13  1  0.127669  0.479481  0.500000  1
  Co  Co14  1  0.351812  0.872331  0.500000  1
  Co  Co15  1  0.520519  0.648188  0.500000  1
  Co  Co16  1  0.648188  0.520519  0.500000  1
  Co  Co17  1  0.872331  0.351812  0.500000  1
  Co  Co18  1  0.479481  0.127669  0.500000  1
  Co  Co19  1  0.000000  0.000000  0.000000  1
  Co  Co20  1  0.720027  0.000000  0.500000  1
  Co  Co21  1  0.000000  0.720027  0.500000  1
  Co  Co22  1  0.623533  0.818389  0.000000  1
  Co  Co23  1  0.279973  0.279973  0.500000  1
  P  P24  1  0.633002  0.633002  0.000000  1
  P  P25  1  0.366998  0.000000  0.000000  1
  P  P26  1  0.000000  0.366998  0.000000  1
  P  P27  1  0.479114  0.314827  0.500000  1
  P  P28  1  0.685173  0.164287  0.500000  1
  P  P29  1  0.835713  0.520886  0.500000  1
  P  P30  1  0.520886  0.835713  0.500000  1
  P  P31  1  0.164287  0.685173  0.500000  1
  P  P32  1  0.817982  0.000000  0.000000  1
  P  P33  1  0.000000  0.817982  0.000000  1
  P  P34  1  0.314827  0.479114  0.500000  1
  P  P35  1  0.182018  0.182018  0.000000  1
