# generated using pymatgen
data_Tb16In4OsRh3
_symmetry_space_group_name_H-M   'P 1'
_cell_length_a   9.67761437
_cell_length_b   9.70478348
_cell_length_c   9.67761300
_cell_angle_alpha   60.09256679
_cell_angle_beta   60.00000127
_cell_angle_gamma   60.09256440
_symmetry_Int_Tables_number   1
_chemical_formula_structural   Tb16In4OsRh3
_chemical_formula_sum   'Tb16 In4 Os1 Rh3'
_cell_volume   643.59644911
_cell_formula_units_Z   1
loop_
 _symmetry_equiv_pos_site_id
 _symmetry_equiv_pos_as_xyz
  1  'x, y, z'
loop_
 _atom_site_type_symbol
 _atom_site_label
 _atom_site_symmetry_multiplicity
 _atom_site_fract_x
 _atom_site_fract_y
 _atom_site_fract_z
 _atom_site_occupancy
  Tb  Tb0  1  0.811443  0.810167  0.189195  1
  Tb  Tb1  1  0.811467  0.190620  0.811467  1
  Tb  Tb2  1  0.186447  0.190620  0.811467  1
  Tb  Tb3  1  0.649862  0.050415  0.649862  1
  Tb  Tb4  1  0.063554  0.062454  0.436996  1
  Tb  Tb5  1  0.443560  0.435754  0.060343  1
  Tb  Tb6  1  0.650749  0.649927  0.650749  1
  Tb  Tb7  1  0.811467  0.190620  0.186447  1
  Tb  Tb8  1  0.189195  0.810167  0.811443  1
  Tb  Tb9  1  0.048574  0.649927  0.650749  1
  Tb  Tb10  1  0.436996  0.062454  0.063554  1
  Tb  Tb11  1  0.436996  0.062454  0.436996  1
  Tb  Tb12  1  0.060343  0.435754  0.060343  1
  Tb  Tb13  1  0.650749  0.649927  0.048574  1
  Tb  Tb14  1  0.189195  0.810167  0.189195  1
  Tb  Tb15  1  0.060343  0.435754  0.443560  1
  In  In16  1  0.417474  0.417410  0.417474  1
  In  In17  1  0.417474  0.417410  0.747640  1
  In  In18  1  0.417688  0.746934  0.417688  1
  In  In19  1  0.747640  0.417410  0.417474  1
  Os  Os20  1  0.857440  0.427680  0.857440  1
  Rh  Rh21  1  0.857729  0.858657  0.857729  1
  Rh  Rh22  1  0.857729  0.858657  0.425886  1
  Rh  Rh23  1  0.425886  0.858657  0.857729  1
