# generated using pymatgen
data_LaSm(SiOs)2
_symmetry_space_group_name_H-M   'P 1'
_cell_length_a   4.23122000
_cell_length_b   4.23122000
_cell_length_c   7.02973500
_cell_angle_alpha   90.00000000
_cell_angle_beta   90.00000000
_cell_angle_gamma   90.00000000
_symmetry_Int_Tables_number   1
_chemical_formula_structural   LaSm(SiOs)2
_chemical_formula_sum   'La1 Sm1 Si2 Os2'
_cell_volume   125.85491115
_cell_formula_units_Z   1
loop_
 _symmetry_equiv_pos_site_id
 _symmetry_equiv_pos_as_xyz
  1  'x, y, z'
loop_
 _atom_site_type_symbol
 _atom_site_label
 _atom_site_symmetry_multiplicity
 _atom_site_fract_x
 _atom_site_fract_y
 _atom_site_fract_z
 _atom_site_occupancy
  La  La0  1  0.000000  0.499999  0.326869  1
  Sm  Sm1  1  0.499999  0.000000  0.684234  1
  Si  Si2  1  0.499999  0.000000  0.173098  1
  Si  Si3  1  0.000000  0.499999  0.822765  1
  Os  Os4  1  0.000000  0.000000  0.996517  1
  Os  Os5  1  0.499999  0.499999  0.996517  1
