# generated using pymatgen
data_Pr4CdRu
_symmetry_space_group_name_H-M   'P 1'
_cell_length_a   10.00894470
_cell_length_b   10.00894479
_cell_length_c   10.00894500
_cell_angle_alpha   59.99999600
_cell_angle_beta   59.99999570
_cell_angle_gamma   59.99999934
_symmetry_Int_Tables_number   1
_chemical_formula_structural   Pr4CdRu
_chemical_formula_sum   'Pr16 Cd4 Ru4'
_cell_volume   709.00591592
_cell_formula_units_Z   4
loop_
 _symmetry_equiv_pos_site_id
 _symmetry_equiv_pos_as_xyz
  1  'x, y, z'
loop_
 _atom_site_type_symbol
 _atom_site_label
 _atom_site_symmetry_multiplicity
 _atom_site_fract_x
 _atom_site_fract_y
 _atom_site_fract_z
 _atom_site_occupancy
  Pr  Pr0  1  0.346197  0.346197  0.346197  1
  Pr  Pr1  1  0.346197  0.346197  0.961408  1
  Pr  Pr2  1  0.346197  0.961408  0.346197  1
  Pr  Pr3  1  0.961408  0.346197  0.346197  1
  Pr  Pr4  1  0.809915  0.190085  0.190085  1
  Pr  Pr5  1  0.190085  0.809915  0.809915  1
  Pr  Pr6  1  0.190085  0.809915  0.190085  1
  Pr  Pr7  1  0.809915  0.190085  0.809915  1
  Pr  Pr8  1  0.190085  0.190085  0.809915  1
  Pr  Pr9  1  0.809915  0.809915  0.190085  1
  Pr  Pr10  1  0.939007  0.560993  0.560993  1
  Pr  Pr11  1  0.560993  0.939007  0.939007  1
  Pr  Pr12  1  0.560993  0.939007  0.560993  1
  Pr  Pr13  1  0.939007  0.560993  0.939007  1
  Pr  Pr14  1  0.560993  0.560993  0.939007  1
  Pr  Pr15  1  0.939007  0.939007  0.560993  1
  Cd  Cd16  1  0.579258  0.579258  0.579258  1
  Cd  Cd17  1  0.579258  0.579258  0.262224  1
  Cd  Cd18  1  0.579258  0.262224  0.579258  1
  Cd  Cd19  1  0.262224  0.579258  0.579258  1
  Ru  Ru20  1  0.138014  0.138014  0.138014  1
  Ru  Ru21  1  0.138014  0.138014  0.585957  1
  Ru  Ru22  1  0.138014  0.585957  0.138014  1
  Ru  Ru23  1  0.585957  0.138014  0.138014  1
