# generated using pymatgen
data_Pr5CoBi2
_symmetry_space_group_name_H-M   'P 1'
_cell_length_a   8.40118400
_cell_length_b   9.15052200
_cell_length_c   12.92611400
_cell_angle_alpha   90.00000000
_cell_angle_beta   90.00000000
_cell_angle_gamma   90.00000000
_symmetry_Int_Tables_number   1
_chemical_formula_structural   Pr5CoBi2
_chemical_formula_sum   'Pr20 Co4 Bi8'
_cell_volume   993.69784480
_cell_formula_units_Z   4
loop_
 _symmetry_equiv_pos_site_id
 _symmetry_equiv_pos_as_xyz
  1  'x, y, z'
loop_
 _atom_site_type_symbol
 _atom_site_label
 _atom_site_symmetry_multiplicity
 _atom_site_fract_x
 _atom_site_fract_y
 _atom_site_fract_z
 _atom_site_occupancy
  Pr  Pr0  1  0.348308  0.750000  0.700707  1
  Pr  Pr1  1  0.651692  0.250000  0.299293  1
  Pr  Pr2  1  0.848308  0.250000  0.799293  1
  Pr  Pr3  1  0.151692  0.750000  0.200707  1
  Pr  Pr4  1  0.880975  0.750000  0.808528  1
  Pr  Pr5  1  0.119025  0.250000  0.191472  1
  Pr  Pr6  1  0.380975  0.250000  0.691472  1
  Pr  Pr7  1  0.619025  0.750000  0.308528  1
  Pr  Pr8  1  0.679816  0.536380  0.563307  1
  Pr  Pr9  1  0.320184  0.463620  0.436693  1
  Pr  Pr10  1  0.179816  0.463620  0.936693  1
  Pr  Pr11  1  0.320184  0.036380  0.436693  1
  Pr  Pr12  1  0.820184  0.536380  0.063307  1
  Pr  Pr13  1  0.679816  0.963620  0.563307  1
  Pr  Pr14  1  0.820184  0.963620  0.063307  1
  Pr  Pr15  1  0.179816  0.036380  0.936693  1
  Pr  Pr16  1  0.050447  0.750000  0.497670  1
  Pr  Pr17  1  0.949553  0.250000  0.502330  1
  Pr  Pr18  1  0.550447  0.250000  0.002330  1
  Pr  Pr19  1  0.449553  0.750000  0.997670  1
  Co  Co20  1  0.070232  0.750000  0.991564  1
  Co  Co21  1  0.929768  0.250000  0.008436  1
  Co  Co22  1  0.570232  0.250000  0.508436  1
  Co  Co23  1  0.429768  0.750000  0.491564  1
  Bi  Bi24  1  0.573791  0.508288  0.825573  1
  Bi  Bi25  1  0.426209  0.491712  0.174427  1
  Bi  Bi26  1  0.073791  0.491712  0.674427  1
  Bi  Bi27  1  0.426209  0.008288  0.174427  1
  Bi  Bi28  1  0.926209  0.508288  0.325573  1
  Bi  Bi29  1  0.573791  0.991712  0.825573  1
  Bi  Bi30  1  0.926209  0.991712  0.325573  1
  Bi  Bi31  1  0.073791  0.008288  0.674427  1
