# generated using pymatgen
data_Ce2GeRh5
_symmetry_space_group_name_H-M   'P 1'
_cell_length_a   4.13889700
_cell_length_b   5.82547700
_cell_length_c   11.33197500
_cell_angle_alpha   90.00000000
_cell_angle_beta   90.00000000
_cell_angle_gamma   90.00000000
_symmetry_Int_Tables_number   1
_chemical_formula_structural   Ce2GeRh5
_chemical_formula_sum   'Ce4 Ge2 Rh10'
_cell_volume   273.22580765
_cell_formula_units_Z   2
loop_
 _symmetry_equiv_pos_site_id
 _symmetry_equiv_pos_as_xyz
  1  'x, y, z'
loop_
 _atom_site_type_symbol
 _atom_site_label
 _atom_site_symmetry_multiplicity
 _atom_site_fract_x
 _atom_site_fract_y
 _atom_site_fract_z
 _atom_site_occupancy
  Ce  Ce0  1  0.500000  0.180282  0.640591  1
  Ce  Ce1  1  0.500000  0.819718  0.359409  1
  Ce  Ce2  1  0.500000  0.680282  0.859409  1
  Ce  Ce3  1  0.500000  0.319718  0.140591  1
  Ge  Ge4  1  0.000000  0.500000  0.500000  1
  Ge  Ge5  1  0.000000  0.000000  0.000000  1
  Rh  Rh6  1  0.500000  0.187171  0.895063  1
  Rh  Rh7  1  0.500000  0.812829  0.104937  1
  Rh  Rh8  1  0.500000  0.687171  0.604937  1
  Rh  Rh9  1  0.500000  0.312829  0.395063  1
  Rh  Rh10  1  0.000000  0.432831  0.741896  1
  Rh  Rh11  1  0.000000  0.567169  0.258104  1
  Rh  Rh12  1  0.000000  0.000000  0.500000  1
  Rh  Rh13  1  0.000000  0.500000  0.000000  1
  Rh  Rh14  1  0.000000  0.067169  0.241896  1
  Rh  Rh15  1  0.000000  0.932831  0.758104  1
