# generated using pymatgen
data_Hf3Al3IrPdPt
_symmetry_space_group_name_H-M   'P 1'
_cell_length_a   7.14592400
_cell_length_b   7.14592511
_cell_length_c   7.11375300
_cell_angle_alpha   90.00000000
_cell_angle_beta   90.00000000
_cell_angle_gamma   119.99999486
_symmetry_Int_Tables_number   1
_chemical_formula_structural   Hf3Al3IrPdPt
_chemical_formula_sum   'Hf6 Al6 Ir2 Pd2 Pt2'
_cell_volume   314.59099674
_cell_formula_units_Z   2
loop_
 _symmetry_equiv_pos_site_id
 _symmetry_equiv_pos_as_xyz
  1  'x, y, z'
loop_
 _atom_site_type_symbol
 _atom_site_label
 _atom_site_symmetry_multiplicity
 _atom_site_fract_x
 _atom_site_fract_y
 _atom_site_fract_z
 _atom_site_occupancy
  Hf  Hf0  1  0.585055  0.989448  0.750000  1
  Hf  Hf1  1  0.010552  0.595608  0.750000  1
  Hf  Hf2  1  0.404392  0.414945  0.750000  1
  Hf  Hf3  1  0.977032  0.582093  0.250000  1
  Hf  Hf4  1  0.605061  0.022968  0.250000  1
  Hf  Hf5  1  0.417907  0.394939  0.250000  1
  Al  Al6  1  0.739736  0.741108  0.999501  1
  Al  Al7  1  0.258892  0.998628  0.999501  1
  Al  Al8  1  0.001372  0.260264  0.999501  1
  Al  Al9  1  0.739736  0.741108  0.500499  1
  Al  Al10  1  0.258892  0.998628  0.500499  1
  Al  Al11  1  0.001372  0.260264  0.500499  1
  Ir  Ir12  1  0.666667  0.333333  0.980781  1
  Ir  Ir13  1  0.666667  0.333333  0.519219  1
  Pd  Pd14  1  0.000000  0.000000  0.750000  1
  Pd  Pd15  1  0.000000  0.000000  0.250000  1
  Pt  Pt16  1  0.333333  0.666667  0.470736  1
  Pt  Pt17  1  0.333333  0.666667  0.029265  1
