# generated using pymatgen
data_Ba6TbTl(BO3)6
_symmetry_space_group_name_H-M   'P 1'
_cell_length_a   8.22254085
_cell_length_b   8.22254212
_cell_length_c   8.22254203
_cell_angle_alpha   105.76297013
_cell_angle_beta   105.76297008
_cell_angle_gamma   105.76296686
_symmetry_Int_Tables_number   1
_chemical_formula_structural   Ba6TbTl(BO3)6
_chemical_formula_sum   'Ba6 Tb1 Tl1 B6 O18'
_cell_volume   477.74515749
_cell_formula_units_Z   1
loop_
 _symmetry_equiv_pos_site_id
 _symmetry_equiv_pos_as_xyz
  1  'x, y, z'
loop_
 _atom_site_type_symbol
 _atom_site_label
 _atom_site_symmetry_multiplicity
 _atom_site_fract_x
 _atom_site_fract_y
 _atom_site_fract_z
 _atom_site_occupancy
  Ba  Ba0  1  0.347455  0.731991  0.837152  1
  Ba  Ba1  1  0.837152  0.347455  0.731991  1
  Ba  Ba2  1  0.731991  0.837152  0.347455  1
  Ba  Ba3  1  0.652545  0.268009  0.162848  1
  Ba  Ba4  1  0.162848  0.652545  0.268009  1
  Ba  Ba5  1  0.268009  0.162848  0.652545  1
  Tb  Tb6  1  0.000000  0.000000  0.000000  1
  Tl  Tl7  1  0.500000  0.500000  0.500000  1
  B  B8  1  0.709075  0.623465  0.955605  1
  B  B9  1  0.955605  0.709075  0.623465  1
  B  B10  1  0.623465  0.955605  0.709075  1
  B  B11  1  0.044395  0.290925  0.376535  1
  B  B12  1  0.376535  0.044395  0.290925  1
  B  B13  1  0.290925  0.376535  0.044395  1
  O  O14  1  0.066853  0.806927  0.556777  1
  O  O15  1  0.556777  0.066853  0.806927  1
  O  O16  1  0.430997  0.502676  0.210176  1
  O  O17  1  0.502676  0.210176  0.430997  1
  O  O18  1  0.210176  0.430997  0.502676  1
  O  O19  1  0.789824  0.569003  0.497324  1
  O  O20  1  0.569003  0.497324  0.789824  1
  O  O21  1  0.497324  0.789824  0.569003  1
  O  O22  1  0.261727  0.191555  0.991755  1
  O  O23  1  0.191555  0.991755  0.261727  1
  O  O24  1  0.991755  0.261727  0.191555  1
  O  O25  1  0.738273  0.808445  0.008245  1
  O  O26  1  0.808445  0.008245  0.738273  1
  O  O27  1  0.008245  0.738273  0.808445  1
  O  O28  1  0.193073  0.443223  0.933147  1
  O  O29  1  0.443223  0.933147  0.193073  1
  O  O30  1  0.933147  0.193073  0.443223  1
  O  O31  1  0.806927  0.556777  0.066853  1
