# generated using pymatgen
data_CaNd4(TcO6)2
_symmetry_space_group_name_H-M   'P 1'
_cell_length_a   7.05679145
_cell_length_b   7.05679311
_cell_length_c   7.74418600
_cell_angle_alpha   73.96120845
_cell_angle_beta   73.96121302
_cell_angle_gamma   49.50423766
_symmetry_Int_Tables_number   1
_chemical_formula_structural   CaNd4(TcO6)2
_chemical_formula_sum   'Ca1 Nd4 Tc2 O12'
_cell_volume   279.36499646
_cell_formula_units_Z   1
loop_
 _symmetry_equiv_pos_site_id
 _symmetry_equiv_pos_as_xyz
  1  'x, y, z'
loop_
 _atom_site_type_symbol
 _atom_site_label
 _atom_site_symmetry_multiplicity
 _atom_site_fract_x
 _atom_site_fract_y
 _atom_site_fract_z
 _atom_site_occupancy
  Ca  Ca0  1  0.000000  0.000000  0.500000  1
  Nd  Nd1  1  0.305901  0.305901  0.361535  1
  Nd  Nd2  1  0.694099  0.694099  0.638465  1
  Nd  Nd3  1  0.683382  0.683382  0.180316  1
  Nd  Nd4  1  0.316618  0.316618  0.819684  1
  Tc  Tc5  1  0.783876  0.216124  0.000000  1
  Tc  Tc6  1  0.216124  0.783876  0.000000  1
  O  O7  1  0.095262  0.589785  0.579791  1
  O  O8  1  0.998545  0.998545  0.194782  1
  O  O9  1  0.410215  0.904738  0.420209  1
  O  O10  1  0.498804  0.498804  0.166938  1
  O  O11  1  0.091393  0.595488  0.075888  1
  O  O12  1  0.904738  0.410215  0.420209  1
  O  O13  1  0.001455  0.001455  0.805218  1
  O  O14  1  0.589785  0.095261  0.579791  1
  O  O15  1  0.501196  0.501196  0.833062  1
  O  O16  1  0.595488  0.091393  0.075888  1
  O  O17  1  0.404512  0.908607  0.924112  1
  O  O18  1  0.908607  0.404512  0.924112  1
