# generated using pymatgen
data_Tm4Lu16GaBi11
_symmetry_space_group_name_H-M   'P 1'
_cell_length_a   8.07780644
_cell_length_b   9.36450000
_cell_length_c   11.76781072
_cell_angle_alpha   90.00000000
_cell_angle_beta   89.71767017
_cell_angle_gamma   90.00000000
_symmetry_Int_Tables_number   1
_chemical_formula_structural   Tm4Lu16GaBi11
_chemical_formula_sum   'Tm4 Lu16 Ga1 Bi11'
_cell_volume   890.16074410
_cell_formula_units_Z   1
loop_
 _symmetry_equiv_pos_site_id
 _symmetry_equiv_pos_as_xyz
  1  'x, y, z'
loop_
 _atom_site_type_symbol
 _atom_site_label
 _atom_site_symmetry_multiplicity
 _atom_site_fract_x
 _atom_site_fract_y
 _atom_site_fract_z
 _atom_site_occupancy
  Tm  Tm0  1  0.195119  0.250000  0.777149  1
  Tm  Tm1  1  0.809616  0.750000  0.217061  1
  Tm  Tm2  1  0.312461  0.750000  0.282378  1
  Tm  Tm3  1  0.674066  0.250000  0.709814  1
  Lu  Lu4  1  0.036471  0.250000  0.509100  1
  Lu  Lu5  1  0.980229  0.750000  0.490928  1
  Lu  Lu6  1  0.477130  0.750000  0.010581  1
  Lu  Lu7  1  0.524609  0.250000  0.989626  1
  Lu  Lu8  1  0.353454  0.250000  0.293672  1
  Lu  Lu9  1  0.651021  0.750000  0.717787  1
  Lu  Lu10  1  0.148319  0.750000  0.780786  1
  Lu  Lu11  1  0.851583  0.250000  0.216794  1
  Lu  Lu12  1  0.192887  0.067895  0.060784  1
  Lu  Lu13  1  0.808175  0.932514  0.940659  1
  Lu  Lu14  1  0.309169  0.949283  0.558745  1
  Lu  Lu15  1  0.808175  0.567486  0.940659  1
  Lu  Lu16  1  0.682948  0.073667  0.444956  1
  Lu  Lu17  1  0.192887  0.432105  0.060784  1
  Lu  Lu18  1  0.682948  0.426333  0.444956  1
  Lu  Lu19  1  0.309169  0.550717  0.558745  1
  Ga  Ga20  1  0.404567  0.250000  0.539286  1
  Bi  Bi21  1  0.596868  0.750000  0.458752  1
  Bi  Bi22  1  0.098017  0.750000  0.042159  1
  Bi  Bi23  1  0.905639  0.250000  0.954116  1
  Bi  Bi24  1  0.060813  0.002411  0.323843  1
  Bi  Bi25  1  0.936549  0.998500  0.675503  1
  Bi  Bi26  1  0.437226  0.995175  0.824881  1
  Bi  Bi27  1  0.936549  0.501500  0.675503  1
  Bi  Bi28  1  0.562650  0.004897  0.175633  1
  Bi  Bi29  1  0.060813  0.497589  0.323843  1
  Bi  Bi30  1  0.562650  0.495103  0.175633  1
  Bi  Bi31  1  0.437226  0.504825  0.824881  1
