# generated using pymatgen
data_Er10Sn3SbOs2
_symmetry_space_group_name_H-M   'P 1'
_cell_length_a   7.71915000
_cell_length_b   9.04773647
_cell_length_c   12.13567011
_cell_angle_alpha   90.06646662
_cell_angle_beta   90.00000000
_cell_angle_gamma   90.00000000
_symmetry_Int_Tables_number   1
_chemical_formula_structural   Er10Sn3SbOs2
_chemical_formula_sum   'Er20 Sn6 Sb2 Os4'
_cell_volume   847.56476328
_cell_formula_units_Z   2
loop_
 _symmetry_equiv_pos_site_id
 _symmetry_equiv_pos_as_xyz
  1  'x, y, z'
loop_
 _atom_site_type_symbol
 _atom_site_label
 _atom_site_symmetry_multiplicity
 _atom_site_fract_x
 _atom_site_fract_y
 _atom_site_fract_z
 _atom_site_occupancy
  Er  Er0  1  0.158014  0.750500  0.214116  1
  Er  Er1  1  0.658014  0.249500  0.285884  1
  Er  Er2  1  0.842136  0.249030  0.784712  1
  Er  Er3  1  0.342136  0.750970  0.715288  1
  Er  Er4  1  0.453566  0.750609  0.996441  1
  Er  Er5  1  0.953566  0.249391  0.503559  1
  Er  Er6  1  0.547334  0.249339  0.002851  1
  Er  Er7  1  0.047334  0.750661  0.497149  1
  Er  Er8  1  0.625891  0.750997  0.303881  1
  Er  Er9  1  0.125891  0.249003  0.196119  1
  Er  Er10  1  0.374302  0.249892  0.697145  1
  Er  Er11  1  0.874302  0.750108  0.802855  1
  Er  Er12  1  0.822849  0.963709  0.070883  1
  Er  Er13  1  0.322849  0.036291  0.429117  1
  Er  Er14  1  0.175996  0.464026  0.928863  1
  Er  Er15  1  0.675996  0.535974  0.571137  1
  Er  Er16  1  0.176273  0.036739  0.929579  1
  Er  Er17  1  0.676273  0.963261  0.570421  1
  Er  Er18  1  0.823302  0.538057  0.068470  1
  Er  Er19  1  0.323302  0.461943  0.431530  1
  Sn  Sn20  1  0.927079  0.994988  0.330913  1
  Sn  Sn21  1  0.427079  0.005012  0.169087  1
  Sn  Sn22  1  0.072555  0.495239  0.668137  1
  Sn  Sn23  1  0.572555  0.504761  0.831863  1
  Sn  Sn24  1  0.072151  0.004870  0.669133  1
  Sn  Sn25  1  0.572151  0.995130  0.830867  1
  Sb  Sb26  1  0.929527  0.505790  0.329060  1
  Sb  Sb27  1  0.429527  0.494210  0.170940  1
  Os  Os28  1  0.424509  0.748625  0.491224  1
  Os  Os29  1  0.924509  0.251375  0.008776  1
  Os  Os30  1  0.574515  0.250205  0.508310  1
  Os  Os31  1  0.074515  0.749795  0.991690  1
