# generated using pymatgen
data_Ba3SmTmS6
_symmetry_space_group_name_H-M   'P 1'
_cell_length_a   8.55767283
_cell_length_b   8.55767074
_cell_length_c   8.55767200
_cell_angle_alpha   92.45145859
_cell_angle_beta   92.45145799
_cell_angle_gamma   92.45145775
_symmetry_Int_Tables_number   1
_chemical_formula_structural   Ba3SmTmS6
_chemical_formula_sum   'Ba6 Sm2 Tm2 S12'
_cell_volume   624.93895989
_cell_formula_units_Z   2
loop_
 _symmetry_equiv_pos_site_id
 _symmetry_equiv_pos_as_xyz
  1  'x, y, z'
loop_
 _atom_site_type_symbol
 _atom_site_label
 _atom_site_symmetry_multiplicity
 _atom_site_fract_x
 _atom_site_fract_y
 _atom_site_fract_z
 _atom_site_occupancy
  Ba  Ba0  1  0.374871  0.750000  0.125129  1
  Ba  Ba1  1  0.125129  0.374871  0.750000  1
  Ba  Ba2  1  0.750000  0.125129  0.374871  1
  Ba  Ba3  1  0.625129  0.250000  0.874871  1
  Ba  Ba4  1  0.874871  0.625129  0.250000  1
  Ba  Ba5  1  0.250000  0.874871  0.625129  1
  Sm  Sm6  1  0.250000  0.250000  0.250000  1
  Sm  Sm7  1  0.750000  0.750000  0.750000  1
  Tm  Tm8  1  0.500000  0.500000  0.500000  1
  Tm  Tm9  1  0.000000  0.000000  0.000000  1
  S  S10  1  0.541975  0.406349  0.201221  1
  S  S11  1  0.201221  0.541975  0.406349  1
  S  S12  1  0.406349  0.201221  0.541975  1
  S  S13  1  0.958025  0.298779  0.093651  1
  S  S14  1  0.093651  0.958025  0.298779  1
  S  S15  1  0.298779  0.093651  0.958025  1
  S  S16  1  0.458025  0.593651  0.798779  1
  S  S17  1  0.798779  0.458025  0.593651  1
  S  S18  1  0.593651  0.798779  0.458025  1
  S  S19  1  0.041975  0.701221  0.906349  1
  S  S20  1  0.701221  0.906349  0.041975  1
  S  S21  1  0.906349  0.041975  0.701221  1
