# generated using pymatgen
data_Y2InSi2(AsRh3)4
_symmetry_space_group_name_H-M   'P 1'
_cell_length_a   10.01388586
_cell_length_b   10.04862216
_cell_length_c   3.92959899
_cell_angle_alpha   90.00365078
_cell_angle_beta   89.92807141
_cell_angle_gamma   120.39747275
_symmetry_Int_Tables_number   1
_chemical_formula_structural   Y2InSi2(AsRh3)4
_chemical_formula_sum   'Y2 In1 Si2 As4 Rh12'
_cell_volume   341.06265932
_cell_formula_units_Z   1
loop_
 _symmetry_equiv_pos_site_id
 _symmetry_equiv_pos_as_xyz
  1  'x, y, z'
loop_
 _atom_site_type_symbol
 _atom_site_label
 _atom_site_symmetry_multiplicity
 _atom_site_fract_x
 _atom_site_fract_y
 _atom_site_fract_z
 _atom_site_occupancy
  Y  Y0  1  0.332277  0.663657  0.753098  1
  Y  Y1  1  0.995782  0.001185  0.248105  1
  In  In2  1  0.667048  0.333055  0.599082  1
  Si  Si3  1  0.956139  0.219850  0.747779  1
  Si  Si4  1  0.781075  0.738467  0.747630  1
  As  As5  1  0.258523  0.043272  0.746831  1
  As  As6  1  0.379313  0.450292  0.252461  1
  As  As7  1  0.554873  0.929141  0.252490  1
  As  As8  1  0.068137  0.620915  0.253694  1
  Rh  Rh9  1  0.740203  0.954920  0.750025  1
  Rh  Rh10  1  0.042725  0.780929  0.749977  1
  Rh  Rh11  1  0.214165  0.264741  0.750000  1
  Rh  Rh12  1  0.614800  0.724727  0.250224  1
  Rh  Rh13  1  0.278907  0.883185  0.250792  1
  Rh  Rh14  1  0.112166  0.388927  0.251135  1
  Rh  Rh15  1  0.958406  0.459615  0.755939  1
  Rh  Rh16  1  0.541503  0.498146  0.753733  1
  Rh  Rh17  1  0.503258  0.040078  0.753644  1
  Rh  Rh18  1  0.391634  0.210079  0.243858  1
  Rh  Rh19  1  0.795235  0.184519  0.246729  1
  Rh  Rh20  1  0.813832  0.610301  0.246957  1
