# generated using pymatgen
data_La3Pr6Dy7(CdIr)4
_symmetry_space_group_name_H-M   'P 1'
_cell_length_a   9.87199205
_cell_length_b   9.88185787
_cell_length_c   9.88185900
_cell_angle_alpha   59.99999956
_cell_angle_beta   59.96693501
_cell_angle_gamma   59.96693147
_symmetry_Int_Tables_number   1
_chemical_formula_structural   La3Pr6Dy7(CdIr)4
_chemical_formula_sum   'La3 Pr6 Dy7 Cd4 Ir4'
_cell_volume   681.31791812
_cell_formula_units_Z   1
loop_
 _symmetry_equiv_pos_site_id
 _symmetry_equiv_pos_as_xyz
  1  'x, y, z'
loop_
 _atom_site_type_symbol
 _atom_site_label
 _atom_site_symmetry_multiplicity
 _atom_site_fract_x
 _atom_site_fract_y
 _atom_site_fract_z
 _atom_site_occupancy
  La  La0  1  0.346983  0.349080  0.349080  1
  La  La1  1  0.346983  0.349080  0.954856  1
  La  La2  1  0.346983  0.954856  0.349080  1
  Pr  Pr3  1  0.939804  0.559776  0.559776  1
  Pr  Pr4  1  0.561644  0.938711  0.938711  1
  Pr  Pr5  1  0.561644  0.938711  0.560934  1
  Pr  Pr6  1  0.939804  0.559776  0.940643  1
  Pr  Pr7  1  0.561644  0.560934  0.938711  1
  Pr  Pr8  1  0.939804  0.940643  0.559776  1
  Dy  Dy9  1  0.955847  0.348051  0.348051  1
  Dy  Dy10  1  0.815522  0.185682  0.185682  1
  Dy  Dy11  1  0.185057  0.815132  0.815132  1
  Dy  Dy12  1  0.185057  0.815132  0.184678  1
  Dy  Dy13  1  0.815522  0.185682  0.813115  1
  Dy  Dy14  1  0.185057  0.184678  0.815132  1
  Dy  Dy15  1  0.815522  0.813115  0.185682  1
  Cd  Cd16  1  0.581515  0.578159  0.578159  1
  Cd  Cd17  1  0.581515  0.578159  0.262166  1
  Cd  Cd18  1  0.581515  0.262166  0.578159  1
  Cd  Cd19  1  0.262074  0.579308  0.579308  1
  Ir  Ir20  1  0.136565  0.142270  0.142270  1
  Ir  Ir21  1  0.136565  0.142270  0.578896  1
  Ir  Ir22  1  0.136565  0.578896  0.142270  1
  Ir  Ir23  1  0.580807  0.139731  0.139731  1
