# generated using pymatgen
data_K3CdFeO4
_symmetry_space_group_name_H-M   'P 1'
_cell_length_a   10.59395767
_cell_length_b   9.32127987
_cell_length_c   6.65027700
_cell_angle_alpha   81.24040159
_cell_angle_beta   60.41276424
_cell_angle_gamma   38.34684088
_symmetry_Int_Tables_number   1
_chemical_formula_structural   K3CdFeO4
_chemical_formula_sum   'K6 Cd2 Fe2 O8'
_cell_volume   318.95044786
_cell_formula_units_Z   2
loop_
 _symmetry_equiv_pos_site_id
 _symmetry_equiv_pos_as_xyz
  1  'x, y, z'
loop_
 _atom_site_type_symbol
 _atom_site_label
 _atom_site_symmetry_multiplicity
 _atom_site_fract_x
 _atom_site_fract_y
 _atom_site_fract_z
 _atom_site_occupancy
  K  K0  1  0.605363  0.605363  0.394637  1
  K  K1  1  0.250284  0.250284  0.249716  1
  K  K2  1  0.639374  0.639374  0.860626  1
  K  K3  1  0.855363  0.855363  0.644637  1
  K  K4  1  0.000284  0.000284  0.999716  1
  K  K5  1  0.389374  0.389374  0.610626  1
  Cd  Cd6  1  0.053224  0.053224  0.446776  1
  Cd  Cd7  1  0.803224  0.803224  0.196776  1
  Fe  Fe8  1  0.191973  0.191973  0.808027  1
  Fe  Fe9  1  0.441973  0.441973  0.058027  1
  O  O10  1  0.139147  0.621038  0.133074  1
  O  O11  1  0.636222  0.363375  0.703415  1
  O  O12  1  0.953012  0.546585  0.886625  1
  O  O13  1  0.546585  0.953012  0.613778  1
  O  O14  1  0.363375  0.636222  0.296988  1
  O  O15  1  0.621038  0.139147  0.106740  1
  O  O16  1  0.143260  0.116926  0.628962  1
  O  O17  1  0.116926  0.143260  0.110853  1
