# generated using pymatgen
data_Pr2Cu7Pd3
_symmetry_space_group_name_H-M   'P 1'
_cell_length_a   4.09592800
_cell_length_b   5.11276287
_cell_length_c   9.32333689
_cell_angle_alpha   88.23798385
_cell_angle_beta   90.00000000
_cell_angle_gamma   90.00000000
_symmetry_Int_Tables_number   1
_chemical_formula_structural   Pr2Cu7Pd3
_chemical_formula_sum   'Pr2 Cu7 Pd3'
_cell_volume   195.15242096
_cell_formula_units_Z   1
loop_
 _symmetry_equiv_pos_site_id
 _symmetry_equiv_pos_as_xyz
  1  'x, y, z'
loop_
 _atom_site_type_symbol
 _atom_site_label
 _atom_site_symmetry_multiplicity
 _atom_site_fract_x
 _atom_site_fract_y
 _atom_site_fract_z
 _atom_site_occupancy
  Pr  Pr0  1  0.000000  0.237245  0.754340  1
  Pr  Pr1  1  0.000000  0.762755  0.245660  1
  Cu  Cu2  1  0.000000  0.272549  0.079192  1
  Cu  Cu3  1  0.000000  0.747760  0.567841  1
  Cu  Cu4  1  0.000000  0.727451  0.920808  1
  Cu  Cu5  1  0.000000  0.252240  0.432159  1
  Cu  Cu6  1  0.500000  0.500000  0.500000  1
  Cu  Cu7  1  0.500000  0.500000  0.000000  1
  Cu  Cu8  1  0.500000  0.000000  0.500000  1
  Pd  Pd9  1  0.500000  0.734393  0.744462  1
  Pd  Pd10  1  0.500000  0.265607  0.255538  1
  Pd  Pd11  1  0.500000  0.000000  0.000000  1
