# generated using pymatgen
data_LaPr4Sm7(Si7Br3)2
_symmetry_space_group_name_H-M   'P 1'
_cell_length_a   4.05964100
_cell_length_b   11.74167950
_cell_length_c   16.41142646
_cell_angle_alpha   90.12942548
_cell_angle_beta   90.00000000
_cell_angle_gamma   90.00000000
_symmetry_Int_Tables_number   1
_chemical_formula_structural   LaPr4Sm7(Si7Br3)2
_chemical_formula_sum   'La1 Pr4 Sm7 Si14 Br6'
_cell_volume   782.28152642
_cell_formula_units_Z   1
loop_
 _symmetry_equiv_pos_site_id
 _symmetry_equiv_pos_as_xyz
  1  'x, y, z'
loop_
 _atom_site_type_symbol
 _atom_site_label
 _atom_site_symmetry_multiplicity
 _atom_site_fract_x
 _atom_site_fract_y
 _atom_site_fract_z
 _atom_site_occupancy
  La  La0  1  0.500000  0.065479  0.122086  1
  Pr  Pr1  1  0.000000  0.660773  0.000017  1
  Pr  Pr2  1  0.500000  0.067454  0.878355  1
  Pr  Pr3  1  0.000000  0.933424  0.620771  1
  Pr  Pr4  1  0.000000  0.933167  0.379942  1
  Sm  Sm5  1  0.500000  0.341657  0.499749  1
  Sm  Sm6  1  0.500000  0.361501  0.757032  1
  Sm  Sm7  1  0.000000  0.637421  0.741415  1
  Sm  Sm8  1  0.500000  0.361902  0.242507  1
  Sm  Sm9  1  0.000000  0.636835  0.259090  1
  Sm  Sm10  1  0.500000  0.359312  0.999556  1
  Sm  Sm11  1  0.000000  0.641656  0.500033  1
  Si  Si12  1  0.000000  0.156505  0.999594  1
  Si  Si13  1  0.500000  0.844859  0.500118  1
  Si  Si14  1  0.500000  0.569874  0.874404  1
  Si  Si15  1  0.000000  0.428659  0.623450  1
  Si  Si16  1  0.500000  0.570109  0.125497  1
  Si  Si17  1  0.000000  0.428413  0.376565  1
  Si  Si18  1  0.000000  0.257117  0.872319  1
  Si  Si19  1  0.500000  0.742853  0.626825  1
  Si  Si20  1  0.000000  0.257646  0.126558  1
  Si  Si21  1  0.500000  0.742879  0.373216  1
  Si  Si22  1  0.000000  0.460086  0.876484  1
  Si  Si23  1  0.500000  0.539125  0.622050  1
  Si  Si24  1  0.500000  0.538962  0.378063  1
  Si  Si25  1  0.000000  0.460426  0.123103  1
  Br  Br26  1  0.500000  0.114047  0.692038  1
  Br  Br27  1  0.000000  0.885443  0.807552  1
  Br  Br28  1  0.000000  0.141457  0.500282  1
  Br  Br29  1  0.500000  0.863036  0.999018  1
  Br  Br30  1  0.500000  0.114711  0.309272  1
  Br  Br31  1  0.000000  0.883208  0.193041  1
