# generated using pymatgen
data_Li6Si6Ir11Pt
_symmetry_space_group_name_H-M   'P 1'
_cell_length_a   4.13111100
_cell_length_b   5.74551800
_cell_length_c   12.33775800
_cell_angle_alpha   90.00014958
_cell_angle_beta   90.00033286
_cell_angle_gamma   90.00023933
_symmetry_Int_Tables_number   1
_chemical_formula_structural   Li6Si6Ir11Pt
_chemical_formula_sum   'Li6 Si6 Ir11 Pt1'
_cell_volume   292.84128331
_cell_formula_units_Z   1
loop_
 _symmetry_equiv_pos_site_id
 _symmetry_equiv_pos_as_xyz
  1  'x, y, z'
loop_
 _atom_site_type_symbol
 _atom_site_label
 _atom_site_symmetry_multiplicity
 _atom_site_fract_x
 _atom_site_fract_y
 _atom_site_fract_z
 _atom_site_occupancy
  Li  Li0  1  0.000001  0.500079  0.000000  1
  Li  Li1  1  0.499902  0.999758  0.166881  1
  Li  Li2  1  0.999921  0.499848  0.333489  1
  Li  Li3  1  0.500000  0.000696  0.500000  1
  Li  Li4  1  0.000079  0.499851  0.666510  1
  Li  Li5  1  0.500099  0.999760  0.833119  1
  Si  Si6  1  0.000001  0.989888  0.000000  1
  Si  Si7  1  0.499905  0.505315  0.170304  1
  Si  Si8  1  0.999906  0.999913  0.333583  1
  Si  Si9  1  0.500001  0.499543  0.500000  1
  Si  Si10  1  0.000092  0.999913  0.666416  1
  Si  Si11  1  0.500089  0.505314  0.829696  1
  Ir  Ir12  1  0.499999  0.747901  0.000000  1
  Ir  Ir13  1  0.999912  0.249912  0.166032  1
  Ir  Ir14  1  0.999913  0.749993  0.166964  1
  Ir  Ir15  1  0.499911  0.250052  0.333205  1
  Ir  Ir16  1  0.499921  0.751013  0.334343  1
  Ir  Ir17  1  0.999998  0.249874  0.500000  1
  Ir  Ir18  1  0.000002  0.750116  0.500000  1
  Ir  Ir19  1  0.500085  0.250053  0.666795  1
  Ir  Ir20  1  0.500081  0.751013  0.665657  1
  Ir  Ir21  1  0.000090  0.249912  0.833967  1
  Ir  Ir22  1  0.000083  0.749993  0.833036  1
  Pt  Pt23  1  0.500003  0.250294  0.000000  1
