# generated using pymatgen
data_Sc4FeNiRu6
_symmetry_space_group_name_H-M   'P 1'
_cell_length_a   5.13409885
_cell_length_b   5.00452710
_cell_length_c   8.60028700
_cell_angle_alpha   90.00000000
_cell_angle_beta   90.00000000
_cell_angle_gamma   120.22359800
_symmetry_Int_Tables_number   1
_chemical_formula_structural   Sc4FeNiRu6
_chemical_formula_sum   'Sc4 Fe1 Ni1 Ru6'
_cell_volume   190.93604097
_cell_formula_units_Z   1
loop_
 _symmetry_equiv_pos_site_id
 _symmetry_equiv_pos_as_xyz
  1  'x, y, z'
loop_
 _atom_site_type_symbol
 _atom_site_label
 _atom_site_symmetry_multiplicity
 _atom_site_fract_x
 _atom_site_fract_y
 _atom_site_fract_z
 _atom_site_occupancy
  Sc  Sc0  1  0.330562  0.663897  0.433489  1
  Sc  Sc1  1  0.666427  0.334640  0.565554  1
  Sc  Sc2  1  0.666427  0.334640  0.934446  1
  Sc  Sc3  1  0.330562  0.663897  0.066511  1
  Fe  Fe4  1  0.166899  0.333476  0.750000  1
  Ni  Ni5  1  0.338117  0.169583  0.250000  1
  Ru  Ru6  1  0.172356  0.821955  0.750000  1
  Ru  Ru7  1  0.831321  0.660751  0.250000  1
  Ru  Ru8  1  0.657907  0.827274  0.750000  1
  Ru  Ru9  1  0.004195  0.007004  0.000249  1
  Ru  Ru10  1  0.831029  0.175879  0.250000  1
  Ru  Ru11  1  0.004195  0.007004  0.499751  1
