# generated using pymatgen
data_Zr10BiPb7
_symmetry_space_group_name_H-M   'P 1'
_cell_length_a   9.02113600
_cell_length_b   9.00983764
_cell_length_c   6.06865800
_cell_angle_alpha   90.00000000
_cell_angle_beta   90.00000000
_cell_angle_gamma   120.04149074
_symmetry_Int_Tables_number   1
_chemical_formula_structural   Zr10BiPb7
_chemical_formula_sum   'Zr10 Bi1 Pb7'
_cell_volume   426.99202638
_cell_formula_units_Z   1
loop_
 _symmetry_equiv_pos_site_id
 _symmetry_equiv_pos_as_xyz
  1  'x, y, z'
loop_
 _atom_site_type_symbol
 _atom_site_label
 _atom_site_symmetry_multiplicity
 _atom_site_fract_x
 _atom_site_fract_y
 _atom_site_fract_z
 _atom_site_occupancy
  Zr  Zr0  1  0.666628  0.333315  0.999380  1
  Zr  Zr1  1  0.333313  0.666684  0.999380  1
  Zr  Zr2  1  0.283277  0.000000  0.250001  1
  Zr  Zr3  1  0.000258  0.283461  0.250001  1
  Zr  Zr4  1  0.716798  0.716539  0.250001  1
  Zr  Zr5  1  0.666628  0.333315  0.500620  1
  Zr  Zr6  1  0.333313  0.666684  0.500620  1
  Zr  Zr7  1  0.716586  0.000000  0.750000  1
  Zr  Zr8  1  0.283754  0.283440  0.750000  1
  Zr  Zr9  1  0.000316  0.716560  0.750000  1
  Bi  Bi10  1  0.614883  0.000000  0.250001  1
  Pb  Pb11  1  0.000195  0.000000  0.999663  1
  Pb  Pb12  1  0.384224  0.384093  0.250001  1
  Pb  Pb13  1  0.000132  0.615908  0.250001  1
  Pb  Pb14  1  0.000195  0.000000  0.500337  1
  Pb  Pb15  1  0.383612  0.000000  0.750000  1
  Pb  Pb16  1  0.000114  0.384340  0.750000  1
  Pb  Pb17  1  0.615775  0.615661  0.750000  1
