# generated using pymatgen
data_NaGd3(NiB10)2
_symmetry_space_group_name_H-M   'P 1'
_cell_length_a   4.16863000
_cell_length_b   5.57078654
_cell_length_c   11.14673991
_cell_angle_alpha   89.82500950
_cell_angle_beta   90.00000000
_cell_angle_gamma   90.00000000
_symmetry_Int_Tables_number   1
_chemical_formula_structural   NaGd3(NiB10)2
_chemical_formula_sum   'Na1 Gd3 Ni2 B20'
_cell_volume   258.85449409
_cell_formula_units_Z   1
loop_
 _symmetry_equiv_pos_site_id
 _symmetry_equiv_pos_as_xyz
  1  'x, y, z'
loop_
 _atom_site_type_symbol
 _atom_site_label
 _atom_site_symmetry_multiplicity
 _atom_site_fract_x
 _atom_site_fract_y
 _atom_site_fract_z
 _atom_site_occupancy
  Na  Na0  1  0.500000  0.197824  0.366759  1
  Gd  Gd1  1  0.500000  0.815976  0.631602  1
  Gd  Gd2  1  0.500000  0.315007  0.861912  1
  Gd  Gd3  1  0.500000  0.688433  0.144200  1
  Ni  Ni4  1  0.000000  0.999171  0.999334  1
  Ni  Ni5  1  0.000000  0.500252  0.500397  1
  B  B6  1  0.000000  0.372368  0.040711  1
  B  B7  1  0.000000  0.625305  0.958697  1
  B  B8  1  0.000000  0.124931  0.541816  1
  B  B9  1  0.000000  0.874285  0.457327  1
  B  B10  1  0.000000  0.337021  0.198146  1
  B  B11  1  0.000000  0.659313  0.801516  1
  B  B12  1  0.000000  0.159959  0.698277  1
  B  B13  1  0.000000  0.837461  0.302003  1
  B  B14  1  0.000000  0.027837  0.185666  1
  B  B15  1  0.000000  0.970482  0.812940  1
  B  B16  1  0.000000  0.470256  0.686723  1
  B  B17  1  0.000000  0.526484  0.313173  1
  B  B18  1  0.300853  0.198939  0.113752  1
  B  B19  1  0.699135  0.800004  0.885195  1
  B  B20  1  0.300865  0.800004  0.885195  1
  B  B21  1  0.700482  0.300569  0.613302  1
  B  B22  1  0.699147  0.198939  0.113752  1
  B  B23  1  0.298973  0.699304  0.387152  1
  B  B24  1  0.701027  0.699304  0.387152  1
  B  B25  1  0.299518  0.300569  0.613302  1
