# generated using pymatgen
data_ErBiI18
_symmetry_space_group_name_H-M   'P 1'
_cell_length_a   10.42360232
_cell_length_b   10.44655935
_cell_length_c   10.40958902
_cell_angle_alpha   88.43924492
_cell_angle_beta   88.47587381
_cell_angle_gamma   88.25081830
_symmetry_Int_Tables_number   1
_chemical_formula_structural   ErBiI18
_chemical_formula_sum   'Er1 Bi1 I18'
_cell_volume   1132.18310438
_cell_formula_units_Z   1
loop_
 _symmetry_equiv_pos_site_id
 _symmetry_equiv_pos_as_xyz
  1  'x, y, z'
loop_
 _atom_site_type_symbol
 _atom_site_label
 _atom_site_symmetry_multiplicity
 _atom_site_fract_x
 _atom_site_fract_y
 _atom_site_fract_z
 _atom_site_occupancy
  Er  Er0  1  0.500000  0.500000  0.500000  1
  Bi  Bi1  1  0.000000  0.000000  0.000000  1
  I  I2  1  0.788899  0.465880  0.501559  1
  I  I3  1  0.500302  0.787884  0.464879  1
  I  I4  1  0.466094  0.501648  0.789337  1
  I  I5  1  0.211101  0.534120  0.498441  1
  I  I6  1  0.499698  0.212116  0.535121  1
  I  I7  1  0.533906  0.498352  0.210663  1
  I  I8  1  0.897775  0.378516  0.748819  1
  I  I9  1  0.746774  0.896135  0.378882  1
  I  I10  1  0.379122  0.747630  0.897647  1
  I  I11  1  0.102225  0.621484  0.251181  1
  I  I12  1  0.253226  0.103865  0.621118  1
  I  I13  1  0.620878  0.252370  0.102353  1
  I  I14  1  0.015318  0.978981  0.700077  1
  I  I15  1  0.700936  0.014924  0.976856  1
  I  I16  1  0.976869  0.701944  0.012429  1
  I  I17  1  0.984682  0.021019  0.299923  1
  I  I18  1  0.299064  0.985076  0.023144  1
  I  I19  1  0.023131  0.298056  0.987571  1
