# generated using pymatgen
data_Pu6Sc2Hg3Bi7
_symmetry_space_group_name_H-M   'P 1'
_cell_length_a   9.47053000
_cell_length_b   9.47052951
_cell_length_c   6.46123800
_cell_angle_alpha   90.00000000
_cell_angle_beta   90.00000000
_cell_angle_gamma   120.00000172
_symmetry_Int_Tables_number   1
_chemical_formula_structural   Pu6Sc2Hg3Bi7
_chemical_formula_sum   'Pu6 Sc2 Hg3 Bi7'
_cell_volume   501.87424412
_cell_formula_units_Z   1
loop_
 _symmetry_equiv_pos_site_id
 _symmetry_equiv_pos_as_xyz
  1  'x, y, z'
loop_
 _atom_site_type_symbol
 _atom_site_label
 _atom_site_symmetry_multiplicity
 _atom_site_fract_x
 _atom_site_fract_y
 _atom_site_fract_z
 _atom_site_occupancy
  Pu  Pu0  1  0.992173  0.614340  0.255897  1
  Pu  Pu1  1  0.385660  0.377834  0.255897  1
  Pu  Pu2  1  0.385660  0.007827  0.744103  1
  Pu  Pu3  1  0.622166  0.614340  0.744103  1
  Pu  Pu4  1  0.622166  0.007827  0.255897  1
  Pu  Pu5  1  0.992173  0.377834  0.744103  1
  Sc  Sc6  1  0.000000  0.000000  0.000000  1
  Sc  Sc7  1  0.000000  0.000000  0.500000  1
  Hg  Hg8  1  0.333333  0.666667  0.500000  1
  Hg  Hg9  1  0.666667  0.333333  0.000000  1
  Hg  Hg10  1  0.333333  0.666667  0.000000  1
  Bi  Bi11  1  0.006310  0.278408  0.246404  1
  Bi  Bi12  1  0.272098  0.278408  0.753596  1
  Bi  Bi13  1  0.721592  0.993690  0.753596  1
  Bi  Bi14  1  0.006310  0.727902  0.753596  1
  Bi  Bi15  1  0.721592  0.727902  0.246404  1
  Bi  Bi16  1  0.272098  0.993690  0.246404  1
  Bi  Bi17  1  0.666667  0.333333  0.500000  1
