# generated using pymatgen
data_Dy2Y5Sn23Os6
_symmetry_space_group_name_H-M   'P 1'
_cell_length_a   9.87009129
_cell_length_b   9.87308862
_cell_length_c   10.13878559
_cell_angle_alpha   89.94782077
_cell_angle_beta   90.05830641
_cell_angle_gamma   119.98548698
_symmetry_Int_Tables_number   1
_chemical_formula_structural   Dy2Y5Sn23Os6
_chemical_formula_sum   'Dy2 Y5 Sn23 Os6'
_cell_volume   855.76396923
_cell_formula_units_Z   1
loop_
 _symmetry_equiv_pos_site_id
 _symmetry_equiv_pos_as_xyz
  1  'x, y, z'
loop_
 _atom_site_type_symbol
 _atom_site_label
 _atom_site_symmetry_multiplicity
 _atom_site_fract_x
 _atom_site_fract_y
 _atom_site_fract_z
 _atom_site_occupancy
  Dy  Dy0  1  0.030273  0.515136  0.302013  1
  Dy  Dy1  1  0.484878  0.969736  0.302009  1
  Y  Y2  1  0.000019  0.999980  0.999990  1
  Y  Y3  1  0.484484  0.515532  0.302468  1
  Y  Y4  1  0.968955  0.484464  0.697584  1
  Y  Y5  1  0.515522  0.031032  0.697583  1
  Y  Y6  1  0.515516  0.484471  0.697535  1
  Sn  Sn7  1  0.999986  0.000009  0.500001  1
  Sn  Sn8  1  0.117350  0.882603  0.275715  1
  Sn  Sn9  1  0.765176  0.882529  0.275492  1
  Sn  Sn10  1  0.117419  0.234774  0.275534  1
  Sn  Sn11  1  0.882837  0.117201  0.724428  1
  Sn  Sn12  1  0.234701  0.117390  0.724566  1
  Sn  Sn13  1  0.882684  0.765393  0.724516  1
  Sn  Sn14  1  0.349612  0.999870  0.000000  1
  Sn  Sn15  1  0.650458  0.650437  0.000096  1
  Sn  Sn16  1  0.000080  0.349683  0.000110  1
  Sn  Sn17  1  0.349542  0.349560  0.000069  1
  Sn  Sn18  1  0.000111  0.650379  0.000008  1
  Sn  Sn19  1  0.650332  0.999939  0.000113  1
  Sn  Sn20  1  0.780637  0.560744  0.462158  1
  Sn  Sn21  1  0.780426  0.219641  0.462217  1
  Sn  Sn22  1  0.439301  0.219427  0.462149  1
  Sn  Sn23  1  0.219324  0.439217  0.537710  1
  Sn  Sn24  1  0.219549  0.780357  0.537544  1
  Sn  Sn25  1  0.560734  0.780607  0.537706  1
  Sn  Sn26  1  0.666669  0.333342  0.175078  1
  Sn  Sn27  1  0.333339  0.666644  0.824852  1
  Sn  Sn28  1  0.666691  0.333310  0.871849  1
  Sn  Sn29  1  0.333104  0.666869  0.128592  1
  Os  Os30  1  0.170030  0.829980  0.797988  1
  Os  Os31  1  0.659924  0.829999  0.798086  1
  Os  Os32  1  0.170009  0.340081  0.798090  1
  Os  Os33  1  0.829818  0.170177  0.202166  1
  Os  Os34  1  0.340243  0.169733  0.201991  1
  Os  Os35  1  0.830265  0.659753  0.201993  1
