# generated using pymatgen
data_Y11HoZnGaCo4
_symmetry_space_group_name_H-M   'P 1'
_cell_length_a   8.31718238
_cell_length_b   8.31718143
_cell_length_c   8.33344787
_cell_angle_alpha   111.92731217
_cell_angle_beta   109.41168570
_cell_angle_gamma   107.02782813
_symmetry_Int_Tables_number   1
_chemical_formula_structural   Y11HoZnGaCo4
_chemical_formula_sum   'Y11 Ho1 Zn1 Ga1 Co4'
_cell_volume   443.41412982
_cell_formula_units_Z   1
loop_
 _symmetry_equiv_pos_site_id
 _symmetry_equiv_pos_as_xyz
  1  'x, y, z'
loop_
 _atom_site_type_symbol
 _atom_site_label
 _atom_site_symmetry_multiplicity
 _atom_site_fract_x
 _atom_site_fract_y
 _atom_site_fract_z
 _atom_site_occupancy
  Y  Y0  1  0.957548  0.262530  0.695768  1
  Y  Y1  1  0.042018  0.736584  0.304589  1
  Y  Y2  1  0.673356  0.862135  0.188600  1
  Y  Y3  1  0.326465  0.515246  0.188600  1
  Y  Y4  1  0.327316  0.138174  0.811653  1
  Y  Y5  1  0.673479  0.484335  0.811653  1
  Y  Y6  1  0.568004  0.262571  0.304589  1
  Y  Y7  1  0.433238  0.738220  0.695768  1
  Y  Y8  1  0.179297  0.780230  0.959527  1
  Y  Y9  1  0.820486  0.780339  0.600826  1
  Y  Y10  1  0.179236  0.219907  0.399141  1
  Ho  Ho11  1  0.821208  0.219944  0.041152  1
  Zn  Zn12  1  0.000001  0.499532  0.499533  1
  Ga  Ga13  1  0.499842  0.999821  0.499663  1
  Co  Co14  1  0.112580  0.114413  0.999662  1
  Co  Co15  1  0.885249  0.887082  0.999662  1
  Co  Co16  1  0.663518  0.499132  0.162650  1
  Co  Co17  1  0.337160  0.499806  0.836966  1
