# generated using pymatgen
data_Ba4Sb3PPt4
_symmetry_space_group_name_H-M   'P 1'
_cell_length_a   7.03487422
_cell_length_b   7.03487422
_cell_length_c   7.03487422
_cell_angle_alpha   91.04123105
_cell_angle_beta   91.04123105
_cell_angle_gamma   91.04123105
_symmetry_Int_Tables_number   1
_chemical_formula_structural   Ba4Sb3PPt4
_chemical_formula_sum   'Ba4 Sb3 P1 Pt4'
_cell_volume   347.97751120
_cell_formula_units_Z   1
loop_
 _symmetry_equiv_pos_site_id
 _symmetry_equiv_pos_as_xyz
  1  'x, y, z'
loop_
 _atom_site_type_symbol
 _atom_site_label
 _atom_site_symmetry_multiplicity
 _atom_site_fract_x
 _atom_site_fract_y
 _atom_site_fract_z
 _atom_site_occupancy
  Ba  Ba0  1  0.623004  0.369212  0.859055  1
  Ba  Ba1  1  0.369212  0.859055  0.623004  1
  Ba  Ba2  1  0.136100  0.136100  0.136100  1
  Ba  Ba3  1  0.859055  0.623004  0.369212  1
  Sb  Sb4  1  0.573614  0.921035  0.083774  1
  Sb  Sb5  1  0.083774  0.573614  0.921035  1
  Sb  Sb6  1  0.921035  0.083774  0.573614  1
  P  P7  1  0.419046  0.419046  0.419046  1
  Pt  Pt8  1  0.183999  0.354980  0.629314  1
  Pt  Pt9  1  0.629314  0.183999  0.354980  1
  Pt  Pt10  1  0.846869  0.846869  0.846869  1
  Pt  Pt11  1  0.354980  0.629314  0.183999  1
