# generated using pymatgen
data_Tb5DyMn3(Co5P4)3
_symmetry_space_group_name_H-M   'P 1'
_cell_length_a   3.71367900
_cell_length_b   10.58628004
_cell_length_c   12.19218904
_cell_angle_alpha   90.00952797
_cell_angle_beta   90.00000000
_cell_angle_gamma   90.00000000
_symmetry_Int_Tables_number   1
_chemical_formula_structural   Tb5DyMn3(Co5P4)3
_chemical_formula_sum   'Tb5 Dy1 Mn3 Co15 P12'
_cell_volume   479.32427251
_cell_formula_units_Z   1
loop_
 _symmetry_equiv_pos_site_id
 _symmetry_equiv_pos_as_xyz
  1  'x, y, z'
loop_
 _atom_site_type_symbol
 _atom_site_label
 _atom_site_symmetry_multiplicity
 _atom_site_fract_x
 _atom_site_fract_y
 _atom_site_fract_z
 _atom_site_occupancy
  Tb  Tb0  1  0.000000  0.499892  0.523380  1
  Tb  Tb1  1  0.500000  0.000127  0.477106  1
  Tb  Tb2  1  0.500000  0.818283  0.204878  1
  Tb  Tb3  1  0.000000  0.680609  0.795786  1
  Tb  Tb4  1  0.000000  0.319363  0.795700  1
  Dy  Dy5  1  0.500000  0.181871  0.204876  1
  Mn  Mn6  1  0.500000  0.499886  0.154418  1
  Mn  Mn7  1  0.000000  0.000033  0.841368  1
  Mn  Mn8  1  0.000000  0.499830  0.989250  1
  Co  Co9  1  0.500000  0.499967  0.699709  1
  Co  Co10  1  0.000000  0.000395  0.297647  1
  Co  Co11  1  0.500000  0.000140  0.013383  1
  Co  Co12  1  0.500000  0.330470  0.994673  1
  Co  Co13  1  0.500000  0.669385  0.994499  1
  Co  Co14  1  0.000000  0.165001  0.005123  1
  Co  Co15  1  0.000000  0.835162  0.004914  1
  Co  Co16  1  0.500000  0.295870  0.430247  1
  Co  Co17  1  0.500000  0.704035  0.430443  1
  Co  Co18  1  0.000000  0.203503  0.569872  1
  Co  Co19  1  0.000000  0.796526  0.569977  1
  Co  Co20  1  0.500000  0.880126  0.709624  1
  Co  Co21  1  0.500000  0.119908  0.709583  1
  Co  Co22  1  0.000000  0.620782  0.291601  1
  Co  Co23  1  0.000000  0.378815  0.291432  1
  P  P24  1  0.500000  0.499961  0.883197  1
  P  P25  1  0.000000  0.000361  0.117124  1
  P  P26  1  0.500000  0.500039  0.345742  1
  P  P27  1  0.000000  0.000000  0.655416  1
  P  P28  1  0.500000  0.309762  0.615966  1
  P  P29  1  0.500000  0.690200  0.616033  1
  P  P30  1  0.000000  0.189467  0.384104  1
  P  P31  1  0.000000  0.810540  0.384547  1
  P  P32  1  0.500000  0.847470  0.893339  1
  P  P33  1  0.500000  0.152583  0.893262  1
  P  P34  1  0.000000  0.654810  0.105756  1
  P  P35  1  0.000000  0.344829  0.106024  1
