# generated using pymatgen
data_Dy4Ho3Co6Sn23
_symmetry_space_group_name_H-M   'P 1'
_cell_length_a   9.70599700
_cell_length_b   9.70599678
_cell_length_c   9.96525100
_cell_angle_alpha   90.00000000
_cell_angle_beta   90.00000000
_cell_angle_gamma   119.99999736
_symmetry_Int_Tables_number   1
_chemical_formula_structural   Dy4Ho3Co6Sn23
_chemical_formula_sum   'Dy4 Ho3 Co6 Sn23'
_cell_volume   813.01616501
_cell_formula_units_Z   1
loop_
 _symmetry_equiv_pos_site_id
 _symmetry_equiv_pos_as_xyz
  1  'x, y, z'
loop_
 _atom_site_type_symbol
 _atom_site_label
 _atom_site_symmetry_multiplicity
 _atom_site_fract_x
 _atom_site_fract_y
 _atom_site_fract_z
 _atom_site_occupancy
  Dy  Dy0  1  0.000000  0.000000  0.000090  1
  Dy  Dy1  1  0.521583  0.478417  0.693395  1
  Dy  Dy2  1  0.521583  0.043165  0.693395  1
  Dy  Dy3  1  0.956835  0.478417  0.693395  1
  Ho  Ho4  1  0.042711  0.521356  0.306398  1
  Ho  Ho5  1  0.478644  0.957289  0.306398  1
  Ho  Ho6  1  0.478644  0.521356  0.306398  1
  Co  Co7  1  0.167566  0.832434  0.803150  1
  Co  Co8  1  0.167566  0.335133  0.803150  1
  Co  Co9  1  0.664867  0.832434  0.803150  1
  Co  Co10  1  0.335318  0.167659  0.197037  1
  Co  Co11  1  0.832341  0.664682  0.197037  1
  Co  Co12  1  0.832341  0.167659  0.197037  1
  Sn  Sn13  1  0.666667  0.333333  0.181857  1
  Sn  Sn14  1  0.666667  0.333333  0.882933  1
  Sn  Sn15  1  0.333333  0.666667  0.118048  1
  Sn  Sn16  1  0.345764  0.345795  0.000102  1
  Sn  Sn17  1  0.000032  0.654236  0.000102  1
  Sn  Sn18  1  0.654205  0.999968  0.000102  1
  Sn  Sn19  1  0.654205  0.654236  0.000102  1
  Sn  Sn20  1  0.333333  0.666667  0.818282  1
  Sn  Sn21  1  0.437034  0.218518  0.450981  1
  Sn  Sn22  1  0.218541  0.781459  0.548369  1
  Sn  Sn23  1  0.218541  0.437080  0.548369  1
  Sn  Sn24  1  0.562920  0.781459  0.548369  1
  Sn  Sn25  1  0.118106  0.881894  0.274293  1
  Sn  Sn26  1  0.781482  0.562966  0.450981  1
  Sn  Sn27  1  0.781482  0.218518  0.450981  1
  Sn  Sn28  1  0.345764  0.999968  0.000102  1
  Sn  Sn29  1  0.118106  0.236212  0.274293  1
  Sn  Sn30  1  0.763788  0.881894  0.274293  1
  Sn  Sn31  1  0.235677  0.117838  0.725819  1
  Sn  Sn32  1  0.882162  0.764323  0.725819  1
  Sn  Sn33  1  0.882162  0.117838  0.725819  1
  Sn  Sn34  1  0.000000  0.000000  0.499861  1
  Sn  Sn35  1  0.000032  0.345795  0.000102  1
