# generated using pymatgen
data_Tb5Dy11In4Ru3Rh
_symmetry_space_group_name_H-M   'P 1'
_cell_length_a   9.65968875
_cell_length_b   9.68060068
_cell_length_c   9.69691321
_cell_angle_alpha   59.93004145
_cell_angle_beta   59.85713661
_cell_angle_gamma   59.81491535
_symmetry_Int_Tables_number   1
_chemical_formula_structural   Tb5Dy11In4Ru3Rh
_chemical_formula_sum   'Tb5 Dy11 In4 Ru3 Rh1'
_cell_volume   639.25478932
_cell_formula_units_Z   1
loop_
 _symmetry_equiv_pos_site_id
 _symmetry_equiv_pos_as_xyz
  1  'x, y, z'
loop_
 _atom_site_type_symbol
 _atom_site_label
 _atom_site_symmetry_multiplicity
 _atom_site_fract_x
 _atom_site_fract_y
 _atom_site_fract_z
 _atom_site_occupancy
  Tb  Tb0  1  0.442166  0.060215  0.437963  1
  Tb  Tb1  1  0.060185  0.440981  0.057586  1
  Tb  Tb2  1  0.652677  0.650733  0.044920  1
  Tb  Tb3  1  0.190438  0.809629  0.193060  1
  Tb  Tb4  1  0.059225  0.441363  0.441909  1
  Dy  Dy5  1  0.808382  0.808789  0.191406  1
  Dy  Dy6  1  0.809646  0.192051  0.806737  1
  Dy  Dy7  1  0.190485  0.194717  0.807423  1
  Dy  Dy8  1  0.652297  0.044285  0.651790  1
  Dy  Dy9  1  0.057628  0.056464  0.443058  1
  Dy  Dy10  1  0.442174  0.437085  0.059995  1
  Dy  Dy11  1  0.652457  0.650706  0.651751  1
  Dy  Dy12  1  0.809634  0.192141  0.191522  1
  Dy  Dy13  1  0.190658  0.809276  0.806651  1
  Dy  Dy14  1  0.042597  0.652150  0.652876  1
  Dy  Dy15  1  0.442486  0.060532  0.059103  1
  In  In16  1  0.418187  0.417755  0.417645  1
  In  In17  1  0.418256  0.417532  0.747203  1
  In  In18  1  0.417187  0.748239  0.417403  1
  In  In19  1  0.748720  0.416687  0.417506  1
  Ru  Ru20  1  0.857900  0.418097  0.861569  1
  Ru  Ru21  1  0.858621  0.861072  0.862635  1
  Ru  Ru22  1  0.858217  0.860523  0.418258  1
  Rh  Rh23  1  0.419778  0.858981  0.860030  1
