# generated using pymatgen
data_Pr8Tm(IO8)3
_symmetry_space_group_name_H-M   'P 1'
_cell_length_a   5.53637783
_cell_length_b   9.50844534
_cell_length_c   10.39046300
_cell_angle_alpha   89.24969088
_cell_angle_beta   90.04658070
_cell_angle_gamma   90.45501249
_symmetry_Int_Tables_number   1
_chemical_formula_structural   Pr8Tm(IO8)3
_chemical_formula_sum   'Pr8 Tm1 I3 O24'
_cell_volume   546.91406434
_cell_formula_units_Z   1
loop_
 _symmetry_equiv_pos_site_id
 _symmetry_equiv_pos_as_xyz
  1  'x, y, z'
loop_
 _atom_site_type_symbol
 _atom_site_label
 _atom_site_symmetry_multiplicity
 _atom_site_fract_x
 _atom_site_fract_y
 _atom_site_fract_z
 _atom_site_occupancy
  Pr  Pr0  1  0.034758  0.219190  0.138141  1
  Pr  Pr1  1  0.459847  0.762078  0.635774  1
  Pr  Pr2  1  0.969086  0.710985  0.373924  1
  Pr  Pr3  1  0.523725  0.293490  0.847208  1
  Pr  Pr4  1  0.041157  0.119348  0.541744  1
  Pr  Pr5  1  0.471018  0.892452  0.039768  1
  Pr  Pr6  1  0.985669  0.604265  0.952085  1
  Pr  Pr7  1  0.520382  0.407884  0.467092  1
  Tm  Tm8  1  0.033200  0.487913  0.647533  1
  I  I9  1  0.545969  0.001932  0.353731  1
  I  I10  1  0.955725  0.000206  0.860426  1
  I  I11  1  0.463304  0.503671  0.145369  1
  O  O12  1  0.440936  0.149439  0.457331  1
  O  O13  1  0.056714  0.859926  0.983991  1
  O  O14  1  0.572565  0.647396  0.029611  1
  O  O15  1  0.903068  0.334182  0.506453  1
  O  O16  1  0.718898  0.388296  0.083106  1
  O  O17  1  0.753414  0.618544  0.548517  1
  O  O18  1  0.281262  0.897060  0.428422  1
  O  O19  1  0.211039  0.111464  0.938040  1
  O  O20  1  0.264566  0.414567  0.013163  1
  O  O21  1  0.252383  0.602931  0.502405  1
  O  O22  1  0.745914  0.924096  0.487498  1
  O  O23  1  0.752483  0.084612  0.990934  1
  O  O24  1  0.200697  0.629038  0.176605  1
  O  O25  1  0.320932  0.322529  0.660757  1
  O  O26  1  0.815781  0.117424  0.307732  1
  O  O27  1  0.697185  0.872227  0.827433  1
  O  O28  1  0.350760  0.055376  0.208902  1
  O  O29  1  0.157499  0.948799  0.724792  1
  O  O30  1  0.659170  0.559219  0.281076  1
  O  O31  1  0.799496  0.460270  0.811221  1
  O  O32  1  0.326641  0.364886  0.255689  1
  O  O33  1  0.224418  0.635818  0.776905  1
  O  O34  1  0.655799  0.856910  0.246477  1
  O  O35  1  0.834543  0.141575  0.750145  1
