# generated using pymatgen
data_Sm5Dy7Fe2Br17
_symmetry_space_group_name_H-M   'P 1'
_cell_length_a   9.30568152
_cell_length_b   11.15461518
_cell_length_c   11.19594618
_cell_angle_alpha   93.13449644
_cell_angle_beta   105.14005763
_cell_angle_gamma   114.11512172
_symmetry_Int_Tables_number   1
_chemical_formula_structural   Sm5Dy7Fe2Br17
_chemical_formula_sum   'Sm5 Dy7 Fe2 Br17'
_cell_volume   1006.58547037
_cell_formula_units_Z   1
loop_
 _symmetry_equiv_pos_site_id
 _symmetry_equiv_pos_as_xyz
  1  'x, y, z'
loop_
 _atom_site_type_symbol
 _atom_site_label
 _atom_site_symmetry_multiplicity
 _atom_site_fract_x
 _atom_site_fract_y
 _atom_site_fract_z
 _atom_site_occupancy
  Sm  Sm0  1  0.060157  0.515569  0.320988  1
  Sm  Sm1  1  0.985895  0.807862  0.581941  1
  Sm  Sm2  1  0.639911  0.238465  0.285474  1
  Sm  Sm3  1  0.016761  0.188807  0.422543  1
  Sm  Sm4  1  0.224957  0.671612  0.988215  1
  Dy  Dy5  1  0.258242  0.989855  0.892363  1
  Dy  Dy6  1  0.358370  0.760523  0.712832  1
  Dy  Dy7  1  0.939989  0.485039  0.677482  1
  Dy  Dy8  1  0.746209  0.015405  0.109339  1
  Dy  Dy9  1  0.150324  0.286516  0.149160  1
  Dy  Dy10  1  0.773395  0.326682  0.009189  1
  Dy  Dy11  1  0.844175  0.711991  0.850549  1
  Fe  Fe12  1  0.103730  0.738279  0.785201  1
  Fe  Fe13  1  0.896325  0.262044  0.214431  1
  Br  Br14  1  0.789547  0.526376  0.423853  1
  Br  Br15  1  0.650728  0.424420  0.762172  1
  Br  Br16  1  0.843485  0.897546  0.323920  1
  Br  Br17  1  0.324144  0.214608  0.363458  1
  Br  Br18  1  0.156992  0.100093  0.678481  1
  Br  Br19  1  0.581265  0.050745  0.848389  1
  Br  Br20  1  0.762684  0.190552  0.541324  1
  Br  Br21  1  0.550338  0.712826  0.948404  1
  Br  Br22  1  0.355476  0.573471  0.237692  1
  Br  Br23  1  0.210913  0.474883  0.583148  1
  Br  Br24  1  0.051509  0.370880  0.897750  1
  Br  Br25  1  0.448696  0.288474  0.043762  1
  Br  Br26  1  0.000560  0.999447  0.999087  1
  Br  Br27  1  0.246366  0.816170  0.467604  1
  Br  Br28  1  0.415860  0.947555  0.148005  1
  Br  Br29  1  0.672875  0.785245  0.638193  1
  Br  Br30  1  0.940118  0.628059  0.095049  1
