# generated using pymatgen
data_KY2(ZnPt2)3
_symmetry_space_group_name_H-M   'P 1'
_cell_length_a   9.07960286
_cell_length_b   9.07960344
_cell_length_c   9.07960200
_cell_angle_alpha   35.57083430
_cell_angle_beta   35.57082916
_cell_angle_gamma   35.57083319
_symmetry_Int_Tables_number   1
_chemical_formula_structural   KY2(ZnPt2)3
_chemical_formula_sum   'K1 Y2 Zn3 Pt6'
_cell_volume   226.37693544
_cell_formula_units_Z   1
loop_
 _symmetry_equiv_pos_site_id
 _symmetry_equiv_pos_as_xyz
  1  'x, y, z'
loop_
 _atom_site_type_symbol
 _atom_site_label
 _atom_site_symmetry_multiplicity
 _atom_site_fract_x
 _atom_site_fract_y
 _atom_site_fract_z
 _atom_site_occupancy
  K  K0  1  0.000000  0.000000  0.000000  1
  Y  Y1  1  0.863421  0.863421  0.863421  1
  Y  Y2  1  0.136579  0.136579  0.136579  1
  Zn  Zn3  1  0.666157  0.666157  0.666157  1
  Zn  Zn4  1  0.333843  0.333843  0.333843  1
  Zn  Zn5  1  0.500000  0.500000  0.500000  1
  Pt  Pt6  1  0.411241  0.918202  0.411241  1
  Pt  Pt7  1  0.411241  0.411241  0.918202  1
  Pt  Pt8  1  0.918202  0.411241  0.411241  1
  Pt  Pt9  1  0.588759  0.081798  0.588759  1
  Pt  Pt10  1  0.588759  0.588759  0.081798  1
  Pt  Pt11  1  0.081798  0.588759  0.588759  1
