# generated using pymatgen
data_Nd5Dy11Cd4TcPt3
_symmetry_space_group_name_H-M   'P 1'
_cell_length_a   9.81501562
_cell_length_b   9.80614043
_cell_length_c   9.80614020
_cell_angle_alpha   59.49540817
_cell_angle_beta   59.53185749
_cell_angle_gamma   59.53187116
_symmetry_Int_Tables_number   1
_chemical_formula_structural   Nd5Dy11Cd4TcPt3
_chemical_formula_sum   'Nd5 Dy11 Cd4 Tc1 Pt3'
_cell_volume   660.08938391
_cell_formula_units_Z   1
loop_
 _symmetry_equiv_pos_site_id
 _symmetry_equiv_pos_as_xyz
  1  'x, y, z'
loop_
 _atom_site_type_symbol
 _atom_site_label
 _atom_site_symmetry_multiplicity
 _atom_site_fract_x
 _atom_site_fract_y
 _atom_site_fract_z
 _atom_site_occupancy
  Nd  Nd0  1  0.553129  0.941340  0.941340  1
  Nd  Nd1  1  0.564875  0.935553  0.562801  1
  Nd  Nd2  1  0.940309  0.555004  0.937622  1
  Nd  Nd3  1  0.564875  0.562801  0.935553  1
  Nd  Nd4  1  0.940309  0.937622  0.555004  1
  Dy  Dy5  1  0.351785  0.351272  0.351272  1
  Dy  Dy6  1  0.348540  0.350305  0.953134  1
  Dy  Dy7  1  0.348540  0.953134  0.350305  1
  Dy  Dy8  1  0.950817  0.349846  0.349846  1
  Dy  Dy9  1  0.817539  0.186301  0.186301  1
  Dy  Dy10  1  0.185715  0.811156  0.811156  1
  Dy  Dy11  1  0.185606  0.816560  0.187905  1
  Dy  Dy12  1  0.810953  0.186777  0.810586  1
  Dy  Dy13  1  0.185606  0.187905  0.816560  1
  Dy  Dy14  1  0.810953  0.810586  0.186777  1
  Dy  Dy15  1  0.939894  0.559627  0.559627  1
  Cd  Cd16  1  0.582028  0.578891  0.578891  1
  Cd  Cd17  1  0.578859  0.579562  0.259064  1
  Cd  Cd18  1  0.578859  0.259064  0.579562  1
  Cd  Cd19  1  0.257275  0.579020  0.579020  1
  Tc  Tc20  1  0.143845  0.142933  0.142933  1
  Pt  Pt21  1  0.143057  0.146901  0.573645  1
  Pt  Pt22  1  0.143057  0.573645  0.146901  1
  Pt  Pt23  1  0.573576  0.144194  0.144194  1
