# generated using pymatgen
data_RbMnPt3O8
_symmetry_space_group_name_H-M   'P 1'
_cell_length_a   3.17759110
_cell_length_b   10.26076750
_cell_length_c   10.36317052
_cell_angle_alpha   90.57117819
_cell_angle_beta   90.00002507
_cell_angle_gamma   89.99932684
_symmetry_Int_Tables_number   1
_chemical_formula_structural   RbMnPt3O8
_chemical_formula_sum   'Rb2 Mn2 Pt6 O16'
_cell_volume   337.86944695
_cell_formula_units_Z   2
loop_
 _symmetry_equiv_pos_site_id
 _symmetry_equiv_pos_as_xyz
  1  'x, y, z'
loop_
 _atom_site_type_symbol
 _atom_site_label
 _atom_site_symmetry_multiplicity
 _atom_site_fract_x
 _atom_site_fract_y
 _atom_site_fract_z
 _atom_site_occupancy
  Rb  Rb0  1  0.515150  0.996765  0.005392  1
  Rb  Rb1  1  0.984922  0.496762  0.505403  1
  Mn  Mn2  1  0.000491  0.163846  0.649681  1
  Mn  Mn3  1  0.499487  0.663841  0.149679  1
  Pt  Pt4  1  0.474928  0.332656  0.851059  1
  Pt  Pt5  1  0.025077  0.832648  0.351051  1
  Pt  Pt6  1  0.001840  0.650450  0.830967  1
  Pt  Pt7  1  0.498163  0.150443  0.330984  1
  Pt  Pt8  1  0.979298  0.353517  0.167770  1
  Pt  Pt9  1  0.520694  0.853515  0.667760  1
  O  O10  1  0.502019  0.668092  0.951498  1
  O  O11  1  0.997984  0.168086  0.451514  1
  O  O12  1  0.479736  0.328426  0.048158  1
  O  O13  1  0.020257  0.828435  0.548149  1
  O  O14  1  0.978692  0.454154  0.823756  1
  O  O15  1  0.521329  0.954147  0.323760  1
  O  O16  1  0.976407  0.547408  0.161309  1
  O  O17  1  0.523553  0.047395  0.661327  1
  O  O18  1  0.974235  0.205063  0.853419  1
  O  O19  1  0.525750  0.705056  0.353408  1
  O  O20  1  0.045529  0.797139  0.158073  1
  O  O21  1  0.454453  0.297125  0.658081  1
  O  O22  1  0.481428  0.350126  0.297906  1
  O  O23  1  0.018589  0.850133  0.797894  1
  O  O24  1  0.503509  0.652389  0.700990  1
  O  O25  1  0.996479  0.152383  0.201011  1
