# generated using pymatgen
data_Nd5Mn2O12
_symmetry_space_group_name_H-M   'P 1'
_cell_length_a   7.03871666
_cell_length_b   7.03871603
_cell_length_c   7.56268852
_cell_angle_alpha   74.47979908
_cell_angle_beta   74.47980223
_cell_angle_gamma   49.74372726
_symmetry_Int_Tables_number   1
_chemical_formula_structural   Nd5Mn2O12
_chemical_formula_sum   'Nd5 Mn2 O12'
_cell_volume   273.22383240
_cell_formula_units_Z   1
loop_
 _symmetry_equiv_pos_site_id
 _symmetry_equiv_pos_as_xyz
  1  'x, y, z'
loop_
 _atom_site_type_symbol
 _atom_site_label
 _atom_site_symmetry_multiplicity
 _atom_site_fract_x
 _atom_site_fract_y
 _atom_site_fract_z
 _atom_site_occupancy
  Nd  Nd0  1  0.307753  0.307753  0.354502  1
  Nd  Nd1  1  0.692247  0.692247  0.645498  1
  Nd  Nd2  1  0.693123  0.693123  0.162672  1
  Nd  Nd3  1  0.306877  0.306877  0.837328  1
  Nd  Nd4  1  0.000000  0.000000  0.500000  1
  Mn  Mn5  1  0.755397  0.244603  0.000000  1
  Mn  Mn6  1  0.244603  0.755397  0.000000  1
  O  O7  1  0.095704  0.596987  0.577040  1
  O  O8  1  0.999211  0.999211  0.171407  1
  O  O9  1  0.403013  0.904296  0.422960  1
  O  O10  1  0.500285  0.500285  0.170305  1
  O  O11  1  0.100507  0.585293  0.077414  1
  O  O12  1  0.904296  0.403013  0.422960  1
  O  O13  1  0.000789  0.000789  0.828593  1
  O  O14  1  0.596987  0.095703  0.577040  1
  O  O15  1  0.499715  0.499715  0.829695  1
  O  O16  1  0.585293  0.100507  0.077414  1
  O  O17  1  0.414707  0.899493  0.922586  1
  O  O18  1  0.899493  0.414707  0.922586  1
