# generated using pymatgen
data_Li4Ca2HoTmSi8
_symmetry_space_group_name_H-M   'P 1'
_cell_length_a   3.77743400
_cell_length_b   7.77916554
_cell_length_c   10.37985108
_cell_angle_alpha   89.29534125
_cell_angle_beta   90.00000000
_cell_angle_gamma   90.00000000
_symmetry_Int_Tables_number   1
_chemical_formula_structural   Li4Ca2HoTmSi8
_chemical_formula_sum   'Li4 Ca2 Ho1 Tm1 Si8'
_cell_volume   304.99180859
_cell_formula_units_Z   1
loop_
 _symmetry_equiv_pos_site_id
 _symmetry_equiv_pos_as_xyz
  1  'x, y, z'
loop_
 _atom_site_type_symbol
 _atom_site_label
 _atom_site_symmetry_multiplicity
 _atom_site_fract_x
 _atom_site_fract_y
 _atom_site_fract_z
 _atom_site_occupancy
  Li  Li0  1  0.250000  0.999284  0.389618  1
  Li  Li1  1  0.750000  0.000702  0.610278  1
  Li  Li2  1  0.250000  0.489853  0.109384  1
  Li  Li3  1  0.750000  0.510201  0.890668  1
  Ca  Ca4  1  0.250000  0.637133  0.634954  1
  Ca  Ca5  1  0.750000  0.362853  0.365050  1
  Ho  Ho6  1  0.250000  0.129455  0.865010  1
  Tm  Tm7  1  0.750000  0.870903  0.135013  1
  Si  Si8  1  0.750000  0.260084  0.060569  1
  Si  Si9  1  0.250000  0.739786  0.940067  1
  Si  Si10  1  0.750000  0.773751  0.425313  1
  Si  Si11  1  0.250000  0.226516  0.574315  1
  Si  Si12  1  0.750000  0.844867  0.827675  1
  Si  Si13  1  0.250000  0.154334  0.172553  1
  Si  Si14  1  0.750000  0.331485  0.685120  1
  Si  Si15  1  0.250000  0.668790  0.314413  1
