# generated using pymatgen
data_Nd5AsIrO12
_symmetry_space_group_name_H-M   'P 1'
_cell_length_a   7.05519614
_cell_length_b   7.05519530
_cell_length_c   7.56467400
_cell_angle_alpha   74.50305022
_cell_angle_beta   74.50304367
_cell_angle_gamma   50.87873690
_symmetry_Int_Tables_number   1
_chemical_formula_structural   Nd5AsIrO12
_chemical_formula_sum   'Nd5 As1 Ir1 O12'
_cell_volume   279.04319704
_cell_formula_units_Z   1
loop_
 _symmetry_equiv_pos_site_id
 _symmetry_equiv_pos_as_xyz
  1  'x, y, z'
loop_
 _atom_site_type_symbol
 _atom_site_label
 _atom_site_symmetry_multiplicity
 _atom_site_fract_x
 _atom_site_fract_y
 _atom_site_fract_z
 _atom_site_occupancy
  Nd  Nd0  1  0.301567  0.306997  0.358117  1
  Nd  Nd1  1  0.693003  0.698433  0.641883  1
  Nd  Nd2  1  0.693995  0.697158  0.164300  1
  Nd  Nd3  1  0.302842  0.306005  0.835700  1
  Nd  Nd4  1  0.993388  0.006612  0.500000  1
  As  As5  1  0.759616  0.240384  0.000000  1
  Ir  Ir6  1  0.249303  0.750697  0.000000  1
  O  O7  1  0.093176  0.599091  0.578455  1
  O  O8  1  0.986405  0.012970  0.168759  1
  O  O9  1  0.400909  0.906824  0.421545  1
  O  O10  1  0.518533  0.482779  0.168314  1
  O  O11  1  0.097600  0.574303  0.078911  1
  O  O12  1  0.900682  0.404314  0.425469  1
  O  O13  1  0.987030  0.013595  0.831241  1
  O  O14  1  0.595686  0.099317  0.574531  1
  O  O15  1  0.517221  0.481467  0.831686  1
  O  O16  1  0.588996  0.105652  0.077082  1
  O  O17  1  0.425697  0.902400  0.921089  1
  O  O18  1  0.894348  0.411004  0.922918  1
