# generated using pymatgen
data_Ca20(Zn3In)3
_symmetry_space_group_name_H-M   'P 1'
_cell_length_a   8.06196300
_cell_length_b   8.06196300
_cell_length_c   14.91008800
_cell_angle_alpha   90.00000000
_cell_angle_beta   90.00000000
_cell_angle_gamma   90.00000000
_symmetry_Int_Tables_number   1
_chemical_formula_structural   Ca20(Zn3In)3
_chemical_formula_sum   'Ca20 Zn9 In3'
_cell_volume   969.08485852
_cell_formula_units_Z   1
loop_
 _symmetry_equiv_pos_site_id
 _symmetry_equiv_pos_as_xyz
  1  'x, y, z'
loop_
 _atom_site_type_symbol
 _atom_site_label
 _atom_site_symmetry_multiplicity
 _atom_site_fract_x
 _atom_site_fract_y
 _atom_site_fract_z
 _atom_site_occupancy
  Ca  Ca0  1  0.671647  0.165483  0.102111  1
  Ca  Ca1  1  0.170019  0.667851  0.604394  1
  Ca  Ca2  1  0.328353  0.834517  0.102111  1
  Ca  Ca3  1  0.829981  0.332149  0.604394  1
  Ca  Ca4  1  0.834517  0.671647  0.102111  1
  Ca  Ca5  1  0.332149  0.170019  0.604394  1
  Ca  Ca6  1  0.165483  0.328353  0.102111  1
  Ca  Ca7  1  0.667851  0.829981  0.604394  1
  Ca  Ca8  1  0.834517  0.328353  0.897889  1
  Ca  Ca9  1  0.332149  0.829981  0.395606  1
  Ca  Ca10  1  0.165483  0.671647  0.897889  1
  Ca  Ca11  1  0.667851  0.170019  0.395606  1
  Ca  Ca12  1  0.671647  0.834517  0.897889  1
  Ca  Ca13  1  0.170019  0.332149  0.395606  1
  Ca  Ca14  1  0.328353  0.165483  0.897889  1
  Ca  Ca15  1  0.829981  0.667851  0.395606  1
  Ca  Ca16  1  0.500000  0.500000  0.753662  1
  Ca  Ca17  1  0.000000  0.000000  0.251521  1
  Ca  Ca18  1  0.000000  0.000000  0.748479  1
  Ca  Ca19  1  0.500000  0.500000  0.246338  1
  Zn  Zn20  1  0.618461  0.118487  0.752096  1
  Zn  Zn21  1  0.118487  0.618461  0.247904  1
  Zn  Zn22  1  0.881513  0.381539  0.247904  1
  Zn  Zn23  1  0.381539  0.881513  0.752096  1
  Zn  Zn24  1  0.881513  0.618461  0.752096  1
  Zn  Zn25  1  0.381539  0.118487  0.247904  1
  Zn  Zn26  1  0.118487  0.381539  0.752096  1
  Zn  Zn27  1  0.618461  0.881513  0.247904  1
  Zn  Zn28  1  0.000000  0.000000  0.000000  1
  In  In29  1  0.500000  0.500000  0.500000  1
  In  In30  1  0.500000  0.500000  0.000000  1
  In  In31  1  0.000000  0.000000  0.500000  1
