# generated using pymatgen
data_Th6Si(P3Rh5)4
_symmetry_space_group_name_H-M   'P 1'
_cell_length_a   13.51885900
_cell_length_b   13.51885760
_cell_length_c   3.97397000
_cell_angle_alpha   90.00000000
_cell_angle_beta   90.00000000
_cell_angle_gamma   120.00000097
_symmetry_Int_Tables_number   1
_chemical_formula_structural   Th6Si(P3Rh5)4
_chemical_formula_sum   'Th6 Si1 P12 Rh20'
_cell_volume   628.97769362
_cell_formula_units_Z   1
loop_
 _symmetry_equiv_pos_site_id
 _symmetry_equiv_pos_as_xyz
  1  'x, y, z'
loop_
 _atom_site_type_symbol
 _atom_site_label
 _atom_site_symmetry_multiplicity
 _atom_site_fract_x
 _atom_site_fract_y
 _atom_site_fract_z
 _atom_site_occupancy
  Th  Th0  1  0.528854  0.717865  0.249655  1
  Th  Th1  1  0.282135  0.810989  0.249655  1
  Th  Th2  1  0.189011  0.471146  0.249655  1
  Th  Th3  1  0.471146  0.282135  0.750345  1
  Th  Th4  1  0.717865  0.189011  0.750345  1
  Th  Th5  1  0.810989  0.528854  0.750345  1
  Si  Si6  1  0.000000  0.000000  0.000000  1
  P  P7  1  0.523802  0.136999  0.247690  1
  P  P8  1  0.863001  0.386804  0.247690  1
  P  P9  1  0.613196  0.476198  0.247690  1
  P  P10  1  0.949214  0.721049  0.252928  1
  P  P11  1  0.278951  0.228163  0.252928  1
  P  P12  1  0.771837  0.050786  0.252928  1
  P  P13  1  0.386804  0.523802  0.752310  1
  P  P14  1  0.476198  0.863001  0.752310  1
  P  P15  1  0.136999  0.613196  0.752310  1
  P  P16  1  0.721049  0.771837  0.747072  1
  P  P17  1  0.228163  0.949214  0.747072  1
  P  P18  1  0.050786  0.278951  0.747072  1
  Rh  Rh19  1  0.333333  0.666667  0.740931  1
  Rh  Rh20  1  0.920805  0.248897  0.253450  1
  Rh  Rh21  1  0.751103  0.671909  0.253450  1
  Rh  Rh22  1  0.328091  0.079195  0.253450  1
  Rh  Rh23  1  0.436479  0.019605  0.750477  1
  Rh  Rh24  1  0.980395  0.416875  0.750477  1
  Rh  Rh25  1  0.583125  0.563521  0.750477  1
  Rh  Rh26  1  0.666667  0.333333  0.259069  1
  Rh  Rh27  1  0.092803  0.190530  0.249121  1
  Rh  Rh28  1  0.809470  0.902273  0.249121  1
  Rh  Rh29  1  0.097727  0.907197  0.249121  1
  Rh  Rh30  1  0.019605  0.583125  0.249523  1
  Rh  Rh31  1  0.416875  0.436479  0.249523  1
  Rh  Rh32  1  0.563521  0.980395  0.249523  1
  Rh  Rh33  1  0.671909  0.920805  0.746550  1
  Rh  Rh34  1  0.079195  0.751103  0.746550  1
  Rh  Rh35  1  0.248897  0.328091  0.746550  1
  Rh  Rh36  1  0.907197  0.809470  0.750879  1
  Rh  Rh37  1  0.190530  0.097727  0.750879  1
  Rh  Rh38  1  0.902273  0.092803  0.750879  1
