# generated using pymatgen
data_TbSc7Ti12Si15Sn
_symmetry_space_group_name_H-M   'P 1'
_cell_length_a   6.96261420
_cell_length_b   6.93158574
_cell_length_c   12.70801765
_cell_angle_alpha   89.89573569
_cell_angle_beta   89.78951408
_cell_angle_gamma   89.71136747
_symmetry_Int_Tables_number   1
_chemical_formula_structural   TbSc7Ti12Si15Sn
_chemical_formula_sum   'Tb1 Sc7 Ti12 Si15 Sn1'
_cell_volume   613.30088966
_cell_formula_units_Z   1
loop_
 _symmetry_equiv_pos_site_id
 _symmetry_equiv_pos_as_xyz
  1  'x, y, z'
loop_
 _atom_site_type_symbol
 _atom_site_label
 _atom_site_symmetry_multiplicity
 _atom_site_fract_x
 _atom_site_fract_y
 _atom_site_fract_z
 _atom_site_occupancy
  Tb  Tb0  1  0.996490  0.659760  0.033779  1
  Sc  Sc1  1  0.344708  0.996609  0.460945  1
  Sc  Sc2  1  0.508136  0.835254  0.717709  1
  Sc  Sc3  1  0.499089  0.159345  0.218907  1
  Sc  Sc4  1  0.841604  0.499091  0.283212  1
  Sc  Sc5  1  0.158684  0.508959  0.785768  1
  Sc  Sc6  1  0.659675  0.998923  0.967755  1
  Sc  Sc7  1  0.987627  0.351401  0.526354  1
  Ti  Ti8  1  0.328403  0.325724  0.001188  1
  Ti  Ti9  1  0.174650  0.828138  0.250808  1
  Ti  Ti10  1  0.817588  0.172753  0.750666  1
  Ti  Ti11  1  0.672028  0.672722  0.499535  1
  Ti  Ti12  1  0.153533  0.004710  0.879809  1
  Ti  Ti13  1  0.494880  0.647784  0.126381  1
  Ti  Ti14  1  0.515217  0.358772  0.625576  1
  Ti  Ti15  1  0.652358  0.490703  0.875259  1
  Ti  Ti16  1  0.349996  0.508062  0.375440  1
  Ti  Ti17  1  0.848429  0.994967  0.375907  1
  Ti  Ti18  1  0.009124  0.150524  0.125489  1
  Ti  Ti19  1  0.979583  0.838667  0.619464  1
  Si  Si20  1  0.371960  0.705457  0.930160  1
  Si  Si21  1  0.632843  0.295795  0.428571  1
  Si  Si22  1  0.701709  0.358299  0.070538  1
  Si  Si23  1  0.294104  0.637507  0.570430  1
  Si  Si24  1  0.790841  0.870456  0.183558  1
  Si  Si25  1  0.134905  0.204557  0.320827  1
  Si  Si26  1  0.865279  0.798594  0.817702  1
  Si  Si27  1  0.301814  0.955548  0.066733  1
  Si  Si28  1  0.547064  0.794933  0.314648  1
  Si  Si29  1  0.459667  0.203116  0.819284  1
  Si  Si30  1  0.799489  0.544357  0.686723  1
  Si  Si31  1  0.207962  0.450433  0.187983  1
  Si  Si32  1  0.699830  0.048284  0.564197  1
  Si  Si33  1  0.952504  0.289398  0.933904  1
  Si  Si34  1  0.046445  0.705857  0.433115  1
  Sn  Sn35  1  0.201782  0.134542  0.671673  1
