# generated using pymatgen
data_Nd16Cd2Hg2Pd3Pt
_symmetry_space_group_name_H-M   'P 1'
_cell_length_a   10.00403859
_cell_length_b   10.00403915
_cell_length_c   10.01808559
_cell_angle_alpha   60.11316434
_cell_angle_beta   60.11316093
_cell_angle_gamma   60.06411763
_symmetry_Int_Tables_number   1
_chemical_formula_structural   Nd16Cd2Hg2Pd3Pt
_chemical_formula_sum   'Nd16 Cd2 Hg2 Pd3 Pt1'
_cell_volume   710.51283703
_cell_formula_units_Z   1
loop_
 _symmetry_equiv_pos_site_id
 _symmetry_equiv_pos_as_xyz
  1  'x, y, z'
loop_
 _atom_site_type_symbol
 _atom_site_label
 _atom_site_symmetry_multiplicity
 _atom_site_fract_x
 _atom_site_fract_y
 _atom_site_fract_z
 _atom_site_occupancy
  Nd  Nd0  1  0.350834  0.350834  0.350548  1
  Nd  Nd1  1  0.352133  0.352133  0.943580  1
  Nd  Nd2  1  0.353262  0.940628  0.352766  1
  Nd  Nd3  1  0.940628  0.353262  0.352766  1
  Nd  Nd4  1  0.810523  0.190953  0.192184  1
  Nd  Nd5  1  0.190373  0.807827  0.807566  1
  Nd  Nd6  1  0.190953  0.810523  0.192184  1
  Nd  Nd7  1  0.807827  0.190373  0.807566  1
  Nd  Nd8  1  0.190932  0.190932  0.810808  1
  Nd  Nd9  1  0.806744  0.806744  0.191985  1
  Nd  Nd10  1  0.938284  0.563930  0.564928  1
  Nd  Nd11  1  0.561118  0.935534  0.935707  1
  Nd  Nd12  1  0.563930  0.938284  0.564928  1
  Nd  Nd13  1  0.935534  0.561118  0.935707  1
  Nd  Nd14  1  0.563986  0.563986  0.939180  1
  Nd  Nd15  1  0.935383  0.935383  0.561780  1
  Cd  Cd16  1  0.579460  0.259394  0.580843  1
  Cd  Cd17  1  0.259394  0.579460  0.580843  1
  Hg  Hg18  1  0.583665  0.583665  0.586300  1
  Hg  Hg19  1  0.583952  0.583952  0.245528  1
  Pd  Pd20  1  0.143863  0.143863  0.568871  1
  Pd  Pd21  1  0.143580  0.569494  0.144080  1
  Pd  Pd22  1  0.569494  0.143580  0.144080  1
  Pt  Pt23  1  0.144147  0.144147  0.145274  1
