# generated using pymatgen
data_La6Pr10MgAg(HgRh2)2
_symmetry_space_group_name_H-M   'P 1'
_cell_length_a   9.98770357
_cell_length_b   10.09120190
_cell_length_c   10.09042900
_cell_angle_alpha   59.65459528
_cell_angle_beta   60.07328038
_cell_angle_gamma   60.06919611
_symmetry_Int_Tables_number   1
_chemical_formula_structural   La6Pr10MgAg(HgRh2)2
_chemical_formula_sum   'La6 Pr10 Mg1 Ag1 Hg2 Rh4'
_cell_volume   717.99435771
_cell_formula_units_Z   1
loop_
 _symmetry_equiv_pos_site_id
 _symmetry_equiv_pos_as_xyz
  1  'x, y, z'
loop_
 _atom_site_type_symbol
 _atom_site_label
 _atom_site_symmetry_multiplicity
 _atom_site_fract_x
 _atom_site_fract_y
 _atom_site_fract_z
 _atom_site_occupancy
  La  La0  1  0.347099  0.347706  0.347728  1
  La  La1  1  0.349578  0.346990  0.955470  1
  La  La2  1  0.349575  0.955425  0.347034  1
  La  La3  1  0.946542  0.351866  0.351797  1
  La  La4  1  0.810284  0.189907  0.189945  1
  La  La5  1  0.183794  0.813641  0.813571  1
  Pr  Pr6  1  0.188812  0.810858  0.189844  1
  Pr  Pr7  1  0.805387  0.192902  0.807473  1
  Pr  Pr8  1  0.188816  0.189812  0.810886  1
  Pr  Pr9  1  0.805363  0.807450  0.192932  1
  Pr  Pr10  1  0.936000  0.564774  0.564773  1
  Pr  Pr11  1  0.561815  0.936823  0.936844  1
  Pr  Pr12  1  0.562207  0.936214  0.563863  1
  Pr  Pr13  1  0.937681  0.562792  0.935778  1
  Pr  Pr14  1  0.562191  0.563852  0.936254  1
  Pr  Pr15  1  0.937650  0.935771  0.562795  1
  Mg  Mg16  1  0.287495  0.570024  0.569970  1
  Ag  Ag17  1  0.581142  0.586511  0.586540  1
  Hg  Hg18  1  0.580265  0.588275  0.245814  1
  Hg  Hg19  1  0.580265  0.245807  0.588277  1
  Rh  Rh20  1  0.136429  0.145327  0.145280  1
  Rh  Rh21  1  0.144318  0.138223  0.573712  1
  Rh  Rh22  1  0.144277  0.573800  0.138168  1
  Rh  Rh23  1  0.573014  0.145249  0.145253  1
