# generated using pymatgen
data_Sc4Fe5Si2Os
_symmetry_space_group_name_H-M   'P 1'
_cell_length_a   5.00527235
_cell_length_b   5.07159150
_cell_length_c   7.94978200
_cell_angle_alpha   90.00000000
_cell_angle_beta   90.00000000
_cell_angle_gamma   119.57846062
_symmetry_Int_Tables_number   1
_chemical_formula_structural   Sc4Fe5Si2Os
_chemical_formula_sum   'Sc4 Fe5 Si2 Os1'
_cell_volume   175.50397576
_cell_formula_units_Z   1
loop_
 _symmetry_equiv_pos_site_id
 _symmetry_equiv_pos_as_xyz
  1  'x, y, z'
loop_
 _atom_site_type_symbol
 _atom_site_label
 _atom_site_symmetry_multiplicity
 _atom_site_fract_x
 _atom_site_fract_y
 _atom_site_fract_z
 _atom_site_occupancy
  Sc  Sc0  1  0.665876  0.331879  0.065005  1
  Sc  Sc1  1  0.334303  0.668545  0.938272  1
  Sc  Sc2  1  0.334303  0.668545  0.561728  1
  Sc  Sc3  1  0.665876  0.331879  0.434995  1
  Fe  Fe4  1  0.830608  0.170479  0.750000  1
  Fe  Fe5  1  0.339750  0.170433  0.750000  1
  Fe  Fe6  1  0.171973  0.343943  0.250000  1
  Fe  Fe7  1  0.172431  0.827658  0.250000  1
  Fe  Fe8  1  0.655222  0.827655  0.250000  1
  Si  Si9  1  0.001238  0.002282  0.495292  1
  Si  Si10  1  0.001238  0.002282  0.004708  1
  Os  Os11  1  0.827181  0.654419  0.750000  1
