# generated using pymatgen
data_ErHf3F15
_symmetry_space_group_name_H-M   'P 1'
_cell_length_a   8.10080171
_cell_length_b   8.10080227
_cell_length_c   8.08958421
_cell_angle_alpha   79.79516221
_cell_angle_beta   79.79516522
_cell_angle_gamma   100.18210710
_symmetry_Int_Tables_number   1
_chemical_formula_structural   ErHf3F15
_chemical_formula_sum   'Er2 Hf6 F30'
_cell_volume   502.18473708
_cell_formula_units_Z   2
loop_
 _symmetry_equiv_pos_site_id
 _symmetry_equiv_pos_as_xyz
  1  'x, y, z'
loop_
 _atom_site_type_symbol
 _atom_site_label
 _atom_site_symmetry_multiplicity
 _atom_site_fract_x
 _atom_site_fract_y
 _atom_site_fract_z
 _atom_site_occupancy
  Er  Er0  1  0.677354  0.322646  0.750000  1
  Er  Er1  1  0.322646  0.677354  0.250000  1
  Hf  Hf2  1  0.251459  0.748541  0.750000  1
  Hf  Hf3  1  0.748541  0.251459  0.250000  1
  Hf  Hf4  1  0.822777  0.752233  0.325152  1
  Hf  Hf5  1  0.247767  0.177223  0.174848  1
  Hf  Hf6  1  0.177223  0.247767  0.674848  1
  Hf  Hf7  1  0.752233  0.822777  0.825152  1
  F  F8  1  0.150704  0.183217  0.946654  1
  F  F9  1  0.687056  0.564843  0.848536  1
  F  F10  1  0.038934  0.656358  0.316763  1
  F  F11  1  0.656358  0.038934  0.816763  1
  F  F12  1  0.564843  0.687056  0.348536  1
  F  F13  1  0.183217  0.150704  0.446654  1
  F  F14  1  0.849296  0.816783  0.053346  1
  F  F15  1  0.312944  0.435157  0.151464  1
  F  F16  1  0.961066  0.343642  0.683237  1
  F  F17  1  0.343642  0.961066  0.183237  1
  F  F18  1  0.435157  0.312944  0.651464  1
  F  F19  1  0.816783  0.849296  0.553346  1
  F  F20  1  0.967001  0.032999  0.750000  1
  F  F21  1  0.545795  0.752742  0.028055  1
  F  F22  1  0.247258  0.454205  0.471945  1
  F  F23  1  0.454205  0.247258  0.971945  1
  F  F24  1  0.752742  0.545795  0.528055  1
  F  F25  1  0.032999  0.967001  0.250000  1
  F  F26  1  0.219594  0.725092  0.003157  1
  F  F27  1  0.223565  0.492727  0.780200  1
  F  F28  1  0.993995  0.724226  0.777189  1
  F  F29  1  0.724226  0.993995  0.277189  1
  F  F30  1  0.492727  0.223565  0.280200  1
  F  F31  1  0.725092  0.219594  0.503157  1
  F  F32  1  0.780406  0.274908  0.996843  1
  F  F33  1  0.776435  0.507273  0.219800  1
  F  F34  1  0.006005  0.275774  0.222811  1
  F  F35  1  0.275774  0.006005  0.722811  1
  F  F36  1  0.507273  0.776435  0.719800  1
  F  F37  1  0.274908  0.780406  0.496843  1
