# generated using pymatgen
data_Pr4Hf3Zr3Sn8
_symmetry_space_group_name_H-M   'P 1'
_cell_length_a   7.88512100
_cell_length_b   7.92069009
_cell_length_c   14.85436217
_cell_angle_alpha   90.01750805
_cell_angle_beta   90.00000000
_cell_angle_gamma   90.00000000
_symmetry_Int_Tables_number   1
_chemical_formula_structural   Pr4Hf3Zr3Sn8
_chemical_formula_sum   'Pr8 Hf6 Zr6 Sn16'
_cell_volume   927.73805561
_cell_formula_units_Z   2
loop_
 _symmetry_equiv_pos_site_id
 _symmetry_equiv_pos_as_xyz
  1  'x, y, z'
loop_
 _atom_site_type_symbol
 _atom_site_label
 _atom_site_symmetry_multiplicity
 _atom_site_fract_x
 _atom_site_fract_y
 _atom_site_fract_z
 _atom_site_occupancy
  Pr  Pr0  1  0.508980  0.326875  0.907032  1
  Pr  Pr1  1  0.008980  0.173125  0.592968  1
  Pr  Pr2  1  0.490893  0.673830  0.407420  1
  Pr  Pr3  1  0.990893  0.826170  0.092580  1
  Pr  Pr4  1  0.491270  0.673634  0.092598  1
  Pr  Pr5  1  0.991270  0.826366  0.407402  1
  Pr  Pr6  1  0.508455  0.326070  0.593100  1
  Pr  Pr7  1  0.008455  0.173930  0.906900  1
  Hf  Hf8  1  0.344054  0.837796  0.869691  1
  Hf  Hf9  1  0.844054  0.662204  0.630309  1
  Hf  Hf10  1  0.166473  0.511190  0.750064  1
  Hf  Hf11  1  0.666473  0.988810  0.749936  1
  Hf  Hf12  1  0.833389  0.489568  0.250144  1
  Hf  Hf13  1  0.333389  0.010432  0.249856  1
  Zr  Zr14  1  0.656968  0.162286  0.371201  1
  Zr  Zr15  1  0.156968  0.337714  0.128799  1
  Zr  Zr16  1  0.656440  0.162264  0.129272  1
  Zr  Zr17  1  0.156440  0.337736  0.370728  1
  Zr  Zr18  1  0.343600  0.837859  0.629591  1
  Zr  Zr19  1  0.843600  0.662141  0.870409  1
  Sn  Sn20  1  0.320198  0.042286  0.043862  1
  Sn  Sn21  1  0.820198  0.457714  0.456138  1
  Sn  Sn22  1  0.680533  0.955640  0.545399  1
  Sn  Sn23  1  0.180533  0.544360  0.954601  1
  Sn  Sn24  1  0.678219  0.956719  0.954715  1
  Sn  Sn25  1  0.178219  0.543281  0.545285  1
  Sn  Sn26  1  0.320269  0.043009  0.455349  1
  Sn  Sn27  1  0.820269  0.456991  0.044651  1
  Sn  Sn28  1  0.539125  0.623539  0.749886  1
  Sn  Sn29  1  0.039125  0.876461  0.750114  1
  Sn  Sn30  1  0.461049  0.376273  0.250093  1
  Sn  Sn31  1  0.961049  0.123727  0.249907  1
  Sn  Sn32  1  0.312843  0.148989  0.750404  1
  Sn  Sn33  1  0.812843  0.351011  0.749596  1
  Sn  Sn34  1  0.687241  0.850715  0.249986  1
  Sn  Sn35  1  0.187241  0.649285  0.250014  1
