# generated using pymatgen
data_NaTbYGa8Ag3
_symmetry_space_group_name_H-M   'P 1'
_cell_length_a   4.35550809
_cell_length_b   8.40541682
_cell_length_c   8.40541739
_cell_angle_alpha   70.47378158
_cell_angle_beta   74.98396338
_cell_angle_gamma   74.98395921
_symmetry_Int_Tables_number   1
_chemical_formula_structural   NaTbYGa8Ag3
_chemical_formula_sum   'Na1 Tb1 Y1 Ga8 Ag3'
_cell_volume   275.04543954
_cell_formula_units_Z   1
loop_
 _symmetry_equiv_pos_site_id
 _symmetry_equiv_pos_as_xyz
  1  'x, y, z'
loop_
 _atom_site_type_symbol
 _atom_site_label
 _atom_site_symmetry_multiplicity
 _atom_site_fract_x
 _atom_site_fract_y
 _atom_site_fract_z
 _atom_site_occupancy
  Na  Na0  1  0.499995  0.500005  0.500005  1
  Tb  Tb1  1  0.795835  0.204165  0.204165  1
  Y  Y2  1  0.204131  0.795869  0.795869  1
  Ga  Ga3  1  0.357948  0.360863  0.923242  1
  Ga  Ga4  1  0.642047  0.639094  0.076813  1
  Ga  Ga5  1  0.357948  0.923242  0.360863  1
  Ga  Ga6  1  0.642047  0.076813  0.639094  1
  Ga  Ga7  1  0.161685  0.472409  0.204222  1
  Ga  Ga8  1  0.838316  0.527591  0.795776  1
  Ga  Ga9  1  0.161685  0.204222  0.472409  1
  Ga  Ga10  1  0.838316  0.795776  0.527591  1
  Ag  Ag11  1  0.500020  0.999980  0.999980  1
  Ag  Ag12  1  0.000014  0.809009  0.190963  1
  Ag  Ag13  1  0.000014  0.190963  0.809009  1
