# generated using pymatgen
data_Ba10Sm4Y(WO6)5
_symmetry_space_group_name_H-M   'P 1'
_cell_length_a   6.05996501
_cell_length_b   6.10016506
_cell_length_c   24.98909833
_cell_angle_alpha   84.00939495
_cell_angle_beta   83.15631234
_cell_angle_gamma   60.34414866
_symmetry_Int_Tables_number   1
_chemical_formula_structural   Ba10Sm4Y(WO6)5
_chemical_formula_sum   'Ba10 Sm4 Y1 W5 O30'
_cell_volume   795.94109671
_cell_formula_units_Z   1
loop_
 _symmetry_equiv_pos_site_id
 _symmetry_equiv_pos_as_xyz
  1  'x, y, z'
loop_
 _atom_site_type_symbol
 _atom_site_label
 _atom_site_symmetry_multiplicity
 _atom_site_fract_x
 _atom_site_fract_y
 _atom_site_fract_z
 _atom_site_occupancy
  Ba  Ba0  1  0.250643  0.247655  0.751424  1
  Ba  Ba1  1  0.452440  0.450575  0.148059  1
  Ba  Ba2  1  0.653020  0.651672  0.550193  1
  Ba  Ba3  1  0.846865  0.851248  0.951193  1
  Ba  Ba4  1  0.046673  0.047855  0.349353  1
  Ba  Ba5  1  0.547560  0.549425  0.851941  1
  Ba  Ba6  1  0.749357  0.752345  0.248576  1
  Ba  Ba7  1  0.953327  0.952145  0.650647  1
  Ba  Ba8  1  0.153135  0.148752  0.048807  1
  Ba  Ba9  1  0.346980  0.348328  0.449807  1
  Sm  Sm10  1  0.902649  0.899940  0.801402  1
  Sm  Sm11  1  0.298864  0.299964  0.600090  1
  Sm  Sm12  1  0.701136  0.700036  0.399910  1
  Sm  Sm13  1  0.097351  0.100060  0.198598  1
  Y  Y14  1  0.500000  0.500000  0.000000  1
  W  W15  1  0.197918  0.199962  0.901540  1
  W  W16  1  0.398629  0.399911  0.299152  1
  W  W17  1  0.601371  0.600089  0.700848  1
  W  W18  1  0.802082  0.800038  0.098460  1
  W  W19  1  0.000000  0.000000  0.500000  1
  O  O20  1  0.739991  0.268737  0.747861  1
  O  O21  1  0.943704  0.470908  0.145715  1
  O  O22  1  0.147202  0.670007  0.547292  1
  O  O23  1  0.341576  0.866359  0.948337  1
  O  O24  1  0.536126  0.069204  0.346380  1
  O  O25  1  0.056296  0.529092  0.854285  1
  O  O26  1  0.260009  0.731263  0.252139  1
  O  O27  1  0.463874  0.930796  0.653620  1
  O  O28  1  0.658424  0.133641  0.051663  1
  O  O29  1  0.852798  0.329993  0.452708  1
  O  O30  1  0.910787  0.436051  0.646069  1
  O  O31  1  0.292741  0.841628  0.446312  1
  O  O32  1  0.707544  0.235024  0.244335  1
  O  O33  1  0.111381  0.641266  0.046758  1
  O  O34  1  0.503124  0.041539  0.849431  1
  O  O35  1  0.292456  0.764976  0.755665  1
  O  O36  1  0.707259  0.158372  0.553688  1
  O  O37  1  0.089213  0.563949  0.353931  1
  O  O38  1  0.496876  0.958461  0.150569  1
  O  O39  1  0.888619  0.358734  0.953242  1
  O  O40  1  0.415351  0.485646  0.662300  1
  O  O41  1  0.801720  0.882290  0.460845  1
  O  O42  1  0.212614  0.285409  0.260483  1
  O  O43  1  0.613136  0.678714  0.058722  1
  O  O44  1  0.005609  0.083082  0.862250  1
  O  O45  1  0.386864  0.321286  0.941278  1
  O  O46  1  0.787386  0.714591  0.739517  1
  O  O47  1  0.198280  0.117710  0.539155  1
  O  O48  1  0.584649  0.514354  0.337700  1
  O  O49  1  0.994391  0.916918  0.137750  1
