# generated using pymatgen
data_DyLuCo2(SiRh)4
_symmetry_space_group_name_H-M   'P 1'
_cell_length_a   6.45610525
_cell_length_b   6.59154209
_cell_length_c   6.45610541
_cell_angle_alpha   131.17912942
_cell_angle_beta   113.40647102
_cell_angle_gamma   86.09790852
_symmetry_Int_Tables_number   1
_chemical_formula_structural   DyLuCo2(SiRh)4
_chemical_formula_sum   'Dy1 Lu1 Co2 Si4 Rh4'
_cell_volume   182.17168283
_cell_formula_units_Z   1
loop_
 _symmetry_equiv_pos_site_id
 _symmetry_equiv_pos_as_xyz
  1  'x, y, z'
loop_
 _atom_site_type_symbol
 _atom_site_label
 _atom_site_symmetry_multiplicity
 _atom_site_fract_x
 _atom_site_fract_y
 _atom_site_fract_z
 _atom_site_occupancy
  Dy  Dy0  1  0.245528  0.960371  0.714842  1
  Lu  Lu1  1  0.754525  0.042413  0.287889  1
  Co  Co2  1  0.218431  0.498581  0.718309  1
  Co  Co3  1  0.780271  0.498581  0.280149  1
  Si  Si4  1  0.575752  0.387441  0.811690  1
  Si  Si5  1  0.925529  0.714432  0.788902  1
  Si  Si6  1  0.424639  0.613802  0.189162  1
  Si  Si7  1  0.073611  0.285508  0.211898  1
  Rh  Rh8  1  0.501132  0.499652  0.500737  1
  Rh  Rh9  1  0.998915  0.499652  0.998520  1
  Rh  Rh10  1  0.717925  0.999784  0.716043  1
  Rh  Rh11  1  0.283741  0.999784  0.281859  1
