# generated using pymatgen
data_YbPr17(LuIr6)2
_symmetry_space_group_name_H-M   'P 1'
_cell_length_a   11.27913100
_cell_length_b   11.27913100
_cell_length_c   6.54078000
_cell_angle_alpha   90.00000000
_cell_angle_beta   90.00000000
_cell_angle_gamma   90.00000000
_symmetry_Int_Tables_number   1
_chemical_formula_structural   YbPr17(LuIr6)2
_chemical_formula_sum   'Yb1 Pr17 Lu2 Ir12'
_cell_volume   832.11015725
_cell_formula_units_Z   1
loop_
 _symmetry_equiv_pos_site_id
 _symmetry_equiv_pos_as_xyz
  1  'x, y, z'
loop_
 _atom_site_type_symbol
 _atom_site_label
 _atom_site_symmetry_multiplicity
 _atom_site_fract_x
 _atom_site_fract_y
 _atom_site_fract_z
 _atom_site_occupancy
  Yb  Yb0  1  0.500000  0.500000  0.000000  1
  Pr  Pr1  1  0.286839  0.088319  0.383181  1
  Pr  Pr2  1  0.287581  0.912548  0.882665  1
  Pr  Pr3  1  0.712419  0.087452  0.882665  1
  Pr  Pr4  1  0.713161  0.911681  0.383181  1
  Pr  Pr5  1  0.586826  0.787876  0.884360  1
  Pr  Pr6  1  0.587870  0.208952  0.384412  1
  Pr  Pr7  1  0.412130  0.791048  0.384412  1
  Pr  Pr8  1  0.413174  0.212124  0.884360  1
  Pr  Pr9  1  0.208952  0.412130  0.615588  1
  Pr  Pr10  1  0.212124  0.586826  0.115640  1
  Pr  Pr11  1  0.787876  0.413174  0.115640  1
  Pr  Pr12  1  0.791048  0.587870  0.615588  1
  Pr  Pr13  1  0.912548  0.712419  0.117335  1
  Pr  Pr14  1  0.911681  0.286839  0.616819  1
  Pr  Pr15  1  0.088319  0.713161  0.616819  1
  Pr  Pr16  1  0.087452  0.287581  0.117335  1
  Pr  Pr17  1  0.500000  0.500000  0.500000  1
  Lu  Lu18  1  0.000000  0.000000  0.500000  1
  Lu  Lu19  1  0.000000  0.000000  0.000000  1
  Ir  Ir20  1  0.855335  0.144913  0.249175  1
  Ir  Ir21  1  0.855087  0.855335  0.750825  1
  Ir  Ir22  1  0.144913  0.144665  0.750825  1
  Ir  Ir23  1  0.144665  0.855087  0.249175  1
  Ir  Ir24  1  0.655251  0.345234  0.748228  1
  Ir  Ir25  1  0.654766  0.655251  0.251772  1
  Ir  Ir26  1  0.345234  0.344749  0.251772  1
  Ir  Ir27  1  0.344749  0.654766  0.748228  1
  Ir  Ir28  1  0.500000  0.000000  0.116032  1
  Ir  Ir29  1  0.500000  0.000000  0.617587  1
  Ir  Ir30  1  0.000000  0.500000  0.883968  1
  Ir  Ir31  1  0.000000  0.500000  0.382413  1
