# generated using pymatgen
data_Hf18NiMo8Se
_symmetry_space_group_name_H-M   'P 1'
_cell_length_a   8.57897700
_cell_length_b   8.68974085
_cell_length_c   8.68973229
_cell_angle_alpha   119.99939410
_cell_angle_beta   90.00000000
_cell_angle_gamma   90.00000000
_symmetry_Int_Tables_number   1
_chemical_formula_structural   Hf18NiMo8Se
_chemical_formula_sum   'Hf18 Ni1 Mo8 Se1'
_cell_volume   561.02473457
_cell_formula_units_Z   1
loop_
 _symmetry_equiv_pos_site_id
 _symmetry_equiv_pos_as_xyz
  1  'x, y, z'
loop_
 _atom_site_type_symbol
 _atom_site_label
 _atom_site_symmetry_multiplicity
 _atom_site_fract_x
 _atom_site_fract_y
 _atom_site_fract_z
 _atom_site_occupancy
  Hf  Hf0  1  0.546084  0.806141  0.612280  1
  Hf  Hf1  1  0.546101  0.806160  0.193840  1
  Hf  Hf2  1  0.546084  0.387719  0.193859  1
  Hf  Hf3  1  0.444246  0.200635  0.401273  1
  Hf  Hf4  1  0.444245  0.200619  0.799381  1
  Hf  Hf5  1  0.444246  0.598727  0.799365  1
  Hf  Hf6  1  0.055754  0.200635  0.401273  1
  Hf  Hf7  1  0.055755  0.200619  0.799381  1
  Hf  Hf8  1  0.055754  0.598727  0.799365  1
  Hf  Hf9  1  0.953916  0.806141  0.612280  1
  Hf  Hf10  1  0.953899  0.806160  0.193840  1
  Hf  Hf11  1  0.953916  0.387719  0.193859  1
  Hf  Hf12  1  0.750000  0.455841  0.911676  1
  Hf  Hf13  1  0.750000  0.455839  0.544162  1
  Hf  Hf14  1  0.750000  0.088325  0.544160  1
  Hf  Hf15  1  0.250000  0.541834  0.083672  1
  Hf  Hf16  1  0.250000  0.541832  0.458168  1
  Hf  Hf17  1  0.250000  0.916329  0.458167  1
  Ni  Ni18  1  0.250000  0.333321  0.666676  1
  Mo  Mo19  1  0.750000  0.111096  0.222143  1
  Mo  Mo20  1  0.750000  0.111082  0.888919  1
  Mo  Mo21  1  0.750000  0.777856  0.888904  1
  Mo  Mo22  1  0.250000  0.888551  0.777137  1
  Mo  Mo23  1  0.250000  0.888558  0.111442  1
  Mo  Mo24  1  0.250000  0.222863  0.111449  1
  Mo  Mo25  1  0.498110  0.000000  0.000000  1
  Mo  Mo26  1  0.001890  0.000000  0.000000  1
  Se  Se27  1  0.750000  0.666670  0.333328  1
