# generated using pymatgen
data_Ho20Cd6NiRu
_symmetry_space_group_name_H-M   'P 1'
_cell_length_a   9.54680300
_cell_length_b   9.54680332
_cell_length_c   9.78679000
_cell_angle_alpha   90.00000000
_cell_angle_beta   90.00000000
_cell_angle_gamma   120.00000237
_symmetry_Int_Tables_number   1
_chemical_formula_structural   Ho20Cd6NiRu
_chemical_formula_sum   'Ho20 Cd6 Ni1 Ru1'
_cell_volume   772.47925834
_cell_formula_units_Z   1
loop_
 _symmetry_equiv_pos_site_id
 _symmetry_equiv_pos_as_xyz
  1  'x, y, z'
loop_
 _atom_site_type_symbol
 _atom_site_label
 _atom_site_symmetry_multiplicity
 _atom_site_fract_x
 _atom_site_fract_y
 _atom_site_fract_z
 _atom_site_occupancy
  Ho  Ho0  1  0.000000  0.000000  0.499886  1
  Ho  Ho1  1  0.000000  0.000000  0.000114  1
  Ho  Ho2  1  0.211315  0.788685  0.437552  1
  Ho  Ho3  1  0.211315  0.422631  0.437552  1
  Ho  Ho4  1  0.577369  0.788685  0.437552  1
  Ho  Ho5  1  0.790547  0.209453  0.559743  1
  Ho  Ho6  1  0.790547  0.581093  0.559743  1
  Ho  Ho7  1  0.418907  0.209453  0.559743  1
  Ho  Ho8  1  0.790547  0.209453  0.940257  1
  Ho  Ho9  1  0.790547  0.581093  0.940257  1
  Ho  Ho10  1  0.418907  0.209453  0.940257  1
  Ho  Ho11  1  0.211315  0.788685  0.062448  1
  Ho  Ho12  1  0.211315  0.422631  0.062448  1
  Ho  Ho13  1  0.577369  0.788685  0.062448  1
  Ho  Ho14  1  0.542620  0.457380  0.250000  1
  Ho  Ho15  1  0.542620  0.085239  0.250000  1
  Ho  Ho16  1  0.914761  0.457380  0.250000  1
  Ho  Ho17  1  0.458263  0.541737  0.750000  1
  Ho  Ho18  1  0.458263  0.916528  0.750000  1
  Ho  Ho19  1  0.083472  0.541737  0.750000  1
  Cd  Cd20  1  0.885039  0.114961  0.250000  1
  Cd  Cd21  1  0.885039  0.770080  0.250000  1
  Cd  Cd22  1  0.229920  0.114961  0.250000  1
  Cd  Cd23  1  0.114723  0.885277  0.750000  1
  Cd  Cd24  1  0.114723  0.229445  0.750000  1
  Cd  Cd25  1  0.770555  0.885277  0.750000  1
  Ni  Ni26  1  0.333333  0.666667  0.250000  1
  Ru  Ru27  1  0.666667  0.333333  0.750000  1
