# generated using pymatgen
data_Y6Tm4Sn5Bi
_symmetry_space_group_name_H-M   'P 1'
_cell_length_a   8.95841678
_cell_length_b   8.95841716
_cell_length_c   6.46962800
_cell_angle_alpha   90.00000000
_cell_angle_beta   90.00000000
_cell_angle_gamma   119.98984498
_symmetry_Int_Tables_number   1
_chemical_formula_structural   Y6Tm4Sn5Bi
_chemical_formula_sum   'Y6 Tm4 Sn5 Bi1'
_cell_volume   449.69381924
_cell_formula_units_Z   1
loop_
 _symmetry_equiv_pos_site_id
 _symmetry_equiv_pos_as_xyz
  1  'x, y, z'
loop_
 _atom_site_type_symbol
 _atom_site_label
 _atom_site_symmetry_multiplicity
 _atom_site_fract_x
 _atom_site_fract_y
 _atom_site_fract_z
 _atom_site_occupancy
  Y  Y0  1  0.760367  0.760367  0.250000  1
  Y  Y1  1  0.999554  0.240581  0.250000  1
  Y  Y2  1  0.760979  0.005053  0.750000  1
  Y  Y3  1  0.240581  0.999554  0.250000  1
  Y  Y4  1  0.005053  0.760979  0.750000  1
  Y  Y5  1  0.237275  0.237275  0.750000  1
  Tm  Tm6  1  0.330170  0.667395  0.498587  1
  Tm  Tm7  1  0.667395  0.330170  0.498587  1
  Tm  Tm8  1  0.330170  0.667395  0.001413  1
  Tm  Tm9  1  0.667395  0.330170  0.001413  1
  Sn  Sn10  1  0.397012  0.000628  0.750000  1
  Sn  Sn11  1  0.603848  0.998610  0.250000  1
  Sn  Sn12  1  0.000628  0.397012  0.750000  1
  Sn  Sn13  1  0.395235  0.395235  0.250000  1
  Sn  Sn14  1  0.998610  0.603848  0.250000  1
  Bi  Bi15  1  0.605730  0.605730  0.750000  1
