# generated using pymatgen
data_CaAc6CoI12
_symmetry_space_group_name_H-M   'P 1'
_cell_length_a   10.49692447
_cell_length_b   10.49692396
_cell_length_c   10.49692353
_cell_angle_alpha   107.13665841
_cell_angle_beta   107.13664810
_cell_angle_gamma   107.13665601
_symmetry_Int_Tables_number   1
_chemical_formula_structural   CaAc6CoI12
_chemical_formula_sum   'Ca1 Ac6 Co1 I12'
_cell_volume   959.62077502
_cell_formula_units_Z   1
loop_
 _symmetry_equiv_pos_site_id
 _symmetry_equiv_pos_as_xyz
  1  'x, y, z'
loop_
 _atom_site_type_symbol
 _atom_site_label
 _atom_site_symmetry_multiplicity
 _atom_site_fract_x
 _atom_site_fract_y
 _atom_site_fract_z
 _atom_site_occupancy
  Ca  Ca0  1  0.500000  0.500000  0.500000  1
  Ac  Ac1  1  0.974528  0.899493  0.696993  1
  Ac  Ac2  1  0.025472  0.100507  0.303007  1
  Ac  Ac3  1  0.100507  0.303007  0.025472  1
  Ac  Ac4  1  0.303007  0.025472  0.100507  1
  Ac  Ac5  1  0.899493  0.696993  0.974528  1
  Ac  Ac6  1  0.696993  0.974528  0.899493  1
  Co  Co7  1  0.000000  0.000000  0.000000  1
  I  I8  1  0.533635  0.611328  0.828613  1
  I  I9  1  0.466365  0.388672  0.171387  1
  I  I10  1  0.321433  0.926923  0.773755  1
  I  I11  1  0.388672  0.171387  0.466365  1
  I  I12  1  0.926923  0.773755  0.321433  1
  I  I13  1  0.678567  0.073077  0.226245  1
  I  I14  1  0.073077  0.226245  0.678567  1
  I  I15  1  0.773755  0.321433  0.926923  1
  I  I16  1  0.226245  0.678567  0.073077  1
  I  I17  1  0.828613  0.533635  0.611328  1
  I  I18  1  0.171387  0.466365  0.388672  1
  I  I19  1  0.611328  0.828613  0.533635  1
