# generated using pymatgen
data_AlTcCl8
_symmetry_space_group_name_H-M   'P 1'
_cell_length_a   8.72742148
_cell_length_b   8.57449500
_cell_length_c   9.66814047
_cell_angle_alpha   90.00000000
_cell_angle_beta   63.16969630
_cell_angle_gamma   90.00000000
_symmetry_Int_Tables_number   1
_chemical_formula_structural   AlTcCl8
_chemical_formula_sum   'Al2 Tc2 Cl16'
_cell_volume   645.61160816
_cell_formula_units_Z   2
loop_
 _symmetry_equiv_pos_site_id
 _symmetry_equiv_pos_as_xyz
  1  'x, y, z'
loop_
 _atom_site_type_symbol
 _atom_site_label
 _atom_site_symmetry_multiplicity
 _atom_site_fract_x
 _atom_site_fract_y
 _atom_site_fract_z
 _atom_site_occupancy
  Al  Al0  1  0.313591  0.750000  0.372817  1
  Al  Al1  1  0.686410  0.250000  0.627181  1
  Tc  Tc2  1  0.887270  0.250000  0.225460  1
  Tc  Tc3  1  0.112742  0.750000  0.774516  1
  Cl  Cl4  1  0.163946  0.250000  0.052334  1
  Cl  Cl5  1  0.783720  0.250000  0.052334  1
  Cl  Cl6  1  0.378044  0.541483  0.243912  1
  Cl  Cl7  1  0.378044  0.958517  0.243912  1
  Cl  Cl8  1  0.869155  0.512623  0.261690  1
  Cl  Cl9  1  0.869155  0.987378  0.261690  1
  Cl  Cl10  1  0.583010  0.250000  0.453302  1
  Cl  Cl11  1  0.963687  0.250000  0.453302  1
  Cl  Cl12  1  0.036304  0.750000  0.546630  1
  Cl  Cl13  1  0.417064  0.750000  0.546630  1
  Cl  Cl14  1  0.130837  0.012608  0.738328  1
  Cl  Cl15  1  0.130837  0.487392  0.738328  1
  Cl  Cl16  1  0.621967  0.041485  0.756067  1
  Cl  Cl17  1  0.621967  0.458514  0.756067  1
  Cl  Cl18  1  0.216276  0.750000  0.947751  1
  Cl  Cl19  1  0.835972  0.750000  0.947751  1
