# generated using pymatgen
data_NdSmCd4(Ga2Ni)2
_symmetry_space_group_name_H-M   'P 1'
_cell_length_a   4.14811604
_cell_length_b   6.71249500
_cell_length_c   8.70273165
_cell_angle_alpha   90.00000000
_cell_angle_beta   103.78755660
_cell_angle_gamma   90.00000000
_symmetry_Int_Tables_number   1
_chemical_formula_structural   NdSmCd4(Ga2Ni)2
_chemical_formula_sum   'Nd1 Sm1 Cd4 Ga4 Ni2'
_cell_volume   235.33845913
_cell_formula_units_Z   1
loop_
 _symmetry_equiv_pos_site_id
 _symmetry_equiv_pos_as_xyz
  1  'x, y, z'
loop_
 _atom_site_type_symbol
 _atom_site_label
 _atom_site_symmetry_multiplicity
 _atom_site_fract_x
 _atom_site_fract_y
 _atom_site_fract_z
 _atom_site_occupancy
  Nd  Nd0  1  0.128675  0.250000  0.257352  1
  Sm  Sm1  1  0.870697  0.750000  0.741393  1
  Cd  Cd2  1  0.499404  0.500796  0.998808  1
  Cd  Cd3  1  0.499404  0.999204  0.998808  1
  Cd  Cd4  1  0.075702  0.750000  0.151405  1
  Cd  Cd5  1  0.924027  0.250000  0.848054  1
  Ga  Ga6  1  0.691424  0.555442  0.382850  1
  Ga  Ga7  1  0.309372  0.445529  0.618742  1
  Ga  Ga8  1  0.691424  0.944558  0.382850  1
  Ga  Ga9  1  0.309372  0.054471  0.618742  1
  Ni  Ni10  1  0.231801  0.750000  0.463601  1
  Ni  Ni11  1  0.768698  0.250000  0.537395  1
