# generated using pymatgen
data_Dy4TiTc3B16
_symmetry_space_group_name_H-M   'P 1'
_cell_length_a   3.59887100
_cell_length_b   5.99019059
_cell_length_c   11.57497602
_cell_angle_alpha   89.89335787
_cell_angle_beta   90.00000000
_cell_angle_gamma   90.00000000
_symmetry_Int_Tables_number   1
_chemical_formula_structural   Dy4TiTc3B16
_chemical_formula_sum   'Dy4 Ti1 Tc3 B16'
_cell_volume   249.53201205
_cell_formula_units_Z   1
loop_
 _symmetry_equiv_pos_site_id
 _symmetry_equiv_pos_as_xyz
  1  'x, y, z'
loop_
 _atom_site_type_symbol
 _atom_site_label
 _atom_site_symmetry_multiplicity
 _atom_site_fract_x
 _atom_site_fract_y
 _atom_site_fract_z
 _atom_site_occupancy
  Dy  Dy0  1  0.000000  0.624153  0.349921  1
  Dy  Dy1  1  0.000000  0.374764  0.649010  1
  Dy  Dy2  1  0.000000  0.127713  0.151851  1
  Dy  Dy3  1  0.000000  0.872597  0.848886  1
  Ti  Ti4  1  0.000000  0.870806  0.583555  1
  Tc  Tc5  1  0.000000  0.633036  0.085385  1
  Tc  Tc6  1  0.000000  0.365782  0.916510  1
  Tc  Tc7  1  0.000000  0.128951  0.413712  1
  B  B8  1  0.500000  0.784979  0.185680  1
  B  B9  1  0.500000  0.215479  0.815000  1
  B  B10  1  0.500000  0.286470  0.315123  1
  B  B11  1  0.500000  0.710360  0.687265  1
  B  B12  1  0.500000  0.864351  0.031683  1
  B  B13  1  0.500000  0.136249  0.968549  1
  B  B14  1  0.500000  0.364136  0.467268  1
  B  B15  1  0.500000  0.633418  0.531666  1
  B  B16  1  0.500000  0.887952  0.451854  1
  B  B17  1  0.500000  0.115618  0.545715  1
  B  B18  1  0.500000  0.387875  0.047501  1
  B  B19  1  0.500000  0.613372  0.952759  1
  B  B20  1  0.500000  0.977352  0.307477  1
  B  B21  1  0.500000  0.024889  0.693623  1
  B  B22  1  0.500000  0.476876  0.192386  1
  B  B23  1  0.500000  0.522825  0.807621  1
