# generated using pymatgen
data_Eu2Ga6CuPd
_symmetry_space_group_name_H-M   'P 1'
_cell_length_a   6.11503012
_cell_length_b   6.11502959
_cell_length_c   5.89727900
_cell_angle_alpha   90.00000000
_cell_angle_beta   90.00000000
_cell_angle_gamma   116.92824847
_symmetry_Int_Tables_number   1
_chemical_formula_structural   Eu2Ga6CuPd
_chemical_formula_sum   'Eu2 Ga6 Cu1 Pd1'
_cell_volume   196.61036419
_cell_formula_units_Z   1
loop_
 _symmetry_equiv_pos_site_id
 _symmetry_equiv_pos_as_xyz
  1  'x, y, z'
loop_
 _atom_site_type_symbol
 _atom_site_label
 _atom_site_symmetry_multiplicity
 _atom_site_fract_x
 _atom_site_fract_y
 _atom_site_fract_z
 _atom_site_occupancy
  Eu  Eu0  1  0.232545  0.767455  0.750000  1
  Eu  Eu1  1  0.768323  0.231677  0.250000  1
  Ga  Ga2  1  0.666846  0.333154  0.750000  1
  Ga  Ga3  1  0.335523  0.664477  0.250000  1
  Ga  Ga4  1  0.718394  0.719134  0.995391  1
  Ga  Ga5  1  0.718394  0.719134  0.504609  1
  Ga  Ga6  1  0.280866  0.281606  0.995391  1
  Ga  Ga7  1  0.280866  0.281606  0.504609  1
  Cu  Cu8  1  0.901308  0.098692  0.750000  1
  Pd  Pd9  1  0.096934  0.903066  0.250000  1
