# generated using pymatgen
data_Zr6Ti3Al13Co3Pt4
_symmetry_space_group_name_H-M   'P 1'
_cell_length_a   8.73594432
_cell_length_b   8.73594362
_cell_length_c   8.72832959
_cell_angle_alpha   59.75425191
_cell_angle_beta   59.75425224
_cell_angle_gamma   59.62735934
_symmetry_Int_Tables_number   1
_chemical_formula_structural   Zr6Ti3Al13Co3Pt4
_chemical_formula_sum   'Zr6 Ti3 Al13 Co3 Pt4'
_cell_volume   467.93303441
_cell_formula_units_Z   1
loop_
 _symmetry_equiv_pos_site_id
 _symmetry_equiv_pos_as_xyz
  1  'x, y, z'
loop_
 _atom_site_type_symbol
 _atom_site_label
 _atom_site_symmetry_multiplicity
 _atom_site_fract_x
 _atom_site_fract_y
 _atom_site_fract_z
 _atom_site_occupancy
  Zr  Zr0  1  0.692043  0.309108  0.310716  1
  Zr  Zr1  1  0.690516  0.311318  0.689446  1
  Zr  Zr2  1  0.689073  0.689073  0.313011  1
  Zr  Zr3  1  0.311318  0.690516  0.689446  1
  Zr  Zr4  1  0.309108  0.692043  0.310716  1
  Zr  Zr5  1  0.310732  0.310732  0.690211  1
  Ti  Ti6  1  0.648807  0.113396  0.127002  1
  Ti  Ti7  1  0.113396  0.648807  0.127002  1
  Ti  Ti8  1  0.121253  0.121253  0.647412  1
  Al  Al9  1  0.114872  0.114872  0.117067  1
  Al  Al10  1  0.352121  0.884596  0.874181  1
  Al  Al11  1  0.884596  0.352121  0.874181  1
  Al  Al12  1  0.878841  0.878841  0.354216  1
  Al  Al13  1  0.882872  0.882872  0.879721  1
  Al  Al14  1  0.996608  0.338933  0.340071  1
  Al  Al15  1  0.338933  0.996608  0.340071  1
  Al  Al16  1  0.334812  0.334812  0.997381  1
  Al  Al17  1  0.331919  0.331919  0.343306  1
  Al  Al18  1  0.004457  0.659950  0.659389  1
  Al  Al19  1  0.659950  0.004457  0.659389  1
  Al  Al20  1  0.664679  0.664679  0.004440  1
  Al  Al21  1  0.669457  0.669457  0.656324  1
  Co  Co22  1  0.996285  0.996285  0.998208  1
  Co  Co23  1  0.498689  0.003348  0.496589  1
  Co  Co24  1  0.003348  0.498689  0.496589  1
  Pt  Pt25  1  0.500109  0.000653  0.001148  1
  Pt  Pt26  1  0.499597  0.499597  0.001468  1
  Pt  Pt27  1  0.000653  0.500109  0.001148  1
  Pt  Pt28  1  0.000957  0.000957  0.500151  1
