# generated using pymatgen
data_Yb2TaCrO6
_symmetry_space_group_name_H-M   'P 1'
_cell_length_a   5.47102670
_cell_length_b   5.46021132
_cell_length_c   5.47452737
_cell_angle_alpha   119.67619573
_cell_angle_beta   90.36505644
_cell_angle_gamma   119.66091388
_symmetry_Int_Tables_number   1
_chemical_formula_structural   Yb2TaCrO6
_chemical_formula_sum   'Yb2 Ta1 Cr1 O6'
_cell_volume   116.42685488
_cell_formula_units_Z   1
loop_
 _symmetry_equiv_pos_site_id
 _symmetry_equiv_pos_as_xyz
  1  'x, y, z'
loop_
 _atom_site_type_symbol
 _atom_site_label
 _atom_site_symmetry_multiplicity
 _atom_site_fract_x
 _atom_site_fract_y
 _atom_site_fract_z
 _atom_site_occupancy
  Yb  Yb0  1  0.771455  0.517095  0.247191  1
  Yb  Yb1  1  0.228545  0.482905  0.752809  1
  Ta  Ta2  1  0.500000  0.000000  0.500000  1
  Cr  Cr3  1  0.000000  0.000000  0.000000  1
  O  O4  1  0.202050  0.501336  0.191737  1
  O  O5  1  0.351839  0.093901  0.245726  1
  O  O6  1  0.648161  0.906099  0.754274  1
  O  O7  1  0.811931  0.008379  0.313152  1
  O  O8  1  0.797950  0.498664  0.808263  1
  O  O9  1  0.188069  0.991621  0.686848  1
