# generated using pymatgen
data_Ba4ZrMoO8
_symmetry_space_group_name_H-M   'P 1'
_cell_length_a   7.33151466
_cell_length_b   7.33151425
_cell_length_c   5.97895700
_cell_angle_alpha   90.00000000
_cell_angle_beta   90.00000000
_cell_angle_gamma   132.40664799
_symmetry_Int_Tables_number   1
_chemical_formula_structural   Ba4ZrMoO8
_chemical_formula_sum   'Ba4 Zr1 Mo1 O8'
_cell_volume   237.29633863
_cell_formula_units_Z   1
loop_
 _symmetry_equiv_pos_site_id
 _symmetry_equiv_pos_as_xyz
  1  'x, y, z'
loop_
 _atom_site_type_symbol
 _atom_site_label
 _atom_site_symmetry_multiplicity
 _atom_site_fract_x
 _atom_site_fract_y
 _atom_site_fract_z
 _atom_site_occupancy
  Ba  Ba0  1  0.354380  0.645620  0.000000  1
  Ba  Ba1  1  0.854647  0.145353  0.500000  1
  Ba  Ba2  1  0.145353  0.854647  0.500000  1
  Ba  Ba3  1  0.645620  0.354380  0.000000  1
  Zr  Zr4  1  0.000000  0.000000  0.000000  1
  Mo  Mo5  1  0.500000  0.500000  0.500000  1
  O  O6  1  0.158747  0.841253  0.000000  1
  O  O7  1  0.654058  0.345942  0.500000  1
  O  O8  1  0.345942  0.654058  0.500000  1
  O  O9  1  0.841253  0.158747  0.000000  1
  O  O10  1  0.253056  0.253056  0.250244  1
  O  O11  1  0.746944  0.746944  0.749756  1
  O  O12  1  0.253056  0.253056  0.749756  1
  O  O13  1  0.746944  0.746944  0.250244  1
