# generated using pymatgen
data_Dy4Co3TcOs4
_symmetry_space_group_name_H-M   'P 1'
_cell_length_a   5.11745446
_cell_length_b   5.26717304
_cell_length_c   8.71362700
_cell_angle_alpha   90.00000000
_cell_angle_beta   90.00000000
_cell_angle_gamma   119.07985169
_symmetry_Int_Tables_number   1
_chemical_formula_structural   Dy4Co3TcOs4
_chemical_formula_sum   'Dy4 Co3 Tc1 Os4'
_cell_volume   205.26445076
_cell_formula_units_Z   1
loop_
 _symmetry_equiv_pos_site_id
 _symmetry_equiv_pos_as_xyz
  1  'x, y, z'
loop_
 _atom_site_type_symbol
 _atom_site_label
 _atom_site_symmetry_multiplicity
 _atom_site_fract_x
 _atom_site_fract_y
 _atom_site_fract_z
 _atom_site_occupancy
  Dy  Dy0  1  0.326996  0.668156  0.439634  1
  Dy  Dy1  1  0.661716  0.334263  0.566875  1
  Dy  Dy2  1  0.661716  0.334263  0.933125  1
  Dy  Dy3  1  0.326996  0.668156  0.060366  1
  Co  Co4  1  0.823935  0.649130  0.250000  1
  Co  Co5  1  0.187484  0.838974  0.750000  1
  Co  Co6  1  0.181173  0.341571  0.750000  1
  Tc  Tc7  1  0.832542  0.156390  0.250000  1
  Os  Os8  1  0.988688  0.003071  0.504261  1
  Os  Os9  1  0.988688  0.003071  0.995739  1
  Os  Os10  1  0.347432  0.165285  0.250000  1
  Os  Os11  1  0.672635  0.837671  0.750000  1
