# generated using pymatgen
data_Ca(Zn2Ir)4
_symmetry_space_group_name_H-M   'P 1'
_cell_length_a   6.73171940
_cell_length_b   6.73171954
_cell_length_c   6.73171884
_cell_angle_alpha   100.01815024
_cell_angle_beta   100.01816753
_cell_angle_gamma   130.69855772
_symmetry_Int_Tables_number   1
_chemical_formula_structural   Ca(Zn2Ir)4
_chemical_formula_sum   'Ca1 Zn8 Ir4'
_cell_volume   210.20064065
_cell_formula_units_Z   1
loop_
 _symmetry_equiv_pos_site_id
 _symmetry_equiv_pos_as_xyz
  1  'x, y, z'
loop_
 _atom_site_type_symbol
 _atom_site_label
 _atom_site_symmetry_multiplicity
 _atom_site_fract_x
 _atom_site_fract_y
 _atom_site_fract_z
 _atom_site_occupancy
  Ca  Ca0  1  0.000000  0.000000  0.000000  1
  Zn  Zn1  1  0.731443  0.500000  0.231443  1
  Zn  Zn2  1  0.500000  0.731443  0.231443  1
  Zn  Zn3  1  0.000000  0.328569  0.328569  1
  Zn  Zn4  1  0.328569  0.000000  0.328569  1
  Zn  Zn5  1  0.000000  0.671431  0.671431  1
  Zn  Zn6  1  0.671431  0.000000  0.671431  1
  Zn  Zn7  1  0.500000  0.268557  0.768557  1
  Zn  Zn8  1  0.268557  0.500000  0.768557  1
  Ir  Ir9  1  0.500000  0.000000  0.000000  1
  Ir  Ir10  1  0.000000  0.500000  0.000000  1
  Ir  Ir11  1  0.000000  0.000000  0.500000  1
  Ir  Ir12  1  0.500000  0.500000  0.500000  1
