# generated using pymatgen
data_Li4La2SmSn4
_symmetry_space_group_name_H-M   'P 1'
_cell_length_a   8.92598903
_cell_length_b   8.92598853
_cell_length_c   8.92598874
_cell_angle_alpha   148.98352052
_cell_angle_beta   132.75411983
_cell_angle_gamma   57.59689127
_symmetry_Int_Tables_number   1
_chemical_formula_structural   Li4La2SmSn4
_chemical_formula_sum   'Li4 La2 Sm1 Sn4'
_cell_volume   267.08662326
_cell_formula_units_Z   1
loop_
 _symmetry_equiv_pos_site_id
 _symmetry_equiv_pos_as_xyz
  1  'x, y, z'
loop_
 _atom_site_type_symbol
 _atom_site_label
 _atom_site_symmetry_multiplicity
 _atom_site_fract_x
 _atom_site_fract_y
 _atom_site_fract_z
 _atom_site_occupancy
  Li  Li0  1  0.481138  0.671495  0.809644  1
  Li  Li1  1  0.861851  0.671495  0.190356  1
  Li  Li2  1  0.138149  0.328505  0.809644  1
  Li  Li3  1  0.518862  0.328505  0.190356  1
  La  La4  1  0.868331  0.868331  0.000000  1
  La  La5  1  0.131669  0.131669  0.000000  1
  Sm  Sm6  1  0.500000  0.000000  0.500000  1
  Sn  Sn7  1  0.289347  0.789347  0.500000  1
  Sn  Sn8  1  0.710653  0.210653  0.500000  1
  Sn  Sn9  1  0.798183  0.500000  0.298183  1
  Sn  Sn10  1  0.201817  0.500000  0.701817  1
