# generated using pymatgen
data_Tb7Tm13Pb16
_symmetry_space_group_name_H-M   'P 1'
_cell_length_a   8.15615347
_cell_length_b   8.22260892
_cell_length_c   15.50951400
_cell_angle_alpha   89.98613352
_cell_angle_beta   90.07218741
_cell_angle_gamma   89.96344902
_symmetry_Int_Tables_number   1
_chemical_formula_structural   Tb7Tm13Pb16
_chemical_formula_sum   'Tb7 Tm13 Pb16'
_cell_volume   1040.14232136
_cell_formula_units_Z   1
loop_
 _symmetry_equiv_pos_site_id
 _symmetry_equiv_pos_as_xyz
  1  'x, y, z'
loop_
 _atom_site_type_symbol
 _atom_site_label
 _atom_site_symmetry_multiplicity
 _atom_site_fract_x
 _atom_site_fract_y
 _atom_site_fract_z
 _atom_site_occupancy
  Tb  Tb0  1  0.036136  0.176893  0.599833  1
  Tb  Tb1  1  0.463821  0.676644  0.400378  1
  Tb  Tb2  1  0.963438  0.823621  0.099671  1
  Tb  Tb3  1  0.463541  0.676397  0.099556  1
  Tb  Tb4  1  0.963783  0.823301  0.400352  1
  Tb  Tb5  1  0.536394  0.323570  0.599640  1
  Tb  Tb6  1  0.036691  0.176704  0.900142  1
  Tm  Tm7  1  0.377051  0.841538  0.878537  1
  Tm  Tm8  1  0.876805  0.658516  0.621570  1
  Tm  Tm9  1  0.623051  0.158755  0.378584  1
  Tm  Tm10  1  0.122530  0.340960  0.121382  1
  Tm  Tm11  1  0.622576  0.159031  0.121117  1
  Tm  Tm12  1  0.123011  0.341181  0.378497  1
  Tm  Tm13  1  0.376879  0.841521  0.621646  1
  Tm  Tm14  1  0.876916  0.658444  0.878551  1
  Tm  Tm15  1  0.537167  0.323797  0.900025  1
  Tm  Tm16  1  0.208672  0.504685  0.750302  1
  Tm  Tm17  1  0.708127  0.995095  0.750261  1
  Tm  Tm18  1  0.791675  0.494833  0.249921  1
  Tm  Tm19  1  0.291685  0.005181  0.249903  1
  Pb  Pb20  1  0.282307  0.034229  0.042742  1
  Pb  Pb21  1  0.782631  0.465431  0.457304  1
  Pb  Pb22  1  0.716989  0.965675  0.542876  1
  Pb  Pb23  1  0.218708  0.532949  0.956989  1
  Pb  Pb24  1  0.717037  0.966799  0.957040  1
  Pb  Pb25  1  0.217432  0.534256  0.542827  1
  Pb  Pb26  1  0.282752  0.034383  0.457187  1
  Pb  Pb27  1  0.781822  0.464978  0.042140  1
  Pb  Pb28  1  0.571289  0.626792  0.750079  1
  Pb  Pb29  1  0.071379  0.872752  0.750036  1
  Pb  Pb30  1  0.428602  0.372591  0.249905  1
  Pb  Pb31  1  0.928569  0.127522  0.249977  1
  Pb  Pb32  1  0.348736  0.154384  0.750770  1
  Pb  Pb33  1  0.847120  0.346642  0.750351  1
  Pb  Pb34  1  0.652328  0.846704  0.249933  1
  Pb  Pb35  1  0.152348  0.653248  0.249978  1
