# generated using pymatgen
data_Ta2W3
_symmetry_space_group_name_H-M   'P 1'
_cell_length_a   4.55637280
_cell_length_b   4.55805823
_cell_length_c   5.39220258
_cell_angle_alpha   115.08342263
_cell_angle_beta   115.03497213
_cell_angle_gamma   60.00148223
_symmetry_Int_Tables_number   1
_chemical_formula_structural   Ta2W3
_chemical_formula_sum   'Ta2 W3'
_cell_volume   84.59352885
_cell_formula_units_Z   1
loop_
 _symmetry_equiv_pos_site_id
 _symmetry_equiv_pos_as_xyz
  1  'x, y, z'
loop_
 _atom_site_type_symbol
 _atom_site_label
 _atom_site_symmetry_multiplicity
 _atom_site_fract_x
 _atom_site_fract_y
 _atom_site_fract_z
 _atom_site_occupancy
  Ta  Ta0  1  0.434386  0.424102  0.738154  1
  Ta  Ta1  1  0.229155  0.219402  0.122547  1
  W  W2  1  0.635685  0.625239  0.341809  1
  W  W3  1  0.831750  0.821950  0.930387  1
  W  W4  1  0.028243  0.017323  0.518939  1
