# generated using pymatgen
data_Na2Ga(SiPd2)3
_symmetry_space_group_name_H-M   'P 1'
_cell_length_a   6.76205754
_cell_length_b   6.72253697
_cell_length_c   6.76205641
_cell_angle_alpha   129.42235537
_cell_angle_beta   115.67494088
_cell_angle_gamma   86.27514307
_symmetry_Int_Tables_number   1
_chemical_formula_structural   Na2Ga(SiPd2)3
_chemical_formula_sum   'Na2 Ga1 Si3 Pd6'
_cell_volume   204.02601377
_cell_formula_units_Z   1
loop_
 _symmetry_equiv_pos_site_id
 _symmetry_equiv_pos_as_xyz
  1  'x, y, z'
loop_
 _atom_site_type_symbol
 _atom_site_label
 _atom_site_symmetry_multiplicity
 _atom_site_fract_x
 _atom_site_fract_y
 _atom_site_fract_z
 _atom_site_occupancy
  Na  Na0  1  0.000883  0.979567  0.978684  1
  Na  Na1  1  0.499834  0.048022  0.548188  1
  Ga  Ga2  1  0.351154  0.410266  0.059111  1
  Si  Si3  1  0.808233  0.238365  0.430131  1
  Si  Si4  1  0.650286  0.704650  0.054363  1
  Si  Si5  1  0.193668  0.622083  0.428414  1
  Pd  Pd6  1  0.946149  0.500495  0.951109  1
  Pd  Pd7  1  0.549385  0.500495  0.554346  1
  Pd  Pd8  1  0.040466  0.995462  0.538110  1
  Pd  Pd9  1  0.794940  0.495067  0.287422  1
  Pd  Pd10  1  0.207645  0.495067  0.700125  1
  Pd  Pd11  1  0.457353  0.995462  0.954997  1
