# generated using pymatgen
data_YbDy2Sc2(In2Pt)2
_symmetry_space_group_name_H-M   'P 1'
_cell_length_a   3.56644100
_cell_length_b   8.02689200
_cell_length_c   17.94323400
_cell_angle_alpha   90.00000000
_cell_angle_beta   90.00000000
_cell_angle_gamma   90.00000000
_symmetry_Int_Tables_number   1
_chemical_formula_structural   YbDy2Sc2(In2Pt)2
_chemical_formula_sum   'Yb2 Dy4 Sc4 In8 Pt4'
_cell_volume   513.66879609
_cell_formula_units_Z   2
loop_
 _symmetry_equiv_pos_site_id
 _symmetry_equiv_pos_as_xyz
  1  'x, y, z'
loop_
 _atom_site_type_symbol
 _atom_site_label
 _atom_site_symmetry_multiplicity
 _atom_site_fract_x
 _atom_site_fract_y
 _atom_site_fract_z
 _atom_site_occupancy
  Yb  Yb0  1  0.000000  0.000000  0.000000  1
  Yb  Yb1  1  0.000000  0.500000  0.500000  1
  Dy  Dy2  1  0.000000  0.241638  0.216434  1
  Dy  Dy3  1  0.000000  0.758362  0.783566  1
  Dy  Dy4  1  0.000000  0.258362  0.716434  1
  Dy  Dy5  1  0.000000  0.741638  0.283566  1
  Sc  Sc6  1  0.000000  0.122123  0.412550  1
  Sc  Sc7  1  0.000000  0.877877  0.587450  1
  Sc  Sc8  1  0.000000  0.377877  0.912550  1
  Sc  Sc9  1  0.000000  0.622123  0.087450  1
  In  In10  1  0.500000  0.416204  0.350668  1
  In  In11  1  0.500000  0.583796  0.649332  1
  In  In12  1  0.500000  0.083796  0.850668  1
  In  In13  1  0.500000  0.916204  0.149332  1
  In  In14  1  0.500000  0.308852  0.059881  1
  In  In15  1  0.500000  0.691148  0.940119  1
  In  In16  1  0.500000  0.191148  0.559881  1
  In  In17  1  0.500000  0.808852  0.440119  1
  Pt  Pt18  1  0.500000  0.029903  0.307105  1
  Pt  Pt19  1  0.500000  0.970097  0.692895  1
  Pt  Pt20  1  0.500000  0.470097  0.807105  1
  Pt  Pt21  1  0.500000  0.529903  0.192895  1
