# generated using pymatgen
data_LiSbCl6
_symmetry_space_group_name_H-M   'P 1'
_cell_length_a   9.79655879
_cell_length_b   9.79655876
_cell_length_c   9.79655946
_cell_angle_alpha   82.58110499
_cell_angle_beta   82.58110396
_cell_angle_gamma   82.58110801
_symmetry_Int_Tables_number   1
_chemical_formula_structural   LiSbCl6
_chemical_formula_sum   'Li4 Sb4 Cl24'
_cell_volume   918.46018679
_cell_formula_units_Z   4
loop_
 _symmetry_equiv_pos_site_id
 _symmetry_equiv_pos_as_xyz
  1  'x, y, z'
loop_
 _atom_site_type_symbol
 _atom_site_label
 _atom_site_symmetry_multiplicity
 _atom_site_fract_x
 _atom_site_fract_y
 _atom_site_fract_z
 _atom_site_occupancy
  Li  Li0  1  0.338731  0.338731  0.338731  1
  Li  Li1  1  0.166504  0.670693  0.166921  1
  Li  Li2  1  0.166921  0.166504  0.670693  1
  Li  Li3  1  0.670693  0.166921  0.166504  1
  Sb  Sb4  1  0.503179  0.992441  0.502762  1
  Sb  Sb5  1  0.999002  0.999002  0.999002  1
  Sb  Sb6  1  0.502762  0.503179  0.992441  1
  Sb  Sb7  1  0.992441  0.502762  0.503179  1
  Cl  Cl8  1  0.938177  0.268186  0.573158  1
  Cl  Cl9  1  0.421393  0.775372  0.568066  1
  Cl  Cl10  1  0.078246  0.222264  0.918263  1
  Cl  Cl11  1  0.568066  0.421393  0.775372  1
  Cl  Cl12  1  0.918263  0.078246  0.222264  1
  Cl  Cl13  1  0.417133  0.077277  0.722414  1
  Cl  Cl14  1  0.573158  0.938177  0.268186  1
  Cl  Cl15  1  0.089427  0.429227  0.272975  1
  Cl  Cl16  1  0.228080  0.417551  0.571892  1
  Cl  Cl17  1  0.222264  0.918263  0.078246  1
  Cl  Cl18  1  0.571892  0.228080  0.417551  1
  Cl  Cl19  1  0.935120  0.768847  0.073137  1
  Cl  Cl20  1  0.775372  0.568066  0.421393  1
  Cl  Cl21  1  0.724789  0.925522  0.573214  1
  Cl  Cl22  1  0.429227  0.272975  0.089427  1
  Cl  Cl23  1  0.272975  0.089427  0.429227  1
  Cl  Cl24  1  0.417551  0.571892  0.228080  1
  Cl  Cl25  1  0.768847  0.073137  0.935120  1
  Cl  Cl26  1  0.077277  0.722414  0.417133  1
  Cl  Cl27  1  0.573214  0.724789  0.925522  1
  Cl  Cl28  1  0.925521  0.573214  0.724789  1
  Cl  Cl29  1  0.722414  0.417133  0.077277  1
  Cl  Cl30  1  0.268186  0.573158  0.938177  1
  Cl  Cl31  1  0.073137  0.935120  0.768847  1
