# generated using pymatgen
data_Zr6Ti16Re5Pt2
_symmetry_space_group_name_H-M   'P 1'
_cell_length_a   8.99271006
_cell_length_b   8.99270970
_cell_length_c   9.04380000
_cell_angle_alpha   59.81188542
_cell_angle_beta   59.81188675
_cell_angle_gamma   60.37623926
_symmetry_Int_Tables_number   1
_chemical_formula_structural   Zr6Ti16Re5Pt2
_chemical_formula_sum   'Zr6 Ti16 Re5 Pt2'
_cell_volume   517.11716820
_cell_formula_units_Z   1
loop_
 _symmetry_equiv_pos_site_id
 _symmetry_equiv_pos_as_xyz
  1  'x, y, z'
loop_
 _atom_site_type_symbol
 _atom_site_label
 _atom_site_symmetry_multiplicity
 _atom_site_fract_x
 _atom_site_fract_y
 _atom_site_fract_z
 _atom_site_occupancy
  Zr  Zr0  1  0.690344  0.690344  0.309656  1
  Zr  Zr1  1  0.307018  0.692982  0.307018  1
  Zr  Zr2  1  0.692982  0.307018  0.307018  1
  Zr  Zr3  1  0.309656  0.309656  0.690344  1
  Zr  Zr4  1  0.692982  0.307018  0.692982  1
  Zr  Zr5  1  0.307018  0.692982  0.692982  1
  Ti  Ti6  1  0.880740  0.880740  0.351562  1
  Ti  Ti7  1  0.886959  0.351562  0.880740  1
  Ti  Ti8  1  0.351562  0.886959  0.880740  1
  Ti  Ti9  1  0.880740  0.880740  0.886959  1
  Ti  Ti10  1  0.119260  0.119260  0.648438  1
  Ti  Ti11  1  0.113041  0.648438  0.119260  1
  Ti  Ti12  1  0.648438  0.113041  0.119260  1
  Ti  Ti13  1  0.119260  0.119260  0.113041  1
  Ti  Ti14  1  0.669405  0.669405  0.994101  1
  Ti  Ti15  1  0.667087  0.994101  0.669405  1
  Ti  Ti16  1  0.994101  0.667087  0.669405  1
  Ti  Ti17  1  0.669405  0.669405  0.667087  1
  Ti  Ti18  1  0.330595  0.330595  0.005899  1
  Ti  Ti19  1  0.332913  0.005899  0.330595  1
  Ti  Ti20  1  0.005899  0.332913  0.330595  1
  Ti  Ti21  1  0.330595  0.330595  0.332913  1
  Re  Re22  1  0.000000  0.000000  0.000000  1
  Re  Re23  1  0.500000  0.000000  0.500000  1
  Re  Re24  1  0.000000  0.500000  0.500000  1
  Re  Re25  1  0.000000  0.500000  0.000000  1
  Re  Re26  1  0.500000  0.000000  0.000000  1
  Pt  Pt27  1  0.000000  0.000000  0.500000  1
  Pt  Pt28  1  0.500000  0.500000  0.000000  1
