# generated using pymatgen
data_CeZr7(Co4As3)4
_symmetry_space_group_name_H-M   'P 1'
_cell_length_a   12.60678358
_cell_length_b   12.60678248
_cell_length_c   3.82018800
_cell_angle_alpha   90.00000000
_cell_angle_beta   90.00000000
_cell_angle_gamma   119.96517184
_symmetry_Int_Tables_number   1
_chemical_formula_structural   CeZr7(Co4As3)4
_chemical_formula_sum   'Ce1 Zr7 Co16 As12'
_cell_volume   525.98848187
_cell_formula_units_Z   1
loop_
 _symmetry_equiv_pos_site_id
 _symmetry_equiv_pos_as_xyz
  1  'x, y, z'
loop_
 _atom_site_type_symbol
 _atom_site_label
 _atom_site_symmetry_multiplicity
 _atom_site_fract_x
 _atom_site_fract_y
 _atom_site_fract_z
 _atom_site_occupancy
  Ce  Ce0  1  0.825854  0.825854  0.500000  1
  Zr  Zr1  1  0.438704  0.438704  0.000000  1
  Zr  Zr2  1  0.000533  0.179417  0.500000  1
  Zr  Zr3  1  0.558111  0.000457  0.000000  1
  Zr  Zr4  1  0.334229  0.666549  0.000000  1
  Zr  Zr5  1  0.666549  0.334229  0.000000  1
  Zr  Zr6  1  0.000457  0.558111  0.000000  1
  Zr  Zr7  1  0.179417  0.000533  0.500000  1
  Co  Co8  1  0.623583  0.820869  0.000000  1
  Co  Co9  1  0.373549  0.194813  0.000000  1
  Co  Co10  1  0.003155  0.718714  0.500000  1
  Co  Co11  1  0.278972  0.278972  0.500000  1
  Co  Co12  1  0.876300  0.356304  0.500000  1
  Co  Co13  1  0.718714  0.003155  0.500000  1
  Co  Co14  1  0.820869  0.623583  0.000000  1
  Co  Co15  1  0.181852  0.803903  0.000000  1
  Co  Co16  1  0.356304  0.876300  0.500000  1
  Co  Co17  1  0.123034  0.477945  0.500000  1
  Co  Co18  1  0.642857  0.518791  0.500000  1
  Co  Co19  1  0.000229  0.000229  0.000000  1
  Co  Co20  1  0.518791  0.642857  0.500000  1
  Co  Co21  1  0.477945  0.123034  0.500000  1
  Co  Co22  1  0.194813  0.373549  0.000000  1
  Co  Co23  1  0.803903  0.181852  0.000000  1
  As  As24  1  0.999776  0.346729  0.000000  1
  As  As25  1  0.825490  0.515645  0.500000  1
  As  As26  1  0.688754  0.176215  0.500000  1
  As  As27  1  0.175986  0.175986  0.000000  1
  As  As28  1  0.648392  0.648392  0.000000  1
  As  As29  1  0.824316  0.006583  0.000000  1
  As  As30  1  0.515645  0.825490  0.500000  1
  As  As31  1  0.176215  0.688754  0.500000  1
  As  As32  1  0.346729  0.999776  0.000000  1
  As  As33  1  0.484161  0.309229  0.500000  1
  As  As34  1  0.006583  0.824316  0.000000  1
  As  As35  1  0.309229  0.484161  0.500000  1
