# generated using pymatgen
data_Pr2Dy3Si4
_symmetry_space_group_name_H-M   'P 1'
_cell_length_a   7.54675600
_cell_length_b   7.81692200
_cell_length_c   14.86375700
_cell_angle_alpha   90.00000000
_cell_angle_beta   90.00000000
_cell_angle_gamma   90.00000000
_symmetry_Int_Tables_number   1
_chemical_formula_structural   Pr2Dy3Si4
_chemical_formula_sum   'Pr8 Dy12 Si16'
_cell_volume   876.84874311
_cell_formula_units_Z   4
loop_
 _symmetry_equiv_pos_site_id
 _symmetry_equiv_pos_as_xyz
  1  'x, y, z'
loop_
 _atom_site_type_symbol
 _atom_site_label
 _atom_site_symmetry_multiplicity
 _atom_site_fract_x
 _atom_site_fract_y
 _atom_site_fract_z
 _atom_site_occupancy
  Pr  Pr0  1  0.974707  0.819794  0.098073  1
  Pr  Pr1  1  0.474707  0.680206  0.401927  1
  Pr  Pr2  1  0.525293  0.319794  0.901927  1
  Pr  Pr3  1  0.025293  0.180206  0.598073  1
  Pr  Pr4  1  0.025293  0.180206  0.901927  1
  Pr  Pr5  1  0.525293  0.319794  0.598073  1
  Pr  Pr6  1  0.474707  0.680206  0.098073  1
  Pr  Pr7  1  0.974707  0.819794  0.401927  1
  Dy  Dy8  1  0.649119  0.989387  0.250000  1
  Dy  Dy9  1  0.149119  0.510613  0.250000  1
  Dy  Dy10  1  0.850881  0.489387  0.750000  1
  Dy  Dy11  1  0.350881  0.010613  0.750000  1
  Dy  Dy12  1  0.681263  0.821312  0.876748  1
  Dy  Dy13  1  0.181263  0.678688  0.623252  1
  Dy  Dy14  1  0.818737  0.321312  0.123252  1
  Dy  Dy15  1  0.318737  0.178688  0.376748  1
  Dy  Dy16  1  0.318737  0.178688  0.123252  1
  Dy  Dy17  1  0.818737  0.321312  0.376748  1
  Dy  Dy18  1  0.181263  0.678688  0.876748  1
  Dy  Dy19  1  0.681263  0.821312  0.623252  1
  Si  Si20  1  0.767322  0.620124  0.250000  1
  Si  Si21  1  0.267322  0.879876  0.250000  1
  Si  Si22  1  0.732678  0.120124  0.750000  1
  Si  Si23  1  0.232678  0.379876  0.750000  1
  Si  Si24  1  0.023951  0.110612  0.250000  1
  Si  Si25  1  0.523951  0.389388  0.250000  1
  Si  Si26  1  0.476049  0.610612  0.750000  1
  Si  Si27  1  0.976049  0.889388  0.750000  1
  Si  Si28  1  0.857158  0.530828  0.960058  1
  Si  Si29  1  0.357158  0.969172  0.539942  1
  Si  Si30  1  0.642842  0.030828  0.039942  1
  Si  Si31  1  0.142842  0.469172  0.460058  1
  Si  Si32  1  0.142842  0.469172  0.039942  1
  Si  Si33  1  0.642842  0.030828  0.460058  1
  Si  Si34  1  0.357158  0.969172  0.960058  1
  Si  Si35  1  0.857158  0.530828  0.539942  1
