# generated using pymatgen
data_Er8MoOs2WC8
_symmetry_space_group_name_H-M   'P 1'
_cell_length_a   5.05271100
_cell_length_b   6.55447774
_cell_length_c   9.82747197
_cell_angle_alpha   89.22987463
_cell_angle_beta   90.00000000
_cell_angle_gamma   90.00000000
_symmetry_Int_Tables_number   1
_chemical_formula_structural   Er8MoOs2WC8
_chemical_formula_sum   'Er8 Mo1 Os2 W1 C8'
_cell_volume   325.43565485
_cell_formula_units_Z   1
loop_
 _symmetry_equiv_pos_site_id
 _symmetry_equiv_pos_as_xyz
  1  'x, y, z'
loop_
 _atom_site_type_symbol
 _atom_site_label
 _atom_site_symmetry_multiplicity
 _atom_site_fract_x
 _atom_site_fract_y
 _atom_site_fract_z
 _atom_site_occupancy
  Er  Er0  1  0.250000  0.677660  0.557683  1
  Er  Er1  1  0.750000  0.322277  0.441846  1
  Er  Er2  1  0.750000  0.824825  0.058322  1
  Er  Er3  1  0.250000  0.175472  0.941329  1
  Er  Er4  1  0.250000  0.538350  0.218402  1
  Er  Er5  1  0.750000  0.460859  0.780815  1
  Er  Er6  1  0.750000  0.967567  0.717022  1
  Er  Er7  1  0.250000  0.031427  0.282814  1
  Mo  Mo8  1  0.750000  0.284781  0.131132  1
  Os  Os9  1  0.750000  0.781077  0.367982  1
  Os  Os10  1  0.250000  0.219723  0.631907  1
  W  W11  1  0.250000  0.715280  0.868733  1
  C  C12  1  0.250000  0.448990  0.758039  1
  C  C13  1  0.750000  0.552040  0.242826  1
  C  C14  1  0.750000  0.047531  0.260376  1
  C  C15  1  0.250000  0.952514  0.739852  1
  C  C16  1  0.250000  0.825758  0.055323  1
  C  C17  1  0.750000  0.173862  0.945874  1
  C  C18  1  0.750000  0.675185  0.550986  1
  C  C19  1  0.250000  0.324819  0.448737  1
