# generated using pymatgen
data_Th6NiAu6Se
_symmetry_space_group_name_H-M   'P 1'
_cell_length_a   8.18586742
_cell_length_b   8.18586738
_cell_length_c   8.18586785
_cell_angle_alpha   113.74971763
_cell_angle_beta   113.74972254
_cell_angle_gamma   113.74970375
_symmetry_Int_Tables_number   1
_chemical_formula_structural   Th6NiAu6Se
_chemical_formula_sum   'Th6 Ni1 Au6 Se1'
_cell_volume   339.35117240
_cell_formula_units_Z   1
loop_
 _symmetry_equiv_pos_site_id
 _symmetry_equiv_pos_as_xyz
  1  'x, y, z'
loop_
 _atom_site_type_symbol
 _atom_site_label
 _atom_site_symmetry_multiplicity
 _atom_site_fract_x
 _atom_site_fract_y
 _atom_site_fract_z
 _atom_site_occupancy
  Th  Th0  1  0.031519  0.388523  0.276805  1
  Th  Th1  1  0.388523  0.276805  0.031519  1
  Th  Th2  1  0.723195  0.968481  0.611477  1
  Th  Th3  1  0.276805  0.031519  0.388523  1
  Th  Th4  1  0.611477  0.723195  0.968481  1
  Th  Th5  1  0.968481  0.611477  0.723195  1
  Ni  Ni6  1  0.000000  0.000000  0.000000  1
  Au  Au7  1  0.431317  0.930794  0.765845  1
  Au  Au8  1  0.930794  0.765845  0.431317  1
  Au  Au9  1  0.234155  0.568683  0.069206  1
  Au  Au10  1  0.765845  0.431317  0.930794  1
  Au  Au11  1  0.069206  0.234155  0.568683  1
  Au  Au12  1  0.568683  0.069206  0.234155  1
  Se  Se13  1  0.500000  0.500000  0.500000  1
