# generated using pymatgen
data_Yb5SmAl18(Tc3Os4)2
_symmetry_space_group_name_H-M   'P 1'
_cell_length_a   8.85097970
_cell_length_b   8.85097792
_cell_length_c   9.58773400
_cell_angle_alpha   90.00000000
_cell_angle_beta   90.00000000
_cell_angle_gamma   119.95428643
_symmetry_Int_Tables_number   1
_chemical_formula_structural   Yb5SmAl18(Tc3Os4)2
_chemical_formula_sum   'Yb5 Sm1 Al18 Tc6 Os8'
_cell_volume   650.77233077
_cell_formula_units_Z   1
loop_
 _symmetry_equiv_pos_site_id
 _symmetry_equiv_pos_as_xyz
  1  'x, y, z'
loop_
 _atom_site_type_symbol
 _atom_site_label
 _atom_site_symmetry_multiplicity
 _atom_site_fract_x
 _atom_site_fract_y
 _atom_site_fract_z
 _atom_site_occupancy
  Yb  Yb0  1  0.197555  0.395094  0.250000  1
  Yb  Yb1  1  0.802053  0.605491  0.750000  1
  Yb  Yb2  1  0.604906  0.802445  0.250000  1
  Yb  Yb3  1  0.394509  0.197947  0.750000  1
  Yb  Yb4  1  0.196798  0.803202  0.250000  1
  Sm  Sm5  1  0.805750  0.194250  0.750000  1
  Al  Al6  1  0.332737  0.667263  0.003061  1
  Al  Al7  1  0.666489  0.333511  0.997883  1
  Al  Al8  1  0.666489  0.333511  0.502117  1
  Al  Al9  1  0.332737  0.667263  0.496939  1
  Al  Al10  1  0.165307  0.329710  0.577339  1
  Al  Al11  1  0.835973  0.671663  0.421384  1
  Al  Al12  1  0.670290  0.834693  0.577339  1
  Al  Al13  1  0.835973  0.671663  0.078616  1
  Al  Al14  1  0.328337  0.164027  0.421384  1
  Al  Al15  1  0.165307  0.329710  0.922661  1
  Al  Al16  1  0.164504  0.835496  0.576029  1
  Al  Al17  1  0.328337  0.164027  0.078616  1
  Al  Al18  1  0.835382  0.164618  0.419516  1
  Al  Al19  1  0.670290  0.834693  0.922661  1
  Al  Al20  1  0.835382  0.164618  0.080484  1
  Al  Al21  1  0.164504  0.835496  0.923971  1
  Al  Al22  1  0.999446  0.000554  0.250000  1
  Al  Al23  1  0.002720  0.997280  0.750000  1
  Tc  Tc24  1  0.569940  0.141617  0.250000  1
  Tc  Tc25  1  0.426293  0.855661  0.750000  1
  Tc  Tc26  1  0.858383  0.430060  0.250000  1
  Tc  Tc27  1  0.144339  0.573707  0.750000  1
  Tc  Tc28  1  0.570328  0.429672  0.250000  1
  Tc  Tc29  1  0.430222  0.569778  0.750000  1
  Os  Os30  1  0.500641  0.000549  0.000315  1
  Os  Os31  1  0.999451  0.499359  0.000315  1
  Os  Os32  1  0.500641  0.000549  0.499685  1
  Os  Os33  1  0.499824  0.500176  0.999732  1
  Os  Os34  1  0.999451  0.499359  0.499685  1
  Os  Os35  1  0.499824  0.500176  0.500268  1
  Os  Os36  1  0.999444  0.000556  0.999961  1
  Os  Os37  1  0.999444  0.000556  0.500039  1
