# generated using pymatgen
data_Zr6Al16Cu2Ni4Rh
_symmetry_space_group_name_H-M   'P 1'
_cell_length_a   8.60643145
_cell_length_b   8.58339400
_cell_length_c   8.60643275
_cell_angle_alpha   60.08851424
_cell_angle_beta   59.82298225
_cell_angle_gamma   60.08851643
_symmetry_Int_Tables_number   1
_chemical_formula_structural   Zr6Al16Cu2Ni4Rh
_chemical_formula_sum   'Zr6 Al16 Cu2 Ni4 Rh1'
_cell_volume   449.55639388
_cell_formula_units_Z   1
loop_
 _symmetry_equiv_pos_site_id
 _symmetry_equiv_pos_as_xyz
  1  'x, y, z'
loop_
 _atom_site_type_symbol
 _atom_site_label
 _atom_site_symmetry_multiplicity
 _atom_site_fract_x
 _atom_site_fract_y
 _atom_site_fract_z
 _atom_site_occupancy
  Zr  Zr0  1  0.692873  0.692873  0.307127  1
  Zr  Zr1  1  0.307516  0.692484  0.307516  1
  Zr  Zr2  1  0.692873  0.307127  0.307127  1
  Zr  Zr3  1  0.307127  0.307127  0.692873  1
  Zr  Zr4  1  0.692484  0.307516  0.692484  1
  Zr  Zr5  1  0.307127  0.692873  0.692873  1
  Al  Al6  1  0.884347  0.878028  0.359597  1
  Al  Al7  1  0.878028  0.359597  0.878028  1
  Al  Al8  1  0.359597  0.878028  0.884347  1
  Al  Al9  1  0.878028  0.884347  0.878028  1
  Al  Al10  1  0.115653  0.121972  0.640403  1
  Al  Al11  1  0.121972  0.640403  0.121972  1
  Al  Al12  1  0.640403  0.121972  0.115653  1
  Al  Al13  1  0.121972  0.115653  0.121972  1
  Al  Al14  1  0.662726  0.667975  0.001325  1
  Al  Al15  1  0.667975  0.001325  0.667975  1
  Al  Al16  1  0.001325  0.667975  0.662726  1
  Al  Al17  1  0.667975  0.662726  0.667975  1
  Al  Al18  1  0.337274  0.332025  0.998675  1
  Al  Al19  1  0.332025  0.998675  0.332025  1
  Al  Al20  1  0.998675  0.332025  0.337274  1
  Al  Al21  1  0.332025  0.337274  0.332025  1
  Cu  Cu22  1  0.500000  0.000000  0.500000  1
  Cu  Cu23  1  0.000000  0.500000  0.000000  1
  Ni  Ni24  1  0.000000  0.000000  0.500000  1
  Ni  Ni25  1  0.000000  0.500000  0.500000  1
  Ni  Ni26  1  0.500000  0.500000  0.000000  1
  Ni  Ni27  1  0.500000  0.000000  0.000000  1
  Rh  Rh28  1  0.000000  0.000000  0.000000  1
