# generated using pymatgen
data_Ta3MnAlGaC
_symmetry_space_group_name_H-M   'P 1'
_cell_length_a   8.23366788
_cell_length_b   8.23366827
_cell_length_c   8.23366801
_cell_angle_alpha   59.99553334
_cell_angle_beta   59.99553191
_cell_angle_gamma   59.99553121
_symmetry_Int_Tables_number   1
_chemical_formula_structural   Ta3MnAlGaC
_chemical_formula_sum   'Ta12 Mn4 Al4 Ga4 C4'
_cell_volume   394.65814279
_cell_formula_units_Z   4
loop_
 _symmetry_equiv_pos_site_id
 _symmetry_equiv_pos_as_xyz
  1  'x, y, z'
loop_
 _atom_site_type_symbol
 _atom_site_label
 _atom_site_symmetry_multiplicity
 _atom_site_fract_x
 _atom_site_fract_y
 _atom_site_fract_z
 _atom_site_occupancy
  Ta  Ta0  1  0.556047  0.944231  0.556047  1
  Ta  Ta1  1  0.305876  0.694382  0.694382  1
  Ta  Ta2  1  0.693314  0.305758  0.305758  1
  Ta  Ta3  1  0.305758  0.693314  0.305758  1
  Ta  Ta4  1  0.694382  0.694382  0.305876  1
  Ta  Ta5  1  0.305758  0.305758  0.693314  1
  Ta  Ta6  1  0.556047  0.556047  0.944231  1
  Ta  Ta7  1  0.944231  0.556047  0.556047  1
  Ta  Ta8  1  0.554979  0.944287  0.944287  1
  Ta  Ta9  1  0.944287  0.944287  0.554979  1
  Ta  Ta10  1  0.694382  0.305876  0.694382  1
  Ta  Ta11  1  0.944287  0.554979  0.944287  1
  Mn  Mn12  1  0.125352  0.125352  0.125352  1
  Mn  Mn13  1  0.624559  0.125946  0.125946  1
  Mn  Mn14  1  0.125946  0.624559  0.125946  1
  Mn  Mn15  1  0.125946  0.125946  0.624559  1
  Al  Al16  1  0.917327  0.248695  0.917327  1
  Al  Al17  1  0.917327  0.917327  0.248695  1
  Al  Al18  1  0.248695  0.917327  0.917327  1
  Al  Al19  1  0.332851  0.332851  0.332851  1
  Ga  Ga20  1  0.915782  0.915782  0.915782  1
  Ga  Ga21  1  0.995178  0.335507  0.335507  1
  Ga  Ga22  1  0.335507  0.995178  0.335507  1
  Ga  Ga23  1  0.335507  0.335507  0.995178  1
  C  C24  1  0.624890  0.624890  0.624890  1
  C  C25  1  0.124904  0.625441  0.625441  1
  C  C26  1  0.625441  0.124904  0.625441  1
  C  C27  1  0.625441  0.625441  0.124904  1
