# generated using pymatgen
data_TbDy14Y(In3Co)2
_symmetry_space_group_name_H-M   'P 1'
_cell_length_a   10.38600900
_cell_length_b   10.38601006
_cell_length_c   7.04201100
_cell_angle_alpha   90.00000000
_cell_angle_beta   90.00000000
_cell_angle_gamma   120.00000617
_symmetry_Int_Tables_number   1
_chemical_formula_structural   TbDy14Y(In3Co)2
_chemical_formula_sum   'Tb1 Dy14 Y1 In6 Co2'
_cell_volume   657.84675612
_cell_formula_units_Z   1
loop_
 _symmetry_equiv_pos_site_id
 _symmetry_equiv_pos_as_xyz
  1  'x, y, z'
loop_
 _atom_site_type_symbol
 _atom_site_label
 _atom_site_symmetry_multiplicity
 _atom_site_fract_x
 _atom_site_fract_y
 _atom_site_fract_z
 _atom_site_occupancy
  Tb  Tb0  1  0.000000  0.000000  0.496008  1
  Dy  Dy1  1  0.464029  0.535971  0.482954  1
  Dy  Dy2  1  0.071941  0.535971  0.482954  1
  Dy  Dy3  1  0.464029  0.928059  0.482954  1
  Dy  Dy4  1  0.535999  0.464001  0.983036  1
  Dy  Dy5  1  0.928002  0.464001  0.983036  1
  Dy  Dy6  1  0.535999  0.071998  0.983036  1
  Dy  Dy7  1  0.822162  0.177838  0.275455  1
  Dy  Dy8  1  0.355676  0.177838  0.275455  1
  Dy  Dy9  1  0.822162  0.644324  0.275455  1
  Dy  Dy10  1  0.177891  0.822109  0.775634  1
  Dy  Dy11  1  0.644218  0.822109  0.775634  1
  Dy  Dy12  1  0.177891  0.355782  0.775634  1
  Dy  Dy13  1  0.333333  0.666667  0.090601  1
  Dy  Dy14  1  0.666667  0.333333  0.590876  1
  Y  Y15  1  0.000000  0.000000  0.996104  1
  In  In16  1  0.163195  0.836805  0.233943  1
  In  In17  1  0.673610  0.836805  0.233943  1
  In  In18  1  0.163195  0.326390  0.233943  1
  In  In19  1  0.836806  0.163194  0.734334  1
  In  In20  1  0.326389  0.163194  0.734334  1
  In  In21  1  0.836806  0.673611  0.734334  1
  Co  Co22  1  0.333333  0.666667  0.707221  1
  Co  Co23  1  0.666667  0.333333  0.207679  1
