# generated using pymatgen
data_Li4Sm4PtRh3
_symmetry_space_group_name_H-M   'P 1'
_cell_length_a   4.03564000
_cell_length_b   7.02777751
_cell_length_c   8.53276238
_cell_angle_alpha   90.25056780
_cell_angle_beta   90.00000000
_cell_angle_gamma   90.00000000
_symmetry_Int_Tables_number   1
_chemical_formula_structural   Li4Sm4PtRh3
_chemical_formula_sum   'Li4 Sm4 Pt1 Rh3'
_cell_volume   242.00030903
_cell_formula_units_Z   1
loop_
 _symmetry_equiv_pos_site_id
 _symmetry_equiv_pos_as_xyz
  1  'x, y, z'
loop_
 _atom_site_type_symbol
 _atom_site_label
 _atom_site_symmetry_multiplicity
 _atom_site_fract_x
 _atom_site_fract_y
 _atom_site_fract_z
 _atom_site_occupancy
  Li  Li0  1  0.250000  0.378531  0.552773  1
  Li  Li1  1  0.250000  0.878723  0.949591  1
  Li  Li2  1  0.750000  0.620584  0.448001  1
  Li  Li3  1  0.750000  0.122881  0.051924  1
  Sm  Sm4  1  0.250000  0.939968  0.322591  1
  Sm  Sm5  1  0.250000  0.448360  0.172591  1
  Sm  Sm6  1  0.750000  0.051327  0.680113  1
  Sm  Sm7  1  0.750000  0.552427  0.821970  1
  Pt  Pt8  1  0.750000  0.242277  0.369914  1
  Rh  Rh9  1  0.250000  0.262769  0.867348  1
  Rh  Rh10  1  0.250000  0.764926  0.631129  1
  Rh  Rh11  1  0.750000  0.737229  0.132055  1
