# generated using pymatgen
data_La4GeB4Ir9
_symmetry_space_group_name_H-M   'P 1'
_cell_length_a   10.91824137
_cell_length_b   10.91824190
_cell_length_c   10.91824291
_cell_angle_alpha   29.89986028
_cell_angle_beta   29.89985820
_cell_angle_gamma   29.89986198
_symmetry_Int_Tables_number   1
_chemical_formula_structural   La4GeB4Ir9
_chemical_formula_sum   'La4 Ge1 B4 Ir9'
_cell_volume   286.43487556
_cell_formula_units_Z   1
loop_
 _symmetry_equiv_pos_site_id
 _symmetry_equiv_pos_as_xyz
  1  'x, y, z'
loop_
 _atom_site_type_symbol
 _atom_site_label
 _atom_site_symmetry_multiplicity
 _atom_site_fract_x
 _atom_site_fract_y
 _atom_site_fract_z
 _atom_site_occupancy
  La  La0  1  0.148213  0.148213  0.148213  1
  La  La1  1  0.950539  0.950539  0.950539  1
  La  La2  1  0.851787  0.851787  0.851787  1
  La  La3  1  0.049461  0.049461  0.049461  1
  Ge  Ge4  1  0.500000  0.500000  0.500000  1
  B  B5  1  0.616525  0.616525  0.616525  1
  B  B6  1  0.718051  0.718051  0.718051  1
  B  B7  1  0.383475  0.383475  0.383475  1
  B  B8  1  0.281949  0.281949  0.281949  1
  Ir  Ir9  1  0.404531  0.901800  0.404531  1
  Ir  Ir10  1  0.901800  0.404531  0.404531  1
  Ir  Ir11  1  0.500000  0.500000  0.000000  1
  Ir  Ir12  1  0.500000  0.000000  0.500000  1
  Ir  Ir13  1  0.000000  0.500000  0.500000  1
  Ir  Ir14  1  0.595469  0.098200  0.595469  1
  Ir  Ir15  1  0.595469  0.595469  0.098200  1
  Ir  Ir16  1  0.098200  0.595469  0.595469  1
  Ir  Ir17  1  0.404531  0.404531  0.901800  1
