# generated using pymatgen
data_Nd5NiSn15Rh7
_symmetry_space_group_name_H-M   'P 1'
_cell_length_a   4.52584300
_cell_length_b   7.28254924
_cell_length_c   18.74670580
_cell_angle_alpha   89.83179390
_cell_angle_beta   90.00000000
_cell_angle_gamma   90.00000000
_symmetry_Int_Tables_number   1
_chemical_formula_structural   Nd5NiSn15Rh7
_chemical_formula_sum   'Nd5 Ni1 Sn15 Rh7'
_cell_volume   617.88265872
_cell_formula_units_Z   1
loop_
 _symmetry_equiv_pos_site_id
 _symmetry_equiv_pos_as_xyz
  1  'x, y, z'
loop_
 _atom_site_type_symbol
 _atom_site_label
 _atom_site_symmetry_multiplicity
 _atom_site_fract_x
 _atom_site_fract_y
 _atom_site_fract_z
 _atom_site_occupancy
  Nd  Nd0  1  0.500000  0.004004  0.856429  1
  Nd  Nd1  1  0.500000  0.500755  0.357359  1
  Nd  Nd2  1  0.000000  0.997417  0.143253  1
  Nd  Nd3  1  0.000000  0.500030  0.641391  1
  Nd  Nd4  1  0.500000  0.497669  0.931457  1
  Ni  Ni5  1  0.500000  0.767750  0.044698  1
  Sn  Sn6  1  0.000000  0.719393  0.806432  1
  Sn  Sn7  1  0.000000  0.780199  0.305521  1
  Sn  Sn8  1  0.500000  0.277687  0.194584  1
  Sn  Sn9  1  0.500000  0.219086  0.693409  1
  Sn  Sn10  1  0.000000  0.848977  0.971314  1
  Sn  Sn11  1  0.000000  0.632697  0.467717  1
  Sn  Sn12  1  0.500000  0.129293  0.032010  1
  Sn  Sn13  1  0.500000  0.366690  0.530724  1
  Sn  Sn14  1  0.000000  0.303739  0.819407  1
  Sn  Sn15  1  0.000000  0.200570  0.317472  1
  Sn  Sn16  1  0.500000  0.699232  0.182503  1
  Sn  Sn17  1  0.500000  0.805110  0.678890  1
  Sn  Sn18  1  0.500000  0.019536  0.432876  1
  Sn  Sn19  1  0.000000  0.509698  0.067329  1
  Sn  Sn20  1  0.000000  0.980520  0.568499  1
  Rh  Rh21  1  0.000000  0.229050  0.966989  1
  Rh  Rh22  1  0.000000  0.248146  0.464679  1
  Rh  Rh23  1  0.500000  0.750645  0.533034  1
  Rh  Rh24  1  0.000000  0.018331  0.715484  1
  Rh  Rh25  1  0.000000  0.487181  0.211880  1
  Rh  Rh26  1  0.500000  0.986436  0.288832  1
  Rh  Rh27  1  0.500000  0.520156  0.775828  1
