# generated using pymatgen
data_BaSrLa2Os6O19
_symmetry_space_group_name_H-M   'P 1'
_cell_length_a   8.07496488
_cell_length_b   8.06290565
_cell_length_c   7.86318955
_cell_angle_alpha   108.73979460
_cell_angle_beta   109.09673401
_cell_angle_gamma   110.05180169
_symmetry_Int_Tables_number   1
_chemical_formula_structural   BaSrLa2Os6O19
_chemical_formula_sum   'Ba1 Sr1 La2 Os6 O19'
_cell_volume   396.59501831
_cell_formula_units_Z   1
loop_
 _symmetry_equiv_pos_site_id
 _symmetry_equiv_pos_as_xyz
  1  'x, y, z'
loop_
 _atom_site_type_symbol
 _atom_site_label
 _atom_site_symmetry_multiplicity
 _atom_site_fract_x
 _atom_site_fract_y
 _atom_site_fract_z
 _atom_site_occupancy
  Ba  Ba0  1  0.000340  0.000648  0.333697  1
  Sr  Sr1  1  0.991580  0.306392  0.991248  1
  La  La2  1  0.704749  0.694352  0.694292  1
  La  La3  1  0.303652  0.006474  0.997754  1
  Os  Os4  1  0.365519  0.501001  0.861609  1
  Os  Os5  1  0.865116  0.364902  0.504119  1
  Os  Os6  1  0.501396  0.136751  0.640959  1
  Os  Os7  1  0.134557  0.633659  0.494867  1
  Os  Os8  1  0.499153  0.866130  0.362284  1
  Os  Os9  1  0.634078  0.498745  0.138730  1
  O  O10  1  0.339494  0.009190  0.329182  1
  O  O11  1  0.332120  0.336204  0.009076  1
  O  O12  1  0.007365  0.668685  0.677303  1
  O  O13  1  0.667782  0.662867  0.989995  1
  O  O14  1  0.993251  0.331976  0.323822  1
  O  O15  1  0.660429  0.991320  0.671580  1
  O  O16  1  0.000793  0.976778  0.963774  1
  O  O17  1  0.369370  0.298060  0.645521  1
  O  O18  1  0.069108  0.346019  0.707036  1
  O  O19  1  0.728319  0.365124  0.669894  1
  O  O20  1  0.364970  0.645962  0.703148  1
  O  O21  1  0.275838  0.934410  0.642908  1
  O  O22  1  0.632805  0.364241  0.307802  1
  O  O23  1  0.283687  0.642733  0.344116  1
  O  O24  1  0.703483  0.071219  0.348956  1
  O  O25  1  0.926645  0.632108  0.278651  1
  O  O26  1  0.657359  0.723849  0.367867  1
  O  O27  1  0.630772  0.270089  0.941276  1
  O  O28  1  0.356269  0.720110  0.058533  1
