# generated using pymatgen
data_Lu4Ni2Ge6Ir5
_symmetry_space_group_name_H-M   'P 1'
_cell_length_a   7.14529820
_cell_length_b   7.16537860
_cell_length_c   7.16537765
_cell_angle_alpha   109.31305472
_cell_angle_beta   109.60754839
_cell_angle_gamma   109.60754007
_symmetry_Int_Tables_number   1
_chemical_formula_structural   Lu4Ni2Ge6Ir5
_chemical_formula_sum   'Lu4 Ni2 Ge6 Ir5'
_cell_volume   282.00623826
_cell_formula_units_Z   1
loop_
 _symmetry_equiv_pos_site_id
 _symmetry_equiv_pos_as_xyz
  1  'x, y, z'
loop_
 _atom_site_type_symbol
 _atom_site_label
 _atom_site_symmetry_multiplicity
 _atom_site_fract_x
 _atom_site_fract_y
 _atom_site_fract_z
 _atom_site_occupancy
  Lu  Lu0  1  0.002962  0.001481  0.501481  1
  Lu  Lu1  1  0.002962  0.501481  0.001481  1
  Lu  Lu2  1  0.492811  0.996342  0.996342  1
  Lu  Lu3  1  0.492811  0.496469  0.496469  1
  Ni  Ni4  1  0.750421  0.250858  0.499564  1
  Ni  Ni5  1  0.750421  0.499564  0.250858  1
  Ge  Ge6  1  0.687391  0.685934  0.001457  1
  Ge  Ge7  1  0.321817  0.002836  0.318981  1
  Ge  Ge8  1  0.988633  0.314758  0.314758  1
  Ge  Ge9  1  0.321817  0.318981  0.002836  1
  Ge  Ge10  1  0.687391  0.001457  0.685934  1
  Ge  Ge11  1  0.988633  0.673875  0.673875  1
  Ir  Ir12  1  0.508690  0.254345  0.754345  1
  Ir  Ir13  1  0.245577  0.497405  0.748171  1
  Ir  Ir14  1  0.245577  0.748171  0.497405  1
  Ir  Ir15  1  0.508690  0.754345  0.254345  1
  Ir  Ir16  1  0.003392  0.001696  0.001696  1
