# generated using pymatgen
data_Cs2Ho(TeO4)3
_symmetry_space_group_name_H-M   'P 1'
_cell_length_a   7.64495055
_cell_length_b   7.64453096
_cell_length_c   7.64495448
_cell_angle_alpha   58.26004007
_cell_angle_beta   58.25814519
_cell_angle_gamma   58.23684299
_symmetry_Int_Tables_number   1
_chemical_formula_structural   Cs2Ho(TeO4)3
_chemical_formula_sum   'Cs2 Ho1 Te3 O12'
_cell_volume   303.27328977
_cell_formula_units_Z   1
loop_
 _symmetry_equiv_pos_site_id
 _symmetry_equiv_pos_as_xyz
  1  'x, y, z'
loop_
 _atom_site_type_symbol
 _atom_site_label
 _atom_site_symmetry_multiplicity
 _atom_site_fract_x
 _atom_site_fract_y
 _atom_site_fract_z
 _atom_site_occupancy
  Cs  Cs0  1  0.118267  0.133686  0.622888  1
  Cs  Cs1  1  0.866257  0.881675  0.377030  1
  Ho  Ho2  1  0.497139  0.502855  0.000006  1
  Te  Te3  1  0.497954  0.002276  0.000120  1
  Te  Te4  1  0.997795  0.502086  0.999906  1
  Te  Te5  1  0.497828  0.502201  0.500029  1
  O  O6  1  0.814036  0.818134  0.921326  1
  O  O7  1  0.426776  0.429638  0.349980  1
  O  O8  1  0.426714  0.852429  0.927401  1
  O  O9  1  0.813760  0.422861  0.315853  1
  O  O10  1  0.847567  0.430437  0.928215  1
  O  O11  1  0.419608  0.818085  0.316082  1
  O  O12  1  0.181883  0.185992  0.078731  1
  O  O13  1  0.570288  0.573231  0.650022  1
  O  O14  1  0.569493  0.152431  0.071753  1
  O  O15  1  0.181935  0.580454  0.683936  1
  O  O16  1  0.147511  0.573266  0.072561  1
  O  O17  1  0.577188  0.186262  0.684160  1
