# generated using pymatgen
data_Pr6Pd6RhAu
_symmetry_space_group_name_H-M   'P 1'
_cell_length_a   8.21627556
_cell_length_b   8.19738091
_cell_length_c   8.24123584
_cell_angle_alpha   114.41211179
_cell_angle_beta   114.65507149
_cell_angle_gamma   114.09206276
_symmetry_Int_Tables_number   1
_chemical_formula_structural   Pr6Pd6RhAu
_chemical_formula_sum   'Pr6 Pd6 Rh1 Au1'
_cell_volume   327.33740082
_cell_formula_units_Z   1
loop_
 _symmetry_equiv_pos_site_id
 _symmetry_equiv_pos_as_xyz
  1  'x, y, z'
loop_
 _atom_site_type_symbol
 _atom_site_label
 _atom_site_symmetry_multiplicity
 _atom_site_fract_x
 _atom_site_fract_y
 _atom_site_fract_z
 _atom_site_occupancy
  Pr  Pr0  1  0.400391  0.025003  0.272298  1
  Pr  Pr1  1  0.020971  0.276516  0.393367  1
  Pr  Pr2  1  0.278045  0.399048  0.028386  1
  Pr  Pr3  1  0.603099  0.972919  0.724774  1
  Pr  Pr4  1  0.969026  0.720299  0.606274  1
  Pr  Pr5  1  0.729546  0.609850  0.975691  1
  Pd  Pd6  1  0.496889  0.498091  0.498165  1
  Pd  Pd7  1  0.059235  0.556589  0.222979  1
  Pd  Pd8  1  0.560325  0.225341  0.062488  1
  Pd  Pd9  1  0.776062  0.941763  0.443476  1
  Pd  Pd10  1  0.938669  0.440244  0.774844  1
  Pd  Pd11  1  0.440623  0.772264  0.936566  1
  Rh  Rh12  1  0.002844  0.003458  0.002795  1
  Au  Au13  1  0.224274  0.058616  0.557897  1
