# generated using pymatgen
data_Eu6FeCoN6
_symmetry_space_group_name_H-M   'P 1'
_cell_length_a   7.33093800
_cell_length_b   7.33093666
_cell_length_c   5.12084200
_cell_angle_alpha   90.00000000
_cell_angle_beta   90.00000000
_cell_angle_gamma   119.99999821
_symmetry_Int_Tables_number   1
_chemical_formula_structural   Eu6FeCoN6
_chemical_formula_sum   'Eu6 Fe1 Co1 N6'
_cell_volume   238.33675923
_cell_formula_units_Z   1
loop_
 _symmetry_equiv_pos_site_id
 _symmetry_equiv_pos_as_xyz
  1  'x, y, z'
loop_
 _atom_site_type_symbol
 _atom_site_label
 _atom_site_symmetry_multiplicity
 _atom_site_fract_x
 _atom_site_fract_y
 _atom_site_fract_z
 _atom_site_occupancy
  Eu  Eu0  1  0.279719  0.916983  0.750000  1
  Eu  Eu1  1  0.637263  0.720281  0.750000  1
  Eu  Eu2  1  0.083017  0.362737  0.750000  1
  Eu  Eu3  1  0.711089  0.073841  0.250000  1
  Eu  Eu4  1  0.362753  0.288911  0.250000  1
  Eu  Eu5  1  0.926159  0.637247  0.250000  1
  Fe  Fe6  1  0.666667  0.333333  0.750000  1
  Co  Co7  1  0.333333  0.666667  0.250000  1
  N  N8  1  0.306725  0.910280  0.250000  1
  N  N9  1  0.603554  0.693275  0.250000  1
  N  N10  1  0.089720  0.396446  0.250000  1
  N  N11  1  0.693987  0.103681  0.750000  1
  N  N12  1  0.409696  0.306013  0.750000  1
  N  N13  1  0.896319  0.590304  0.750000  1
