# generated using pymatgen
data_Ta6Re4Si6OsRh
_symmetry_space_group_name_H-M   'P 1'
_cell_length_a   7.51309168
_cell_length_b   7.52546745
_cell_length_c   7.52546854
_cell_angle_alpha   128.28020872
_cell_angle_beta   122.02939648
_cell_angle_gamma   81.41738186
_symmetry_Int_Tables_number   1
_chemical_formula_structural   Ta6Re4Si6OsRh
_chemical_formula_sum   'Ta6 Re4 Si6 Os1 Rh1'
_cell_volume   272.68609170
_cell_formula_units_Z   1
loop_
 _symmetry_equiv_pos_site_id
 _symmetry_equiv_pos_as_xyz
  1  'x, y, z'
loop_
 _atom_site_type_symbol
 _atom_site_label
 _atom_site_symmetry_multiplicity
 _atom_site_fract_x
 _atom_site_fract_y
 _atom_site_fract_z
 _atom_site_occupancy
  Ta  Ta0  1  0.545171  0.093531  0.043953  1
  Ta  Ta1  1  0.454829  0.498782  0.548361  1
  Ta  Ta2  1  0.966885  0.506866  0.031951  1
  Ta  Ta3  1  0.033115  0.065066  0.539980  1
  Ta  Ta4  1  0.748848  0.909137  0.651740  1
  Ta  Ta5  1  0.251152  0.902892  0.160289  1
  Re  Re6  1  0.157087  0.747756  0.655445  1
  Re  Re7  1  0.842913  0.498358  0.590669  1
  Re  Re8  1  0.589914  0.748873  0.088460  1
  Re  Re9  1  0.410086  0.498546  0.158959  1
  Si  Si10  1  0.776593  0.517408  0.240567  1
  Si  Si11  1  0.223407  0.463974  0.740815  1
  Si  Si12  1  0.336517  0.832875  0.501861  1
  Si  Si13  1  0.663483  0.165345  0.496359  1
  Si  Si14  1  0.831827  0.837159  0.997994  1
  Si  Si15  1  0.168173  0.166167  0.005331  1
  Os  Os16  1  0.500000  0.244020  0.744020  1
  Rh  Rh17  1  0.000000  0.245445  0.245445  1
