# generated using pymatgen
data_ZrSc5(USb8)2
_symmetry_space_group_name_H-M   'P 1'
_cell_length_a   4.02552800
_cell_length_b   10.27960517
_cell_length_c   15.20585766
_cell_angle_alpha   89.73170540
_cell_angle_beta   90.00000000
_cell_angle_gamma   90.00000000
_symmetry_Int_Tables_number   1
_chemical_formula_structural   ZrSc5(USb8)2
_chemical_formula_sum   'Zr1 Sc5 U2 Sb16'
_cell_volume   629.22424081
_cell_formula_units_Z   1
loop_
 _symmetry_equiv_pos_site_id
 _symmetry_equiv_pos_as_xyz
  1  'x, y, z'
loop_
 _atom_site_type_symbol
 _atom_site_label
 _atom_site_symmetry_multiplicity
 _atom_site_fract_x
 _atom_site_fract_y
 _atom_site_fract_z
 _atom_site_occupancy
  Zr  Zr0  1  0.500000  0.522794  0.246730  1
  Sc  Sc1  1  0.500000  0.326421  0.006995  1
  Sc  Sc2  1  0.000000  0.825628  0.491686  1
  Sc  Sc3  1  0.000000  0.974900  0.744147  1
  Sc  Sc4  1  0.000000  0.021033  0.253386  1
  Sc  Sc5  1  0.500000  0.474553  0.755837  1
  U  U6  1  0.500000  0.668887  0.990980  1
  U  U7  1  0.000000  0.172033  0.509423  1
  Sb  Sb8  1  0.000000  0.890030  0.938166  1
  Sb  Sb9  1  0.000000  0.124375  0.061320  1
  Sb  Sb10  1  0.500000  0.392683  0.562511  1
  Sb  Sb11  1  0.500000  0.619217  0.438979  1
  Sb  Sb12  1  0.000000  0.661893  0.660390  1
  Sb  Sb13  1  0.000000  0.343380  0.337400  1
  Sb  Sb14  1  0.500000  0.162114  0.839341  1
  Sb  Sb15  1  0.500000  0.831915  0.163383  1
  Sb  Sb16  1  0.500000  0.764159  0.792090  1
  Sb  Sb17  1  0.500000  0.231613  0.200604  1
  Sb  Sb18  1  0.000000  0.263930  0.708370  1
  Sb  Sb19  1  0.000000  0.730459  0.300489  1
  Sb  Sb20  1  0.500000  0.981149  0.600149  1
  Sb  Sb21  1  0.500000  0.016758  0.396265  1
  Sb  Sb22  1  0.000000  0.485955  0.896683  1
  Sb  Sb23  1  0.000000  0.514120  0.104675  1
