# generated using pymatgen
data_CsRb4(EuI4)3
_symmetry_space_group_name_H-M   'P 1'
_cell_length_a   4.91165200
_cell_length_b   15.26863953
_cell_length_c   15.26863900
_cell_angle_alpha   120.00000160
_cell_angle_beta   90.00000000
_cell_angle_gamma   90.00000000
_symmetry_Int_Tables_number   1
_chemical_formula_structural   CsRb4(EuI4)3
_chemical_formula_sum   'Cs1 Rb4 Eu3 I12'
_cell_volume   991.65106480
_cell_formula_units_Z   1
loop_
 _symmetry_equiv_pos_site_id
 _symmetry_equiv_pos_as_xyz
  1  'x, y, z'
loop_
 _atom_site_type_symbol
 _atom_site_label
 _atom_site_symmetry_multiplicity
 _atom_site_fract_x
 _atom_site_fract_y
 _atom_site_fract_z
 _atom_site_occupancy
  Cs  Cs0  1  0.000000  0.666667  0.333333  1
  Rb  Rb1  1  0.000000  0.333333  0.666667  1
  Rb  Rb2  1  0.000000  0.285324  0.285868  1
  Rb  Rb3  1  0.000000  0.000544  0.714676  1
  Rb  Rb4  1  0.000000  0.714132  0.999456  1
  Eu  Eu5  1  0.500000  0.673778  0.674430  1
  Eu  Eu6  1  0.500000  0.000653  0.326222  1
  Eu  Eu7  1  0.500000  0.325570  0.999347  1
  I  I8  1  0.000000  0.816587  0.816978  1
  I  I9  1  0.000000  0.000391  0.183413  1
  I  I10  1  0.000000  0.183022  0.999609  1
  I  I11  1  0.000000  0.535756  0.535694  1
  I  I12  1  0.000000  0.999938  0.464244  1
  I  I13  1  0.000000  0.464306  0.000062  1
  I  I14  1  0.500000  0.760444  0.200293  1
  I  I15  1  0.500000  0.439848  0.239556  1
  I  I16  1  0.500000  0.555231  0.796659  1
  I  I17  1  0.500000  0.799707  0.560152  1
  I  I18  1  0.500000  0.203341  0.758571  1
  I  I19  1  0.500000  0.241429  0.444769  1
