# generated using pymatgen
data_TbCe(GaIr)2
_symmetry_space_group_name_H-M   'P 1'
_cell_length_a   4.34821500
_cell_length_b   6.87613997
_cell_length_c   7.87033430
_cell_angle_alpha   90.57266307
_cell_angle_beta   90.00000000
_cell_angle_gamma   90.00000000
_symmetry_Int_Tables_number   1
_chemical_formula_structural   TbCe(GaIr)2
_chemical_formula_sum   'Tb2 Ce2 Ga4 Ir4'
_cell_volume   235.30285998
_cell_formula_units_Z   2
loop_
 _symmetry_equiv_pos_site_id
 _symmetry_equiv_pos_as_xyz
  1  'x, y, z'
loop_
 _atom_site_type_symbol
 _atom_site_label
 _atom_site_symmetry_multiplicity
 _atom_site_fract_x
 _atom_site_fract_y
 _atom_site_fract_z
 _atom_site_occupancy
  Tb  Tb0  1  0.250000  0.530241  0.187353  1
  Tb  Tb1  1  0.750000  0.469759  0.812647  1
  Ce  Ce2  1  0.750000  0.968050  0.689299  1
  Ce  Ce3  1  0.250000  0.031950  0.310701  1
  Ga  Ga4  1  0.250000  0.644725  0.566428  1
  Ga  Ga5  1  0.750000  0.355275  0.433572  1
  Ga  Ga6  1  0.750000  0.844106  0.068177  1
  Ga  Ga7  1  0.250000  0.155894  0.931823  1
  Ir  Ir8  1  0.250000  0.767555  0.884123  1
  Ir  Ir9  1  0.750000  0.232445  0.115877  1
  Ir  Ir10  1  0.750000  0.741048  0.391134  1
  Ir  Ir11  1  0.250000  0.258952  0.608866  1
