# generated using pymatgen
data_Th6RuBr15
_symmetry_space_group_name_H-M   'P 1'
_cell_length_a   10.21343407
_cell_length_b   10.21343407
_cell_length_c   10.21343400
_cell_angle_alpha   109.47122050
_cell_angle_beta   109.47122049
_cell_angle_gamma   109.47122080
_symmetry_Int_Tables_number   1
_chemical_formula_structural   Th6RuBr15
_chemical_formula_sum   'Th6 Ru1 Br15'
_cell_volume   820.15035330
_cell_formula_units_Z   1
loop_
 _symmetry_equiv_pos_site_id
 _symmetry_equiv_pos_as_xyz
  1  'x, y, z'
loop_
 _atom_site_type_symbol
 _atom_site_label
 _atom_site_symmetry_multiplicity
 _atom_site_fract_x
 _atom_site_fract_y
 _atom_site_fract_z
 _atom_site_occupancy
  Th  Th0  1  0.240181  0.000000  0.240181  1
  Th  Th1  1  0.240181  0.240181  0.000000  1
  Th  Th2  1  0.759819  0.000000  0.759819  1
  Th  Th3  1  0.000000  0.240181  0.240181  1
  Th  Th4  1  0.000000  0.759819  0.759819  1
  Th  Th5  1  0.759819  0.759819  0.000000  1
  Ru  Ru6  1  0.000000  0.000000  0.000000  1
  Br  Br7  1  0.000000  0.750668  0.249332  1
  Br  Br8  1  0.249332  0.750668  0.000000  1
  Br  Br9  1  0.501336  0.750668  0.750668  1
  Br  Br10  1  0.000000  0.249332  0.750668  1
  Br  Br11  1  0.750668  0.000000  0.249332  1
  Br  Br12  1  0.249332  0.498664  0.249332  1
  Br  Br13  1  0.750668  0.249332  0.000000  1
  Br  Br14  1  0.500000  0.500000  0.000000  1
  Br  Br15  1  0.249332  0.249332  0.498664  1
  Br  Br16  1  0.750668  0.501336  0.750668  1
  Br  Br17  1  0.750668  0.750668  0.501336  1
  Br  Br18  1  0.498664  0.249332  0.249332  1
  Br  Br19  1  0.249332  0.000000  0.750668  1
  Br  Br20  1  0.000000  0.500000  0.500000  1
  Br  Br21  1  0.500000  0.000000  0.500000  1
