# generated using pymatgen
data_Er8Ga12CoAg2Au
_symmetry_space_group_name_H-M   'P 1'
_cell_length_a   7.03930000
_cell_length_b   8.87020710
_cell_length_c   8.87020700
_cell_angle_alpha   119.99999591
_cell_angle_beta   90.00000000
_cell_angle_gamma   90.00000000
_symmetry_Int_Tables_number   1
_chemical_formula_structural   Er8Ga12CoAg2Au
_chemical_formula_sum   'Er8 Ga12 Co1 Ag2 Au1'
_cell_volume   479.65352277
_cell_formula_units_Z   1
loop_
 _symmetry_equiv_pos_site_id
 _symmetry_equiv_pos_as_xyz
  1  'x, y, z'
loop_
 _atom_site_type_symbol
 _atom_site_label
 _atom_site_symmetry_multiplicity
 _atom_site_fract_x
 _atom_site_fract_y
 _atom_site_fract_z
 _atom_site_occupancy
  Er  Er0  1  0.738450  0.000000  0.000000  1
  Er  Er1  1  0.251977  0.000000  0.000000  1
  Er  Er2  1  0.748814  0.487156  0.512844  1
  Er  Er3  1  0.258643  0.521496  0.478504  1
  Er  Er4  1  0.748814  0.025689  0.512844  1
  Er  Er5  1  0.258643  0.957007  0.478504  1
  Er  Er6  1  0.748814  0.487156  0.974311  1
  Er  Er7  1  0.258643  0.521496  0.042993  1
  Ga  Ga8  1  0.959412  0.836959  0.163041  1
  Ga  Ga9  1  0.043625  0.165060  0.834940  1
  Ga  Ga10  1  0.959412  0.326083  0.163041  1
  Ga  Ga11  1  0.460616  0.163640  0.836360  1
  Ga  Ga12  1  0.043625  0.669878  0.834940  1
  Ga  Ga13  1  0.540926  0.825805  0.174195  1
  Ga  Ga14  1  0.959412  0.836959  0.673917  1
  Ga  Ga15  1  0.460616  0.672719  0.836360  1
  Ga  Ga16  1  0.043625  0.165060  0.330122  1
  Ga  Ga17  1  0.540926  0.348391  0.174195  1
  Ga  Ga18  1  0.460616  0.163640  0.327281  1
  Ga  Ga19  1  0.540926  0.825805  0.651609  1
  Co  Co20  1  0.508297  0.666667  0.333333  1
  Ag  Ag21  1  0.948799  0.666667  0.333333  1
  Ag  Ag22  1  0.041033  0.333333  0.666667  1
  Au  Au23  1  0.475336  0.333333  0.666667  1
