# generated using pymatgen
data_DyTm7Sc12GaSi15
_symmetry_space_group_name_H-M   'P 1'
_cell_length_a   7.05798641
_cell_length_b   7.35481373
_cell_length_c   13.94237762
_cell_angle_alpha   89.97749536
_cell_angle_beta   89.98732521
_cell_angle_gamma   90.01353692
_symmetry_Int_Tables_number   1
_chemical_formula_structural   DyTm7Sc12GaSi15
_chemical_formula_sum   'Dy1 Tm7 Sc12 Ga1 Si15'
_cell_volume   723.75117343
_cell_formula_units_Z   1
loop_
 _symmetry_equiv_pos_site_id
 _symmetry_equiv_pos_as_xyz
  1  'x, y, z'
loop_
 _atom_site_type_symbol
 _atom_site_label
 _atom_site_symmetry_multiplicity
 _atom_site_fract_x
 _atom_site_fract_y
 _atom_site_fract_z
 _atom_site_occupancy
  Dy  Dy0  1  0.011840  0.175855  0.096344  1
  Tm  Tm1  1  0.987856  0.823780  0.903579  1
  Tm  Tm2  1  0.487833  0.677224  0.903558  1
  Tm  Tm3  1  0.987520  0.825675  0.597289  1
  Tm  Tm4  1  0.512051  0.323265  0.096517  1
  Tm  Tm5  1  0.010978  0.174802  0.401787  1
  Tm  Tm6  1  0.512807  0.322680  0.401989  1
  Tm  Tm7  1  0.489861  0.679082  0.597302  1
  Sc  Sc8  1  0.161210  0.503771  0.751647  1
  Sc  Sc9  1  0.838543  0.496681  0.250085  1
  Sc  Sc10  1  0.338953  0.003525  0.249758  1
  Sc  Sc11  1  0.661710  0.995376  0.750233  1
  Sc  Sc12  1  0.332727  0.173839  0.626151  1
  Sc  Sc13  1  0.668296  0.824084  0.374440  1
  Sc  Sc14  1  0.169752  0.677624  0.373598  1
  Sc  Sc15  1  0.669191  0.823293  0.125310  1
  Sc  Sc16  1  0.828643  0.323173  0.625539  1
  Sc  Sc17  1  0.330529  0.175984  0.874857  1
  Sc  Sc18  1  0.830484  0.323174  0.874884  1
  Sc  Sc19  1  0.169025  0.676800  0.125368  1
  Ga  Ga20  1  0.161285  0.462988  0.539295  1
  Si  Si21  1  0.033252  0.115669  0.750580  1
  Si  Si22  1  0.966784  0.884958  0.249892  1
  Si  Si23  1  0.467955  0.613680  0.249959  1
  Si  Si24  1  0.531675  0.386768  0.749777  1
  Si  Si25  1  0.284435  0.870706  0.750408  1
  Si  Si26  1  0.714235  0.129239  0.249874  1
  Si  Si27  1  0.215063  0.371002  0.249717  1
  Si  Si28  1  0.785510  0.629272  0.750800  1
  Si  Si29  1  0.840297  0.535235  0.460309  1
  Si  Si30  1  0.340284  0.965039  0.460254  1
  Si  Si31  1  0.840349  0.535665  0.038431  1
  Si  Si32  1  0.658950  0.035092  0.539061  1
  Si  Si33  1  0.159514  0.465411  0.961458  1
  Si  Si34  1  0.658426  0.034727  0.960564  1
  Si  Si35  1  0.342174  0.964861  0.039388  1
