# generated using pymatgen
data_PrSmCI
_symmetry_space_group_name_H-M   'P 1'
_cell_length_a   3.87161900
_cell_length_b   3.87161840
_cell_length_c   15.52107300
_cell_angle_alpha   90.00000000
_cell_angle_beta   90.00000000
_cell_angle_gamma   119.99999661
_symmetry_Int_Tables_number   1
_chemical_formula_structural   PrSmCI
_chemical_formula_sum   'Pr2 Sm2 C2 I2'
_cell_volume   201.48259948
_cell_formula_units_Z   2
loop_
 _symmetry_equiv_pos_site_id
 _symmetry_equiv_pos_as_xyz
  1  'x, y, z'
loop_
 _atom_site_type_symbol
 _atom_site_label
 _atom_site_symmetry_multiplicity
 _atom_site_fract_x
 _atom_site_fract_y
 _atom_site_fract_z
 _atom_site_occupancy
  Pr  Pr0  1  0.333333  0.666667  0.412975  1
  Pr  Pr1  1  0.666667  0.333333  0.912975  1
  Sm  Sm2  1  0.666667  0.333333  0.586974  1
  Sm  Sm3  1  0.333333  0.666667  0.086974  1
  C  C4  1  0.000000  0.000000  0.504426  1
  C  C5  1  0.000000  0.000000  0.004426  1
  I  I6  1  0.666667  0.333333  0.245626  1
  I  I7  1  0.333333  0.666667  0.745626  1
