# generated using pymatgen
data_Tb5Hf3Pt4
_symmetry_space_group_name_H-M   'P 1'
_cell_length_a   4.70977700
_cell_length_b   7.15059474
_cell_length_c   8.35470952
_cell_angle_alpha   89.86384151
_cell_angle_beta   90.00000000
_cell_angle_gamma   90.00000000
_symmetry_Int_Tables_number   1
_chemical_formula_structural   Tb5Hf3Pt4
_chemical_formula_sum   'Tb5 Hf3 Pt4'
_cell_volume   281.36666184
_cell_formula_units_Z   1
loop_
 _symmetry_equiv_pos_site_id
 _symmetry_equiv_pos_as_xyz
  1  'x, y, z'
loop_
 _atom_site_type_symbol
 _atom_site_label
 _atom_site_symmetry_multiplicity
 _atom_site_fract_x
 _atom_site_fract_y
 _atom_site_fract_z
 _atom_site_occupancy
  Tb  Tb0  1  0.750000  0.646542  0.416523  1
  Tb  Tb1  1  0.250000  0.991005  0.325466  1
  Tb  Tb2  1  0.250000  0.478906  0.170660  1
  Tb  Tb3  1  0.750000  0.018046  0.683059  1
  Tb  Tb4  1  0.750000  0.516941  0.820712  1
  Hf  Hf5  1  0.250000  0.859695  0.925307  1
  Hf  Hf6  1  0.250000  0.353147  0.578747  1
  Hf  Hf7  1  0.750000  0.146560  0.077469  1
  Pt  Pt8  1  0.250000  0.229466  0.904569  1
  Pt  Pt9  1  0.250000  0.731527  0.611698  1
  Pt  Pt10  1  0.750000  0.775169  0.078393  1
  Pt  Pt11  1  0.750000  0.252996  0.407397  1
