# generated using pymatgen
data_Yb3Ge3(MoO6)2
_symmetry_space_group_name_H-M   'P 1'
_cell_length_a   10.74945665
_cell_length_b   10.74945716
_cell_length_c   10.74945700
_cell_angle_alpha   109.47121845
_cell_angle_beta   109.47121941
_cell_angle_gamma   109.47122357
_symmetry_Int_Tables_number   1
_chemical_formula_structural   Yb3Ge3(MoO6)2
_chemical_formula_sum   'Yb12 Ge12 Mo8 O48'
_cell_volume   956.17566018
_cell_formula_units_Z   4
loop_
 _symmetry_equiv_pos_site_id
 _symmetry_equiv_pos_as_xyz
  1  'x, y, z'
loop_
 _atom_site_type_symbol
 _atom_site_label
 _atom_site_symmetry_multiplicity
 _atom_site_fract_x
 _atom_site_fract_y
 _atom_site_fract_z
 _atom_site_occupancy
  Yb  Yb0  1  0.250000  0.875000  0.625000  1
  Yb  Yb1  1  0.750000  0.625000  0.875000  1
  Yb  Yb2  1  0.625000  0.875000  0.750000  1
  Yb  Yb3  1  0.875000  0.625000  0.250000  1
  Yb  Yb4  1  0.625000  0.250000  0.875000  1
  Yb  Yb5  1  0.875000  0.750000  0.625000  1
  Yb  Yb6  1  0.750000  0.125000  0.375000  1
  Yb  Yb7  1  0.250000  0.375000  0.125000  1
  Yb  Yb8  1  0.375000  0.125000  0.250000  1
  Yb  Yb9  1  0.125000  0.375000  0.750000  1
  Yb  Yb10  1  0.375000  0.750000  0.125000  1
  Yb  Yb11  1  0.125000  0.250000  0.375000  1
  Ge  Ge12  1  0.125000  0.750000  0.875000  1
  Ge  Ge13  1  0.875000  0.250000  0.125000  1
  Ge  Ge14  1  0.625000  0.375000  0.250000  1
  Ge  Ge15  1  0.750000  0.875000  0.125000  1
  Ge  Ge16  1  0.875000  0.125000  0.750000  1
  Ge  Ge17  1  0.250000  0.625000  0.375000  1
  Ge  Ge18  1  0.750000  0.375000  0.625000  1
  Ge  Ge19  1  0.250000  0.125000  0.875000  1
  Ge  Ge20  1  0.125000  0.875000  0.250000  1
  Ge  Ge21  1  0.375000  0.625000  0.750000  1
  Ge  Ge22  1  0.625000  0.750000  0.375000  1
  Ge  Ge23  1  0.375000  0.250000  0.625000  1
  Mo  Mo24  1  0.500000  0.500000  0.500000  1
  Mo  Mo25  1  0.500000  0.000000  0.500000  1
  Mo  Mo26  1  0.000000  0.500000  0.500000  1
  Mo  Mo27  1  0.500000  0.500000  0.000000  1
  Mo  Mo28  1  0.000000  0.000000  0.500000  1
  Mo  Mo29  1  0.000000  0.500000  0.000000  1
  Mo  Mo30  1  0.500000  0.000000  0.000000  1
  Mo  Mo31  1  0.000000  0.000000  0.000000  1
  O  O32  1  0.407094  0.808786  0.783071  1
  O  O33  1  0.875977  0.401692  0.092906  1
  O  O34  1  0.098308  0.974286  0.691214  1
  O  O35  1  0.525714  0.624023  0.716929  1
  O  O36  1  0.691214  0.092906  0.716929  1
  O  O37  1  0.624023  0.716929  0.525714  1
  O  O38  1  0.624023  0.407094  0.098308  1
  O  O39  1  0.716929  0.525714  0.624023  1
  O  O40  1  0.808786  0.525714  0.401692  1
  O  O41  1  0.974286  0.783071  0.875977  1
  O  O42  1  0.783071  0.875977  0.974286  1
  O  O43  1  0.716929  0.691214  0.092906  1
  O  O44  1  0.407094  0.098308  0.624023  1
  O  O45  1  0.401692  0.808786  0.525714  1
  O  O46  1  0.092906  0.716929  0.691214  1
  O  O47  1  0.098308  0.624023  0.407094  1
  O  O48  1  0.525714  0.401692  0.808786  1
  O  O49  1  0.092906  0.875977  0.401692  1
  O  O50  1  0.974286  0.691214  0.098308  1
  O  O51  1  0.191214  0.474286  0.598308  1
  O  O52  1  0.691214  0.098308  0.974286  1
  O  O53  1  0.783071  0.407094  0.808786  1
  O  O54  1  0.401692  0.092906  0.875977  1
  O  O55  1  0.875977  0.974286  0.783071  1
  O  O56  1  0.592906  0.191214  0.216929  1
  O  O57  1  0.124023  0.598308  0.907094  1
  O  O58  1  0.901692  0.025714  0.308786  1
  O  O59  1  0.474286  0.375977  0.283071  1
  O  O60  1  0.308786  0.907094  0.283071  1
  O  O61  1  0.375977  0.283071  0.474286  1
  O  O62  1  0.375977  0.592906  0.901692  1
  O  O63  1  0.283071  0.474286  0.375977  1
  O  O64  1  0.124023  0.025714  0.216929  1
  O  O65  1  0.598308  0.907094  0.124023  1
  O  O66  1  0.216929  0.592906  0.191214  1
  O  O67  1  0.191214  0.216929  0.592906  1
  O  O68  1  0.308786  0.901692  0.025714  1
  O  O69  1  0.025714  0.308786  0.901692  1
  O  O70  1  0.907094  0.124023  0.598308  1
  O  O71  1  0.474286  0.598308  0.191214  1
  O  O72  1  0.901692  0.375977  0.592906  1
  O  O73  1  0.907094  0.283071  0.308786  1
  O  O74  1  0.598308  0.191214  0.474286  1
  O  O75  1  0.592906  0.901692  0.375977  1
  O  O76  1  0.283071  0.308786  0.907094  1
  O  O77  1  0.216929  0.124023  0.025714  1
  O  O78  1  0.025714  0.216929  0.124023  1
  O  O79  1  0.808786  0.783071  0.407094  1
