# generated using pymatgen
data_TbHo5PtI10
_symmetry_space_group_name_H-M   'P 1'
_cell_length_a   7.71983389
_cell_length_b   9.71134263
_cell_length_c   9.77442477
_cell_angle_alpha   107.25241703
_cell_angle_beta   97.01564474
_cell_angle_gamma   104.65646415
_symmetry_Int_Tables_number   1
_chemical_formula_structural   TbHo5PtI10
_chemical_formula_sum   'Tb1 Ho5 Pt1 I10'
_cell_volume   661.44798467
_cell_formula_units_Z   1
loop_
 _symmetry_equiv_pos_site_id
 _symmetry_equiv_pos_as_xyz
  1  'x, y, z'
loop_
 _atom_site_type_symbol
 _atom_site_label
 _atom_site_symmetry_multiplicity
 _atom_site_fract_x
 _atom_site_fract_y
 _atom_site_fract_z
 _atom_site_occupancy
  Tb  Tb0  1  0.884753  0.959228  0.242049  1
  Ho  Ho1  1  0.114227  0.040178  0.758985  1
  Ho  Ho2  1  0.347772  0.125155  0.165132  1
  Ho  Ho3  1  0.652534  0.875002  0.834367  1
  Ho  Ho4  1  0.971435  0.286312  0.086164  1
  Ho  Ho5  1  0.028819  0.713723  0.913218  1
  Pt  Pt6  1  0.000196  0.000048  0.999604  1
  I  I7  1  0.354661  0.452553  0.272373  1
  I  I8  1  0.645346  0.547462  0.727657  1
  I  I9  1  0.914577  0.625994  0.178629  1
  I  I10  1  0.085597  0.373155  0.820895  1
  I  I11  1  0.452994  0.816824  0.091532  1
  I  I12  1  0.546221  0.182822  0.907931  1
  I  I13  1  0.260117  0.088028  0.463702  1
  I  I14  1  0.740937  0.912404  0.537749  1
  I  I15  1  0.778388  0.259617  0.346696  1
  I  I16  1  0.221427  0.741494  0.653317  1
