# generated using pymatgen
data_ErSc6(IrSe)2
_symmetry_space_group_name_H-M   'P 1'
_cell_length_a   8.53235740
_cell_length_b   8.53235732
_cell_length_c   8.53235795
_cell_angle_alpha   154.58633776
_cell_angle_beta   118.60689404
_cell_angle_gamma   67.54049452
_symmetry_Int_Tables_number   1
_chemical_formula_structural   ErSc6(IrSe)2
_chemical_formula_sum   'Er1 Sc6 Ir2 Se2'
_cell_volume   231.92514973
_cell_formula_units_Z   1
loop_
 _symmetry_equiv_pos_site_id
 _symmetry_equiv_pos_as_xyz
  1  'x, y, z'
loop_
 _atom_site_type_symbol
 _atom_site_label
 _atom_site_symmetry_multiplicity
 _atom_site_fract_x
 _atom_site_fract_y
 _atom_site_fract_z
 _atom_site_occupancy
  Er  Er0  1  0.998436  0.000000  0.998436  1
  Sc  Sc1  1  0.539039  0.124703  0.414337  1
  Sc  Sc2  1  0.289632  0.875297  0.414337  1
  Sc  Sc3  1  0.947100  0.314984  0.632116  1
  Sc  Sc4  1  0.317134  0.685016  0.632116  1
  Sc  Sc5  1  0.615228  0.358157  0.257070  1
  Sc  Sc6  1  0.898913  0.641843  0.257070  1
  Ir  Ir7  1  0.168735  0.237211  0.931525  1
  Ir  Ir8  1  0.694315  0.762789  0.931525  1
  Se  Se9  1  0.263125  0.500000  0.763125  1
  Se  Se10  1  0.659203  0.000000  0.659203  1
