# generated using pymatgen
data_La4Dy5ScSn8
_symmetry_space_group_name_H-M   'P 1'
_cell_length_a   8.17568500
_cell_length_b   8.35339400
_cell_length_c   15.78058200
_cell_angle_alpha   90.00000000
_cell_angle_beta   90.00000000
_cell_angle_gamma   90.00000000
_symmetry_Int_Tables_number   1
_chemical_formula_structural   La4Dy5ScSn8
_chemical_formula_sum   'La8 Dy10 Sc2 Sn16'
_cell_volume   1077.73039796
_cell_formula_units_Z   2
loop_
 _symmetry_equiv_pos_site_id
 _symmetry_equiv_pos_as_xyz
  1  'x, y, z'
loop_
 _atom_site_type_symbol
 _atom_site_label
 _atom_site_symmetry_multiplicity
 _atom_site_fract_x
 _atom_site_fract_y
 _atom_site_fract_z
 _atom_site_occupancy
  La  La0  1  0.514782  0.322812  0.904216  1
  La  La1  1  0.014782  0.177188  0.595784  1
  La  La2  1  0.485015  0.677450  0.403057  1
  La  La3  1  0.985015  0.822550  0.096943  1
  La  La4  1  0.485015  0.677450  0.096943  1
  La  La5  1  0.985015  0.822550  0.403057  1
  La  La6  1  0.514782  0.322812  0.595784  1
  La  La7  1  0.014782  0.177188  0.904216  1
  Dy  Dy8  1  0.357865  0.836798  0.876580  1
  Dy  Dy9  1  0.857865  0.663202  0.623420  1
  Dy  Dy10  1  0.641758  0.162754  0.375130  1
  Dy  Dy11  1  0.141758  0.337246  0.124870  1
  Dy  Dy12  1  0.641758  0.162754  0.124870  1
  Dy  Dy13  1  0.141758  0.337246  0.375130  1
  Dy  Dy14  1  0.357865  0.836798  0.623420  1
  Dy  Dy15  1  0.857865  0.663202  0.876580  1
  Dy  Dy16  1  0.191854  0.502994  0.750000  1
  Dy  Dy17  1  0.691854  0.997006  0.750000  1
  Sc  Sc18  1  0.808289  0.495785  0.250000  1
  Sc  Sc19  1  0.308289  0.004215  0.250000  1
  Sn  Sn20  1  0.306535  0.040862  0.044649  1
  Sn  Sn21  1  0.806535  0.459138  0.455351  1
  Sn  Sn22  1  0.692798  0.958560  0.542010  1
  Sn  Sn23  1  0.192798  0.541440  0.957990  1
  Sn  Sn24  1  0.692798  0.958560  0.957990  1
  Sn  Sn25  1  0.192798  0.541440  0.542010  1
  Sn  Sn26  1  0.306535  0.040862  0.455351  1
  Sn  Sn27  1  0.806535  0.459138  0.044649  1
  Sn  Sn28  1  0.556541  0.625079  0.750000  1
  Sn  Sn29  1  0.056541  0.874921  0.750000  1
  Sn  Sn30  1  0.446946  0.375601  0.250000  1
  Sn  Sn31  1  0.946946  0.124399  0.250000  1
  Sn  Sn32  1  0.323839  0.143177  0.750000  1
  Sn  Sn33  1  0.823839  0.356823  0.750000  1
  Sn  Sn34  1  0.675027  0.853769  0.250000  1
  Sn  Sn35  1  0.175027  0.646231  0.250000  1
