# generated using pymatgen
data_Ho12GaNi4Rh
_symmetry_space_group_name_H-M   'P 1'
_cell_length_a   8.24505668
_cell_length_b   8.24476494
_cell_length_c   8.24505700
_cell_angle_alpha   110.76503943
_cell_angle_beta   109.77375061
_cell_angle_gamma   107.88936189
_symmetry_Int_Tables_number   1
_chemical_formula_structural   Ho12GaNi4Rh
_chemical_formula_sum   'Ho12 Ga1 Ni4 Rh1'
_cell_volume   431.17640627
_cell_formula_units_Z   1
loop_
 _symmetry_equiv_pos_site_id
 _symmetry_equiv_pos_as_xyz
  1  'x, y, z'
loop_
 _atom_site_type_symbol
 _atom_site_label
 _atom_site_symmetry_multiplicity
 _atom_site_fract_x
 _atom_site_fract_y
 _atom_site_fract_z
 _atom_site_occupancy
  Ho  Ho0  1  0.410824  0.221475  0.189299  1
  Ho  Ho1  1  0.589176  0.778525  0.810701  1
  Ho  Ho2  1  0.032176  0.221475  0.810650  1
  Ho  Ho3  1  0.967824  0.778525  0.189350  1
  Ho  Ho4  1  0.182036  0.290107  0.472140  1
  Ho  Ho5  1  0.817964  0.709893  0.527860  1
  Ho  Ho6  1  0.182034  0.709893  0.891929  1
  Ho  Ho7  1  0.817966  0.290107  0.108071  1
  Ho  Ho8  1  0.323347  0.627261  0.303915  1
  Ho  Ho9  1  0.676653  0.372739  0.696085  1
  Ho  Ho10  1  0.323384  0.019456  0.696075  1
  Ho  Ho11  1  0.676616  0.980544  0.303925  1
  Ga  Ga12  1  0.500000  0.500000  0.000000  1
  Ni  Ni13  1  0.359890  0.000000  0.359890  1
  Ni  Ni14  1  0.640110  0.000000  0.640110  1
  Ni  Ni15  1  0.124591  0.624711  0.500121  1
  Ni  Ni16  1  0.875409  0.375289  0.499879  1
  Rh  Rh17  1  0.000000  0.000000  0.000000  1
