# generated using pymatgen
data_Pa2PdPt5
_symmetry_space_group_name_H-M   'P 1'
_cell_length_a   5.73002000
_cell_length_b   5.76306575
_cell_length_c   5.09333200
_cell_angle_alpha   90.00000000
_cell_angle_beta   90.00000000
_cell_angle_gamma   119.81048806
_symmetry_Int_Tables_number   1
_chemical_formula_structural   Pa2PdPt5
_chemical_formula_sum   'Pa2 Pd1 Pt5'
_cell_volume   145.93804211
_cell_formula_units_Z   1
loop_
 _symmetry_equiv_pos_site_id
 _symmetry_equiv_pos_as_xyz
  1  'x, y, z'
loop_
 _atom_site_type_symbol
 _atom_site_label
 _atom_site_symmetry_multiplicity
 _atom_site_fract_x
 _atom_site_fract_y
 _atom_site_fract_z
 _atom_site_occupancy
  Pa  Pa0  1  0.665499  0.330998  0.250000  1
  Pa  Pa1  1  0.336717  0.673434  0.750000  1
  Pd  Pd2  1  0.162989  0.325978  0.250000  1
  Pt  Pt3  1  0.839068  0.169753  0.750000  1
  Pt  Pt4  1  0.330686  0.169753  0.750000  1
  Pt  Pt5  1  0.835410  0.670819  0.750000  1
  Pt  Pt6  1  0.164974  0.829632  0.250000  1
  Pt  Pt7  1  0.664658  0.829632  0.250000  1
