# generated using pymatgen
data_Sm8TaSi16W11
_symmetry_space_group_name_H-M   'P 1'
_cell_length_a   6.87214865
_cell_length_b   7.04400872
_cell_length_c   13.03974800
_cell_angle_alpha   90.00000000
_cell_angle_beta   90.00000000
_cell_angle_gamma   89.92032802
_symmetry_Int_Tables_number   1
_chemical_formula_structural   Sm8TaSi16W11
_chemical_formula_sum   'Sm8 Ta1 Si16 W11'
_cell_volume   631.22066471
_cell_formula_units_Z   1
loop_
 _symmetry_equiv_pos_site_id
 _symmetry_equiv_pos_as_xyz
  1  'x, y, z'
loop_
 _atom_site_type_symbol
 _atom_site_label
 _atom_site_symmetry_multiplicity
 _atom_site_fract_x
 _atom_site_fract_y
 _atom_site_fract_z
 _atom_site_occupancy
  Sm  Sm0  1  0.997001  0.167044  0.094347  1
  Sm  Sm1  1  0.001501  0.832460  0.906217  1
  Sm  Sm2  1  0.502765  0.667959  0.906197  1
  Sm  Sm3  1  0.001501  0.832460  0.593783  1
  Sm  Sm4  1  0.497173  0.333929  0.094247  1
  Sm  Sm5  1  0.997001  0.167044  0.405653  1
  Sm  Sm6  1  0.497173  0.333929  0.405753  1
  Sm  Sm7  1  0.502765  0.667959  0.593803  1
  Ta  Ta8  1  0.661206  0.009757  0.750000  1
  Si  Si9  1  0.039254  0.132224  0.750000  1
  Si  Si10  1  0.964926  0.866839  0.250000  1
  Si  Si11  1  0.463133  0.633627  0.250000  1
  Si  Si12  1  0.534470  0.372433  0.750000  1
  Si  Si13  1  0.299239  0.873146  0.750000  1
  Si  Si14  1  0.695337  0.125398  0.250000  1
  Si  Si15  1  0.195911  0.375135  0.250000  1
  Si  Si16  1  0.803480  0.621925  0.750000  1
  Si  Si17  1  0.160035  0.454717  0.547258  1
  Si  Si18  1  0.841264  0.544459  0.451959  1
  Si  Si19  1  0.341093  0.955212  0.451884  1
  Si  Si20  1  0.841264  0.544459  0.048041  1
  Si  Si21  1  0.659562  0.045103  0.544196  1
  Si  Si22  1  0.160035  0.454717  0.952742  1
  Si  Si23  1  0.659562  0.045103  0.955804  1
  Si  Si24  1  0.341093  0.955212  0.048116  1
  W  W25  1  0.163384  0.491543  0.750000  1
  W  W26  1  0.835946  0.505690  0.250000  1
  W  W27  1  0.336848  0.994555  0.250000  1
  W  W28  1  0.333998  0.164417  0.625582  1
  W  W29  1  0.667975  0.835778  0.372868  1
  W  W30  1  0.167148  0.664220  0.373719  1
  W  W31  1  0.667975  0.835778  0.127132  1
  W  W32  1  0.833917  0.333565  0.625465  1
  W  W33  1  0.333998  0.164417  0.874418  1
  W  W34  1  0.833917  0.333565  0.874535  1
  W  W35  1  0.167148  0.664220  0.126281  1
