# generated using pymatgen
data_Pr3ThZn10SnPb
_symmetry_space_group_name_H-M   'P 1'
_cell_length_a   8.65179916
_cell_length_b   8.65180084
_cell_length_c   9.12811900
_cell_angle_alpha   90.00000000
_cell_angle_beta   90.00000000
_cell_angle_gamma   149.69768892
_symmetry_Int_Tables_number   1
_chemical_formula_structural   Pr3ThZn10SnPb
_chemical_formula_sum   'Pr3 Th1 Zn10 Sn1 Pb1'
_cell_volume   344.75387999
_cell_formula_units_Z   1
loop_
 _symmetry_equiv_pos_site_id
 _symmetry_equiv_pos_as_xyz
  1  'x, y, z'
loop_
 _atom_site_type_symbol
 _atom_site_label
 _atom_site_symmetry_multiplicity
 _atom_site_fract_x
 _atom_site_fract_y
 _atom_site_fract_z
 _atom_site_occupancy
  Pr  Pr0  1  0.793760  0.206240  0.750000  1
  Pr  Pr1  1  0.000989  0.999011  0.499799  1
  Pr  Pr2  1  0.000989  0.999011  0.000201  1
  Th  Th3  1  0.205542  0.794458  0.250000  1
  Zn  Zn4  1  0.813216  0.186784  0.391616  1
  Zn  Zn5  1  0.185240  0.814760  0.608430  1
  Zn  Zn6  1  0.813216  0.186784  0.108384  1
  Zn  Zn7  1  0.185240  0.814760  0.891570  1
  Zn  Zn8  1  0.658207  0.341793  0.482408  1
  Zn  Zn9  1  0.341679  0.658321  0.513117  1
  Zn  Zn10  1  0.658207  0.341793  0.017592  1
  Zn  Zn11  1  0.341679  0.658321  0.986883  1
  Zn  Zn12  1  0.395475  0.604525  0.250000  1
  Zn  Zn13  1  0.606712  0.393288  0.750000  1
  Sn  Sn14  1  0.555235  0.444765  0.250000  1
  Pb  Pb15  1  0.444613  0.555387  0.750000  1
