# generated using pymatgen
data_Tb2Y5ErSc12(Ga7Si)2
_symmetry_space_group_name_H-M   'P 1'
_cell_length_a   7.27500372
_cell_length_b   7.48657725
_cell_length_c   14.50740624
_cell_angle_alpha   89.98111321
_cell_angle_beta   89.99422960
_cell_angle_gamma   90.25492655
_symmetry_Int_Tables_number   1
_chemical_formula_structural   Tb2Y5ErSc12(Ga7Si)2
_chemical_formula_sum   'Tb2 Y5 Er1 Sc12 Ga14 Si2'
_cell_volume   790.13623412
_cell_formula_units_Z   1
loop_
 _symmetry_equiv_pos_site_id
 _symmetry_equiv_pos_as_xyz
  1  'x, y, z'
loop_
 _atom_site_type_symbol
 _atom_site_label
 _atom_site_symmetry_multiplicity
 _atom_site_fract_x
 _atom_site_fract_y
 _atom_site_fract_z
 _atom_site_occupancy
  Tb  Tb0  1  0.510744  0.322711  0.403790  1
  Tb  Tb1  1  0.489223  0.677266  0.596176  1
  Y  Y2  1  0.986979  0.822131  0.903310  1
  Y  Y3  1  0.489330  0.677199  0.903912  1
  Y  Y4  1  0.986943  0.822019  0.596933  1
  Y  Y5  1  0.510548  0.322611  0.096070  1
  Y  Y6  1  0.013086  0.178008  0.403232  1
  Er  Er7  1  0.013127  0.178277  0.096978  1
  Sc  Sc8  1  0.160523  0.502496  0.750071  1
  Sc  Sc9  1  0.839595  0.497142  0.249775  1
  Sc  Sc10  1  0.336116  0.004960  0.249861  1
  Sc  Sc11  1  0.663670  0.995222  0.749966  1
  Sc  Sc12  1  0.331276  0.173779  0.622672  1
  Sc  Sc13  1  0.668796  0.826205  0.377183  1
  Sc  Sc14  1  0.170700  0.670427  0.375962  1
  Sc  Sc15  1  0.668782  0.826298  0.122661  1
  Sc  Sc16  1  0.829281  0.329620  0.623940  1
  Sc  Sc17  1  0.331356  0.173847  0.877421  1
  Sc  Sc18  1  0.829242  0.329226  0.876349  1
  Sc  Sc19  1  0.170863  0.670705  0.123788  1
  Ga  Ga20  1  0.033013  0.120177  0.750079  1
  Ga  Ga21  1  0.967066  0.880254  0.249752  1
  Ga  Ga22  1  0.467317  0.614425  0.249889  1
  Ga  Ga23  1  0.532612  0.385483  0.750115  1
  Ga  Ga24  1  0.285417  0.873443  0.749961  1
  Ga  Ga25  1  0.715100  0.126746  0.249819  1
  Ga  Ga26  1  0.158001  0.464338  0.540781  1
  Ga  Ga27  1  0.841991  0.535607  0.459355  1
  Ga  Ga28  1  0.339376  0.963463  0.459369  1
  Ga  Ga29  1  0.841978  0.535133  0.040743  1
  Ga  Ga30  1  0.660591  0.036650  0.540821  1
  Ga  Ga31  1  0.158108  0.463827  0.959410  1
  Ga  Ga32  1  0.660664  0.036133  0.959237  1
  Ga  Ga33  1  0.338802  0.964415  0.040823  1
  Si  Si34  1  0.215111  0.375448  0.249634  1
  Si  Si35  1  0.784670  0.624309  0.750161  1
