# generated using pymatgen
data_K2P2WO8
_symmetry_space_group_name_H-M   'P 1'
_cell_length_a   5.12265000
_cell_length_b   5.12265031
_cell_length_c   9.17293200
_cell_angle_alpha   90.00000000
_cell_angle_beta   90.00000000
_cell_angle_gamma   119.99999554
_symmetry_Int_Tables_number   1
_chemical_formula_structural   K2P2WO8
_chemical_formula_sum   'K2 P2 W1 O8'
_cell_volume   208.46263342
_cell_formula_units_Z   1
loop_
 _symmetry_equiv_pos_site_id
 _symmetry_equiv_pos_as_xyz
  1  'x, y, z'
loop_
 _atom_site_type_symbol
 _atom_site_label
 _atom_site_symmetry_multiplicity
 _atom_site_fract_x
 _atom_site_fract_y
 _atom_site_fract_z
 _atom_site_occupancy
  K  K0  1  0.333333  0.666667  0.645764  1
  K  K1  1  0.666667  0.333333  0.354236  1
  P  P2  1  0.333333  0.666667  0.190746  1
  P  P3  1  0.666667  0.333333  0.809254  1
  W  W4  1  0.000000  0.000000  0.000000  1
  O  O5  1  0.333333  0.666667  0.357064  1
  O  O6  1  0.666667  0.333333  0.642936  1
  O  O7  1  0.282222  0.924903  0.134069  1
  O  O8  1  0.075097  0.357318  0.134069  1
  O  O9  1  0.642682  0.717778  0.134069  1
  O  O10  1  0.717778  0.075097  0.865931  1
  O  O11  1  0.924903  0.642682  0.865931  1
  O  O12  1  0.357318  0.282222  0.865931  1
