# generated using pymatgen
data_Sm6As13Rh20
_symmetry_space_group_name_H-M   'P 1'
_cell_length_a   13.91783200
_cell_length_b   13.91783107
_cell_length_c   4.01619600
_cell_angle_alpha   90.00000000
_cell_angle_beta   90.00000000
_cell_angle_gamma   120.00000222
_symmetry_Int_Tables_number   1
_chemical_formula_structural   Sm6As13Rh20
_chemical_formula_sum   'Sm6 As13 Rh20'
_cell_volume   673.73432163
_cell_formula_units_Z   1
loop_
 _symmetry_equiv_pos_site_id
 _symmetry_equiv_pos_as_xyz
  1  'x, y, z'
loop_
 _atom_site_type_symbol
 _atom_site_label
 _atom_site_symmetry_multiplicity
 _atom_site_fract_x
 _atom_site_fract_y
 _atom_site_fract_z
 _atom_site_occupancy
  Sm  Sm0  1  0.186967  0.468685  0.000000  1
  Sm  Sm1  1  0.531315  0.718282  0.000000  1
  Sm  Sm2  1  0.281718  0.813033  0.000000  1
  Sm  Sm3  1  0.720172  0.187970  0.500000  1
  Sm  Sm4  1  0.812030  0.532203  0.500000  1
  Sm  Sm5  1  0.467797  0.279828  0.500000  1
  As  As6  1  0.387998  0.525883  0.500000  1
  As  As7  1  0.474117  0.862115  0.500000  1
  As  As8  1  0.137885  0.612002  0.500000  1
  As  As9  1  0.051169  0.281952  0.500000  1
  As  As10  1  0.718048  0.769218  0.500000  1
  As  As11  1  0.230782  0.948831  0.500000  1
  As  As12  1  0.526194  0.139269  0.000000  1
  As  As13  1  0.860731  0.386924  0.000000  1
  As  As14  1  0.613076  0.473806  0.000000  1
  As  As15  1  0.769803  0.052920  0.000000  1
  As  As16  1  0.947080  0.716883  0.000000  1
  As  As17  1  0.283117  0.230197  0.000000  1
  As  As18  1  0.000000  0.000000  0.000000  1
  Rh  Rh19  1  0.095188  0.197207  0.000000  1
  Rh  Rh20  1  0.802793  0.897981  0.000000  1
  Rh  Rh21  1  0.102019  0.904812  0.000000  1
  Rh  Rh22  1  0.333333  0.666667  0.500000  1
  Rh  Rh23  1  0.904841  0.087227  0.500000  1
  Rh  Rh24  1  0.912773  0.817614  0.500000  1
  Rh  Rh25  1  0.182386  0.095159  0.500000  1
  Rh  Rh26  1  0.666667  0.333333  0.000000  1
  Rh  Rh27  1  0.416133  0.439957  0.000000  1
  Rh  Rh28  1  0.560043  0.976176  0.000000  1
  Rh  Rh29  1  0.023824  0.583867  0.000000  1
  Rh  Rh30  1  0.251690  0.327984  0.500000  1
  Rh  Rh31  1  0.672016  0.923706  0.500000  1
  Rh  Rh32  1  0.076294  0.748310  0.500000  1
  Rh  Rh33  1  0.439546  0.024163  0.500000  1
  Rh  Rh34  1  0.975837  0.415383  0.500000  1
  Rh  Rh35  1  0.584617  0.560454  0.500000  1
  Rh  Rh36  1  0.921065  0.248742  0.000000  1
  Rh  Rh37  1  0.751258  0.672323  0.000000  1
  Rh  Rh38  1  0.327677  0.078935  0.000000  1
