# generated using pymatgen
data_Y20ReNiAg6
_symmetry_space_group_name_H-M   'P 1'
_cell_length_a   9.48757500
_cell_length_b   9.48757651
_cell_length_c   9.74684400
_cell_angle_alpha   90.00000000
_cell_angle_beta   90.00000000
_cell_angle_gamma   119.99999126
_symmetry_Int_Tables_number   1
_chemical_formula_structural   Y20ReNiAg6
_chemical_formula_sum   'Y20 Re1 Ni1 Ag6'
_cell_volume   759.81033791
_cell_formula_units_Z   1
loop_
 _symmetry_equiv_pos_site_id
 _symmetry_equiv_pos_as_xyz
  1  'x, y, z'
loop_
 _atom_site_type_symbol
 _atom_site_label
 _atom_site_symmetry_multiplicity
 _atom_site_fract_x
 _atom_site_fract_y
 _atom_site_fract_z
 _atom_site_occupancy
  Y  Y0  1  0.000000  0.000000  0.500676  1
  Y  Y1  1  0.000000  0.000000  0.999324  1
  Y  Y2  1  0.540093  0.459907  0.250000  1
  Y  Y3  1  0.540093  0.080186  0.250000  1
  Y  Y4  1  0.919814  0.459907  0.250000  1
  Y  Y5  1  0.456893  0.543107  0.750000  1
  Y  Y6  1  0.456893  0.913786  0.750000  1
  Y  Y7  1  0.086214  0.543107  0.750000  1
  Y  Y8  1  0.208120  0.791880  0.441964  1
  Y  Y9  1  0.208120  0.416242  0.441964  1
  Y  Y10  1  0.583758  0.791880  0.441964  1
  Y  Y11  1  0.789769  0.210231  0.561592  1
  Y  Y12  1  0.789769  0.579537  0.561592  1
  Y  Y13  1  0.420463  0.210231  0.561592  1
  Y  Y14  1  0.789769  0.210231  0.938408  1
  Y  Y15  1  0.789769  0.579537  0.938408  1
  Y  Y16  1  0.420463  0.210231  0.938408  1
  Y  Y17  1  0.208120  0.791880  0.058036  1
  Y  Y18  1  0.208120  0.416242  0.058036  1
  Y  Y19  1  0.583758  0.791880  0.058036  1
  Re  Re20  1  0.333333  0.666667  0.250000  1
  Ni  Ni21  1  0.666667  0.333333  0.750000  1
  Ag  Ag22  1  0.884465  0.115535  0.250000  1
  Ag  Ag23  1  0.884465  0.768931  0.250000  1
  Ag  Ag24  1  0.231069  0.115535  0.250000  1
  Ag  Ag25  1  0.114975  0.885025  0.750000  1
  Ag  Ag26  1  0.114975  0.229950  0.750000  1
  Ag  Ag27  1  0.770050  0.885025  0.750000  1
