# generated using pymatgen
data_DyHo3Al4(IrRh)2
_symmetry_space_group_name_H-M   'P 1'
_cell_length_a   4.19913900
_cell_length_b   6.90135506
_cell_length_c   7.95406045
_cell_angle_alpha   89.96239902
_cell_angle_beta   90.00000000
_cell_angle_gamma   90.00000000
_symmetry_Int_Tables_number   1
_chemical_formula_structural   DyHo3Al4(IrRh)2
_chemical_formula_sum   'Dy1 Ho3 Al4 Ir2 Rh2'
_cell_volume   230.50662724
_cell_formula_units_Z   1
loop_
 _symmetry_equiv_pos_site_id
 _symmetry_equiv_pos_as_xyz
  1  'x, y, z'
loop_
 _atom_site_type_symbol
 _atom_site_label
 _atom_site_symmetry_multiplicity
 _atom_site_fract_x
 _atom_site_fract_y
 _atom_site_fract_z
 _atom_site_occupancy
  Dy  Dy0  1  0.250000  0.532679  0.179146  1
  Ho  Ho1  1  0.750000  0.467209  0.820522  1
  Ho  Ho2  1  0.750000  0.965377  0.680086  1
  Ho  Ho3  1  0.250000  0.034728  0.320148  1
  Al  Al4  1  0.250000  0.637757  0.561745  1
  Al  Al5  1  0.750000  0.362095  0.438889  1
  Al  Al6  1  0.750000  0.862330  0.060221  1
  Al  Al7  1  0.250000  0.137810  0.939498  1
  Ir  Ir8  1  0.250000  0.767191  0.877386  1
  Ir  Ir9  1  0.750000  0.232321  0.121829  1
  Rh  Rh10  1  0.750000  0.734269  0.380933  1
  Rh  Rh11  1  0.250000  0.266234  0.619596  1
