# generated using pymatgen
data_Ca6Mn2HN6
_symmetry_space_group_name_H-M   'P 1'
_cell_length_a   5.99662657
_cell_length_b   5.99662663
_cell_length_c   5.99662624
_cell_angle_alpha   96.66360147
_cell_angle_beta   96.66360000
_cell_angle_gamma   96.66360307
_symmetry_Int_Tables_number   1
_chemical_formula_structural   Ca6Mn2HN6
_chemical_formula_sum   'Ca6 Mn2 H1 N6'
_cell_volume   210.89135776
_cell_formula_units_Z   1
loop_
 _symmetry_equiv_pos_site_id
 _symmetry_equiv_pos_as_xyz
  1  'x, y, z'
loop_
 _atom_site_type_symbol
 _atom_site_label
 _atom_site_symmetry_multiplicity
 _atom_site_fract_x
 _atom_site_fract_y
 _atom_site_fract_z
 _atom_site_occupancy
  Ca  Ca0  1  0.627689  0.107460  0.787636  1
  Ca  Ca1  1  0.107460  0.787636  0.627689  1
  Ca  Ca2  1  0.787636  0.627689  0.107460  1
  Ca  Ca3  1  0.372311  0.892540  0.212364  1
  Ca  Ca4  1  0.892540  0.212364  0.372311  1
  Ca  Ca5  1  0.212364  0.372311  0.892540  1
  Mn  Mn6  1  0.616845  0.616845  0.616845  1
  Mn  Mn7  1  0.383155  0.383155  0.383155  1
  H  H8  1  0.000000  0.000000  0.000000  1
  N  N9  1  0.723247  0.845628  0.470731  1
  N  N10  1  0.845628  0.470731  0.723247  1
  N  N11  1  0.470731  0.723247  0.845628  1
  N  N12  1  0.276753  0.154372  0.529269  1
  N  N13  1  0.154372  0.529269  0.276753  1
  N  N14  1  0.529269  0.276753  0.154372  1
