# generated using pymatgen
data_NaFeP3Pd4
_symmetry_space_group_name_H-M   'P 1'
_cell_length_a   3.90236400
_cell_length_b   10.95062000
_cell_length_c   12.78102500
_cell_angle_alpha   90.00000000
_cell_angle_beta   90.00000000
_cell_angle_gamma   90.00000000
_symmetry_Int_Tables_number   1
_chemical_formula_structural   NaFeP3Pd4
_chemical_formula_sum   'Na4 Fe4 P12 Pd16'
_cell_volume   546.17544293
_cell_formula_units_Z   4
loop_
 _symmetry_equiv_pos_site_id
 _symmetry_equiv_pos_as_xyz
  1  'x, y, z'
loop_
 _atom_site_type_symbol
 _atom_site_label
 _atom_site_symmetry_multiplicity
 _atom_site_fract_x
 _atom_site_fract_y
 _atom_site_fract_z
 _atom_site_occupancy
  Na  Na0  1  0.250000  0.583058  0.709111  1
  Na  Na1  1  0.250000  0.916942  0.209111  1
  Na  Na2  1  0.750000  0.416942  0.290889  1
  Na  Na3  1  0.750000  0.083058  0.790889  1
  Fe  Fe4  1  0.250000  0.462143  0.934011  1
  Fe  Fe5  1  0.250000  0.037857  0.434011  1
  Fe  Fe6  1  0.750000  0.537857  0.065989  1
  Fe  Fe7  1  0.750000  0.962143  0.565989  1
  P  P8  1  0.250000  0.432896  0.102614  1
  P  P9  1  0.250000  0.067104  0.602614  1
  P  P10  1  0.750000  0.567104  0.897386  1
  P  P11  1  0.750000  0.932896  0.397386  1
  P  P12  1  0.250000  0.274921  0.869702  1
  P  P13  1  0.250000  0.225079  0.369702  1
  P  P14  1  0.750000  0.725079  0.130298  1
  P  P15  1  0.750000  0.774921  0.630298  1
  P  P16  1  0.250000  0.601492  0.391511  1
  P  P17  1  0.250000  0.898508  0.891511  1
  P  P18  1  0.750000  0.398508  0.608489  1
  P  P19  1  0.750000  0.101492  0.108489  1
  Pd  Pd20  1  0.250000  0.710889  0.989317  1
  Pd  Pd21  1  0.250000  0.789111  0.489317  1
  Pd  Pd22  1  0.750000  0.289111  0.010683  1
  Pd  Pd23  1  0.750000  0.210889  0.510683  1
  Pd  Pd24  1  0.250000  0.407049  0.480942  1
  Pd  Pd25  1  0.250000  0.092951  0.980942  1
  Pd  Pd26  1  0.750000  0.592951  0.519058  1
  Pd  Pd27  1  0.750000  0.907049  0.019058  1
  Pd  Pd28  1  0.250000  0.230283  0.175026  1
  Pd  Pd29  1  0.250000  0.269717  0.675026  1
  Pd  Pd30  1  0.750000  0.769717  0.824974  1
  Pd  Pd31  1  0.750000  0.730283  0.324974  1
  Pd  Pd32  1  0.250000  0.881745  0.702329  1
  Pd  Pd33  1  0.250000  0.618255  0.202329  1
  Pd  Pd34  1  0.750000  0.118255  0.297671  1
  Pd  Pd35  1  0.750000  0.381745  0.797671  1
