# generated using pymatgen
data_DyNb8VSe16
_symmetry_space_group_name_H-M   'P 1'
_cell_length_a   7.00839200
_cell_length_b   7.00839379
_cell_length_c   13.64611400
_cell_angle_alpha   90.00000000
_cell_angle_beta   90.00000000
_cell_angle_gamma   120.00000100
_symmetry_Int_Tables_number   1
_chemical_formula_structural   DyNb8VSe16
_chemical_formula_sum   'Dy1 Nb8 V1 Se16'
_cell_volume   580.46562183
_cell_formula_units_Z   1
loop_
 _symmetry_equiv_pos_site_id
 _symmetry_equiv_pos_as_xyz
  1  'x, y, z'
loop_
 _atom_site_type_symbol
 _atom_site_label
 _atom_site_symmetry_multiplicity
 _atom_site_fract_x
 _atom_site_fract_y
 _atom_site_fract_z
 _atom_site_occupancy
  Dy  Dy0  1  0.000000  0.000000  0.000000  1
  Nb  Nb1  1  0.000000  0.000000  0.262379  1
  Nb  Nb2  1  0.000000  0.000000  0.737621  1
  Nb  Nb3  1  0.506681  0.013361  0.264317  1
  Nb  Nb4  1  0.493319  0.986639  0.735683  1
  Nb  Nb5  1  0.986639  0.493319  0.264317  1
  Nb  Nb6  1  0.013361  0.506681  0.735683  1
  Nb  Nb7  1  0.506681  0.493319  0.264317  1
  Nb  Nb8  1  0.493319  0.506681  0.735683  1
  V  V9  1  0.000000  0.000000  0.500000  1
  Se  Se10  1  0.333333  0.666667  0.609740  1
  Se  Se11  1  0.666667  0.333333  0.390260  1
  Se  Se12  1  0.666667  0.333333  0.137408  1
  Se  Se13  1  0.333333  0.666667  0.862592  1
  Se  Se14  1  0.170191  0.340383  0.141207  1
  Se  Se15  1  0.829809  0.659617  0.858793  1
  Se  Se16  1  0.659617  0.829809  0.141207  1
  Se  Se17  1  0.833371  0.666742  0.615012  1
  Se  Se18  1  0.340383  0.170191  0.858793  1
  Se  Se19  1  0.166629  0.333258  0.384988  1
  Se  Se20  1  0.170191  0.829809  0.141207  1
  Se  Se21  1  0.333258  0.166629  0.615012  1
  Se  Se22  1  0.829809  0.170191  0.858793  1
  Se  Se23  1  0.666742  0.833371  0.384988  1
  Se  Se24  1  0.833371  0.166629  0.615012  1
  Se  Se25  1  0.166629  0.833371  0.384988  1
