# generated using pymatgen
data_Cs4NdHo3(GeSe4)4
_symmetry_space_group_name_H-M   'P 1'
_cell_length_a   7.14917826
_cell_length_b   6.82045552
_cell_length_c   19.74230618
_cell_angle_alpha   71.43747659
_cell_angle_beta   90.03099748
_cell_angle_gamma   90.09164527
_symmetry_Int_Tables_number   1
_chemical_formula_structural   Cs4NdHo3(GeSe4)4
_chemical_formula_sum   'Cs4 Nd1 Ho3 Ge4 Se16'
_cell_volume   912.56657960
_cell_formula_units_Z   1
loop_
 _symmetry_equiv_pos_site_id
 _symmetry_equiv_pos_as_xyz
  1  'x, y, z'
loop_
 _atom_site_type_symbol
 _atom_site_label
 _atom_site_symmetry_multiplicity
 _atom_site_fract_x
 _atom_site_fract_y
 _atom_site_fract_z
 _atom_site_occupancy
  Cs  Cs0  1  0.751557  0.733166  0.032928  1
  Cs  Cs1  1  0.248491  0.265195  0.968634  1
  Cs  Cs2  1  0.747795  0.734332  0.531157  1
  Cs  Cs3  1  0.251379  0.264483  0.467663  1
  Nd  Nd4  1  0.265933  0.227548  0.727195  1
  Ho  Ho5  1  0.229924  0.228748  0.227509  1
  Ho  Ho6  1  0.729914  0.771219  0.272537  1
  Ho  Ho7  1  0.770274  0.771631  0.772986  1
  Ge  Ge8  1  0.733303  0.214010  0.833323  1
  Ge  Ge9  1  0.765869  0.215820  0.331398  1
  Ge  Ge10  1  0.233379  0.785635  0.666848  1
  Ge  Ge11  1  0.265859  0.784201  0.168601  1
  Se  Se12  1  0.506151  0.041407  0.147967  1
  Se  Se13  1  0.759343  0.424141  0.406690  1
  Se  Se14  1  0.003733  0.999757  0.846805  1
  Se  Se15  1  0.846175  0.441335  0.216253  1
  Se  Se16  1  0.988587  0.037574  0.645555  1
  Se  Se17  1  0.259220  0.575960  0.093288  1
  Se  Se18  1  0.740170  0.425548  0.907299  1
  Se  Se19  1  0.345864  0.558572  0.283789  1
  Se  Se20  1  0.239324  0.586001  0.588908  1
  Se  Se21  1  0.495867  0.954195  0.854243  1
  Se  Se22  1  0.663176  0.439813  0.716996  1
  Se  Se23  1  0.156262  0.571618  0.784489  1
  Se  Se24  1  0.005828  0.959061  0.351965  1
  Se  Se25  1  0.992546  0.994897  0.157110  1
  Se  Se26  1  0.492151  0.004864  0.342865  1
  Se  Se27  1  0.511927  0.989271  0.654999  1
