# generated using pymatgen
data_HfMn2(InRh2)3
_symmetry_space_group_name_H-M   'P 1'
_cell_length_a   4.51575700
_cell_length_b   6.37001100
_cell_length_c   13.47503909
_cell_angle_alpha   89.99998250
_cell_angle_beta   90.00575750
_cell_angle_gamma   89.99999101
_symmetry_Int_Tables_number   1
_chemical_formula_structural   HfMn2(InRh2)3
_chemical_formula_sum   'Hf2 Mn4 In6 Rh12'
_cell_volume   387.61518078
_cell_formula_units_Z   2
loop_
 _symmetry_equiv_pos_site_id
 _symmetry_equiv_pos_as_xyz
  1  'x, y, z'
loop_
 _atom_site_type_symbol
 _atom_site_label
 _atom_site_symmetry_multiplicity
 _atom_site_fract_x
 _atom_site_fract_y
 _atom_site_fract_z
 _atom_site_occupancy
  Hf  Hf0  1  0.000032  0.500000  0.663458  1
  Hf  Hf1  1  0.499939  0.000000  0.836415  1
  Mn  Mn2  1  0.999977  0.500000  0.004131  1
  Mn  Mn3  1  0.500021  0.000000  0.167703  1
  Mn  Mn4  1  0.000009  0.500000  0.332277  1
  Mn  Mn5  1  0.500036  0.000000  0.496062  1
  In  In6  1  0.000066  0.000001  0.006271  1
  In  In7  1  0.500046  0.500000  0.169145  1
  In  In8  1  0.999938  0.000000  0.330883  1
  In  In9  1  0.500072  0.500000  0.493413  1
  In  In10  1  0.999841  0.000000  0.664050  1
  In  In11  1  0.499981  0.500000  0.836255  1
  Rh  Rh12  1  0.500017  0.250060  0.000472  1
  Rh  Rh13  1  0.500017  0.749940  0.000472  1
  Rh  Rh14  1  0.000018  0.253760  0.167228  1
  Rh  Rh15  1  0.000018  0.746241  0.167228  1
  Rh  Rh16  1  0.500013  0.245893  0.332701  1
  Rh  Rh17  1  0.500014  0.754107  0.332701  1
  Rh  Rh18  1  0.000035  0.249418  0.499658  1
  Rh  Rh19  1  0.000035  0.750582  0.499658  1
  Rh  Rh20  1  0.500043  0.248021  0.665295  1
  Rh  Rh21  1  0.500042  0.751979  0.665295  1
  Rh  Rh22  1  0.999898  0.252361  0.834613  1
  Rh  Rh23  1  0.999898  0.747640  0.834613  1
