# generated using pymatgen
data_Dy2Hf(ScGa2)2
_symmetry_space_group_name_H-M   'P 1'
_cell_length_a   7.21283533
_cell_length_b   7.54322322
_cell_length_c   14.39266823
_cell_angle_alpha   89.99780939
_cell_angle_beta   89.97956929
_cell_angle_gamma   89.97214419
_symmetry_Int_Tables_number   1
_chemical_formula_structural   Dy2Hf(ScGa2)2
_chemical_formula_sum   'Dy8 Hf4 Sc8 Ga16'
_cell_volume   783.07653822
_cell_formula_units_Z   4
loop_
 _symmetry_equiv_pos_site_id
 _symmetry_equiv_pos_as_xyz
  1  'x, y, z'
loop_
 _atom_site_type_symbol
 _atom_site_label
 _atom_site_symmetry_multiplicity
 _atom_site_fract_x
 _atom_site_fract_y
 _atom_site_fract_z
 _atom_site_occupancy
  Dy  Dy0  1  0.011015  0.177288  0.093748  1
  Dy  Dy1  1  0.988921  0.822316  0.905982  1
  Dy  Dy2  1  0.489308  0.676733  0.905512  1
  Dy  Dy3  1  0.988820  0.823441  0.593664  1
  Dy  Dy4  1  0.510166  0.323602  0.094188  1
  Dy  Dy5  1  0.010808  0.175863  0.406572  1
  Dy  Dy6  1  0.510199  0.325061  0.405948  1
  Dy  Dy7  1  0.489555  0.676534  0.593993  1
  Hf  Hf8  1  0.329018  0.174434  0.624454  1
  Hf  Hf9  1  0.670950  0.823932  0.376664  1
  Hf  Hf10  1  0.171073  0.674876  0.377299  1
  Hf  Hf11  1  0.670353  0.827332  0.123807  1
  Sc  Sc12  1  0.162760  0.504194  0.750234  1
  Sc  Sc13  1  0.838018  0.496051  0.249608  1
  Sc  Sc14  1  0.337855  0.003344  0.249903  1
  Sc  Sc15  1  0.662805  0.996584  0.750420  1
  Sc  Sc16  1  0.828430  0.324787  0.623060  1
  Sc  Sc17  1  0.328940  0.173636  0.875823  1
  Sc  Sc18  1  0.828492  0.326889  0.876433  1
  Sc  Sc19  1  0.171547  0.673947  0.122608  1
  Ga  Ga20  1  0.032235  0.117967  0.748432  1
  Ga  Ga21  1  0.967397  0.879153  0.251050  1
  Ga  Ga22  1  0.468892  0.621312  0.251385  1
  Ga  Ga23  1  0.530366  0.381691  0.748946  1
  Ga  Ga24  1  0.285298  0.874271  0.748285  1
  Ga  Ga25  1  0.714868  0.123726  0.250604  1
  Ga  Ga26  1  0.215235  0.374618  0.251817  1
  Ga  Ga27  1  0.784427  0.627491  0.749482  1
  Ga  Ga28  1  0.163393  0.462883  0.539644  1
  Ga  Ga29  1  0.839993  0.539281  0.458039  1
  Ga  Ga30  1  0.339226  0.962569  0.459455  1
  Ga  Ga31  1  0.837311  0.538106  0.041622  1
  Ga  Ga32  1  0.658714  0.035841  0.539808  1
  Ga  Ga33  1  0.160840  0.463621  0.959325  1
  Ga  Ga34  1  0.660973  0.034170  0.960434  1
  Ga  Ga35  1  0.341796  0.962457  0.041751  1
