# generated using pymatgen
data_Dy6Al24ZnRu6Pt
_symmetry_space_group_name_H-M   'P 1'
_cell_length_a   8.84430884
_cell_length_b   8.82886949
_cell_length_c   9.56429104
_cell_angle_alpha   90.10557179
_cell_angle_beta   90.02077439
_cell_angle_gamma   119.51860626
_symmetry_Int_Tables_number   1
_chemical_formula_structural   Dy6Al24ZnRu6Pt
_chemical_formula_sum   'Dy6 Al24 Zn1 Ru6 Pt1'
_cell_volume   649.88652624
_cell_formula_units_Z   1
loop_
 _symmetry_equiv_pos_site_id
 _symmetry_equiv_pos_as_xyz
  1  'x, y, z'
loop_
 _atom_site_type_symbol
 _atom_site_label
 _atom_site_symmetry_multiplicity
 _atom_site_fract_x
 _atom_site_fract_y
 _atom_site_fract_z
 _atom_site_occupancy
  Dy  Dy0  1  0.192142  0.805480  0.245978  1
  Dy  Dy1  1  0.192399  0.385940  0.254794  1
  Dy  Dy2  1  0.615288  0.807328  0.253942  1
  Dy  Dy3  1  0.807858  0.194520  0.754022  1
  Dy  Dy4  1  0.807601  0.614060  0.745206  1
  Dy  Dy5  1  0.384712  0.192672  0.746058  1
  Al  Al6  1  0.565009  0.436688  0.242947  1
  Al  Al7  1  0.563327  0.124307  0.254080  1
  Al  Al8  1  0.878818  0.438834  0.250360  1
  Al  Al9  1  0.434991  0.563312  0.757053  1
  Al  Al10  1  0.436673  0.875693  0.745920  1
  Al  Al11  1  0.121182  0.561166  0.749640  1
  Al  Al12  1  0.323153  0.149722  0.420778  1
  Al  Al13  1  0.836553  0.163456  0.421897  1
  Al  Al14  1  0.848840  0.675828  0.420194  1
  Al  Al15  1  0.676847  0.850278  0.579222  1
  Al  Al16  1  0.163447  0.836544  0.578103  1
  Al  Al17  1  0.151160  0.324172  0.579806  1
  Al  Al18  1  0.674980  0.831166  0.926415  1
  Al  Al19  1  0.158314  0.832170  0.920605  1
  Al  Al20  1  0.164349  0.326541  0.926481  1
  Al  Al21  1  0.325020  0.168834  0.073585  1
  Al  Al22  1  0.841686  0.167830  0.079395  1
  Al  Al23  1  0.835651  0.673459  0.073519  1
  Al  Al24  1  0.671988  0.327623  0.526029  1
  Al  Al25  1  0.328012  0.672377  0.473971  1
  Al  Al26  1  0.330355  0.660892  0.026310  1
  Al  Al27  1  0.669645  0.339108  0.973690  1
  Al  Al28  1  0.997092  0.000750  0.249676  1
  Al  Al29  1  0.002908  0.999250  0.750324  1
  Zn  Zn30  1  0.500000  0.500000  0.500000  1
  Ru  Ru31  1  0.000000  0.000000  0.500000  1
  Ru  Ru32  1  0.000000  0.000000  0.000000  1
  Ru  Ru33  1  0.500000  0.000000  0.500000  1
  Ru  Ru34  1  0.000000  0.500000  0.500000  1
  Ru  Ru35  1  0.500000  0.500000  0.000000  1
  Ru  Ru36  1  0.000000  0.500000  0.000000  1
  Pt  Pt37  1  0.500000  0.000000  0.000000  1
