# generated using pymatgen
data_ScTi9Au20
_symmetry_space_group_name_H-M   'P 1'
_cell_length_a   3.56994100
_cell_length_b   8.62578915
_cell_length_c   16.98842216
_cell_angle_alpha   90.00276099
_cell_angle_beta   90.00000000
_cell_angle_gamma   90.00000000
_symmetry_Int_Tables_number   1
_chemical_formula_structural   ScTi9Au20
_chemical_formula_sum   'Sc1 Ti9 Au20'
_cell_volume   523.13396796
_cell_formula_units_Z   1
loop_
 _symmetry_equiv_pos_site_id
 _symmetry_equiv_pos_as_xyz
  1  'x, y, z'
loop_
 _atom_site_type_symbol
 _atom_site_label
 _atom_site_symmetry_multiplicity
 _atom_site_fract_x
 _atom_site_fract_y
 _atom_site_fract_z
 _atom_site_occupancy
  Sc  Sc0  1  0.500000  0.500209  0.900035  1
  Ti  Ti1  1  0.000000  0.999973  0.000193  1
  Ti  Ti2  1  0.500000  0.499758  0.499492  1
  Ti  Ti3  1  0.000000  0.000133  0.201025  1
  Ti  Ti4  1  0.000000  0.999950  0.799655  1
  Ti  Ti5  1  0.500000  0.499896  0.300493  1
  Ti  Ti6  1  0.500000  0.499916  0.697039  1
  Ti  Ti7  1  0.000000  0.999934  0.400132  1
  Ti  Ti8  1  0.000000  0.000065  0.599021  1
  Ti  Ti9  1  0.500000  0.500140  0.102973  1
  Au  Au10  1  0.000000  0.334819  0.003811  1
  Au  Au11  1  0.000000  0.665603  0.003960  1
  Au  Au12  1  0.500000  0.835607  0.499751  1
  Au  Au13  1  0.500000  0.164281  0.499751  1
  Au  Au14  1  0.000000  0.335051  0.200538  1
  Au  Au15  1  0.000000  0.665364  0.795878  1
  Au  Au16  1  0.500000  0.835705  0.300374  1
  Au  Au17  1  0.500000  0.163170  0.698874  1
  Au  Au18  1  0.000000  0.335511  0.400002  1
  Au  Au19  1  0.000000  0.664686  0.599346  1
  Au  Au20  1  0.500000  0.837033  0.101396  1
  Au  Au21  1  0.500000  0.163588  0.900011  1
  Au  Au22  1  0.000000  0.334871  0.599497  1
  Au  Au23  1  0.000000  0.664182  0.400058  1
  Au  Au24  1  0.500000  0.836342  0.899885  1
  Au  Au25  1  0.500000  0.163176  0.101127  1
  Au  Au26  1  0.000000  0.334763  0.796204  1
  Au  Au27  1  0.000000  0.664964  0.200731  1
  Au  Au28  1  0.500000  0.836978  0.698499  1
  Au  Au29  1  0.500000  0.164333  0.300249  1
