# generated using pymatgen
data_Co8Mo3W13C4
_symmetry_space_group_name_H-M   'P 1'
_cell_length_a   8.00933175
_cell_length_b   8.00406438
_cell_length_c   8.00890544
_cell_angle_alpha   119.98362492
_cell_angle_beta   90.01259040
_cell_angle_gamma   119.97521985
_symmetry_Int_Tables_number   1
_chemical_formula_structural   Co8Mo3W13C4
_chemical_formula_sum   'Co8 Mo3 W13 C4'
_cell_volume   363.23470058
_cell_formula_units_Z   1
loop_
 _symmetry_equiv_pos_site_id
 _symmetry_equiv_pos_as_xyz
  1  'x, y, z'
loop_
 _atom_site_type_symbol
 _atom_site_label
 _atom_site_symmetry_multiplicity
 _atom_site_fract_x
 _atom_site_fract_y
 _atom_site_fract_z
 _atom_site_occupancy
  Co  Co0  1  0.581226  0.163529  0.418736  1
  Co  Co1  1  0.581205  0.836493  0.418759  1
  Co  Co2  1  0.254692  0.836088  0.417467  1
  Co  Co3  1  0.168407  0.336796  0.505191  1
  Co  Co4  1  0.582495  0.163909  0.745302  1
  Co  Co5  1  0.167952  0.337082  0.832003  1
  Co  Co6  1  0.167950  0.662885  0.832015  1
  Co  Co7  1  0.494803  0.663175  0.831552  1
  Mo  Mo8  1  0.813135  0.000046  0.186934  1
  Mo  Mo9  1  0.562756  0.499964  0.437227  1
  Mo  Mo10  1  0.187234  0.999987  0.812748  1
  W  W11  1  0.562179  0.499971  0.062464  1
  W  W12  1  0.562172  0.124667  0.062481  1
  W  W13  1  0.937488  0.500031  0.062576  1
  W  W14  1  0.375633  0.750483  0.125284  1
  W  W15  1  0.188192  0.000625  0.187936  1
  W  W16  1  0.188173  0.375485  0.187922  1
  W  W17  1  0.937555  0.500016  0.437808  1
  W  W18  1  0.937574  0.875343  0.437801  1
  W  W19  1  0.374705  0.249875  0.625229  1
  W  W20  1  0.374701  0.750106  0.625231  1
  W  W21  1  0.874718  0.249549  0.624324  1
  W  W22  1  0.812099  0.624493  0.811778  1
  W  W23  1  0.812112  0.999397  0.811802  1
  C  C24  1  0.375389  0.250129  0.124921  1
  C  C25  1  0.875164  0.749860  0.124909  1
  C  C26  1  0.875175  0.250144  0.124885  1
  C  C27  1  0.875112  0.749877  0.624707  1
