# generated using pymatgen
data_SrLi2Nd2Al7
_symmetry_space_group_name_H-M   'P 1'
_cell_length_a   9.60112427
_cell_length_b   9.60112366
_cell_length_c   9.60112369
_cell_angle_alpha   34.38800241
_cell_angle_beta   34.38801075
_cell_angle_gamma   34.38800190
_symmetry_Int_Tables_number   1
_chemical_formula_structural   SrLi2Nd2Al7
_chemical_formula_sum   'Sr1 Li2 Nd2 Al7'
_cell_volume   251.81967201
_cell_formula_units_Z   1
loop_
 _symmetry_equiv_pos_site_id
 _symmetry_equiv_pos_as_xyz
  1  'x, y, z'
loop_
 _atom_site_type_symbol
 _atom_site_label
 _atom_site_symmetry_multiplicity
 _atom_site_fract_x
 _atom_site_fract_y
 _atom_site_fract_z
 _atom_site_occupancy
  Sr  Sr0  1  0.000000  0.000000  0.000000  1
  Li  Li1  1  0.335227  0.335227  0.335227  1
  Li  Li2  1  0.664773  0.664773  0.664773  1
  Nd  Nd3  1  0.141598  0.141598  0.141598  1
  Nd  Nd4  1  0.858402  0.858402  0.858402  1
  Al  Al5  1  0.587881  0.587881  0.076364  1
  Al  Al6  1  0.412119  0.923636  0.412119  1
  Al  Al7  1  0.587881  0.076364  0.587881  1
  Al  Al8  1  0.076364  0.587881  0.587881  1
  Al  Al9  1  0.412119  0.412119  0.923636  1
  Al  Al10  1  0.500000  0.500000  0.500000  1
  Al  Al11  1  0.923636  0.412119  0.412119  1
