# generated using pymatgen
data_Pr4ZnSi6Ir
_symmetry_space_group_name_H-M   'P 1'
_cell_length_a   8.25012500
_cell_length_b   8.25013259
_cell_length_c   8.65102200
_cell_angle_alpha   90.00000000
_cell_angle_beta   90.00000000
_cell_angle_gamma   120.00000566
_symmetry_Int_Tables_number   1
_chemical_formula_structural   Pr4ZnSi6Ir
_chemical_formula_sum   'Pr8 Zn2 Si12 Ir2'
_cell_volume   509.94047054
_cell_formula_units_Z   2
loop_
 _symmetry_equiv_pos_site_id
 _symmetry_equiv_pos_as_xyz
  1  'x, y, z'
loop_
 _atom_site_type_symbol
 _atom_site_label
 _atom_site_symmetry_multiplicity
 _atom_site_fract_x
 _atom_site_fract_y
 _atom_site_fract_z
 _atom_site_occupancy
  Pr  Pr0  1  0.499809  0.500191  0.757327  1
  Pr  Pr1  1  0.500191  0.499809  0.242673  1
  Pr  Pr2  1  0.000382  0.500191  0.757327  1
  Pr  Pr3  1  0.999618  0.499809  0.242673  1
  Pr  Pr4  1  0.499809  0.999618  0.757327  1
  Pr  Pr5  1  0.500191  0.000382  0.242673  1
  Pr  Pr6  1  0.000000  0.000000  0.751869  1
  Pr  Pr7  1  0.000000  0.000000  0.248131  1
  Zn  Zn8  1  0.333333  0.666667  0.499096  1
  Zn  Zn9  1  0.666667  0.333333  0.500904  1
  Si  Si10  1  0.832857  0.167143  0.999918  1
  Si  Si11  1  0.167143  0.832857  0.000082  1
  Si  Si12  1  0.334288  0.167143  0.999918  1
  Si  Si13  1  0.165991  0.834009  0.499987  1
  Si  Si14  1  0.665712  0.832857  0.000082  1
  Si  Si15  1  0.834009  0.165991  0.500013  1
  Si  Si16  1  0.832857  0.665712  0.999918  1
  Si  Si17  1  0.668018  0.834009  0.499987  1
  Si  Si18  1  0.167143  0.334288  0.000082  1
  Si  Si19  1  0.331982  0.165991  0.500013  1
  Si  Si20  1  0.165991  0.331982  0.499987  1
  Si  Si21  1  0.834009  0.668018  0.500013  1
  Ir  Ir22  1  0.666667  0.333333  0.999611  1
  Ir  Ir23  1  0.333333  0.666667  0.000389  1
