# generated using pymatgen
data_Nb5AlFe2(BRu2)4
_symmetry_space_group_name_H-M   'P 1'
_cell_length_a   9.22884900
_cell_length_b   9.22884900
_cell_length_c   3.02630300
_cell_angle_alpha   90.00000000
_cell_angle_beta   90.00000000
_cell_angle_gamma   90.00000000
_symmetry_Int_Tables_number   1
_chemical_formula_structural   Nb5AlFe2(BRu2)4
_chemical_formula_sum   'Nb5 Al1 Fe2 B4 Ru8'
_cell_volume   257.75523161
_cell_formula_units_Z   1
loop_
 _symmetry_equiv_pos_site_id
 _symmetry_equiv_pos_as_xyz
  1  'x, y, z'
loop_
 _atom_site_type_symbol
 _atom_site_label
 _atom_site_symmetry_multiplicity
 _atom_site_fract_x
 _atom_site_fract_y
 _atom_site_fract_z
 _atom_site_occupancy
  Nb  Nb0  1  0.823708  0.670401  0.000000  1
  Nb  Nb1  1  0.176292  0.329599  0.000000  1
  Nb  Nb2  1  0.329599  0.823708  0.000000  1
  Nb  Nb3  1  0.670401  0.176292  0.000000  1
  Nb  Nb4  1  0.000000  0.000000  0.000000  1
  Al  Al5  1  0.500000  0.500000  0.000000  1
  Fe  Fe6  1  0.500000  0.000000  0.500000  1
  Fe  Fe7  1  0.000000  0.500000  0.500000  1
  B  B8  1  0.608818  0.880334  0.000000  1
  B  B9  1  0.391182  0.119666  0.000000  1
  B  B10  1  0.119666  0.608818  0.000000  1
  B  B11  1  0.880334  0.391182  0.000000  1
  Ru  Ru12  1  0.566995  0.718388  0.500000  1
  Ru  Ru13  1  0.433005  0.281612  0.500000  1
  Ru  Ru14  1  0.067212  0.776174  0.500000  1
  Ru  Ru15  1  0.932788  0.223826  0.500000  1
  Ru  Ru16  1  0.281612  0.566995  0.500000  1
  Ru  Ru17  1  0.718388  0.433005  0.500000  1
  Ru  Ru18  1  0.223826  0.067212  0.500000  1
  Ru  Ru19  1  0.776174  0.932788  0.500000  1
