# generated using pymatgen
data_Tb2Er3P12Ru17Pt2
_symmetry_space_group_name_H-M   'P 1'
_cell_length_a   3.98657000
_cell_length_b   12.53053830
_cell_length_c   12.53169408
_cell_angle_alpha   119.44071421
_cell_angle_beta   90.00000000
_cell_angle_gamma   90.00000000
_symmetry_Int_Tables_number   1
_chemical_formula_structural   Tb2Er3P12Ru17Pt2
_chemical_formula_sum   'Tb2 Er3 P12 Ru17 Pt2'
_cell_volume   545.16707895
_cell_formula_units_Z   1
loop_
 _symmetry_equiv_pos_site_id
 _symmetry_equiv_pos_as_xyz
  1  'x, y, z'
loop_
 _atom_site_type_symbol
 _atom_site_label
 _atom_site_symmetry_multiplicity
 _atom_site_fract_x
 _atom_site_fract_y
 _atom_site_fract_z
 _atom_site_occupancy
  Tb  Tb0  1  0.500000  0.816399  0.816419  1
  Tb  Tb1  1  0.000000  0.663445  0.335626  1
  Er  Er2  1  0.500000  0.998700  0.181634  1
  Er  Er3  1  0.500000  0.181625  0.998659  1
  Er  Er4  1  0.000000  0.335558  0.663305  1
  P  P5  1  0.000000  0.002054  0.814693  1
  P  P6  1  0.000000  0.814582  0.001845  1
  P  P7  1  0.000000  0.181681  0.181794  1
  P  P8  1  0.500000  0.306941  0.477142  1
  P  P9  1  0.500000  0.184534  0.700123  1
  P  P10  1  0.500000  0.521953  0.821201  1
  P  P11  1  0.500000  0.821702  0.522658  1
  P  P12  1  0.500000  0.476516  0.306879  1
  P  P13  1  0.500000  0.700342  0.183950  1
  P  P14  1  0.000000  0.999221  0.363951  1
  P  P15  1  0.000000  0.363997  0.999368  1
  P  P16  1  0.000000  0.626326  0.626276  1
  Ru  Ru17  1  0.000000  0.444673  0.444660  1
  Ru  Ru18  1  0.500000  0.002962  0.711989  1
  Ru  Ru19  1  0.500000  0.711859  0.002691  1
  Ru  Ru20  1  0.500000  0.281241  0.281410  1
  Ru  Ru21  1  0.000000  0.190769  0.375738  1
  Ru  Ru22  1  0.000000  0.186874  0.805070  1
  Ru  Ru23  1  0.000000  0.623267  0.816205  1
  Ru  Ru24  1  0.000000  0.816481  0.623763  1
  Ru  Ru25  1  0.000000  0.375255  0.190598  1
  Ru  Ru26  1  0.000000  0.805264  0.186554  1
  Ru  Ru27  1  0.500000  0.130200  0.495729  1
  Ru  Ru28  1  0.500000  0.371608  0.877501  1
  Ru  Ru29  1  0.500000  0.507513  0.631890  1
  Ru  Ru30  1  0.500000  0.631914  0.508246  1
  Ru  Ru31  1  0.500000  0.495039  0.129546  1
  Ru  Ru32  1  0.500000  0.878118  0.371523  1
  Ru  Ru33  1  0.000000  0.998100  0.998131  1
  Pt  Pt34  1  0.000000  0.001677  0.551467  1
  Pt  Pt35  1  0.000000  0.551504  0.001767  1
