# generated using pymatgen
data_Ho8Nb11Si16Tc
_symmetry_space_group_name_H-M   'P 1'
_cell_length_a   7.02691650
_cell_length_b   7.02691712
_cell_length_c   12.98460104
_cell_angle_alpha   89.93454944
_cell_angle_beta   90.06545250
_cell_angle_gamma   89.82776895
_symmetry_Int_Tables_number   1
_chemical_formula_structural   Ho8Nb11Si16Tc
_chemical_formula_sum   'Ho8 Nb11 Si16 Tc1'
_cell_volume   641.14417896
_cell_formula_units_Z   1
loop_
 _symmetry_equiv_pos_site_id
 _symmetry_equiv_pos_as_xyz
  1  'x, y, z'
loop_
 _atom_site_type_symbol
 _atom_site_label
 _atom_site_symmetry_multiplicity
 _atom_site_fract_x
 _atom_site_fract_y
 _atom_site_fract_z
 _atom_site_occupancy
  Ho  Ho0  1  0.342907  0.001093  0.468609  1
  Ho  Ho1  1  0.499389  0.841166  0.716381  1
  Ho  Ho2  1  0.503419  0.157433  0.218510  1
  Ho  Ho3  1  0.841166  0.499389  0.283619  1
  Ho  Ho4  1  0.157433  0.503419  0.781490  1
  Ho  Ho5  1  0.658167  0.996928  0.967809  1
  Ho  Ho6  1  0.001093  0.342907  0.531391  1
  Ho  Ho7  1  0.996928  0.658167  0.032191  1
  Nb  Nb8  1  0.328068  0.328068  0.000000  1
  Nb  Nb9  1  0.170763  0.826497  0.252195  1
  Nb  Nb10  1  0.826497  0.170763  0.747805  1
  Nb  Nb11  1  0.152675  0.006777  0.874260  1
  Nb  Nb12  1  0.495096  0.652521  0.124695  1
  Nb  Nb13  1  0.506265  0.344635  0.623612  1
  Nb  Nb14  1  0.652521  0.495096  0.875305  1
  Nb  Nb15  1  0.344635  0.506265  0.376388  1
  Nb  Nb16  1  0.850372  0.995954  0.374198  1
  Nb  Nb17  1  0.006777  0.152675  0.125740  1
  Nb  Nb18  1  0.995954  0.850372  0.625802  1
  Si  Si19  1  0.205090  0.134131  0.682192  1
  Si  Si20  1  0.364953  0.703680  0.932546  1
  Si  Si21  1  0.632814  0.299243  0.432406  1
  Si  Si22  1  0.703680  0.364953  0.067454  1
  Si  Si23  1  0.299243  0.632814  0.567594  1
  Si  Si24  1  0.796410  0.864753  0.182819  1
  Si  Si25  1  0.134131  0.205090  0.317808  1
  Si  Si26  1  0.864753  0.796410  0.817181  1
  Si  Si27  1  0.293860  0.953491  0.064363  1
  Si  Si28  1  0.549924  0.791410  0.317032  1
  Si  Si29  1  0.454244  0.206122  0.813384  1
  Si  Si30  1  0.791410  0.549924  0.682968  1
  Si  Si31  1  0.206122  0.454244  0.186616  1
  Si  Si32  1  0.707510  0.041881  0.561710  1
  Si  Si33  1  0.953491  0.293860  0.935637  1
  Si  Si34  1  0.041881  0.707510  0.438290  1
  Tc  Tc35  1  0.670360  0.670360  0.500000  1
