# generated using pymatgen
data_Zr6Sc8Al8Ir3Pt3Rh
_symmetry_space_group_name_H-M   'P 1'
_cell_length_a   9.10189525
_cell_length_b   9.10189537
_cell_length_c   9.10454900
_cell_angle_alpha   59.99035158
_cell_angle_beta   59.99035116
_cell_angle_gamma   60.01929862
_symmetry_Int_Tables_number   1
_chemical_formula_structural   Zr6Sc8Al8Ir3Pt3Rh
_chemical_formula_sum   'Zr6 Sc8 Al8 Ir3 Pt3 Rh1'
_cell_volume   533.34354351
_cell_formula_units_Z   1
loop_
 _symmetry_equiv_pos_site_id
 _symmetry_equiv_pos_as_xyz
  1  'x, y, z'
loop_
 _atom_site_type_symbol
 _atom_site_label
 _atom_site_symmetry_multiplicity
 _atom_site_fract_x
 _atom_site_fract_y
 _atom_site_fract_z
 _atom_site_occupancy
  Zr  Zr0  1  0.680815  0.682240  0.319185  1
  Zr  Zr1  1  0.318448  0.681552  0.318448  1
  Zr  Zr2  1  0.678019  0.320915  0.321981  1
  Zr  Zr3  1  0.319185  0.317760  0.680815  1
  Zr  Zr4  1  0.681552  0.318448  0.681552  1
  Zr  Zr5  1  0.321981  0.679085  0.678019  1
  Sc  Sc6  1  0.876135  0.882155  0.364679  1
  Sc  Sc7  1  0.875545  0.361468  0.880763  1
  Sc  Sc8  1  0.364679  0.877030  0.876135  1
  Sc  Sc9  1  0.880763  0.882225  0.875545  1
  Sc  Sc10  1  0.123865  0.117845  0.635321  1
  Sc  Sc11  1  0.124455  0.638532  0.119237  1
  Sc  Sc12  1  0.635321  0.122970  0.123865  1
  Sc  Sc13  1  0.119237  0.117775  0.124455  1
  Al  Al14  1  0.661125  0.661003  0.015573  1
  Al  Al15  1  0.662206  0.015027  0.661123  1
  Al  Al16  1  0.015573  0.662299  0.661125  1
  Al  Al17  1  0.661123  0.661644  0.662206  1
  Al  Al18  1  0.338875  0.338997  0.984427  1
  Al  Al19  1  0.337794  0.984973  0.338877  1
  Al  Al20  1  0.984427  0.337701  0.338875  1
  Al  Al21  1  0.338877  0.338356  0.337794  1
  Ir  Ir22  1  0.000000  0.000000  0.000000  1
  Ir  Ir23  1  0.000000  0.000000  0.500000  1
  Ir  Ir24  1  0.500000  0.500000  0.000000  1
  Pt  Pt25  1  0.000000  0.500000  0.500000  1
  Pt  Pt26  1  0.000000  0.500000  0.000000  1
  Pt  Pt27  1  0.500000  0.000000  0.000000  1
  Rh  Rh28  1  0.500000  0.000000  0.500000  1
