# generated using pymatgen
data_Dy6HoLu3(In2Pt)4
_symmetry_space_group_name_H-M   'P 1'
_cell_length_a   3.61898400
_cell_length_b   8.13158204
_cell_length_c   18.12205014
_cell_angle_alpha   89.94337958
_cell_angle_beta   90.00000000
_cell_angle_gamma   90.00000000
_symmetry_Int_Tables_number   1
_chemical_formula_structural   Dy6HoLu3(In2Pt)4
_chemical_formula_sum   'Dy6 Ho1 Lu3 In8 Pt4'
_cell_volume   533.29661478
_cell_formula_units_Z   1
loop_
 _symmetry_equiv_pos_site_id
 _symmetry_equiv_pos_as_xyz
  1  'x, y, z'
loop_
 _atom_site_type_symbol
 _atom_site_label
 _atom_site_symmetry_multiplicity
 _atom_site_fract_x
 _atom_site_fract_y
 _atom_site_fract_z
 _atom_site_occupancy
  Dy  Dy0  1  0.000000  0.243171  0.220016  1
  Dy  Dy1  1  0.000000  0.757647  0.780295  1
  Dy  Dy2  1  0.000000  0.257341  0.719233  1
  Dy  Dy3  1  0.000000  0.742225  0.281063  1
  Dy  Dy4  1  0.000000  0.999633  0.999571  1
  Dy  Dy5  1  0.000000  0.500208  0.500149  1
  Ho  Ho6  1  0.000000  0.617442  0.084492  1
  Lu  Lu7  1  0.000000  0.116801  0.414221  1
  Lu  Lu8  1  0.000000  0.883287  0.585995  1
  Lu  Lu9  1  0.000000  0.383249  0.913731  1
  In  In10  1  0.500000  0.420373  0.351731  1
  In  In11  1  0.500000  0.579343  0.648885  1
  In  In12  1  0.500000  0.079011  0.850999  1
  In  In13  1  0.500000  0.923410  0.149593  1
  In  In14  1  0.500000  0.293515  0.064932  1
  In  In15  1  0.500000  0.704380  0.933410  1
  In  In16  1  0.500000  0.202946  0.564698  1
  In  In17  1  0.500000  0.797203  0.435502  1
  Pt  Pt18  1  0.500000  0.026505  0.305394  1
  Pt  Pt19  1  0.500000  0.973632  0.694782  1
  Pt  Pt20  1  0.500000  0.473050  0.804720  1
  Pt  Pt21  1  0.500000  0.525630  0.196588  1
