# generated using pymatgen
data_Pr8MgAgOs2
_symmetry_space_group_name_H-M   'P 1'
_cell_length_a   10.00934022
_cell_length_b   10.00933972
_cell_length_c   10.05574600
_cell_angle_alpha   59.84650700
_cell_angle_beta   59.84650868
_cell_angle_gamma   60.01996160
_symmetry_Int_Tables_number   1
_chemical_formula_structural   Pr8MgAgOs2
_chemical_formula_sum   'Pr16 Mg2 Ag2 Os4'
_cell_volume   710.82691447
_cell_formula_units_Z   2
loop_
 _symmetry_equiv_pos_site_id
 _symmetry_equiv_pos_as_xyz
  1  'x, y, z'
loop_
 _atom_site_type_symbol
 _atom_site_label
 _atom_site_symmetry_multiplicity
 _atom_site_fract_x
 _atom_site_fract_y
 _atom_site_fract_z
 _atom_site_occupancy
  Pr  Pr0  1  0.344275  0.344275  0.344926  1
  Pr  Pr1  1  0.344275  0.344275  0.966527  1
  Pr  Pr2  1  0.344353  0.963902  0.345873  1
  Pr  Pr3  1  0.963902  0.344353  0.345873  1
  Pr  Pr4  1  0.810039  0.189704  0.189019  1
  Pr  Pr5  1  0.189704  0.810039  0.811238  1
  Pr  Pr6  1  0.189704  0.810039  0.189019  1
  Pr  Pr7  1  0.810039  0.189704  0.811238  1
  Pr  Pr8  1  0.189737  0.189737  0.810263  1
  Pr  Pr9  1  0.806142  0.806142  0.193858  1
  Pr  Pr10  1  0.937774  0.559046  0.560237  1
  Pr  Pr11  1  0.559046  0.937774  0.942942  1
  Pr  Pr12  1  0.559046  0.937774  0.560237  1
  Pr  Pr13  1  0.937774  0.559046  0.942942  1
  Pr  Pr14  1  0.558867  0.558867  0.941133  1
  Pr  Pr15  1  0.940054  0.940054  0.559946  1
  Mg  Mg16  1  0.579713  0.278837  0.570725  1
  Mg  Mg17  1  0.278837  0.579713  0.570725  1
  Ag  Ag18  1  0.579948  0.579948  0.584764  1
  Ag  Ag19  1  0.579948  0.579948  0.255340  1
  Os  Os20  1  0.137552  0.137552  0.139034  1
  Os  Os21  1  0.137552  0.137552  0.585861  1
  Os  Os22  1  0.136039  0.585681  0.139140  1
  Os  Os23  1  0.585681  0.136039  0.139140  1
