# generated using pymatgen
data_TmLu2In3Ag2Rh
_symmetry_space_group_name_H-M   'P 1'
_cell_length_a   7.98348736
_cell_length_b   7.99073271
_cell_length_c   3.59789000
_cell_angle_alpha   90.00000000
_cell_angle_beta   90.00000000
_cell_angle_gamma   119.93582030
_symmetry_Int_Tables_number   1
_chemical_formula_structural   TmLu2In3Ag2Rh
_chemical_formula_sum   'Tm1 Lu2 In3 Ag2 Rh1'
_cell_volume   198.90159283
_cell_formula_units_Z   1
loop_
 _symmetry_equiv_pos_site_id
 _symmetry_equiv_pos_as_xyz
  1  'x, y, z'
loop_
 _atom_site_type_symbol
 _atom_site_label
 _atom_site_symmetry_multiplicity
 _atom_site_fract_x
 _atom_site_fract_y
 _atom_site_fract_z
 _atom_site_occupancy
  Tm  Tm0  1  0.415887  0.034098  0.500000  1
  Lu  Lu1  1  0.964635  0.381268  0.500000  1
  Lu  Lu2  1  0.618786  0.583494  0.500000  1
  In  In3  1  0.269017  0.282639  0.000000  1
  In  In4  1  0.012532  0.730614  0.000000  1
  In  In5  1  0.718537  0.987064  0.000000  1
  Ag  Ag6  1  0.333219  0.666130  0.000000  1
  Ag  Ag7  1  0.999643  0.999847  0.500000  1
  Rh  Rh8  1  0.667745  0.334847  0.000000  1
