# generated using pymatgen
data_Hf10Al2Bi3Pt
_symmetry_space_group_name_H-M   'P 1'
_cell_length_a   5.57505750
_cell_length_b   8.42860602
_cell_length_c   8.22644603
_cell_angle_alpha   83.56561900
_cell_angle_beta   70.19319461
_cell_angle_gamma   70.68736779
_symmetry_Int_Tables_number   1
_chemical_formula_structural   Hf10Al2Bi3Pt
_chemical_formula_sum   'Hf10 Al2 Bi3 Pt1'
_cell_volume   343.22605004
_cell_formula_units_Z   1
loop_
 _symmetry_equiv_pos_site_id
 _symmetry_equiv_pos_as_xyz
  1  'x, y, z'
loop_
 _atom_site_type_symbol
 _atom_site_label
 _atom_site_symmetry_multiplicity
 _atom_site_fract_x
 _atom_site_fract_y
 _atom_site_fract_z
 _atom_site_occupancy
  Hf  Hf0  1  0.070798  0.141900  0.716504  1
  Hf  Hf1  1  0.932731  0.844679  0.289860  1
  Hf  Hf2  1  0.784525  0.294198  0.136753  1
  Hf  Hf3  1  0.412755  0.288262  0.886227  1
  Hf  Hf4  1  0.201018  0.711738  0.886227  1
  Hf  Hf5  1  0.578723  0.705802  0.136753  1
  Hf  Hf6  1  0.712698  0.858100  0.716504  1
  Hf  Hf7  1  0.277410  0.155321  0.289860  1
  Hf  Hf8  1  0.261109  0.500000  0.469132  1
  Hf  Hf9  1  0.769759  0.500000  0.469132  1
  Al  Al10  1  0.246935  0.000000  0.006131  1
  Al  Al11  1  0.746935  0.000000  0.006131  1
  Bi  Bi12  1  0.841168  0.500000  0.817664  1
  Bi  Bi13  1  0.330526  0.832725  0.506224  1
  Bi  Bi14  1  0.663250  0.167275  0.506224  1
  Pt  Pt15  1  0.169663  0.500000  0.160675  1
