# generated using pymatgen
data_SmErBe(Co2B)3
_symmetry_space_group_name_H-M   'P 1'
_cell_length_a   5.02937500
_cell_length_b   5.02937517
_cell_length_c   12.34415100
_cell_angle_alpha   90.00000000
_cell_angle_beta   90.00000000
_cell_angle_gamma   119.99999231
_symmetry_Int_Tables_number   1
_chemical_formula_structural   SmErBe(Co2B)3
_chemical_formula_sum   'Sm2 Er2 Be2 Co12 B6'
_cell_volume   270.40825338
_cell_formula_units_Z   2
loop_
 _symmetry_equiv_pos_site_id
 _symmetry_equiv_pos_as_xyz
  1  'x, y, z'
loop_
 _atom_site_type_symbol
 _atom_site_label
 _atom_site_symmetry_multiplicity
 _atom_site_fract_x
 _atom_site_fract_y
 _atom_site_fract_z
 _atom_site_occupancy
  Sm  Sm0  1  0.000000  0.000000  0.000949  1
  Sm  Sm1  1  0.000000  0.000000  0.744153  1
  Er  Er2  1  0.000000  0.000000  0.499310  1
  Er  Er3  1  0.000000  0.000000  0.256055  1
  Be  Be4  1  0.666667  0.333333  0.000799  1
  Be  Be5  1  0.333333  0.666667  0.000799  1
  Co  Co6  1  0.500000  0.500000  0.856448  1
  Co  Co7  1  0.500000  0.000000  0.856448  1
  Co  Co8  1  0.000000  0.500000  0.856448  1
  Co  Co9  1  0.500000  0.500000  0.145244  1
  Co  Co10  1  0.500000  0.000000  0.145244  1
  Co  Co11  1  0.000000  0.500000  0.145244  1
  Co  Co12  1  0.500000  0.500000  0.617874  1
  Co  Co13  1  0.500000  0.000000  0.617874  1
  Co  Co14  1  0.000000  0.500000  0.617874  1
  Co  Co15  1  0.500000  0.500000  0.380369  1
  Co  Co16  1  0.500000  0.000000  0.380369  1
  Co  Co17  1  0.000000  0.500000  0.380369  1
  B  B18  1  0.666667  0.333333  0.499099  1
  B  B19  1  0.333333  0.666667  0.499099  1
  B  B20  1  0.666667  0.333333  0.740247  1
  B  B21  1  0.333333  0.666667  0.740247  1
  B  B22  1  0.333333  0.666667  0.259718  1
  B  B23  1  0.666667  0.333333  0.259718  1
