# generated using pymatgen
data_Dy3TmGaSi3
_symmetry_space_group_name_H-M   'P 1'
_cell_length_a   3.86808700
_cell_length_b   4.29982200
_cell_length_c   10.58627600
_cell_angle_alpha   90.00000000
_cell_angle_beta   90.00000000
_cell_angle_gamma   90.00000000
_symmetry_Int_Tables_number   1
_chemical_formula_structural   Dy3TmGaSi3
_chemical_formula_sum   'Dy3 Tm1 Ga1 Si3'
_cell_volume   176.07184841
_cell_formula_units_Z   1
loop_
 _symmetry_equiv_pos_site_id
 _symmetry_equiv_pos_as_xyz
  1  'x, y, z'
loop_
 _atom_site_type_symbol
 _atom_site_label
 _atom_site_symmetry_multiplicity
 _atom_site_fract_x
 _atom_site_fract_y
 _atom_site_fract_z
 _atom_site_occupancy
  Dy  Dy0  1  0.000000  0.000000  0.362107  1
  Dy  Dy1  1  0.000000  0.500000  0.857733  1
  Dy  Dy2  1  0.500000  0.000000  0.638991  1
  Tm  Tm3  1  0.500000  0.500000  0.141485  1
  Ga  Ga4  1  0.000000  0.000000  0.076694  1
  Si  Si5  1  0.000000  0.500000  0.575971  1
  Si  Si6  1  0.500000  0.500000  0.424936  1
  Si  Si7  1  0.500000  0.000000  0.922087  1
