# generated using pymatgen
data_ZrTaNb4C5
_symmetry_space_group_name_H-M   'P 1'
_cell_length_a   5.55777972
_cell_length_b   5.55778146
_cell_length_c   5.53546140
_cell_angle_alpha   80.54491758
_cell_angle_beta   80.54492475
_cell_angle_gamma   120.23948217
_symmetry_Int_Tables_number   1
_chemical_formula_structural   ZrTaNb4C5
_chemical_formula_sum   'Zr1 Ta1 Nb4 C5'
_cell_volume   139.45648380
_cell_formula_units_Z   1
loop_
 _symmetry_equiv_pos_site_id
 _symmetry_equiv_pos_as_xyz
  1  'x, y, z'
loop_
 _atom_site_type_symbol
 _atom_site_label
 _atom_site_symmetry_multiplicity
 _atom_site_fract_x
 _atom_site_fract_y
 _atom_site_fract_z
 _atom_site_occupancy
  Zr  Zr0  1  0.741706  0.741706  0.740553  1
  Ta  Ta1  1  0.263499  0.263499  0.263988  1
  Nb  Nb2  1  0.082141  0.439598  0.746137  1
  Nb  Nb3  1  0.561999  0.916566  0.252803  1
  Nb  Nb4  1  0.916566  0.561999  0.252803  1
  Nb  Nb5  1  0.439598  0.082141  0.746137  1
  C  C6  1  0.494972  0.494972  0.497194  1
  C  C7  1  0.660540  0.327870  0.005638  1
  C  C8  1  0.327870  0.660540  0.005638  1
  C  C9  1  0.838075  0.173034  0.494555  1
  C  C10  1  0.173034  0.838075  0.494555  1
