# generated using pymatgen
data_DyLu3TcB12Os
_symmetry_space_group_name_H-M   'P 1'
_cell_length_a   3.62005900
_cell_length_b   9.06668013
_cell_length_c   11.44287604
_cell_angle_alpha   89.93794496
_cell_angle_beta   90.00000000
_cell_angle_gamma   90.00000000
_symmetry_Int_Tables_number   1
_chemical_formula_structural   DyLu3TcB12Os
_chemical_formula_sum   'Dy2 Lu6 Tc2 B24 Os2'
_cell_volume   375.57690733
_cell_formula_units_Z   2
loop_
 _symmetry_equiv_pos_site_id
 _symmetry_equiv_pos_as_xyz
  1  'x, y, z'
loop_
 _atom_site_type_symbol
 _atom_site_label
 _atom_site_symmetry_multiplicity
 _atom_site_fract_x
 _atom_site_fract_y
 _atom_site_fract_z
 _atom_site_occupancy
  Dy  Dy0  1  0.000000  0.323892  0.414962  1
  Dy  Dy1  1  0.000000  0.676108  0.585038  1
  Lu  Lu2  1  0.000000  0.819984  0.087453  1
  Lu  Lu3  1  0.000000  0.180016  0.912547  1
  Lu  Lu4  1  0.000000  0.942066  0.370856  1
  Lu  Lu5  1  0.000000  0.057934  0.629144  1
  Lu  Lu6  1  0.000000  0.444043  0.129032  1
  Lu  Lu7  1  0.000000  0.555957  0.870968  1
  Tc  Tc8  1  0.000000  0.639470  0.318909  1
  Tc  Tc9  1  0.000000  0.360530  0.681091  1
  B  B10  1  0.500000  0.553470  0.432558  1
  B  B11  1  0.500000  0.446530  0.567442  1
  B  B12  1  0.500000  0.053286  0.066028  1
  B  B13  1  0.500000  0.946714  0.933972  1
  B  B14  1  0.500000  0.750200  0.418472  1
  B  B15  1  0.500000  0.249800  0.581528  1
  B  B16  1  0.500000  0.249749  0.080162  1
  B  B17  1  0.500000  0.750251  0.919838  1
  B  B18  1  0.500000  0.792835  0.264119  1
  B  B19  1  0.500000  0.207165  0.735880  1
  B  B20  1  0.500000  0.291336  0.233700  1
  B  B21  1  0.500000  0.708664  0.766301  1
  B  B22  1  0.500000  0.631117  0.183635  1
  B  B23  1  0.500000  0.368883  0.816365  1
  B  B24  1  0.500000  0.129645  0.314194  1
  B  B25  1  0.500000  0.870355  0.685806  1
  B  B26  1  0.500000  0.981356  0.211600  1
  B  B27  1  0.500000  0.018644  0.788400  1
  B  B28  1  0.500000  0.482081  0.286340  1
  B  B29  1  0.500000  0.517919  0.713660  1
  B  B30  1  0.500000  0.602472  0.027991  1
  B  B31  1  0.500000  0.397528  0.972009  1
  B  B32  1  0.500000  0.100482  0.471910  1
  B  B33  1  0.500000  0.899518  0.528090  1
  Os  Os34  1  0.000000  0.137122  0.177709  1
  Os  Os35  1  0.000000  0.862878  0.822291  1
