# generated using pymatgen
data_Sc12Fe2CoSi12Pt
_symmetry_space_group_name_H-M   'P 1'
_cell_length_a   4.01460500
_cell_length_b   10.07586956
_cell_length_c   11.63327402
_cell_angle_alpha   89.83688413
_cell_angle_beta   90.00000000
_cell_angle_gamma   90.00000000
_symmetry_Int_Tables_number   1
_chemical_formula_structural   Sc12Fe2CoSi12Pt
_chemical_formula_sum   'Sc12 Fe2 Co1 Si12 Pt1'
_cell_volume   470.57142976
_cell_formula_units_Z   1
loop_
 _symmetry_equiv_pos_site_id
 _symmetry_equiv_pos_as_xyz
  1  'x, y, z'
loop_
 _atom_site_type_symbol
 _atom_site_label
 _atom_site_symmetry_multiplicity
 _atom_site_fract_x
 _atom_site_fract_y
 _atom_site_fract_z
 _atom_site_occupancy
  Sc  Sc0  1  0.250000  0.881373  0.025839  1
  Sc  Sc1  1  0.250000  0.617510  0.523772  1
  Sc  Sc2  1  0.750000  0.125019  0.980887  1
  Sc  Sc3  1  0.750000  0.380345  0.474614  1
  Sc  Sc4  1  0.250000  0.919068  0.602473  1
  Sc  Sc5  1  0.250000  0.580205  0.100900  1
  Sc  Sc6  1  0.750000  0.078923  0.400244  1
  Sc  Sc7  1  0.750000  0.421206  0.901719  1
  Sc  Sc8  1  0.250000  0.650633  0.798461  1
  Sc  Sc9  1  0.250000  0.841502  0.298809  1
  Sc  Sc10  1  0.750000  0.343961  0.199961  1
  Sc  Sc11  1  0.750000  0.166531  0.697458  1
  Fe  Fe12  1  0.250000  0.389985  0.674225  1
  Fe  Fe13  1  0.250000  0.108491  0.176142  1
  Co  Co14  1  0.750000  0.610102  0.323625  1
  Si  Si15  1  0.250000  0.020528  0.823468  1
  Si  Si16  1  0.250000  0.494250  0.320778  1
  Si  Si17  1  0.750000  0.994827  0.180771  1
  Si  Si18  1  0.750000  0.500003  0.679633  1
  Si  Si19  1  0.250000  0.257752  0.837282  1
  Si  Si20  1  0.250000  0.246578  0.335804  1
  Si  Si21  1  0.750000  0.746752  0.163216  1
  Si  Si22  1  0.750000  0.743944  0.655257  1
  Si  Si23  1  0.250000  0.200674  0.544166  1
  Si  Si24  1  0.250000  0.301022  0.047365  1
  Si  Si25  1  0.750000  0.800700  0.451934  1
  Si  Si26  1  0.750000  0.690565  0.958161  1
  Pt  Pt27  1  0.750000  0.887552  0.823036  1
