# generated using pymatgen
data_Er8Tm12(Bi3Sb)3
_symmetry_space_group_name_H-M   'P 1'
_cell_length_a   8.16629059
_cell_length_b   9.40415600
_cell_length_c   11.98668900
_cell_angle_alpha   90.00000000
_cell_angle_beta   90.03577526
_cell_angle_gamma   90.00000000
_symmetry_Int_Tables_number   1
_chemical_formula_structural   Er8Tm12(Bi3Sb)3
_chemical_formula_sum   'Er8 Tm12 Bi9 Sb3'
_cell_volume   920.54242276
_cell_formula_units_Z   1
loop_
 _symmetry_equiv_pos_site_id
 _symmetry_equiv_pos_as_xyz
  1  'x, y, z'
loop_
 _atom_site_type_symbol
 _atom_site_label
 _atom_site_symmetry_multiplicity
 _atom_site_fract_x
 _atom_site_fract_y
 _atom_site_fract_z
 _atom_site_occupancy
  Er  Er0  1  0.183140  0.750000  0.717151  1
  Er  Er1  1  0.682503  0.750000  0.782877  1
  Er  Er2  1  0.812041  0.250000  0.279513  1
  Er  Er3  1  0.318797  0.250000  0.215309  1
  Er  Er4  1  0.353137  0.750000  0.213587  1
  Er  Er5  1  0.853400  0.750000  0.285862  1
  Er  Er6  1  0.646564  0.250000  0.786114  1
  Er  Er7  1  0.147726  0.250000  0.717178  1
  Tm  Tm8  1  0.026846  0.750000  0.988940  1
  Tm  Tm9  1  0.527805  0.750000  0.511701  1
  Tm  Tm10  1  0.973714  0.250000  0.010857  1
  Tm  Tm11  1  0.476565  0.250000  0.488968  1
  Tm  Tm12  1  0.311736  0.435663  0.942116  1
  Tm  Tm13  1  0.808929  0.061971  0.559858  1
  Tm  Tm14  1  0.688486  0.935287  0.058129  1
  Tm  Tm15  1  0.189803  0.568060  0.441774  1
  Tm  Tm16  1  0.688486  0.564713  0.058129  1
  Tm  Tm17  1  0.189803  0.931940  0.441774  1
  Tm  Tm18  1  0.311736  0.064337  0.942116  1
  Tm  Tm19  1  0.808929  0.438029  0.559858  1
  Bi  Bi20  1  0.433275  0.003942  0.673134  1
  Bi  Bi21  1  0.933441  0.496536  0.827205  1
  Bi  Bi22  1  0.566119  0.504313  0.327079  1
  Bi  Bi23  1  0.066466  0.996411  0.172912  1
  Bi  Bi24  1  0.566119  0.995687  0.327079  1
  Bi  Bi25  1  0.066466  0.503589  0.172912  1
  Bi  Bi26  1  0.433275  0.496058  0.673134  1
  Bi  Bi27  1  0.933441  0.003464  0.827205  1
  Bi  Bi28  1  0.094137  0.250000  0.456791  1
  Sb  Sb29  1  0.405453  0.750000  0.958205  1
  Sb  Sb30  1  0.906229  0.750000  0.541420  1
  Sb  Sb31  1  0.595432  0.250000  0.041113  1
