# generated using pymatgen
data_Nd(AlAu)3
_symmetry_space_group_name_H-M   'P 1'
_cell_length_a   4.38551200
_cell_length_b   7.27149500
_cell_length_c   8.59935700
_cell_angle_alpha   90.00000000
_cell_angle_beta   90.00000000
_cell_angle_gamma   90.00000000
_symmetry_Int_Tables_number   1
_chemical_formula_structural   Nd(AlAu)3
_chemical_formula_sum   'Nd2 Al6 Au6'
_cell_volume   274.22686102
_cell_formula_units_Z   2
loop_
 _symmetry_equiv_pos_site_id
 _symmetry_equiv_pos_as_xyz
  1  'x, y, z'
loop_
 _atom_site_type_symbol
 _atom_site_label
 _atom_site_symmetry_multiplicity
 _atom_site_fract_x
 _atom_site_fract_y
 _atom_site_fract_z
 _atom_site_occupancy
  Nd  Nd0  1  0.500000  0.000000  0.739689  1
  Nd  Nd1  1  0.000000  0.500000  0.260311  1
  Al  Al2  1  0.000000  0.303117  0.896890  1
  Al  Al3  1  0.500000  0.196883  0.103110  1
  Al  Al4  1  0.000000  0.696883  0.896890  1
  Al  Al5  1  0.000000  0.000000  0.383620  1
  Al  Al6  1  0.500000  0.803117  0.103110  1
  Al  Al7  1  0.500000  0.500000  0.616380  1
  Au  Au8  1  0.000000  0.717390  0.603800  1
  Au  Au9  1  0.500000  0.782610  0.396200  1
  Au  Au10  1  0.500000  0.500000  0.941513  1
  Au  Au11  1  0.000000  0.000000  0.058487  1
  Au  Au12  1  0.500000  0.217390  0.396200  1
  Au  Au13  1  0.000000  0.282610  0.603800  1
