# generated using pymatgen
data_PrSm5Ir18
_symmetry_space_group_name_H-M   'P 1'
_cell_length_a   5.38972200
_cell_length_b   5.38968220
_cell_length_c   17.64946500
_cell_angle_alpha   90.00000000
_cell_angle_beta   90.00000000
_cell_angle_gamma   119.99623033
_symmetry_Int_Tables_number   1
_chemical_formula_structural   PrSm5Ir18
_chemical_formula_sum   'Pr1 Sm5 Ir18'
_cell_volume   444.02579056
_cell_formula_units_Z   1
loop_
 _symmetry_equiv_pos_site_id
 _symmetry_equiv_pos_as_xyz
  1  'x, y, z'
loop_
 _atom_site_type_symbol
 _atom_site_label
 _atom_site_symmetry_multiplicity
 _atom_site_fract_x
 _atom_site_fract_y
 _atom_site_fract_z
 _atom_site_occupancy
  Pr  Pr0  1  0.666669  0.333332  0.250000  1
  Sm  Sm1  1  0.333327  0.666662  0.958919  1
  Sm  Sm2  1  0.666670  0.333334  0.040562  1
  Sm  Sm3  1  0.666670  0.333334  0.459438  1
  Sm  Sm4  1  0.333327  0.666662  0.541081  1
  Sm  Sm5  1  0.333331  0.666671  0.750000  1
  Ir  Ir6  1  0.166505  0.833493  0.372572  1
  Ir  Ir7  1  0.166502  0.333010  0.372574  1
  Ir  Ir8  1  0.666986  0.833494  0.372578  1
  Ir  Ir9  1  0.833448  0.166542  0.627914  1
  Ir  Ir10  1  0.833453  0.666915  0.627899  1
  Ir  Ir11  1  0.333108  0.166550  0.627938  1
  Ir  Ir12  1  0.833448  0.166542  0.872086  1
  Ir  Ir13  1  0.833453  0.666915  0.872101  1
  Ir  Ir14  1  0.333108  0.166550  0.872062  1
  Ir  Ir15  1  0.166505  0.833493  0.127428  1
  Ir  Ir16  1  0.166502  0.333010  0.127426  1
  Ir  Ir17  1  0.666986  0.833494  0.127422  1
  Ir  Ir18  1  0.333331  0.666679  0.250000  1
  Ir  Ir19  1  0.666848  0.333466  0.750000  1
  Ir  Ir20  1  0.000006  0.999980  0.250000  1
  Ir  Ir21  1  0.999794  0.999860  0.750000  1
  Ir  Ir22  1  0.000013  0.000007  0.500285  1
  Ir  Ir23  1  0.000013  0.000007  0.999715  1
