# generated using pymatgen
data_Yb6Pa2AlPd24
_symmetry_space_group_name_H-M   'P 1'
_cell_length_a   8.36547364
_cell_length_b   8.36547368
_cell_length_c   8.36547400
_cell_angle_alpha   89.30657559
_cell_angle_beta   89.30657559
_cell_angle_gamma   89.30657615
_symmetry_Int_Tables_number   1
_chemical_formula_structural   Yb6Pa2AlPd24
_chemical_formula_sum   'Yb6 Pa2 Al1 Pd24'
_cell_volume   585.29789527
_cell_formula_units_Z   1
loop_
 _symmetry_equiv_pos_site_id
 _symmetry_equiv_pos_as_xyz
  1  'x, y, z'
loop_
 _atom_site_type_symbol
 _atom_site_label
 _atom_site_symmetry_multiplicity
 _atom_site_fract_x
 _atom_site_fract_y
 _atom_site_fract_z
 _atom_site_occupancy
  Yb  Yb0  1  0.749293  0.749293  0.247546  1
  Yb  Yb1  1  0.749293  0.247546  0.749293  1
  Yb  Yb2  1  0.250707  0.250707  0.752454  1
  Yb  Yb3  1  0.250707  0.752454  0.250707  1
  Yb  Yb4  1  0.247546  0.749293  0.749293  1
  Yb  Yb5  1  0.752454  0.250707  0.250707  1
  Pa  Pa6  1  0.259096  0.259096  0.259096  1
  Pa  Pa7  1  0.740904  0.740904  0.740904  1
  Al  Al8  1  0.000000  0.000000  0.000000  1
  Pd  Pd9  1  0.259730  0.499110  0.007400  1
  Pd  Pd10  1  0.740270  0.500890  0.992600  1
  Pd  Pd11  1  0.007400  0.259730  0.499110  1
  Pd  Pd12  1  0.499110  0.259730  0.007400  1
  Pd  Pd13  1  0.992600  0.740270  0.500890  1
  Pd  Pd14  1  0.500890  0.740270  0.992600  1
  Pd  Pd15  1  0.499110  0.007400  0.259730  1
  Pd  Pd16  1  0.259730  0.007400  0.499110  1
  Pd  Pd17  1  0.500890  0.992600  0.740270  1
  Pd  Pd18  1  0.740270  0.992600  0.500890  1
  Pd  Pd19  1  0.007400  0.499110  0.259730  1
  Pd  Pd20  1  0.992600  0.500890  0.740270  1
  Pd  Pd21  1  0.253069  0.499094  0.499094  1
  Pd  Pd22  1  0.746931  0.500906  0.500906  1
  Pd  Pd23  1  0.499094  0.253069  0.499094  1
  Pd  Pd24  1  0.500906  0.746931  0.500906  1
  Pd  Pd25  1  0.499094  0.499094  0.253069  1
  Pd  Pd26  1  0.500906  0.500906  0.746931  1
  Pd  Pd27  1  0.289444  0.004890  0.004890  1
  Pd  Pd28  1  0.710556  0.995110  0.995110  1
  Pd  Pd29  1  0.004890  0.289444  0.004890  1
  Pd  Pd30  1  0.995110  0.710556  0.995110  1
  Pd  Pd31  1  0.004890  0.004890  0.289444  1
  Pd  Pd32  1  0.995110  0.995110  0.710556  1
