# generated using pymatgen
data_Er16Tl3InRuRh3
_symmetry_space_group_name_H-M   'P 1'
_cell_length_a   9.58017917
_cell_length_b   9.59554522
_cell_length_c   9.58017876
_cell_angle_alpha   59.95549553
_cell_angle_beta   59.99405595
_cell_angle_gamma   59.95549482
_symmetry_Int_Tables_number   1
_chemical_formula_structural   Er16Tl3InRuRh3
_chemical_formula_sum   'Er16 Tl3 In1 Ru1 Rh3'
_cell_volume   622.28587391
_cell_formula_units_Z   1
loop_
 _symmetry_equiv_pos_site_id
 _symmetry_equiv_pos_as_xyz
  1  'x, y, z'
loop_
 _atom_site_type_symbol
 _atom_site_label
 _atom_site_symmetry_multiplicity
 _atom_site_fract_x
 _atom_site_fract_y
 _atom_site_fract_z
 _atom_site_occupancy
  Er  Er0  1  0.187568  0.192142  0.810785  1
  Er  Er1  1  0.439491  0.059384  0.060527  1
  Er  Er2  1  0.438000  0.061780  0.438000  1
  Er  Er3  1  0.057751  0.439066  0.057751  1
  Er  Er4  1  0.648994  0.049033  0.648994  1
  Er  Er5  1  0.190154  0.810441  0.810927  1
  Er  Er6  1  0.060527  0.059384  0.439491  1
  Er  Er7  1  0.810785  0.192142  0.187568  1
  Er  Er8  1  0.810927  0.810441  0.190154  1
  Er  Er9  1  0.648923  0.648823  0.047467  1
  Er  Er10  1  0.653093  0.650537  0.653093  1
  Er  Er11  1  0.062472  0.435404  0.440789  1
  Er  Er12  1  0.047467  0.648823  0.648923  1
  Er  Er13  1  0.810842  0.192081  0.810842  1
  Er  Er14  1  0.440789  0.435404  0.062472  1
  Er  Er15  1  0.190016  0.810140  0.190016  1
  Tl  Tl16  1  0.414753  0.755712  0.414753  1
  Tl  Tl17  1  0.414542  0.414097  0.757562  1
  Tl  Tl18  1  0.757562  0.414097  0.414542  1
  In  In19  1  0.416492  0.416591  0.416492  1
  Ru  Ru20  1  0.858551  0.425968  0.858551  1
  Rh  Rh21  1  0.858249  0.859940  0.424424  1
  Rh  Rh22  1  0.424424  0.859940  0.858249  1
  Rh  Rh23  1  0.857631  0.858626  0.857631  1
