# generated using pymatgen
data_Er3TmGa20(OsRu)3
_symmetry_space_group_name_H-M   'P 1'
_cell_length_a   8.90247527
_cell_length_b   8.91924513
_cell_length_c   6.39211500
_cell_angle_alpha   90.00000000
_cell_angle_beta   90.00000000
_cell_angle_gamma   89.97629534
_symmetry_Int_Tables_number   1
_chemical_formula_structural   Er3TmGa20(OsRu)3
_chemical_formula_sum   'Er3 Tm1 Ga20 Os3 Ru3'
_cell_volume   507.55535960
_cell_formula_units_Z   1
loop_
 _symmetry_equiv_pos_site_id
 _symmetry_equiv_pos_as_xyz
  1  'x, y, z'
loop_
 _atom_site_type_symbol
 _atom_site_label
 _atom_site_symmetry_multiplicity
 _atom_site_fract_x
 _atom_site_fract_y
 _atom_site_fract_z
 _atom_site_occupancy
  Er  Er0  1  0.183323  0.316931  0.000000  1
  Er  Er1  1  0.683267  0.183454  0.000000  1
  Er  Er2  1  0.817136  0.683721  0.000000  1
  Tm  Tm3  1  0.316713  0.816447  0.000000  1
  Ga  Ga4  1  0.499265  0.999235  0.284614  1
  Ga  Ga5  1  0.499265  0.999235  0.715386  1
  Ga  Ga6  1  0.292310  0.561850  0.706942  1
  Ga  Ga7  1  0.000013  0.499990  0.285194  1
  Ga  Ga8  1  0.000013  0.499990  0.714806  1
  Ga  Ga9  1  0.061993  0.792649  0.706736  1
  Ga  Ga10  1  0.207337  0.061059  0.292993  1
  Ga  Ga11  1  0.061993  0.792649  0.293264  1
  Ga  Ga12  1  0.706994  0.439431  0.707354  1
  Ga  Ga13  1  0.207337  0.061059  0.707007  1
  Ga  Ga14  1  0.939302  0.206682  0.707100  1
  Ga  Ga15  1  0.706994  0.439431  0.292646  1
  Ga  Ga16  1  0.561190  0.706999  0.293168  1
  Ga  Ga17  1  0.939302  0.206682  0.292900  1
  Ga  Ga18  1  0.561190  0.706999  0.706832  1
  Ga  Ga19  1  0.793423  0.938196  0.292914  1
  Ga  Ga20  1  0.438045  0.293684  0.706781  1
  Ga  Ga21  1  0.793423  0.938196  0.707086  1
  Ga  Ga22  1  0.438045  0.293684  0.293219  1
  Ga  Ga23  1  0.292310  0.561850  0.293058  1
  Os  Os24  1  0.000078  0.999823  0.000000  1
  Os  Os25  1  0.678008  0.178268  0.500000  1
  Os  Os26  1  0.499800  0.500126  0.000000  1
  Ru  Ru27  1  0.177837  0.321708  0.500000  1
  Ru  Ru28  1  0.322223  0.821818  0.500000  1
  Ru  Ru29  1  0.821872  0.678155  0.500000  1
