# generated using pymatgen
data_Dy4ErGaSiB8
_symmetry_space_group_name_H-M   'P 1'
_cell_length_a   7.24566527
_cell_length_b   7.24566499
_cell_length_c   8.12997400
_cell_angle_alpha   90.00000000
_cell_angle_beta   90.00000000
_cell_angle_gamma   89.66725472
_symmetry_Int_Tables_number   1
_chemical_formula_structural   Dy4ErGaSiB8
_chemical_formula_sum   'Dy8 Er2 Ga2 Si2 B16'
_cell_volume   426.81369900
_cell_formula_units_Z   2
loop_
 _symmetry_equiv_pos_site_id
 _symmetry_equiv_pos_as_xyz
  1  'x, y, z'
loop_
 _atom_site_type_symbol
 _atom_site_label
 _atom_site_symmetry_multiplicity
 _atom_site_fract_x
 _atom_site_fract_y
 _atom_site_fract_z
 _atom_site_occupancy
  Dy  Dy0  1  0.679298  0.179298  0.224393  1
  Dy  Dy1  1  0.320702  0.820702  0.775607  1
  Dy  Dy2  1  0.320702  0.820702  0.224393  1
  Dy  Dy3  1  0.815681  0.684319  0.219803  1
  Dy  Dy4  1  0.815681  0.684319  0.780197  1
  Dy  Dy5  1  0.679298  0.179298  0.775607  1
  Dy  Dy6  1  0.184319  0.315681  0.780197  1
  Dy  Dy7  1  0.184319  0.315681  0.219803  1
  Er  Er8  1  0.000000  0.000000  0.500000  1
  Er  Er9  1  0.500000  0.500000  0.500000  1
  Ga  Ga10  1  0.117722  0.617722  0.500000  1
  Ga  Ga11  1  0.882278  0.382278  0.500000  1
  Si  Si12  1  0.383900  0.116100  0.500000  1
  Si  Si13  1  0.616100  0.883900  0.500000  1
  B  B14  1  0.171803  0.039256  0.000000  1
  B  B15  1  0.828197  0.960744  0.000000  1
  B  B16  1  0.959515  0.172117  0.000000  1
  B  B17  1  0.327883  0.540485  0.000000  1
  B  B18  1  0.040485  0.827883  0.000000  1
  B  B19  1  0.672117  0.459515  0.000000  1
  B  B20  1  0.539256  0.671803  0.000000  1
  B  B21  1  0.460744  0.328197  0.000000  1
  B  B22  1  0.090610  0.590610  0.000000  1
  B  B23  1  0.909390  0.409390  0.000000  1
  B  B24  1  0.408604  0.091396  0.000000  1
  B  B25  1  0.591396  0.908604  0.000000  1
  B  B26  1  0.000000  0.000000  0.162327  1
  B  B27  1  0.000000  0.000000  0.837673  1
  B  B28  1  0.500000  0.500000  0.837673  1
  B  B29  1  0.500000  0.500000  0.162327  1
