# generated using pymatgen
data_Hf20Cu4SiAs11
_symmetry_space_group_name_H-M   'P 1'
_cell_length_a   3.69593800
_cell_length_b   10.35034607
_cell_length_c   17.62381930
_cell_angle_alpha   90.16019281
_cell_angle_beta   90.00000000
_cell_angle_gamma   90.00000000
_symmetry_Int_Tables_number   1
_chemical_formula_structural   Hf20Cu4SiAs11
_chemical_formula_sum   'Hf20 Cu4 Si1 As11'
_cell_volume   674.18313133
_cell_formula_units_Z   1
loop_
 _symmetry_equiv_pos_site_id
 _symmetry_equiv_pos_as_xyz
  1  'x, y, z'
loop_
 _atom_site_type_symbol
 _atom_site_label
 _atom_site_symmetry_multiplicity
 _atom_site_fract_x
 _atom_site_fract_y
 _atom_site_fract_z
 _atom_site_occupancy
  Hf  Hf0  1  0.250000  0.119297  0.478703  1
  Hf  Hf1  1  0.750000  0.880990  0.521345  1
  Hf  Hf2  1  0.750000  0.621323  0.021168  1
  Hf  Hf3  1  0.250000  0.381211  0.978980  1
  Hf  Hf4  1  0.250000  0.063227  0.081957  1
  Hf  Hf5  1  0.750000  0.931521  0.919588  1
  Hf  Hf6  1  0.750000  0.567482  0.416856  1
  Hf  Hf7  1  0.250000  0.432918  0.582951  1
  Hf  Hf8  1  0.250000  0.488174  0.271963  1
  Hf  Hf9  1  0.750000  0.511553  0.727509  1
  Hf  Hf10  1  0.750000  0.987599  0.227284  1
  Hf  Hf11  1  0.250000  0.012043  0.772453  1
  Hf  Hf12  1  0.250000  0.815892  0.368247  1
  Hf  Hf13  1  0.750000  0.183851  0.631437  1
  Hf  Hf14  1  0.750000  0.316809  0.131442  1
  Hf  Hf15  1  0.250000  0.685279  0.870823  1
  Hf  Hf16  1  0.250000  0.758736  0.168516  1
  Hf  Hf17  1  0.750000  0.243387  0.830517  1
  Hf  Hf18  1  0.750000  0.256540  0.330198  1
  Hf  Hf19  1  0.250000  0.743194  0.669938  1
  Cu  Cu20  1  0.250000  0.374261  0.412578  1
  Cu  Cu21  1  0.750000  0.626288  0.587085  1
  Cu  Cu22  1  0.750000  0.870798  0.083720  1
  Cu  Cu23  1  0.250000  0.126308  0.912813  1
  Si  Si24  1  0.250000  0.813802  0.008035  1
  As  As25  1  0.750000  0.186935  0.993879  1
  As  As26  1  0.750000  0.313366  0.493351  1
  As  As27  1  0.250000  0.687040  0.506387  1
  As  As28  1  0.250000  0.510452  0.117403  1
  As  As29  1  0.750000  0.489813  0.882797  1
  As  As30  1  0.750000  0.010464  0.382345  1
  As  As31  1  0.250000  0.989394  0.617675  1
  As  As32  1  0.250000  0.191787  0.221504  1
  As  As33  1  0.750000  0.808032  0.779027  1
  As  As34  1  0.750000  0.692584  0.277245  1
  As  As35  1  0.250000  0.307649  0.722283  1
