# generated using pymatgen
data_Sm4Gd2TeO12
_symmetry_space_group_name_H-M   'P 1'
_cell_length_a   6.62970771
_cell_length_b   6.64298329
_cell_length_c   6.62526086
_cell_angle_alpha   98.57167475
_cell_angle_beta   98.65696404
_cell_angle_gamma   98.76226238
_symmetry_Int_Tables_number   1
_chemical_formula_structural   Sm4Gd2TeO12
_chemical_formula_sum   'Sm4 Gd2 Te1 O12'
_cell_volume   280.64166376
_cell_formula_units_Z   1
loop_
 _symmetry_equiv_pos_site_id
 _symmetry_equiv_pos_as_xyz
  1  'x, y, z'
loop_
 _atom_site_type_symbol
 _atom_site_label
 _atom_site_symmetry_multiplicity
 _atom_site_fract_x
 _atom_site_fract_y
 _atom_site_fract_z
 _atom_site_occupancy
  Sm  Sm0  1  0.855974  0.391196  0.688367  1
  Sm  Sm1  1  0.609805  0.312763  0.144623  1
  Sm  Sm2  1  0.311512  0.143865  0.609913  1
  Sm  Sm3  1  0.687437  0.855111  0.389700  1
  Gd  Gd4  1  0.390936  0.685534  0.854328  1
  Gd  Gd5  1  0.146011  0.608427  0.314333  1
  Te  Te6  1  0.000172  0.999694  0.000134  1
  O  O7  1  0.929291  0.034048  0.707582  1
  O  O8  1  0.967016  0.292212  0.071472  1
  O  O9  1  0.592826  0.177325  0.437031  1
  O  O10  1  0.825242  0.564422  0.405517  1
  O  O11  1  0.292565  0.071646  0.967126  1
  O  O12  1  0.563074  0.409847  0.822550  1
  O  O13  1  0.432924  0.593482  0.176066  1
  O  O14  1  0.706611  0.928664  0.032538  1
  O  O15  1  0.178616  0.437286  0.592324  1
  O  O16  1  0.406099  0.820300  0.565264  1
  O  O17  1  0.033384  0.708255  0.928405  1
  O  O18  1  0.070504  0.965921  0.292728  1
