# generated using pymatgen
data_Tb2Pr6Nd2B2Br15
_symmetry_space_group_name_H-M   'P 1'
_cell_length_a   9.40242988
_cell_length_b   10.19026378
_cell_length_c   11.06141952
_cell_angle_alpha   91.38783561
_cell_angle_beta   114.42398618
_cell_angle_gamma   110.73480758
_symmetry_Int_Tables_number   1
_chemical_formula_structural   Tb2Pr6Nd2B2Br15
_chemical_formula_sum   'Tb2 Pr6 Nd2 B2 Br15'
_cell_volume   884.18405011
_cell_formula_units_Z   1
loop_
 _symmetry_equiv_pos_site_id
 _symmetry_equiv_pos_as_xyz
  1  'x, y, z'
loop_
 _atom_site_type_symbol
 _atom_site_label
 _atom_site_symmetry_multiplicity
 _atom_site_fract_x
 _atom_site_fract_y
 _atom_site_fract_z
 _atom_site_occupancy
  Tb  Tb0  1  0.717549  0.072880  0.046812  1
  Tb  Tb1  1  0.282451  0.927120  0.953188  1
  Pr  Pr2  1  0.802099  0.409981  0.276316  1
  Pr  Pr3  1  0.197901  0.590019  0.723684  1
  Pr  Pr4  1  0.675103  0.747000  0.820437  1
  Pr  Pr5  1  0.324897  0.253000  0.179563  1
  Pr  Pr6  1  0.526494  0.703459  0.097502  1
  Pr  Pr7  1  0.473506  0.296541  0.902498  1
  Nd  Nd8  1  0.586795  0.037262  0.324633  1
  Nd  Nd9  1  0.413205  0.962738  0.675367  1
  B  B10  1  0.467456  0.824835  0.878628  1
  B  B11  1  0.532544  0.175165  0.121372  1
  Br  Br12  1  0.000000  0.000000  0.000000  1
  Br  Br13  1  0.634850  0.883419  0.581887  1
  Br  Br14  1  0.365150  0.116581  0.418113  1
  Br  Br15  1  0.881896  0.296541  0.528517  1
  Br  Br16  1  0.118104  0.703459  0.471483  1
  Br  Br17  1  0.282887  0.767343  0.171563  1
  Br  Br18  1  0.717113  0.232657  0.828437  1
  Br  Br19  1  0.044099  0.331523  0.218096  1
  Br  Br20  1  0.159676  0.048838  0.709584  1
  Br  Br21  1  0.840324  0.951162  0.290416  1
  Br  Br22  1  0.226988  0.408883  0.943383  1
  Br  Br23  1  0.773012  0.591117  0.056617  1
  Br  Br24  1  0.407502  0.461493  0.656448  1
  Br  Br25  1  0.592498  0.538507  0.343552  1
  Br  Br26  1  0.955901  0.668477  0.781904  1
