# generated using pymatgen
data_TbYbSc2(Ga3Ir)6
_symmetry_space_group_name_H-M   'P 1'
_cell_length_a   7.53124500
_cell_length_b   7.54033695
_cell_length_c   9.47665300
_cell_angle_alpha   90.00000000
_cell_angle_beta   90.00000000
_cell_angle_gamma   119.78655591
_symmetry_Int_Tables_number   1
_chemical_formula_structural   TbYbSc2(Ga3Ir)6
_chemical_formula_sum   'Tb1 Yb1 Sc2 Ga18 Ir6'
_cell_volume   467.06057521
_cell_formula_units_Z   1
loop_
 _symmetry_equiv_pos_site_id
 _symmetry_equiv_pos_as_xyz
  1  'x, y, z'
loop_
 _atom_site_type_symbol
 _atom_site_label
 _atom_site_symmetry_multiplicity
 _atom_site_fract_x
 _atom_site_fract_y
 _atom_site_fract_z
 _atom_site_occupancy
  Tb  Tb0  1  0.668763  0.997373  0.250000  1
  Yb  Yb1  1  0.996575  0.668645  0.250000  1
  Sc  Sc2  1  0.999649  0.330562  0.750000  1
  Sc  Sc3  1  0.329973  0.999037  0.750000  1
  Ga  Ga4  1  0.128254  0.129105  0.250000  1
  Ga  Ga5  1  0.877271  0.876527  0.750000  1
  Ga  Ga6  1  0.002027  0.337050  0.076954  1
  Ga  Ga7  1  0.003785  0.664873  0.914529  1
  Ga  Ga8  1  0.003785  0.664873  0.585471  1
  Ga  Ga9  1  0.332988  0.999863  0.423919  1
  Ga  Ga10  1  0.002027  0.337050  0.423046  1
  Ga  Ga11  1  0.665225  0.004559  0.587486  1
  Ga  Ga12  1  0.665225  0.004559  0.912514  1
  Ga  Ga13  1  0.332988  0.999863  0.076081  1
  Ga  Ga14  1  0.328583  0.328451  0.574028  1
  Ga  Ga15  1  0.668473  0.666526  0.440501  1
  Ga  Ga16  1  0.668473  0.666526  0.059499  1
  Ga  Ga17  1  0.328583  0.328451  0.925972  1
  Ga  Ga18  1  0.338936  0.545803  0.250000  1
  Ga  Ga19  1  0.661119  0.448862  0.750000  1
  Ga  Ga20  1  0.544720  0.336702  0.250000  1
  Ga  Ga21  1  0.448516  0.660363  0.750000  1
  Ir  Ir22  1  0.671767  0.328808  0.998817  1
  Ir  Ir23  1  0.329880  0.672458  0.998599  1
  Ir  Ir24  1  0.329880  0.672458  0.501401  1
  Ir  Ir25  1  0.671767  0.328808  0.501183  1
  Ir  Ir26  1  0.000384  0.000922  0.998252  1
  Ir  Ir27  1  0.000384  0.000922  0.501748  1
