# generated using pymatgen
data_LiPr3Nd5CdIr2
_symmetry_space_group_name_H-M   'P 1'
_cell_length_a   10.00827391
_cell_length_b   10.00827394
_cell_length_c   9.99563500
_cell_angle_alpha   60.04176922
_cell_angle_beta   60.04176914
_cell_angle_gamma   60.05996017
_symmetry_Int_Tables_number   1
_chemical_formula_structural   LiPr3Nd5CdIr2
_chemical_formula_sum   'Li2 Pr6 Nd10 Cd2 Ir4'
_cell_volume   708.73571671
_cell_formula_units_Z   2
loop_
 _symmetry_equiv_pos_site_id
 _symmetry_equiv_pos_as_xyz
  1  'x, y, z'
loop_
 _atom_site_type_symbol
 _atom_site_label
 _atom_site_symmetry_multiplicity
 _atom_site_fract_x
 _atom_site_fract_y
 _atom_site_fract_z
 _atom_site_occupancy
  Li  Li0  1  0.571845  0.571845  0.576531  1
  Li  Li1  1  0.571845  0.571845  0.279777  1
  Pr  Pr2  1  0.938921  0.561629  0.561852  1
  Pr  Pr3  1  0.561629  0.938921  0.937598  1
  Pr  Pr4  1  0.561629  0.938921  0.561852  1
  Pr  Pr5  1  0.938921  0.561629  0.937598  1
  Pr  Pr6  1  0.562049  0.562049  0.937951  1
  Pr  Pr7  1  0.938781  0.938781  0.561219  1
  Nd  Nd8  1  0.347369  0.347369  0.348489  1
  Nd  Nd9  1  0.347369  0.347369  0.956773  1
  Nd  Nd10  1  0.346521  0.960848  0.346315  1
  Nd  Nd11  1  0.960848  0.346521  0.346315  1
  Nd  Nd12  1  0.811729  0.188666  0.189439  1
  Nd  Nd13  1  0.188666  0.811729  0.810166  1
  Nd  Nd14  1  0.188666  0.811729  0.189439  1
  Nd  Nd15  1  0.811729  0.188666  0.810166  1
  Nd  Nd16  1  0.191626  0.191626  0.808374  1
  Nd  Nd17  1  0.815144  0.815144  0.184856  1
  Cd  Cd18  1  0.582173  0.258597  0.579615  1
  Cd  Cd19  1  0.258597  0.582173  0.579615  1
  Ir  Ir20  1  0.142214  0.142214  0.140380  1
  Ir  Ir21  1  0.142214  0.142214  0.575191  1
  Ir  Ir22  1  0.143380  0.576132  0.140244  1
  Ir  Ir23  1  0.576132  0.143380  0.140244  1
