# generated using pymatgen
data_Tb2Ce3Dy(Al3Ru)8
_symmetry_space_group_name_H-M   'P 1'
_cell_length_a   8.85754702
_cell_length_b   8.85640326
_cell_length_c   9.56715600
_cell_angle_alpha   90.00000000
_cell_angle_beta   90.00000000
_cell_angle_gamma   119.99573349
_symmetry_Int_Tables_number   1
_chemical_formula_structural   Tb2Ce3Dy(Al3Ru)8
_chemical_formula_sum   'Tb2 Ce3 Dy1 Al24 Ru8'
_cell_volume   649.98450991
_cell_formula_units_Z   1
loop_
 _symmetry_equiv_pos_site_id
 _symmetry_equiv_pos_as_xyz
  1  'x, y, z'
loop_
 _atom_site_type_symbol
 _atom_site_label
 _atom_site_symmetry_multiplicity
 _atom_site_fract_x
 _atom_site_fract_y
 _atom_site_fract_z
 _atom_site_occupancy
  Tb  Tb0  1  0.192632  0.807405  0.750000  1
  Tb  Tb1  1  0.192632  0.385226  0.750000  1
  Ce  Ce2  1  0.389166  0.194582  0.250000  1
  Ce  Ce3  1  0.805433  0.194538  0.250000  1
  Ce  Ce4  1  0.805433  0.610893  0.250000  1
  Dy  Dy5  1  0.614419  0.807209  0.750000  1
  Al  Al6  1  0.436761  0.873486  0.250000  1
  Al  Al7  1  0.126508  0.563254  0.250000  1
  Al  Al8  1  0.436761  0.563275  0.250000  1
  Al  Al9  1  0.560043  0.119745  0.750000  1
  Al  Al10  1  0.879956  0.439978  0.750000  1
  Al  Al11  1  0.560043  0.440297  0.750000  1
  Al  Al12  1  0.162451  0.837533  0.423007  1
  Al  Al13  1  0.162451  0.324919  0.423007  1
  Al  Al14  1  0.675111  0.837556  0.423180  1
  Al  Al15  1  0.838165  0.161544  0.580314  1
  Al  Al16  1  0.838165  0.676620  0.580314  1
  Al  Al17  1  0.323469  0.161734  0.580284  1
  Al  Al18  1  0.838165  0.161544  0.919686  1
  Al  Al19  1  0.838165  0.676620  0.919686  1
  Al  Al20  1  0.323469  0.161734  0.919716  1
  Al  Al21  1  0.162451  0.837533  0.076993  1
  Al  Al22  1  0.162451  0.324919  0.076993  1
  Al  Al23  1  0.675111  0.837556  0.076820  1
  Al  Al24  1  0.333503  0.666752  0.515611  1
  Al  Al25  1  0.666680  0.333340  0.494671  1
  Al  Al26  1  0.666680  0.333340  0.005329  1
  Al  Al27  1  0.333503  0.666752  0.984389  1
  Al  Al28  1  0.000005  0.000002  0.250000  1
  Al  Al29  1  0.999619  0.999810  0.750000  1
  Ru  Ru30  1  0.000031  0.000016  0.500675  1
  Ru  Ru31  1  0.000031  0.000016  0.999325  1
  Ru  Ru32  1  0.500428  0.000585  0.498276  1
  Ru  Ru33  1  0.999412  0.499706  0.498213  1
  Ru  Ru34  1  0.500428  0.499843  0.498276  1
  Ru  Ru35  1  0.500428  0.000585  0.001724  1
  Ru  Ru36  1  0.999412  0.499706  0.001787  1
  Ru  Ru37  1  0.500428  0.499843  0.001724  1
