# generated using pymatgen
data_NaHf2PdF11
_symmetry_space_group_name_H-M   'P 1'
_cell_length_a   5.81569513
_cell_length_b   5.81569516
_cell_length_c   7.87043500
_cell_angle_alpha   69.59732239
_cell_angle_beta   69.59732348
_cell_angle_gamma   73.13335315
_symmetry_Int_Tables_number   1
_chemical_formula_structural   NaHf2PdF11
_chemical_formula_sum   'Na1 Hf2 Pd1 F11'
_cell_volume   229.49674655
_cell_formula_units_Z   1
loop_
 _symmetry_equiv_pos_site_id
 _symmetry_equiv_pos_as_xyz
  1  'x, y, z'
loop_
 _atom_site_type_symbol
 _atom_site_label
 _atom_site_symmetry_multiplicity
 _atom_site_fract_x
 _atom_site_fract_y
 _atom_site_fract_z
 _atom_site_occupancy
  Na  Na0  1  0.000000  0.000000  0.000000  1
  Hf  Hf1  1  0.499802  0.499802  0.768675  1
  Hf  Hf2  1  0.500198  0.500198  0.231325  1
  Pd  Pd3  1  0.000000  0.000000  0.500000  1
  F  F4  1  0.221930  0.797563  0.701828  1
  F  F5  1  0.202437  0.778070  0.298172  1
  F  F6  1  0.778070  0.202437  0.298172  1
  F  F7  1  0.797563  0.221930  0.701828  1
  F  F8  1  0.500000  0.500000  0.500000  1
  F  F9  1  0.665621  0.334379  0.000000  1
  F  F10  1  0.334379  0.665621  0.000000  1
  F  F11  1  0.260878  0.260878  0.348532  1
  F  F12  1  0.739122  0.739122  0.651468  1
  F  F13  1  0.267286  0.267286  0.888995  1
  F  F14  1  0.732714  0.732714  0.111005  1
