# generated using pymatgen
data_Nd4Tm6Co2Cl15
_symmetry_space_group_name_H-M   'P 1'
_cell_length_a   8.96953880
_cell_length_b   9.72405844
_cell_length_c   10.44243500
_cell_angle_alpha   92.29878585
_cell_angle_beta   113.92674742
_cell_angle_gamma   110.70474813
_symmetry_Int_Tables_number   1
_chemical_formula_structural   Nd4Tm6Co2Cl15
_chemical_formula_sum   'Nd4 Tm6 Co2 Cl15'
_cell_volume   760.60898114
_cell_formula_units_Z   1
loop_
 _symmetry_equiv_pos_site_id
 _symmetry_equiv_pos_as_xyz
  1  'x, y, z'
loop_
 _atom_site_type_symbol
 _atom_site_label
 _atom_site_symmetry_multiplicity
 _atom_site_fract_x
 _atom_site_fract_y
 _atom_site_fract_z
 _atom_site_occupancy
  Nd  Nd0  1  0.812245  0.414641  0.278330  1
  Nd  Nd1  1  0.187755  0.585359  0.721670  1
  Nd  Nd2  1  0.674658  0.746999  0.813249  1
  Nd  Nd3  1  0.325342  0.253001  0.186751  1
  Tm  Tm4  1  0.529100  0.706409  0.103905  1
  Tm  Tm5  1  0.470900  0.293591  0.896095  1
  Tm  Tm6  1  0.594924  0.042598  0.339931  1
  Tm  Tm7  1  0.405076  0.957402  0.660069  1
  Tm  Tm8  1  0.731430  0.078630  0.047368  1
  Tm  Tm9  1  0.268570  0.921370  0.952632  1
  Co  Co10  1  0.466387  0.828877  0.881368  1
  Co  Co11  1  0.533613  0.171123  0.118632  1
  Cl  Cl12  1  0.000000  0.000000  0.000000  1
  Cl  Cl13  1  0.628348  0.896518  0.578456  1
  Cl  Cl14  1  0.371652  0.103482  0.421544  1
  Cl  Cl15  1  0.876650  0.289312  0.525387  1
  Cl  Cl16  1  0.123350  0.710688  0.474613  1
  Cl  Cl17  1  0.314691  0.768793  0.191949  1
  Cl  Cl18  1  0.685309  0.231207  0.808051  1
  Cl  Cl19  1  0.050453  0.332074  0.215963  1
  Cl  Cl20  1  0.181914  0.063164  0.701327  1
  Cl  Cl21  1  0.818086  0.936836  0.298673  1
  Cl  Cl22  1  0.261531  0.418829  0.953165  1
  Cl  Cl23  1  0.738469  0.581171  0.046835  1
  Cl  Cl24  1  0.405313  0.453904  0.670789  1
  Cl  Cl25  1  0.594687  0.546096  0.329211  1
  Cl  Cl26  1  0.949547  0.667926  0.784037  1
