# generated using pymatgen
data_CeLuTc3Ge4
_symmetry_space_group_name_H-M   'P 1'
_cell_length_a   8.28728500
_cell_length_b   5.73602381
_cell_length_c   6.99820938
_cell_angle_alpha   75.99501686
_cell_angle_beta   90.00000000
_cell_angle_gamma   90.00000000
_symmetry_Int_Tables_number   1
_chemical_formula_structural   CeLuTc3Ge4
_chemical_formula_sum   'Ce2 Lu2 Tc6 Ge8'
_cell_volume   322.77868742
_cell_formula_units_Z   2
loop_
 _symmetry_equiv_pos_site_id
 _symmetry_equiv_pos_as_xyz
  1  'x, y, z'
loop_
 _atom_site_type_symbol
 _atom_site_label
 _atom_site_symmetry_multiplicity
 _atom_site_fract_x
 _atom_site_fract_y
 _atom_site_fract_z
 _atom_site_occupancy
  Ce  Ce0  1  0.552932  0.078056  0.246105  1
  Ce  Ce1  1  0.052932  0.421944  0.753895  1
  Lu  Lu2  1  0.442803  0.924180  0.756795  1
  Lu  Lu3  1  0.942803  0.575820  0.243205  1
  Tc  Tc4  1  0.212497  0.117599  0.109145  1
  Tc  Tc5  1  0.712497  0.382401  0.890855  1
  Tc  Tc6  1  0.797215  0.889300  0.887514  1
  Tc  Tc7  1  0.297215  0.610700  0.112486  1
  Tc  Tc8  1  0.997985  0.997109  0.496568  1
  Tc  Tc9  1  0.497985  0.502891  0.503432  1
  Ge  Ge10  1  0.904110  0.113570  0.134219  1
  Ge  Ge11  1  0.404110  0.386430  0.865781  1
  Ge  Ge12  1  0.100164  0.873857  0.876836  1
  Ge  Ge13  1  0.600164  0.626143  0.123164  1
  Ge  Ge14  1  0.744095  0.221405  0.579648  1
  Ge  Ge15  1  0.244095  0.278595  0.420352  1
  Ge  Ge16  1  0.248199  0.774651  0.419136  1
  Ge  Ge17  1  0.748199  0.725349  0.580864  1
