# generated using pymatgen
data_Pr2Y3Ho(RuO7)2
_symmetry_space_group_name_H-M   'P 1'
_cell_length_a   6.47238000
_cell_length_b   6.47640370
_cell_length_c   7.53928600
_cell_angle_alpha   90.00000000
_cell_angle_beta   90.00000000
_cell_angle_gamma   110.19973399
_symmetry_Int_Tables_number   1
_chemical_formula_structural   Pr2Y3Ho(RuO7)2
_chemical_formula_sum   'Pr2 Y3 Ho1 Ru2 O14'
_cell_volume   296.59233830
_cell_formula_units_Z   1
loop_
 _symmetry_equiv_pos_site_id
 _symmetry_equiv_pos_as_xyz
  1  'x, y, z'
loop_
 _atom_site_type_symbol
 _atom_site_label
 _atom_site_symmetry_multiplicity
 _atom_site_fract_x
 _atom_site_fract_y
 _atom_site_fract_z
 _atom_site_occupancy
  Pr  Pr0  1  0.000109  0.999893  0.499605  1
  Pr  Pr1  1  0.000109  0.999893  0.000395  1
  Y  Y2  1  0.481491  0.929777  0.750000  1
  Y  Y3  1  0.518464  0.069989  0.250000  1
  Y  Y4  1  0.929784  0.481445  0.750000  1
  Ho  Ho5  1  0.069345  0.517925  0.250000  1
  Ru  Ru6  1  0.500161  0.500145  0.499522  1
  Ru  Ru7  1  0.500161  0.500145  0.000478  1
  O  O8  1  0.588605  0.588279  0.750000  1
  O  O9  1  0.410394  0.411867  0.250000  1
  O  O10  1  0.837619  0.117731  0.750000  1
  O  O11  1  0.162389  0.880389  0.250000  1
  O  O12  1  0.117456  0.837333  0.750000  1
  O  O13  1  0.883058  0.164489  0.250000  1
  O  O14  1  0.440239  0.182686  0.963500  1
  O  O15  1  0.560111  0.817563  0.463365  1
  O  O16  1  0.182284  0.441051  0.964817  1
  O  O17  1  0.817793  0.559050  0.462190  1
  O  O18  1  0.440239  0.182686  0.536500  1
  O  O19  1  0.560111  0.817563  0.036635  1
  O  O20  1  0.817793  0.559050  0.037810  1
  O  O21  1  0.182284  0.441051  0.535183  1
