# generated using pymatgen
data_Na2LaCeB24
_symmetry_space_group_name_H-M   'P 1'
_cell_length_a   4.15443600
_cell_length_b   5.87914100
_cell_length_c   11.75089900
_cell_angle_alpha   90.00000000
_cell_angle_beta   90.00000000
_cell_angle_gamma   90.00000000
_symmetry_Int_Tables_number   1
_chemical_formula_structural   Na2LaCeB24
_chemical_formula_sum   'Na2 La1 Ce1 B24'
_cell_volume   287.01000912
_cell_formula_units_Z   1
loop_
 _symmetry_equiv_pos_site_id
 _symmetry_equiv_pos_as_xyz
  1  'x, y, z'
loop_
 _atom_site_type_symbol
 _atom_site_label
 _atom_site_symmetry_multiplicity
 _atom_site_fract_x
 _atom_site_fract_y
 _atom_site_fract_z
 _atom_site_occupancy
  Na  Na0  1  0.000000  0.500000  0.249984  1
  Na  Na1  1  0.000000  0.500000  0.750016  1
  La  La2  1  0.000000  0.000000  0.000000  1
  Ce  Ce3  1  0.000000  0.000000  0.500000  1
  B  B4  1  0.201228  0.500000  0.500000  1
  B  B5  1  0.201430  0.000000  0.748983  1
  B  B6  1  0.201692  0.500000  0.000000  1
  B  B7  1  0.201430  0.000000  0.251017  1
  B  B8  1  0.500000  0.648201  0.575139  1
  B  B9  1  0.500000  0.150475  0.823403  1
  B  B10  1  0.500000  0.648056  0.075365  1
  B  B11  1  0.500000  0.150439  0.324784  1
  B  B12  1  0.500000  0.351799  0.575139  1
  B  B13  1  0.500000  0.849525  0.823403  1
  B  B14  1  0.500000  0.351944  0.075365  1
  B  B15  1  0.500000  0.849561  0.324784  1
  B  B16  1  0.500000  0.351799  0.424861  1
  B  B17  1  0.500000  0.849561  0.675216  1
  B  B18  1  0.500000  0.351944  0.924635  1
  B  B19  1  0.500000  0.849525  0.176597  1
  B  B20  1  0.500000  0.648201  0.424861  1
  B  B21  1  0.500000  0.150439  0.675216  1
  B  B22  1  0.500000  0.648056  0.924635  1
  B  B23  1  0.500000  0.150475  0.176597  1
  B  B24  1  0.798772  0.500000  0.500000  1
  B  B25  1  0.798570  0.000000  0.748983  1
  B  B26  1  0.798308  0.500000  0.000000  1
  B  B27  1  0.798570  0.000000  0.251017  1
