# generated using pymatgen
data_Pr10In4Ru5Rh
_symmetry_space_group_name_H-M   'P 1'
_cell_length_a   8.79271256
_cell_length_b   8.80620629
_cell_length_c   8.80620682
_cell_angle_alpha   109.63575365
_cell_angle_beta   109.40331988
_cell_angle_gamma   109.43661677
_symmetry_Int_Tables_number   1
_chemical_formula_structural   Pr10In4Ru5Rh
_chemical_formula_sum   'Pr10 In4 Ru5 Rh1'
_cell_volume   524.49849815
_cell_formula_units_Z   1
loop_
 _symmetry_equiv_pos_site_id
 _symmetry_equiv_pos_as_xyz
  1  'x, y, z'
loop_
 _atom_site_type_symbol
 _atom_site_label
 _atom_site_symmetry_multiplicity
 _atom_site_fract_x
 _atom_site_fract_y
 _atom_site_fract_z
 _atom_site_occupancy
  Pr  Pr0  1  0.250000  0.682322  0.432322  1
  Pr  Pr1  1  0.750000  0.816535  0.066535  1
  Pr  Pr2  1  0.435299  0.251271  0.681379  1
  Pr  Pr3  1  0.684679  0.433810  0.251769  1
  Pr  Pr4  1  0.064701  0.746080  0.815972  1
  Pr  Pr5  1  0.815321  0.067089  0.749130  1
  Pr  Pr6  1  0.206587  0.208619  0.210162  1
  Pr  Pr7  1  0.500244  0.000654  0.292443  1
  Pr  Pr8  1  0.293413  0.503575  0.002031  1
  Pr  Pr9  1  0.999756  0.292199  0.500409  1
  In  In10  1  0.592492  0.593111  0.592134  1
  In  In11  1  0.500115  0.998227  0.906430  1
  In  In12  1  0.907508  0.499642  0.000619  1
  In  In13  1  0.999885  0.906315  0.498112  1
  Ru  Ru14  1  0.750000  0.368042  0.618042  1
  Ru  Ru15  1  0.882260  0.249858  0.132790  1
  Ru  Ru16  1  0.133549  0.884428  0.249783  1
  Ru  Ru17  1  0.617739  0.750529  0.367597  1
  Ru  Ru18  1  0.366451  0.616233  0.750879  1
  Rh  Rh19  1  0.250000  0.131462  0.881462  1
