# generated using pymatgen
data_Nb12ZnGa9(FeN2)2
_symmetry_space_group_name_H-M   'P 1'
_cell_length_a   8.27664918
_cell_length_b   8.30612108
_cell_length_c   8.25240820
_cell_angle_alpha   59.78445244
_cell_angle_beta   59.66965711
_cell_angle_gamma   59.88213390
_symmetry_Int_Tables_number   1
_chemical_formula_structural   Nb12ZnGa9(FeN2)2
_chemical_formula_sum   'Nb12 Zn1 Ga9 Fe2 N4'
_cell_volume   399.14290864
_cell_formula_units_Z   1
loop_
 _symmetry_equiv_pos_site_id
 _symmetry_equiv_pos_as_xyz
  1  'x, y, z'
loop_
 _atom_site_type_symbol
 _atom_site_label
 _atom_site_symmetry_multiplicity
 _atom_site_fract_x
 _atom_site_fract_y
 _atom_site_fract_z
 _atom_site_occupancy
  Nb  Nb0  1  0.811201  0.807986  0.188300  1
  Nb  Nb1  1  0.188191  0.195134  0.809147  1
  Nb  Nb2  1  0.814275  0.186462  0.812802  1
  Nb  Nb3  1  0.194034  0.804538  0.196890  1
  Nb  Nb4  1  0.188191  0.807528  0.809147  1
  Nb  Nb5  1  0.811201  0.192513  0.188300  1
  Nb  Nb6  1  0.438799  0.442014  0.061700  1
  Nb  Nb7  1  0.061809  0.054866  0.440853  1
  Nb  Nb8  1  0.435725  0.063538  0.437198  1
  Nb  Nb9  1  0.055966  0.445462  0.053110  1
  Nb  Nb10  1  0.061809  0.442472  0.440853  1
  Nb  Nb11  1  0.438799  0.057487  0.061700  1
  Zn  Zn12  1  0.625000  0.625000  0.125000  1
  Ga  Ga13  1  0.125000  0.625000  0.625000  1
  Ga  Ga14  1  0.760303  0.407768  0.424162  1
  Ga  Ga15  1  0.424375  0.758396  0.416618  1
  Ga  Ga16  1  0.431159  0.406199  0.756445  1
  Ga  Ga17  1  0.424375  0.400613  0.416618  1
  Ga  Ga18  1  0.489697  0.842232  0.825838  1
  Ga  Ga19  1  0.825625  0.491604  0.833382  1
  Ga  Ga20  1  0.818841  0.843801  0.493555  1
  Ga  Ga21  1  0.825625  0.849387  0.833382  1
  Fe  Fe22  1  0.625000  0.125000  0.625000  1
  Fe  Fe23  1  0.625000  0.625000  0.625000  1
  N  N24  1  0.625000  0.125000  0.125000  1
  N  N25  1  0.125000  0.625000  0.125000  1
  N  N26  1  0.125000  0.125000  0.625000  1
  N  N27  1  0.125000  0.125000  0.125000  1
