# generated using pymatgen
data_PrCo2(Sb6Os)2
_symmetry_space_group_name_H-M   'P 1'
_cell_length_a   8.05780412
_cell_length_b   8.05780245
_cell_length_c   8.09723100
_cell_angle_alpha   109.36397102
_cell_angle_beta   109.61005387
_cell_angle_gamma   109.24151354
_symmetry_Int_Tables_number   1
_chemical_formula_structural   PrCo2(Sb6Os)2
_chemical_formula_sum   'Pr1 Co2 Sb12 Os2'
_cell_volume   405.69703277
_cell_formula_units_Z   1
loop_
 _symmetry_equiv_pos_site_id
 _symmetry_equiv_pos_as_xyz
  1  'x, y, z'
loop_
 _atom_site_type_symbol
 _atom_site_label
 _atom_site_symmetry_multiplicity
 _atom_site_fract_x
 _atom_site_fract_y
 _atom_site_fract_z
 _atom_site_occupancy
  Pr  Pr0  1  0.000000  0.000000  0.000000  1
  Co  Co1  1  0.000000  0.000000  0.500000  1
  Co  Co2  1  0.500000  0.500000  0.500000  1
  Sb  Sb3  1  0.152813  0.822441  0.658601  1
  Sb  Sb4  1  0.847187  0.177559  0.341399  1
  Sb  Sb5  1  0.836160  0.505789  0.658601  1
  Sb  Sb6  1  0.163840  0.494211  0.341399  1
  Sb  Sb7  1  0.822872  0.669116  0.164703  1
  Sb  Sb8  1  0.177128  0.330884  0.835297  1
  Sb  Sb9  1  0.504413  0.658169  0.835297  1
  Sb  Sb10  1  0.495587  0.341831  0.164703  1
  Sb  Sb11  1  0.659444  0.156275  0.815721  1
  Sb  Sb12  1  0.340556  0.843725  0.184279  1
  Sb  Sb13  1  0.667535  0.839225  0.506760  1
  Sb  Sb14  1  0.332465  0.160775  0.493240  1
  Os  Os15  1  0.500000  0.000000  0.000000  1
  Os  Os16  1  0.000000  0.500000  0.000000  1
