# generated using pymatgen
data_Ce4MgSiRh9Au2
_symmetry_space_group_name_H-M   'P 1'
_cell_length_a   7.30022904
_cell_length_b   7.32096617
_cell_length_c   7.38578744
_cell_angle_alpha   111.32714927
_cell_angle_beta   108.87454677
_cell_angle_gamma   108.50833465
_symmetry_Int_Tables_number   1
_chemical_formula_structural   Ce4MgSiRh9Au2
_chemical_formula_sum   'Ce4 Mg1 Si1 Rh9 Au2'
_cell_volume   302.58447757
_cell_formula_units_Z   1
loop_
 _symmetry_equiv_pos_site_id
 _symmetry_equiv_pos_as_xyz
  1  'x, y, z'
loop_
 _atom_site_type_symbol
 _atom_site_label
 _atom_site_symmetry_multiplicity
 _atom_site_fract_x
 _atom_site_fract_y
 _atom_site_fract_z
 _atom_site_occupancy
  Ce  Ce0  1  0.990725  0.995363  0.495363  1
  Ce  Ce1  1  0.049023  0.524512  0.024512  1
  Ce  Ce2  1  0.480992  0.956482  0.985746  1
  Ce  Ce3  1  0.480992  0.524511  0.495248  1
  Mg  Mg4  1  0.509184  0.254592  0.754592  1
  Si  Si5  1  0.999032  0.999516  0.999516  1
  Rh  Rh6  1  0.248701  0.486834  0.742768  1
  Rh  Rh7  1  0.248701  0.761867  0.505933  1
  Rh  Rh8  1  0.509435  0.754717  0.254717  1
  Rh  Rh9  1  0.733050  0.715494  0.993714  1
  Rh  Rh10  1  0.272495  0.015941  0.286453  1
  Rh  Rh11  1  0.993672  0.272189  0.274284  1
  Rh  Rh12  1  0.272495  0.256554  0.986042  1
  Rh  Rh13  1  0.733050  0.017557  0.739337  1
  Rh  Rh14  1  0.993672  0.721483  0.719388  1
  Au  Au15  1  0.742390  0.256676  0.505802  1
  Au  Au16  1  0.742390  0.485715  0.236589  1
