# generated using pymatgen
data_Zr10Sn4Bi2P
_symmetry_space_group_name_H-M   'P 1'
_cell_length_a   5.87661397
_cell_length_b   8.64394970
_cell_length_c   8.65040289
_cell_angle_alpha   120.02137694
_cell_angle_beta   89.90628522
_cell_angle_gamma   90.04727642
_symmetry_Int_Tables_number   1
_chemical_formula_structural   Zr10Sn4Bi2P
_chemical_formula_sum   'Zr10 Sn4 Bi2 P1'
_cell_volume   380.46279079
_cell_formula_units_Z   1
loop_
 _symmetry_equiv_pos_site_id
 _symmetry_equiv_pos_as_xyz
  1  'x, y, z'
loop_
 _atom_site_type_symbol
 _atom_site_label
 _atom_site_symmetry_multiplicity
 _atom_site_fract_x
 _atom_site_fract_y
 _atom_site_fract_z
 _atom_site_occupancy
  Zr  Zr0  1  0.497036  0.330997  0.666187  1
  Zr  Zr1  1  0.497020  0.668998  0.335192  1
  Zr  Zr2  1  0.003587  0.669365  0.335574  1
  Zr  Zr3  1  0.003573  0.330640  0.666207  1
  Zr  Zr4  1  0.756159  0.243852  0.994938  1
  Zr  Zr5  1  0.756133  0.756121  0.751069  1
  Zr  Zr6  1  0.755855  0.999988  0.250446  1
  Zr  Zr7  1  0.244647  0.751889  0.000726  1
  Zr  Zr8  1  0.244678  0.248138  0.248852  1
  Zr  Zr9  1  0.243279  0.000017  0.750107  1
  Sn  Sn10  1  0.750203  0.000012  0.604575  1
  Sn  Sn11  1  0.249640  0.391516  0.000672  1
  Sn  Sn12  1  0.249656  0.608499  0.609161  1
  Sn  Sn13  1  0.249151  0.999989  0.392995  1
  Bi  Bi14  1  0.750159  0.606163  0.999386  1
  Bi  Bi15  1  0.750155  0.393818  0.393212  1
  P  P16  1  0.499069  0.000001  0.000703  1
