# generated using pymatgen
data_Lu2Ga10TcRu2
_symmetry_space_group_name_H-M   'P 1'
_cell_length_a   8.96250221
_cell_length_b   8.96250221
_cell_length_c   6.29292800
_cell_angle_alpha   90.00000000
_cell_angle_beta   90.00000000
_cell_angle_gamma   89.94043158
_symmetry_Int_Tables_number   1
_chemical_formula_structural   Lu2Ga10TcRu2
_chemical_formula_sum   'Lu4 Ga20 Tc2 Ru4'
_cell_volume   505.48826723
_cell_formula_units_Z   2
loop_
 _symmetry_equiv_pos_site_id
 _symmetry_equiv_pos_as_xyz
  1  'x, y, z'
loop_
 _atom_site_type_symbol
 _atom_site_label
 _atom_site_symmetry_multiplicity
 _atom_site_fract_x
 _atom_site_fract_y
 _atom_site_fract_z
 _atom_site_occupancy
  Lu  Lu0  1  0.182894  0.682894  0.000000  1
  Lu  Lu1  1  0.817106  0.317106  0.000000  1
  Lu  Lu2  1  0.683328  0.816672  0.000000  1
  Lu  Lu3  1  0.316672  0.183328  0.000000  1
  Ga  Ga4  1  0.061180  0.207386  0.709018  1
  Ga  Ga5  1  0.938820  0.792614  0.709018  1
  Ga  Ga6  1  0.560850  0.293268  0.709553  1
  Ga  Ga7  1  0.439150  0.706732  0.709553  1
  Ga  Ga8  1  0.793268  0.060850  0.709553  1
  Ga  Ga9  1  0.206732  0.939150  0.709553  1
  Ga  Ga10  1  0.707386  0.561180  0.709018  1
  Ga  Ga11  1  0.292614  0.438820  0.709018  1
  Ga  Ga12  1  0.938820  0.792614  0.290982  1
  Ga  Ga13  1  0.061180  0.207386  0.290982  1
  Ga  Ga14  1  0.439150  0.706732  0.290447  1
  Ga  Ga15  1  0.560850  0.293268  0.290447  1
  Ga  Ga16  1  0.206732  0.939150  0.290447  1
  Ga  Ga17  1  0.793268  0.060850  0.290447  1
  Ga  Ga18  1  0.292614  0.438820  0.290982  1
  Ga  Ga19  1  0.707386  0.561180  0.290982  1
  Ga  Ga20  1  0.000000  0.500000  0.715863  1
  Ga  Ga21  1  0.500000  0.000000  0.717011  1
  Ga  Ga22  1  0.000000  0.500000  0.284137  1
  Ga  Ga23  1  0.500000  0.000000  0.282989  1
  Tc  Tc24  1  0.179128  0.679128  0.500000  1
  Tc  Tc25  1  0.820872  0.320872  0.500000  1
  Ru  Ru26  1  0.677495  0.822505  0.500000  1
  Ru  Ru27  1  0.322505  0.177495  0.500000  1
  Ru  Ru28  1  0.000000  0.000000  0.000000  1
  Ru  Ru29  1  0.500000  0.500000  0.000000  1
