# generated using pymatgen
data_Ni5Te6
_symmetry_space_group_name_H-M   'P 1'
_cell_length_a   6.61406268
_cell_length_b   6.61406380
_cell_length_c   6.61406374
_cell_angle_alpha   62.70520027
_cell_angle_beta   62.70519843
_cell_angle_gamma   62.70520769
_symmetry_Int_Tables_number   1
_chemical_formula_structural   Ni5Te6
_chemical_formula_sum   'Ni5 Te6'
_cell_volume   216.90768667
_cell_formula_units_Z   1
loop_
 _symmetry_equiv_pos_site_id
 _symmetry_equiv_pos_as_xyz
  1  'x, y, z'
loop_
 _atom_site_type_symbol
 _atom_site_label
 _atom_site_symmetry_multiplicity
 _atom_site_fract_x
 _atom_site_fract_y
 _atom_site_fract_z
 _atom_site_occupancy
  Ni  Ni0  1  0.837125  0.837125  0.837125  1
  Ni  Ni1  1  0.500000  0.500000  0.500000  1
  Ni  Ni2  1  0.162875  0.162875  0.162875  1
  Ni  Ni3  1  0.667782  0.667782  0.667782  1
  Ni  Ni4  1  0.332218  0.332218  0.332218  1
  Te  Te5  1  0.083342  0.420014  0.750856  1
  Te  Te6  1  0.750856  0.083342  0.420014  1
  Te  Te7  1  0.420014  0.750856  0.083342  1
  Te  Te8  1  0.916658  0.579986  0.249144  1
  Te  Te9  1  0.579986  0.249144  0.916658  1
  Te  Te10  1  0.249144  0.916658  0.579986  1
