# generated using pymatgen
data_Dy4Y3Er3(In2Pt)4
_symmetry_space_group_name_H-M   'P 1'
_cell_length_a   3.62568700
_cell_length_b   8.16718523
_cell_length_c   18.24025751
_cell_angle_alpha   90.02718134
_cell_angle_beta   90.00000000
_cell_angle_gamma   90.00000000
_symmetry_Int_Tables_number   1
_chemical_formula_structural   Dy4Y3Er3(In2Pt)4
_chemical_formula_sum   'Dy4 Y3 Er3 In8 Pt4'
_cell_volume   540.12419402
_cell_formula_units_Z   1
loop_
 _symmetry_equiv_pos_site_id
 _symmetry_equiv_pos_as_xyz
  1  'x, y, z'
loop_
 _atom_site_type_symbol
 _atom_site_label
 _atom_site_symmetry_multiplicity
 _atom_site_fract_x
 _atom_site_fract_y
 _atom_site_fract_z
 _atom_site_occupancy
  Dy  Dy0  1  0.000000  0.243078  0.220556  1
  Dy  Dy1  1  0.000000  0.757164  0.779574  1
  Dy  Dy2  1  0.000000  0.256947  0.720382  1
  Dy  Dy3  1  0.000000  0.742717  0.279721  1
  Y  Y4  1  0.000000  0.617140  0.084166  1
  Y  Y5  1  0.000000  0.000465  0.999766  1
  Y  Y6  1  0.000000  0.499955  0.500014  1
  Er  Er7  1  0.000000  0.116553  0.414760  1
  Er  Er8  1  0.000000  0.883538  0.585274  1
  Er  Er9  1  0.000000  0.383249  0.914375  1
  In  In10  1  0.500000  0.422003  0.351658  1
  In  In11  1  0.500000  0.577899  0.648545  1
  In  In12  1  0.500000  0.077737  0.851298  1
  In  In13  1  0.500000  0.923868  0.148941  1
  In  In14  1  0.500000  0.292760  0.066460  1
  In  In15  1  0.500000  0.706170  0.932977  1
  In  In16  1  0.500000  0.205954  0.566366  1
  In  In17  1  0.500000  0.794075  0.433681  1
  Pt  Pt18  1  0.500000  0.025193  0.304255  1
  Pt  Pt19  1  0.500000  0.974729  0.695793  1
  Pt  Pt20  1  0.500000  0.474783  0.804113  1
  Pt  Pt21  1  0.500000  0.524024  0.197327  1
