# generated using pymatgen
data_Zr6Nb4CuSn7
_symmetry_space_group_name_H-M   'P 1'
_cell_length_a   5.79609504
_cell_length_b   8.61563184
_cell_length_c   8.60902825
_cell_angle_alpha   120.02538597
_cell_angle_beta   90.00359574
_cell_angle_gamma   89.99281625
_symmetry_Int_Tables_number   1
_chemical_formula_structural   Zr6Nb4CuSn7
_chemical_formula_sum   'Zr6 Nb4 Cu1 Sn7'
_cell_volume   372.21703043
_cell_formula_units_Z   1
loop_
 _symmetry_equiv_pos_site_id
 _symmetry_equiv_pos_as_xyz
  1  'x, y, z'
loop_
 _atom_site_type_symbol
 _atom_site_label
 _atom_site_symmetry_multiplicity
 _atom_site_fract_x
 _atom_site_fract_y
 _atom_site_fract_z
 _atom_site_occupancy
  Zr  Zr0  1  0.735916  0.275794  0.000000  1
  Zr  Zr1  1  0.735940  0.724233  0.724255  1
  Zr  Zr2  1  0.735940  0.999977  0.275745  1
  Zr  Zr3  1  0.264078  0.724212  0.000000  1
  Zr  Zr4  1  0.264059  0.275764  0.275741  1
  Zr  Zr5  1  0.264059  0.000024  0.724259  1
  Nb  Nb6  1  0.500002  0.333346  0.666689  1
  Nb  Nb7  1  0.500002  0.666656  0.333311  1
  Nb  Nb8  1  0.999999  0.666678  0.333354  1
  Nb  Nb9  1  0.999999  0.333323  0.666646  1
  Cu  Cu10  1  0.499998  0.999999  0.000000  1
  Sn  Sn11  1  0.755521  0.613106  0.000000  1
  Sn  Sn12  1  0.755546  0.386980  0.386968  1
  Sn  Sn13  1  0.755546  0.000011  0.613032  1
  Sn  Sn14  1  0.244479  0.386894  0.000000  1
  Sn  Sn15  1  0.244455  0.613018  0.613031  1
  Sn  Sn16  1  0.244455  0.999986  0.386969  1
  Sn  Sn17  1  0.000005  0.999999  0.000000  1
