# generated using pymatgen
data_Tb5HoCo13P12Ru5
_symmetry_space_group_name_H-M   'P 1'
_cell_length_a   3.76281900
_cell_length_b   10.57748814
_cell_length_c   12.36065355
_cell_angle_alpha   90.41045428
_cell_angle_beta   90.00000000
_cell_angle_gamma   90.00000000
_symmetry_Int_Tables_number   1
_chemical_formula_structural   Tb5HoCo13P12Ru5
_chemical_formula_sum   'Tb5 Ho1 Co13 P12 Ru5'
_cell_volume   491.95589051
_cell_formula_units_Z   1
loop_
 _symmetry_equiv_pos_site_id
 _symmetry_equiv_pos_as_xyz
  1  'x, y, z'
loop_
 _atom_site_type_symbol
 _atom_site_label
 _atom_site_symmetry_multiplicity
 _atom_site_fract_x
 _atom_site_fract_y
 _atom_site_fract_z
 _atom_site_occupancy
  Tb  Tb0  1  0.000000  0.502631  0.526378  1
  Tb  Tb1  1  0.500000  0.995322  0.477503  1
  Tb  Tb2  1  0.500000  0.818974  0.202928  1
  Tb  Tb3  1  0.000000  0.682638  0.795937  1
  Tb  Tb4  1  0.000000  0.316397  0.798767  1
  Ho  Ho5  1  0.500000  0.183426  0.200987  1
  Co  Co6  1  0.000000  0.500049  0.985699  1
  Co  Co7  1  0.500000  0.999987  0.014388  1
  Co  Co8  1  0.000000  0.798355  0.574276  1
  Co  Co9  1  0.500000  0.877756  0.712499  1
  Co  Co10  1  0.500000  0.116850  0.715561  1
  Co  Co11  1  0.000000  0.621789  0.285592  1
  Co  Co12  1  0.000000  0.381342  0.283569  1
  Co  Co13  1  0.500000  0.332457  0.990538  1
  Co  Co14  1  0.500000  0.667928  0.990357  1
  Co  Co15  1  0.000000  0.166906  0.009494  1
  Co  Co16  1  0.000000  0.832734  0.009518  1
  Co  Co17  1  0.500000  0.499589  0.705229  1
  Co  Co18  1  0.000000  0.001838  0.294328  1
  P  P19  1  0.500000  0.311809  0.621735  1
  P  P20  1  0.500000  0.689877  0.620620  1
  P  P21  1  0.000000  0.187656  0.377432  1
  P  P22  1  0.000000  0.815993  0.381575  1
  P  P23  1  0.500000  0.499908  0.883048  1
  P  P24  1  0.000000  0.000987  0.117144  1
  P  P25  1  0.500000  0.846142  0.895377  1
  P  P26  1  0.500000  0.152281  0.895687  1
  P  P27  1  0.000000  0.653913  0.104440  1
  P  P28  1  0.000000  0.346609  0.103789  1
  P  P29  1  0.500000  0.500519  0.342759  1
  P  P30  1  0.000000  0.996259  0.655216  1
  Ru  Ru31  1  0.500000  0.298505  0.426060  1
  Ru  Ru32  1  0.500000  0.703808  0.429654  1
  Ru  Ru33  1  0.000000  0.200127  0.573375  1
  Ru  Ru34  1  0.500000  0.501277  0.155125  1
  Ru  Ru35  1  0.000000  0.997362  0.843416  1
