# generated using pymatgen
data_Ce7Th5As16
_symmetry_space_group_name_H-M   'P 1'
_cell_length_a   8.82074507
_cell_length_b   8.81866407
_cell_length_c   8.81124001
_cell_angle_alpha   90.00129385
_cell_angle_beta   90.00399099
_cell_angle_gamma   89.98592891
_symmetry_Int_Tables_number   1
_chemical_formula_structural   Ce7Th5As16
_chemical_formula_sum   'Ce7 Th5 As16'
_cell_volume   685.40155695
_cell_formula_units_Z   1
loop_
 _symmetry_equiv_pos_site_id
 _symmetry_equiv_pos_as_xyz
  1  'x, y, z'
loop_
 _atom_site_type_symbol
 _atom_site_label
 _atom_site_symmetry_multiplicity
 _atom_site_fract_x
 _atom_site_fract_y
 _atom_site_fract_z
 _atom_site_occupancy
  Ce  Ce0  1  0.125237  0.998435  0.749142  1
  Ce  Ce1  1  0.500007  0.250065  0.624948  1
  Ce  Ce2  1  0.750454  0.874885  0.501623  1
  Ce  Ce3  1  0.499988  0.750014  0.874314  1
  Ce  Ce4  1  0.874767  0.501489  0.749130  1
  Ce  Ce5  1  0.249505  0.625117  0.501617  1
  Ce  Ce6  1  0.999962  0.750000  0.125019  1
  Th  Th7  1  0.624837  0.501446  0.250730  1
  Th  Th8  1  0.249865  0.375215  0.998561  1
  Th  Th9  1  0.000062  0.249928  0.375475  1
  Th  Th10  1  0.375202  0.998553  0.250558  1
  Th  Th11  1  0.750099  0.124850  0.998464  1
  As  As12  1  0.329801  0.330285  0.331240  1
  As  As13  1  0.829332  0.172403  0.670114  1
  As  As14  1  0.673649  0.829919  0.170928  1
  As  As15  1  0.170957  0.672640  0.827976  1
  As  As16  1  0.579484  0.423187  0.917157  1
  As  As17  1  0.170687  0.327480  0.670180  1
  As  As18  1  0.919791  0.424262  0.077722  1
  As  As19  1  0.080212  0.075689  0.077603  1
  As  As20  1  0.420495  0.076931  0.917064  1
  As  As21  1  0.078457  0.918006  0.423779  1
  As  As22  1  0.670267  0.169677  0.331204  1
  As  As23  1  0.422962  0.920040  0.581352  1
  As  As24  1  0.576946  0.580116  0.581396  1
  As  As25  1  0.921628  0.581908  0.423781  1
  As  As26  1  0.326353  0.670074  0.170967  1
  As  As27  1  0.828993  0.827385  0.827954  1
