# generated using pymatgen
data_HfMg3Ge6Ir7
_symmetry_space_group_name_H-M   'P 1'
_cell_length_a   7.10875587
_cell_length_b   6.99704304
_cell_length_c   7.10875670
_cell_angle_alpha   109.15320124
_cell_angle_beta   109.78736827
_cell_angle_gamma   109.15319575
_symmetry_Int_Tables_number   1
_chemical_formula_structural   HfMg3Ge6Ir7
_chemical_formula_sum   'Hf1 Mg3 Ge6 Ir7'
_cell_volume   273.25578561
_cell_formula_units_Z   1
loop_
 _symmetry_equiv_pos_site_id
 _symmetry_equiv_pos_as_xyz
  1  'x, y, z'
loop_
 _atom_site_type_symbol
 _atom_site_label
 _atom_site_symmetry_multiplicity
 _atom_site_fract_x
 _atom_site_fract_y
 _atom_site_fract_z
 _atom_site_occupancy
  Hf  Hf0  1  0.000000  0.500000  0.000000  1
  Mg  Mg1  1  0.000000  0.000000  0.500000  1
  Mg  Mg2  1  0.500000  0.000000  0.000000  1
  Mg  Mg3  1  0.500000  0.500000  0.500000  1
  Ge  Ge4  1  0.686735  0.693687  0.000000  1
  Ge  Ge5  1  0.313265  0.006951  0.313265  1
  Ge  Ge6  1  0.000000  0.306313  0.313265  1
  Ge  Ge7  1  0.313265  0.306313  0.000000  1
  Ge  Ge8  1  0.686735  0.993049  0.686735  1
  Ge  Ge9  1  0.000000  0.693687  0.686735  1
  Ir  Ir10  1  0.751030  0.251030  0.502062  1
  Ir  Ir11  1  0.751030  0.500000  0.248970  1
  Ir  Ir12  1  0.502062  0.251030  0.751030  1
  Ir  Ir13  1  0.248970  0.500000  0.751030  1
  Ir  Ir14  1  0.248970  0.748970  0.497938  1
  Ir  Ir15  1  0.497938  0.748970  0.248970  1
  Ir  Ir16  1  0.000000  0.000000  0.000000  1
