# generated using pymatgen
data_Lu6Zn23Ge
_symmetry_space_group_name_H-M   'P 1'
_cell_length_a   8.97508199
_cell_length_b   8.97508219
_cell_length_c   8.97508200
_cell_angle_alpha   60.00000070
_cell_angle_beta   59.99999996
_cell_angle_gamma   60.00000071
_symmetry_Int_Tables_number   1
_chemical_formula_structural   Lu6Zn23Ge
_chemical_formula_sum   'Lu6 Zn23 Ge1'
_cell_volume   511.21111836
_cell_formula_units_Z   1
loop_
 _symmetry_equiv_pos_site_id
 _symmetry_equiv_pos_as_xyz
  1  'x, y, z'
loop_
 _atom_site_type_symbol
 _atom_site_label
 _atom_site_symmetry_multiplicity
 _atom_site_fract_x
 _atom_site_fract_y
 _atom_site_fract_z
 _atom_site_occupancy
  Lu  Lu0  1  0.716192  0.283808  0.283808  1
  Lu  Lu1  1  0.283808  0.716192  0.716192  1
  Lu  Lu2  1  0.283808  0.716192  0.283808  1
  Lu  Lu3  1  0.716192  0.283808  0.716192  1
  Lu  Lu4  1  0.283808  0.283808  0.716192  1
  Lu  Lu5  1  0.716192  0.716192  0.283808  1
  Zn  Zn6  1  0.124488  0.124488  0.124488  1
  Zn  Zn7  1  0.875512  0.875512  0.875512  1
  Zn  Zn8  1  0.124488  0.124488  0.626535  1
  Zn  Zn9  1  0.124488  0.626535  0.124488  1
  Zn  Zn10  1  0.875512  0.875512  0.373465  1
  Zn  Zn11  1  0.875512  0.373465  0.875512  1
  Zn  Zn12  1  0.626535  0.124488  0.124488  1
  Zn  Zn13  1  0.373465  0.875512  0.875512  1
  Zn  Zn14  1  0.500000  0.000000  0.000000  1
  Zn  Zn15  1  0.000000  0.500000  0.500000  1
  Zn  Zn16  1  0.000000  0.500000  0.000000  1
  Zn  Zn17  1  0.500000  0.000000  0.500000  1
  Zn  Zn18  1  0.000000  0.000000  0.500000  1
  Zn  Zn19  1  0.500000  0.500000  0.000000  1
  Zn  Zn20  1  0.334228  0.334228  0.334228  1
  Zn  Zn21  1  0.665772  0.665772  0.665772  1
  Zn  Zn22  1  0.334228  0.334228  0.997317  1
  Zn  Zn23  1  0.334228  0.997317  0.334228  1
  Zn  Zn24  1  0.665772  0.665772  0.002683  1
  Zn  Zn25  1  0.665772  0.002683  0.665772  1
  Zn  Zn26  1  0.997317  0.334228  0.334228  1
  Zn  Zn27  1  0.002683  0.665772  0.665772  1
  Zn  Zn28  1  0.000000  0.000000  0.000000  1
  Ge  Ge29  1  0.500000  0.500000  0.500000  1
