# generated using pymatgen
data_Ho3Er3(MoO6)2
_symmetry_space_group_name_H-M   'P 1'
_cell_length_a   6.59551172
_cell_length_b   6.59551080
_cell_length_c   6.59551133
_cell_angle_alpha   92.04898796
_cell_angle_beta   92.04896849
_cell_angle_gamma   92.04897123
_symmetry_Int_Tables_number   1
_chemical_formula_structural   Ho3Er3(MoO6)2
_chemical_formula_sum   'Ho3 Er3 Mo2 O12'
_cell_volume   286.34599751
_cell_formula_units_Z   1
loop_
 _symmetry_equiv_pos_site_id
 _symmetry_equiv_pos_as_xyz
  1  'x, y, z'
loop_
 _atom_site_type_symbol
 _atom_site_label
 _atom_site_symmetry_multiplicity
 _atom_site_fract_x
 _atom_site_fract_y
 _atom_site_fract_z
 _atom_site_occupancy
  Ho  Ho0  1  0.252752  0.068624  0.560233  1
  Ho  Ho1  1  0.068624  0.560233  0.252752  1
  Ho  Ho2  1  0.560233  0.252752  0.068624  1
  Er  Er3  1  0.746786  0.930940  0.440264  1
  Er  Er4  1  0.930940  0.440264  0.746786  1
  Er  Er5  1  0.440264  0.746786  0.930940  1
  Mo  Mo6  1  0.500119  0.500119  0.500119  1
  Mo  Mo7  1  0.999317  0.999317  0.999317  1
  O  O8  1  0.598023  0.467989  0.812141  1
  O  O9  1  0.467989  0.812141  0.598023  1
  O  O10  1  0.812141  0.598023  0.467989  1
  O  O11  1  0.403104  0.534100  0.187939  1
  O  O12  1  0.534100  0.187939  0.403104  1
  O  O13  1  0.187939  0.403104  0.534100  1
  O  O14  1  0.068348  0.909080  0.311049  1
  O  O15  1  0.909080  0.311049  0.068348  1
  O  O16  1  0.688455  0.928958  0.091778  1
  O  O17  1  0.091778  0.688455  0.928958  1
  O  O18  1  0.928958  0.091778  0.688455  1
  O  O19  1  0.311049  0.068348  0.909080  1
