# generated using pymatgen
data_CaYbPa2(Ga3Ir)6
_symmetry_space_group_name_H-M   'P 1'
_cell_length_a   7.63727374
_cell_length_b   7.63742797
_cell_length_c   9.42505400
_cell_angle_alpha   90.00000000
_cell_angle_beta   90.00000000
_cell_angle_gamma   119.99935694
_symmetry_Int_Tables_number   1
_chemical_formula_structural   CaYbPa2(Ga3Ir)6
_chemical_formula_sum   'Ca1 Yb1 Pa2 Ga18 Ir6'
_cell_volume   476.10503848
_cell_formula_units_Z   1
loop_
 _symmetry_equiv_pos_site_id
 _symmetry_equiv_pos_as_xyz
  1  'x, y, z'
loop_
 _atom_site_type_symbol
 _atom_site_label
 _atom_site_symmetry_multiplicity
 _atom_site_fract_x
 _atom_site_fract_y
 _atom_site_fract_z
 _atom_site_occupancy
  Ca  Ca0  1  0.668991  0.996210  0.250000  1
  Yb  Yb1  1  0.330929  0.003726  0.750000  1
  Pa  Pa2  1  0.999570  0.668265  0.250000  1
  Pa  Pa3  1  0.000859  0.331886  0.750000  1
  Ga  Ga4  1  0.130838  0.127639  0.250000  1
  Ga  Ga5  1  0.870211  0.872179  0.750000  1
  Ga  Ga6  1  0.997700  0.328975  0.083289  1
  Ga  Ga7  1  0.003090  0.671846  0.915668  1
  Ga  Ga8  1  0.003090  0.671846  0.584332  1
  Ga  Ga9  1  0.339314  0.002333  0.421483  1
  Ga  Ga10  1  0.997700  0.328975  0.416711  1
  Ga  Ga11  1  0.659684  0.997709  0.580515  1
  Ga  Ga12  1  0.659684  0.997709  0.919485  1
  Ga  Ga13  1  0.339314  0.002333  0.078517  1
  Ga  Ga14  1  0.334893  0.330160  0.568015  1
  Ga  Ga15  1  0.665088  0.668946  0.433524  1
  Ga  Ga16  1  0.665088  0.668946  0.066476  1
  Ga  Ga17  1  0.334893  0.330160  0.931985  1
  Ga  Ga18  1  0.339774  0.545134  0.250000  1
  Ga  Ga19  1  0.658904  0.453727  0.750000  1
  Ga  Ga20  1  0.546007  0.340248  0.250000  1
  Ga  Ga21  1  0.454178  0.660944  0.750000  1
  Ir  Ir22  1  0.678043  0.334215  0.999302  1
  Ir  Ir23  1  0.321664  0.665782  0.000129  1
  Ir  Ir24  1  0.321664  0.665782  0.499871  1
  Ir  Ir25  1  0.678043  0.334215  0.500698  1
  Ir  Ir26  1  0.000394  0.000055  0.999681  1
  Ir  Ir27  1  0.000394  0.000055  0.500319  1
