# generated using pymatgen
data_La2Eu2Zr3NbO14
_symmetry_space_group_name_H-M   'P 1'
_cell_length_a   7.65401277
_cell_length_b   7.63120450
_cell_length_c   7.63120200
_cell_angle_alpha   59.48542100
_cell_angle_beta   59.73692656
_cell_angle_gamma   59.73692629
_symmetry_Int_Tables_number   1
_chemical_formula_structural   La2Eu2Zr3NbO14
_chemical_formula_sum   'La2 Eu2 Zr3 Nb1 O14'
_cell_volume   312.69274824
_cell_formula_units_Z   1
loop_
 _symmetry_equiv_pos_site_id
 _symmetry_equiv_pos_as_xyz
  1  'x, y, z'
loop_
 _atom_site_type_symbol
 _atom_site_label
 _atom_site_symmetry_multiplicity
 _atom_site_fract_x
 _atom_site_fract_y
 _atom_site_fract_z
 _atom_site_occupancy
  La  La0  1  0.125000  0.625000  0.625000  1
  La  La1  1  0.625000  0.625000  0.625000  1
  Eu  Eu2  1  0.625000  0.125000  0.625000  1
  Eu  Eu3  1  0.625000  0.625000  0.125000  1
  Zr  Zr4  1  0.625000  0.125000  0.125000  1
  Zr  Zr5  1  0.125000  0.125000  0.625000  1
  Zr  Zr6  1  0.125000  0.625000  0.125000  1
  Nb  Nb7  1  0.125000  0.125000  0.125000  1
  O  O8  1  0.204312  0.789423  0.789423  1
  O  O9  1  0.791073  0.789499  0.205298  1
  O  O10  1  0.791073  0.205298  0.789499  1
  O  O11  1  0.197495  0.807700  0.200187  1
  O  O12  1  0.197495  0.200187  0.807700  1
  O  O13  1  0.810701  0.196961  0.196961  1
  O  O14  1  0.439299  0.053039  0.053039  1
  O  O15  1  0.052505  0.049813  0.442300  1
  O  O16  1  0.052505  0.442300  0.049813  1
  O  O17  1  0.458927  0.044702  0.460501  1
  O  O18  1  0.751182  0.751226  0.751226  1
  O  O19  1  0.458927  0.460501  0.044702  1
  O  O20  1  0.045688  0.460577  0.460577  1
  O  O21  1  0.498818  0.498774  0.498774  1
