# generated using pymatgen
data_K4Li2ScGaSb4
_symmetry_space_group_name_H-M   'P 1'
_cell_length_a   9.47045284
_cell_length_b   9.47045280
_cell_length_c   9.47045301
_cell_angle_alpha   137.33264360
_cell_angle_beta   61.53663905
_cell_angle_gamma   137.84192323
_symmetry_Int_Tables_number   1
_chemical_formula_structural   K4Li2ScGaSb4
_chemical_formula_sum   'K4 Li2 Sc1 Ga1 Sb4'
_cell_volume   381.97603754
_cell_formula_units_Z   1
loop_
 _symmetry_equiv_pos_site_id
 _symmetry_equiv_pos_as_xyz
  1  'x, y, z'
loop_
 _atom_site_type_symbol
 _atom_site_label
 _atom_site_symmetry_multiplicity
 _atom_site_fract_x
 _atom_site_fract_y
 _atom_site_fract_z
 _atom_site_occupancy
  K  K0  1  0.824300  0.262939  0.095600  1
  K  K1  1  0.675699  0.771300  0.438641  1
  K  K2  1  0.332660  0.237060  0.561360  1
  K  K3  1  0.167339  0.728699  0.904400  1
  Li  Li4  1  0.750000  0.250000  0.500000  1
  Li  Li5  1  0.250000  0.750000  0.500000  1
  Sc  Sc6  1  0.250000  0.250000  0.000000  1
  Ga  Ga7  1  0.750000  0.750000  0.000000  1
  Sb  Sb8  1  0.410069  0.742439  0.139071  1
  Sb  Sb9  1  0.089930  0.229001  0.332370  1
  Sb  Sb10  1  0.896630  0.757560  0.667630  1
  Sb  Sb11  1  0.603369  0.270999  0.860929  1
