# generated using pymatgen
data_LaPr(BPd4)2
_symmetry_space_group_name_H-M   'P 1'
_cell_length_a   5.50056900
_cell_length_b   6.18638200
_cell_length_c   11.86099900
_cell_angle_alpha   90.00000000
_cell_angle_beta   90.00000000
_cell_angle_gamma   90.00000000
_symmetry_Int_Tables_number   1
_chemical_formula_structural   LaPr(BPd4)2
_chemical_formula_sum   'La2 Pr2 B4 Pd16'
_cell_volume   403.61344026
_cell_formula_units_Z   2
loop_
 _symmetry_equiv_pos_site_id
 _symmetry_equiv_pos_as_xyz
  1  'x, y, z'
loop_
 _atom_site_type_symbol
 _atom_site_label
 _atom_site_symmetry_multiplicity
 _atom_site_fract_x
 _atom_site_fract_y
 _atom_site_fract_z
 _atom_site_occupancy
  La  La0  1  0.250000  0.692323  0.844174  1
  La  La1  1  0.250000  0.192323  0.655826  1
  Pr  Pr2  1  0.750000  0.304409  0.156974  1
  Pr  Pr3  1  0.750000  0.804409  0.343026  1
  B  B4  1  0.750000  0.399898  0.550722  1
  B  B5  1  0.750000  0.899898  0.949278  1
  B  B6  1  0.250000  0.600076  0.447855  1
  B  B7  1  0.250000  0.100076  0.052145  1
  Pd  Pd8  1  0.750000  0.382841  0.734499  1
  Pd  Pd9  1  0.750000  0.882841  0.765501  1
  Pd  Pd10  1  0.250000  0.618531  0.265277  1
  Pd  Pd11  1  0.250000  0.118531  0.234723  1
  Pd  Pd12  1  0.750000  0.058454  0.555602  1
  Pd  Pd13  1  0.750000  0.558454  0.944398  1
  Pd  Pd14  1  0.250000  0.942778  0.444015  1
  Pd  Pd15  1  0.250000  0.442778  0.055985  1
  Pd  Pd16  1  0.000693  0.160303  0.911845  1
  Pd  Pd17  1  0.499307  0.660303  0.588155  1
  Pd  Pd18  1  0.501526  0.840042  0.090189  1
  Pd  Pd19  1  0.998474  0.340042  0.409811  1
  Pd  Pd20  1  0.998474  0.840042  0.090189  1
  Pd  Pd21  1  0.501526  0.340042  0.409811  1
  Pd  Pd22  1  0.499307  0.160303  0.911845  1
  Pd  Pd23  1  0.000693  0.660303  0.588155  1
