# generated using pymatgen
data_TbY19(CoSb2)4
_symmetry_space_group_name_H-M   'P 1'
_cell_length_a   7.94058205
_cell_length_b   8.80083513
_cell_length_c   12.24905745
_cell_angle_alpha   90.02313114
_cell_angle_beta   89.98606892
_cell_angle_gamma   90.01923351
_symmetry_Int_Tables_number   1
_chemical_formula_structural   TbY19(CoSb2)4
_chemical_formula_sum   'Tb1 Y19 Co4 Sb8'
_cell_volume   856.00996767
_cell_formula_units_Z   1
loop_
 _symmetry_equiv_pos_site_id
 _symmetry_equiv_pos_as_xyz
  1  'x, y, z'
loop_
 _atom_site_type_symbol
 _atom_site_label
 _atom_site_symmetry_multiplicity
 _atom_site_fract_x
 _atom_site_fract_y
 _atom_site_fract_z
 _atom_site_occupancy
  Tb  Tb0  1  0.322094  0.465530  0.434384  1
  Y  Y1  1  0.156040  0.750043  0.203942  1
  Y  Y2  1  0.656256  0.250213  0.296073  1
  Y  Y3  1  0.843903  0.249976  0.796097  1
  Y  Y4  1  0.343774  0.749992  0.704213  1
  Y  Y5  1  0.456426  0.750056  0.998278  1
  Y  Y6  1  0.957383  0.250500  0.501565  1
  Y  Y7  1  0.543713  0.250010  0.001785  1
  Y  Y8  1  0.044573  0.749363  0.498048  1
  Y  Y9  1  0.624357  0.749823  0.305942  1
  Y  Y10  1  0.124177  0.250146  0.193967  1
  Y  Y11  1  0.375539  0.250017  0.693990  1
  Y  Y12  1  0.875694  0.750158  0.806202  1
  Y  Y13  1  0.821796  0.965679  0.066167  1
  Y  Y14  1  0.321568  0.034359  0.433896  1
  Y  Y15  1  0.178129  0.465688  0.934012  1
  Y  Y16  1  0.678721  0.534355  0.566121  1
  Y  Y17  1  0.178142  0.034394  0.933917  1
  Y  Y18  1  0.678235  0.965655  0.565778  1
  Y  Y19  1  0.821771  0.534445  0.066145  1
  Co  Co20  1  0.434893  0.748929  0.490367  1
  Co  Co21  1  0.935391  0.250045  0.009467  1
  Co  Co22  1  0.563835  0.250176  0.509234  1
  Co  Co23  1  0.064727  0.750053  0.990605  1
  Sb  Sb24  1  0.929666  0.992045  0.327306  1
  Sb  Sb25  1  0.429817  0.008039  0.173020  1
  Sb  Sb26  1  0.069998  0.492145  0.673201  1
  Sb  Sb27  1  0.570186  0.507976  0.827034  1
  Sb  Sb28  1  0.070062  0.007883  0.672706  1
  Sb  Sb29  1  0.570025  0.992183  0.826917  1
  Sb  Sb30  1  0.929427  0.508053  0.326840  1
  Sb  Sb31  1  0.429679  0.492076  0.172780  1
