# generated using pymatgen
data_Y8Si12Ir3Pd
_symmetry_space_group_name_H-M   'P 1'
_cell_length_a   8.18528100
_cell_length_b   8.18528050
_cell_length_c   7.96617200
_cell_angle_alpha   90.00000000
_cell_angle_beta   90.00000000
_cell_angle_gamma   119.99999796
_symmetry_Int_Tables_number   1
_chemical_formula_structural   Y8Si12Ir3Pd
_chemical_formula_sum   'Y8 Si12 Ir3 Pd1'
_cell_volume   462.21866630
_cell_formula_units_Z   1
loop_
 _symmetry_equiv_pos_site_id
 _symmetry_equiv_pos_as_xyz
  1  'x, y, z'
loop_
 _atom_site_type_symbol
 _atom_site_label
 _atom_site_symmetry_multiplicity
 _atom_site_fract_x
 _atom_site_fract_y
 _atom_site_fract_z
 _atom_site_occupancy
  Y  Y0  1  0.511678  0.023356  0.246944  1
  Y  Y1  1  0.491321  0.982642  0.752056  1
  Y  Y2  1  0.976644  0.488322  0.246944  1
  Y  Y3  1  0.017358  0.508679  0.752056  1
  Y  Y4  1  0.511678  0.488322  0.246944  1
  Y  Y5  1  0.491321  0.508679  0.752056  1
  Y  Y6  1  0.000000  0.000000  0.252096  1
  Y  Y7  1  0.000000  0.000000  0.750628  1
  Si  Si8  1  0.166834  0.333668  0.003731  1
  Si  Si9  1  0.833570  0.667140  0.997288  1
  Si  Si10  1  0.666332  0.833166  0.003731  1
  Si  Si11  1  0.832420  0.664840  0.500148  1
  Si  Si12  1  0.332860  0.166430  0.997288  1
  Si  Si13  1  0.164793  0.329586  0.501443  1
  Si  Si14  1  0.166834  0.833166  0.003731  1
  Si  Si15  1  0.335160  0.167580  0.500148  1
  Si  Si16  1  0.833570  0.166430  0.997288  1
  Si  Si17  1  0.670414  0.835207  0.501443  1
  Si  Si18  1  0.832420  0.167580  0.500148  1
  Si  Si19  1  0.164793  0.835207  0.501443  1
  Ir  Ir20  1  0.333333  0.666667  0.026504  1
  Ir  Ir21  1  0.666667  0.333333  0.966096  1
  Ir  Ir22  1  0.666667  0.333333  0.538101  1
  Pd  Pd23  1  0.333333  0.666667  0.461746  1
