# generated using pymatgen
data_Ba4Pr7LuSe16
_symmetry_space_group_name_H-M   'P 1'
_cell_length_a   4.33528000
_cell_length_b   13.05785302
_cell_length_c   15.59869397
_cell_angle_alpha   89.58811095
_cell_angle_beta   90.00000000
_cell_angle_gamma   90.00000000
_symmetry_Int_Tables_number   1
_chemical_formula_structural   Ba4Pr7LuSe16
_chemical_formula_sum   'Ba4 Pr7 Lu1 Se16'
_cell_volume   883.01065436
_cell_formula_units_Z   1
loop_
 _symmetry_equiv_pos_site_id
 _symmetry_equiv_pos_as_xyz
  1  'x, y, z'
loop_
 _atom_site_type_symbol
 _atom_site_label
 _atom_site_symmetry_multiplicity
 _atom_site_fract_x
 _atom_site_fract_y
 _atom_site_fract_z
 _atom_site_occupancy
  Ba  Ba0  1  0.250000  0.757510  0.339261  1
  Ba  Ba1  1  0.250000  0.257687  0.165787  1
  Ba  Ba2  1  0.750000  0.238671  0.657260  1
  Ba  Ba3  1  0.750000  0.742942  0.836989  1
  Pr  Pr4  1  0.250000  0.426388  0.393020  1
  Pr  Pr5  1  0.250000  0.934387  0.112950  1
  Pr  Pr6  1  0.750000  0.568800  0.609256  1
  Pr  Pr7  1  0.750000  0.069447  0.891474  1
  Pr  Pr8  1  0.250000  0.417891  0.899446  1
  Pr  Pr9  1  0.250000  0.923194  0.597242  1
  Pr  Pr10  1  0.750000  0.580610  0.101288  1
  Lu  Lu11  1  0.750000  0.078914  0.397313  1
  Se  Se12  1  0.250000  0.206240  0.822631  1
  Se  Se13  1  0.250000  0.708855  0.671797  1
  Se  Se14  1  0.750000  0.793795  0.176699  1
  Se  Se15  1  0.750000  0.284391  0.331258  1
  Se  Se16  1  0.250000  0.129985  0.514742  1
  Se  Se17  1  0.250000  0.629852  0.973221  1
  Se  Se18  1  0.750000  0.878369  0.468163  1
  Se  Se19  1  0.750000  0.369123  0.027823  1
  Se  Se20  1  0.250000  0.521705  0.218527  1
  Se  Se21  1  0.250000  0.029200  0.289304  1
  Se  Se22  1  0.750000  0.475962  0.783218  1
  Se  Se23  1  0.750000  0.976964  0.715426  1
  Se  Se24  1  0.250000  0.413978  0.581241  1
  Se  Se25  1  0.250000  0.915289  0.923291  1
  Se  Se26  1  0.750000  0.582939  0.420679  1
  Se  Se27  1  0.750000  0.086912  0.080692  1
