# generated using pymatgen
data_NdPa3(GaNi2)2
_symmetry_space_group_name_H-M   'P 1'
_cell_length_a   7.29690132
_cell_length_b   7.29690060
_cell_length_c   3.57440500
_cell_angle_alpha   90.00000000
_cell_angle_beta   90.00000000
_cell_angle_gamma   91.85758983
_symmetry_Int_Tables_number   1
_chemical_formula_structural   NdPa3(GaNi2)2
_chemical_formula_sum   'Nd1 Pa3 Ga2 Ni4'
_cell_volume   190.21833407
_cell_formula_units_Z   1
loop_
 _symmetry_equiv_pos_site_id
 _symmetry_equiv_pos_as_xyz
  1  'x, y, z'
loop_
 _atom_site_type_symbol
 _atom_site_label
 _atom_site_symmetry_multiplicity
 _atom_site_fract_x
 _atom_site_fract_y
 _atom_site_fract_z
 _atom_site_occupancy
  Nd  Nd0  1  0.819429  0.680571  0.500000  1
  Pa  Pa1  1  0.678821  0.178553  0.500000  1
  Pa  Pa2  1  0.321447  0.821179  0.500000  1
  Pa  Pa3  1  0.178048  0.321952  0.500000  1
  Ga  Ga4  1  0.495507  0.498135  0.000000  1
  Ga  Ga5  1  0.001865  0.004493  0.000000  1
  Ni  Ni6  1  0.147422  0.612154  0.000000  1
  Ni  Ni7  1  0.887846  0.352578  0.000000  1
  Ni  Ni8  1  0.603927  0.896073  0.000000  1
  Ni  Ni9  1  0.365687  0.134313  0.000000  1
