# generated using pymatgen
data_Lu20Cd6GaNi
_symmetry_space_group_name_H-M   'P 1'
_cell_length_a   9.38701600
_cell_length_b   9.38701609
_cell_length_c   9.71395400
_cell_angle_alpha   90.00000000
_cell_angle_beta   90.00000000
_cell_angle_gamma   119.99999264
_symmetry_Int_Tables_number   1
_chemical_formula_structural   Lu20Cd6GaNi
_chemical_formula_sum   'Lu20 Cd6 Ga1 Ni1'
_cell_volume   741.27922143
_cell_formula_units_Z   1
loop_
 _symmetry_equiv_pos_site_id
 _symmetry_equiv_pos_as_xyz
  1  'x, y, z'
loop_
 _atom_site_type_symbol
 _atom_site_label
 _atom_site_symmetry_multiplicity
 _atom_site_fract_x
 _atom_site_fract_y
 _atom_site_fract_z
 _atom_site_occupancy
  Lu  Lu0  1  0.000000  0.000000  0.499541  1
  Lu  Lu1  1  0.000000  0.000000  0.000459  1
  Lu  Lu2  1  0.543800  0.456200  0.250000  1
  Lu  Lu3  1  0.543800  0.087600  0.250000  1
  Lu  Lu4  1  0.912400  0.456200  0.250000  1
  Lu  Lu5  1  0.458315  0.541685  0.750000  1
  Lu  Lu6  1  0.458315  0.916631  0.750000  1
  Lu  Lu7  1  0.083369  0.541685  0.750000  1
  Lu  Lu8  1  0.208224  0.791776  0.451912  1
  Lu  Lu9  1  0.208224  0.416449  0.451912  1
  Lu  Lu10  1  0.583551  0.791776  0.451912  1
  Lu  Lu11  1  0.787507  0.212493  0.561419  1
  Lu  Lu12  1  0.787507  0.575013  0.561419  1
  Lu  Lu13  1  0.424987  0.212493  0.561419  1
  Lu  Lu14  1  0.787507  0.212493  0.938581  1
  Lu  Lu15  1  0.787507  0.575013  0.938581  1
  Lu  Lu16  1  0.424987  0.212493  0.938581  1
  Lu  Lu17  1  0.208224  0.791776  0.048088  1
  Lu  Lu18  1  0.208224  0.416449  0.048088  1
  Lu  Lu19  1  0.583551  0.791776  0.048088  1
  Cd  Cd20  1  0.885668  0.114332  0.250000  1
  Cd  Cd21  1  0.885668  0.771335  0.250000  1
  Cd  Cd22  1  0.228665  0.114332  0.250000  1
  Cd  Cd23  1  0.113879  0.886121  0.750000  1
  Cd  Cd24  1  0.113879  0.227757  0.750000  1
  Cd  Cd25  1  0.772243  0.886121  0.750000  1
  Ga  Ga26  1  0.333333  0.666667  0.250000  1
  Ni  Ni27  1  0.666667  0.333333  0.750000  1
