# generated using pymatgen
data_Pu5Nb3(Ni4P3)4
_symmetry_space_group_name_H-M   'P 1'
_cell_length_a   12.47161900
_cell_length_b   12.47161972
_cell_length_c   3.76130500
_cell_angle_alpha   90.00000000
_cell_angle_beta   90.00000000
_cell_angle_gamma   119.99999544
_symmetry_Int_Tables_number   1
_chemical_formula_structural   Pu5Nb3(Ni4P3)4
_chemical_formula_sum   'Pu5 Nb3 Ni16 P12'
_cell_volume   506.65799243
_cell_formula_units_Z   1
loop_
 _symmetry_equiv_pos_site_id
 _symmetry_equiv_pos_as_xyz
  1  'x, y, z'
loop_
 _atom_site_type_symbol
 _atom_site_label
 _atom_site_symmetry_multiplicity
 _atom_site_fract_x
 _atom_site_fract_y
 _atom_site_fract_z
 _atom_site_occupancy
  Pu  Pu0  1  0.666667  0.333333  0.000000  1
  Pu  Pu1  1  0.333333  0.666667  0.000000  1
  Pu  Pu2  1  0.816352  0.816352  0.500000  1
  Pu  Pu3  1  0.183648  0.000000  0.500000  1
  Pu  Pu4  1  0.000000  0.183648  0.500000  1
  Nb  Nb5  1  0.442701  0.442701  0.000000  1
  Nb  Nb6  1  0.557299  0.000000  0.000000  1
  Nb  Nb7  1  0.000000  0.557299  0.000000  1
  Ni  Ni8  1  0.195309  0.375734  0.000000  1
  Ni  Ni9  1  0.180425  0.804691  0.000000  1
  Ni  Ni10  1  0.819575  0.624266  0.000000  1
  Ni  Ni11  1  0.804691  0.180425  0.000000  1
  Ni  Ni12  1  0.375734  0.195309  0.000000  1
  Ni  Ni13  1  0.121782  0.479188  0.500000  1
  Ni  Ni14  1  0.357406  0.878218  0.500000  1
  Ni  Ni15  1  0.520812  0.642594  0.500000  1
  Ni  Ni16  1  0.642594  0.520812  0.500000  1
  Ni  Ni17  1  0.878218  0.357406  0.500000  1
  Ni  Ni18  1  0.479188  0.121782  0.500000  1
  Ni  Ni19  1  0.000000  0.000000  0.000000  1
  Ni  Ni20  1  0.719016  0.000000  0.500000  1
  Ni  Ni21  1  0.000000  0.719016  0.500000  1
  Ni  Ni22  1  0.624266  0.819575  0.000000  1
  Ni  Ni23  1  0.280984  0.280984  0.500000  1
  P  P24  1  0.640629  0.640629  0.000000  1
  P  P25  1  0.359371  0.000000  0.000000  1
  P  P26  1  0.000000  0.359371  0.000000  1
  P  P27  1  0.481197  0.313208  0.500000  1
  P  P28  1  0.686792  0.167988  0.500000  1
  P  P29  1  0.832012  0.518803  0.500000  1
  P  P30  1  0.518803  0.832012  0.500000  1
  P  P31  1  0.167988  0.686792  0.500000  1
  P  P32  1  0.820464  0.000000  0.000000  1
  P  P33  1  0.000000  0.820464  0.000000  1
  P  P34  1  0.313208  0.481197  0.500000  1
  P  P35  1  0.179536  0.179536  0.000000  1
