# generated using pymatgen
data_Tc6NiIr
_symmetry_space_group_name_H-M   'P 1'
_cell_length_a   5.48338400
_cell_length_b   5.48338377
_cell_length_c   4.32650700
_cell_angle_alpha   90.00000000
_cell_angle_beta   90.00000000
_cell_angle_gamma   120.00001345
_symmetry_Int_Tables_number   1
_chemical_formula_structural   Tc6NiIr
_chemical_formula_sum   'Tc6 Ni1 Ir1'
_cell_volume   112.65884289
_cell_formula_units_Z   1
loop_
 _symmetry_equiv_pos_site_id
 _symmetry_equiv_pos_as_xyz
  1  'x, y, z'
loop_
 _atom_site_type_symbol
 _atom_site_label
 _atom_site_symmetry_multiplicity
 _atom_site_fract_x
 _atom_site_fract_y
 _atom_site_fract_z
 _atom_site_occupancy
  Tc  Tc0  1  0.839087  0.678175  0.750000  1
  Tc  Tc1  1  0.167665  0.832335  0.250000  1
  Tc  Tc2  1  0.664670  0.832335  0.250000  1
  Tc  Tc3  1  0.167665  0.335330  0.250000  1
  Tc  Tc4  1  0.839087  0.160913  0.750000  1
  Tc  Tc5  1  0.321825  0.160913  0.750000  1
  Ni  Ni6  1  0.333333  0.666667  0.750000  1
  Ir  Ir7  1  0.666667  0.333333  0.250000  1
