# generated using pymatgen
data_Tb3ZnGaSi4
_symmetry_space_group_name_H-M   'P 1'
_cell_length_a   4.12131118
_cell_length_b   4.08599827
_cell_length_c   21.15894927
_cell_angle_alpha   84.51926343
_cell_angle_beta   95.55175945
_cell_angle_gamma   90.11982986
_symmetry_Int_Tables_number   1
_chemical_formula_structural   Tb3ZnGaSi4
_chemical_formula_sum   'Tb6 Zn2 Ga2 Si8'
_cell_volume   353.00788902
_cell_formula_units_Z   2
loop_
 _symmetry_equiv_pos_site_id
 _symmetry_equiv_pos_as_xyz
  1  'x, y, z'
loop_
 _atom_site_type_symbol
 _atom_site_label
 _atom_site_symmetry_multiplicity
 _atom_site_fract_x
 _atom_site_fract_y
 _atom_site_fract_z
 _atom_site_occupancy
  Tb  Tb0  1  0.374358  0.875297  0.248546  1
  Tb  Tb1  1  0.039945  0.209861  0.579821  1
  Tb  Tb2  1  0.705308  0.544160  0.910786  1
  Tb  Tb3  1  0.294001  0.456670  0.087593  1
  Tb  Tb4  1  0.960164  0.790417  0.419698  1
  Tb  Tb5  1  0.626258  0.124693  0.751702  1
  Zn  Zn6  1  0.903793  0.346395  0.307790  1
  Zn  Zn7  1  0.569853  0.680121  0.639737  1
  Ga  Ga8  1  0.235529  0.014545  0.970969  1
  Ga  Ga9  1  0.763809  0.985885  0.028085  1
  Si  Si10  1  0.430530  0.319165  0.361795  1
  Si  Si11  1  0.096442  0.653335  0.693517  1
  Si  Si12  1  0.846797  0.401847  0.196244  1
  Si  Si13  1  0.513220  0.735858  0.528061  1
  Si  Si14  1  0.178454  0.070717  0.858660  1
  Si  Si15  1  0.821593  0.929408  0.140714  1
  Si  Si16  1  0.487251  0.263740  0.472409  1
  Si  Si17  1  0.152699  0.597886  0.803874  1
