# generated using pymatgen
data_Nd6Mg3ZnPd12Rh
_symmetry_space_group_name_H-M   'P 1'
_cell_length_a   8.44319096
_cell_length_b   8.44319133
_cell_length_c   8.44319087
_cell_angle_alpha   109.43308635
_cell_angle_beta   109.43308372
_cell_angle_gamma   109.43309589
_symmetry_Int_Tables_number   1
_chemical_formula_structural   Nd6Mg3ZnPd12Rh
_chemical_formula_sum   'Nd6 Mg3 Zn1 Pd12 Rh1'
_cell_volume   463.99102953
_cell_formula_units_Z   1
loop_
 _symmetry_equiv_pos_site_id
 _symmetry_equiv_pos_as_xyz
  1  'x, y, z'
loop_
 _atom_site_type_symbol
 _atom_site_label
 _atom_site_symmetry_multiplicity
 _atom_site_fract_x
 _atom_site_fract_y
 _atom_site_fract_z
 _atom_site_occupancy
  Nd  Nd0  1  0.699211  0.699211  0.994644  1
  Nd  Nd1  1  0.300789  0.005356  0.300789  1
  Nd  Nd2  1  0.005356  0.300789  0.300789  1
  Nd  Nd3  1  0.300789  0.300789  0.005356  1
  Nd  Nd4  1  0.699211  0.994644  0.699211  1
  Nd  Nd5  1  0.994644  0.699211  0.699211  1
  Mg  Mg6  1  0.000000  0.000000  0.500000  1
  Mg  Mg7  1  0.000000  0.500000  0.000000  1
  Mg  Mg8  1  0.500000  0.000000  0.000000  1
  Zn  Zn9  1  0.500000  0.500000  0.500000  1
  Pd  Pd10  1  0.336271  0.336271  0.671254  1
  Pd  Pd11  1  0.663691  0.000000  0.336309  1
  Pd  Pd12  1  0.000000  0.663691  0.336309  1
  Pd  Pd13  1  0.663691  0.336309  0.000000  1
  Pd  Pd14  1  0.336271  0.671254  0.336271  1
  Pd  Pd15  1  0.000000  0.336309  0.663691  1
  Pd  Pd16  1  0.336309  0.663691  0.000000  1
  Pd  Pd17  1  0.336309  0.000000  0.663691  1
  Pd  Pd18  1  0.671254  0.336271  0.336271  1
  Pd  Pd19  1  0.663729  0.663729  0.328746  1
  Pd  Pd20  1  0.663729  0.328746  0.663729  1
  Pd  Pd21  1  0.328746  0.663729  0.663729  1
  Rh  Rh22  1  0.000000  0.000000  0.000000  1
