# generated using pymatgen
data_Ta2Nb14Co3Cu5N4
_symmetry_space_group_name_H-M   'P 1'
_cell_length_a   8.28123656
_cell_length_b   8.27373778
_cell_length_c   8.27156200
_cell_angle_alpha   60.00869872
_cell_angle_beta   60.03863790
_cell_angle_gamma   60.05239695
_symmetry_Int_Tables_number   1
_chemical_formula_structural   Ta2Nb14Co3Cu5N4
_chemical_formula_sum   'Ta2 Nb14 Co3 Cu5 N4'
_cell_volume   401.04812887
_cell_formula_units_Z   1
loop_
 _symmetry_equiv_pos_site_id
 _symmetry_equiv_pos_as_xyz
  1  'x, y, z'
loop_
 _atom_site_type_symbol
 _atom_site_label
 _atom_site_symmetry_multiplicity
 _atom_site_fract_x
 _atom_site_fract_y
 _atom_site_fract_z
 _atom_site_occupancy
  Ta  Ta0  1  0.111818  0.629578  0.629302  1
  Ta  Ta1  1  0.633969  0.118886  0.623572  1
  Nb  Nb2  1  0.634498  0.623380  0.119018  1
  Nb  Nb3  1  0.634498  0.623380  0.623104  1
  Nb  Nb4  1  0.819330  0.817125  0.181773  1
  Nb  Nb5  1  0.180450  0.185602  0.816974  1
  Nb  Nb6  1  0.818947  0.181899  0.816991  1
  Nb  Nb7  1  0.179916  0.817361  0.185268  1
  Nb  Nb8  1  0.179916  0.817361  0.817456  1
  Nb  Nb9  1  0.818947  0.181899  0.182164  1
  Nb  Nb10  1  0.435826  0.435045  0.064564  1
  Nb  Nb11  1  0.067304  0.064704  0.433996  1
  Nb  Nb12  1  0.436033  0.064682  0.435100  1
  Nb  Nb13  1  0.067966  0.433790  0.064553  1
  Nb  Nb14  1  0.067966  0.433790  0.433691  1
  Nb  Nb15  1  0.436033  0.064682  0.064184  1
  Co  Co16  1  0.823976  0.516960  0.829532  1
  Co  Co17  1  0.824126  0.829438  0.516879  1
  Co  Co18  1  0.824126  0.829438  0.829555  1
  Cu  Cu19  1  0.752207  0.414948  0.416423  1
  Cu  Cu20  1  0.416272  0.746354  0.418687  1
  Cu  Cu21  1  0.417125  0.418154  0.745628  1
  Cu  Cu22  1  0.417125  0.418154  0.419092  1
  Cu  Cu23  1  0.497478  0.834694  0.833914  1
  N  N24  1  0.623292  0.125591  0.125559  1
  N  N25  1  0.127029  0.621933  0.125518  1
  N  N26  1  0.126911  0.125586  0.621979  1
  N  N27  1  0.126911  0.125586  0.125522  1
