# generated using pymatgen
data_Tb4PrSm(RuBr3)2
_symmetry_space_group_name_H-M   'P 1'
_cell_length_a   4.17028300
_cell_length_b   8.65325327
_cell_length_c   12.05512377
_cell_angle_alpha   86.24590722
_cell_angle_beta   90.00000000
_cell_angle_gamma   90.00000000
_symmetry_Int_Tables_number   1
_chemical_formula_structural   Tb4PrSm(RuBr3)2
_chemical_formula_sum   'Tb4 Pr1 Sm1 Ru2 Br6'
_cell_volume   434.09394435
_cell_formula_units_Z   1
loop_
 _symmetry_equiv_pos_site_id
 _symmetry_equiv_pos_as_xyz
  1  'x, y, z'
loop_
 _atom_site_type_symbol
 _atom_site_label
 _atom_site_symmetry_multiplicity
 _atom_site_fract_x
 _atom_site_fract_y
 _atom_site_fract_z
 _atom_site_occupancy
  Tb  Tb0  1  0.750000  0.717260  0.605889  1
  Tb  Tb1  1  0.250000  0.870760  0.370384  1
  Tb  Tb2  1  0.750000  0.125639  0.630290  1
  Tb  Tb3  1  0.250000  0.883873  0.823731  1
  Pr  Pr4  1  0.750000  0.114703  0.168179  1
  Sm  Sm5  1  0.250000  0.285819  0.398002  1
  Ru  Ru6  1  0.250000  0.932367  0.597448  1
  Ru  Ru7  1  0.750000  0.064783  0.403026  1
  Br  Br8  1  0.250000  0.422339  0.633866  1
  Br  Br9  1  0.750000  0.581742  0.374626  1
  Br  Br10  1  0.250000  0.871290  0.105023  1
  Br  Br11  1  0.750000  0.113725  0.887065  1
  Br  Br12  1  0.250000  0.365215  0.143314  1
  Br  Br13  1  0.750000  0.650486  0.859159  1
