# generated using pymatgen
data_Lu4SiAs5Ir7
_symmetry_space_group_name_H-M   'P 1'
_cell_length_a   7.24698683
_cell_length_b   7.24698551
_cell_length_c   7.24698751
_cell_angle_alpha   106.14167639
_cell_angle_beta   111.16120526
_cell_angle_gamma   111.16120583
_symmetry_Int_Tables_number   1
_chemical_formula_structural   Lu4SiAs5Ir7
_chemical_formula_sum   'Lu4 Si1 As5 Ir7'
_cell_volume   292.25193676
_cell_formula_units_Z   1
loop_
 _symmetry_equiv_pos_site_id
 _symmetry_equiv_pos_as_xyz
  1  'x, y, z'
loop_
 _atom_site_type_symbol
 _atom_site_label
 _atom_site_symmetry_multiplicity
 _atom_site_fract_x
 _atom_site_fract_y
 _atom_site_fract_z
 _atom_site_occupancy
  Lu  Lu0  1  0.000000  0.001216  0.510916  1
  Lu  Lu1  1  0.000000  0.510916  0.001216  1
  Lu  Lu2  1  0.490301  0.001216  0.001216  1
  Lu  Lu3  1  0.509699  0.510916  0.510916  1
  Si  Si4  1  0.000000  0.663413  0.663413  1
  As  As5  1  0.687283  0.688247  0.000964  1
  As  As6  1  0.312717  0.000964  0.313681  1
  As  As7  1  0.000000  0.328381  0.328381  1
  As  As8  1  0.312717  0.313681  0.000964  1
  As  As9  1  0.687283  0.000964  0.688247  1
  Ir  Ir10  1  0.747825  0.256392  0.508567  1
  Ir  Ir11  1  0.747825  0.508567  0.256392  1
  Ir  Ir12  1  0.500000  0.254433  0.754433  1
  Ir  Ir13  1  0.252175  0.508567  0.760741  1
  Ir  Ir14  1  0.252175  0.760741  0.508567  1
  Ir  Ir15  1  0.500000  0.754433  0.254433  1
  Ir  Ir16  1  0.000000  0.936950  0.936950  1
