# generated using pymatgen
data_Cd9Ni2
_symmetry_space_group_name_H-M   'P 1'
_cell_length_a   8.56605690
_cell_length_b   8.56605750
_cell_length_c   8.56605700
_cell_angle_alpha   109.47121708
_cell_angle_beta   109.47121851
_cell_angle_gamma   109.47122133
_symmetry_Int_Tables_number   1
_chemical_formula_structural   Cd9Ni2
_chemical_formula_sum   'Cd18 Ni4'
_cell_volume   483.86146497
_cell_formula_units_Z   2
loop_
 _symmetry_equiv_pos_site_id
 _symmetry_equiv_pos_as_xyz
  1  'x, y, z'
loop_
 _atom_site_type_symbol
 _atom_site_label
 _atom_site_symmetry_multiplicity
 _atom_site_fract_x
 _atom_site_fract_y
 _atom_site_fract_z
 _atom_site_occupancy
  Cd  Cd0  1  0.657302  0.254712  0.000000  1
  Cd  Cd1  1  0.234403  0.234403  0.000000  1
  Cd  Cd2  1  0.254712  0.657302  0.000000  1
  Cd  Cd3  1  0.765596  0.765596  0.000000  1
  Cd  Cd4  1  0.657302  0.000000  0.254712  1
  Cd  Cd5  1  0.000000  0.657302  0.254712  1
  Cd  Cd6  1  0.234403  0.000000  0.234403  1
  Cd  Cd7  1  0.000000  0.234403  0.234403  1
  Cd  Cd8  1  0.597410  0.342698  0.342698  1
  Cd  Cd9  1  0.342698  0.597410  0.342698  1
  Cd  Cd10  1  0.745288  0.745288  0.402590  1
  Cd  Cd11  1  0.342698  0.342698  0.597410  1
  Cd  Cd12  1  0.254712  0.000000  0.657302  1
  Cd  Cd13  1  0.000000  0.254712  0.657302  1
  Cd  Cd14  1  0.765596  0.000000  0.765596  1
  Cd  Cd15  1  0.000000  0.765596  0.765596  1
  Cd  Cd16  1  0.745288  0.402590  0.745288  1
  Cd  Cd17  1  0.402590  0.745288  0.745288  1
  Ni  Ni18  1  0.374921  0.000000  0.000000  1
  Ni  Ni19  1  0.000000  0.374921  0.000000  1
  Ni  Ni20  1  0.000000  0.000000  0.374921  1
  Ni  Ni21  1  0.625079  0.625079  0.625079  1
