# generated using pymatgen
data_CeYLu2(Ga3Ir)6
_symmetry_space_group_name_H-M   'P 1'
_cell_length_a   7.54759400
_cell_length_b   7.54340828
_cell_length_c   9.42593400
_cell_angle_alpha   90.00000000
_cell_angle_beta   90.00000000
_cell_angle_gamma   119.46245560
_symmetry_Int_Tables_number   1
_chemical_formula_structural   CeYLu2(Ga3Ir)6
_chemical_formula_sum   'Ce1 Y1 Lu2 Ga18 Ir6'
_cell_volume   467.25956519
_cell_formula_units_Z   1
loop_
 _symmetry_equiv_pos_site_id
 _symmetry_equiv_pos_as_xyz
  1  'x, y, z'
loop_
 _atom_site_type_symbol
 _atom_site_label
 _atom_site_symmetry_multiplicity
 _atom_site_fract_x
 _atom_site_fract_y
 _atom_site_fract_z
 _atom_site_occupancy
  Ce  Ce0  1  0.997294  0.671385  0.750000  1
  Y  Y1  1  0.327456  0.000272  0.250000  1
  Lu  Lu2  1  0.002272  0.329354  0.250000  1
  Lu  Lu3  1  0.674726  0.998269  0.750000  1
  Ga  Ga4  1  0.132674  0.133062  0.750000  1
  Ga  Ga5  1  0.871014  0.873070  0.250000  1
  Ga  Ga6  1  0.999088  0.332774  0.580129  1
  Ga  Ga7  1  0.999199  0.662501  0.415446  1
  Ga  Ga8  1  0.999199  0.662501  0.084554  1
  Ga  Ga9  1  0.340057  0.002376  0.918567  1
  Ga  Ga10  1  0.999088  0.332774  0.919871  1
  Ga  Ga11  1  0.665583  0.001477  0.081727  1
  Ga  Ga12  1  0.665583  0.001477  0.418273  1
  Ga  Ga13  1  0.340057  0.002376  0.581433  1
  Ga  Ga14  1  0.329883  0.330799  0.066599  1
  Ga  Ga15  1  0.665062  0.668549  0.937233  1
  Ga  Ga16  1  0.665062  0.668549  0.562767  1
  Ga  Ga17  1  0.329883  0.330799  0.433401  1
  Ga  Ga18  1  0.342480  0.549061  0.750000  1
  Ga  Ga19  1  0.659410  0.451046  0.250000  1
  Ga  Ga20  1  0.546454  0.340545  0.750000  1
  Ga  Ga21  1  0.451191  0.659139  0.250000  1
  Ir  Ir22  1  0.672093  0.328860  0.500194  1
  Ir  Ir23  1  0.326970  0.671106  0.500165  1
  Ir  Ir24  1  0.326970  0.671106  0.999835  1
  Ir  Ir25  1  0.672093  0.328860  0.999806  1
  Ir  Ir26  1  0.999583  0.998954  0.501043  1
  Ir  Ir27  1  0.999583  0.998954  0.998957  1
