# generated using pymatgen
data_Sr3Li4PrSi7Ge
_symmetry_space_group_name_H-M   'P 1'
_cell_length_a   4.36126400
_cell_length_b   7.03584187
_cell_length_c   11.30893227
_cell_angle_alpha   89.79680503
_cell_angle_beta   90.00000000
_cell_angle_gamma   90.00000000
_symmetry_Int_Tables_number   1
_chemical_formula_structural   Sr3Li4PrSi7Ge
_chemical_formula_sum   'Sr3 Li4 Pr1 Si7 Ge1'
_cell_volume   347.01425743
_cell_formula_units_Z   1
loop_
 _symmetry_equiv_pos_site_id
 _symmetry_equiv_pos_as_xyz
  1  'x, y, z'
loop_
 _atom_site_type_symbol
 _atom_site_label
 _atom_site_symmetry_multiplicity
 _atom_site_fract_x
 _atom_site_fract_y
 _atom_site_fract_z
 _atom_site_occupancy
  Sr  Sr0  1  0.250000  0.136254  0.141509  1
  Sr  Sr1  1  0.250000  0.636138  0.358410  1
  Sr  Sr2  1  0.750000  0.362215  0.642176  1
  Li  Li3  1  0.250000  0.125037  0.439420  1
  Li  Li4  1  0.750000  0.876937  0.558954  1
  Li  Li5  1  0.250000  0.627937  0.059861  1
  Li  Li6  1  0.750000  0.379562  0.941018  1
  Pr  Pr7  1  0.750000  0.858832  0.851868  1
  Si  Si8  1  0.750000  0.468665  0.163987  1
  Si  Si9  1  0.250000  0.540336  0.839908  1
  Si  Si10  1  0.750000  0.968265  0.331761  1
  Si  Si11  1  0.250000  0.030163  0.664964  1
  Si  Si12  1  0.750000  0.302773  0.349303  1
  Si  Si13  1  0.250000  0.696520  0.653532  1
  Si  Si14  1  0.750000  0.803274  0.145240  1
  Ge  Ge15  1  0.250000  0.187091  0.858088  1
