# generated using pymatgen
data_Cs4Li2DyInBi4
_symmetry_space_group_name_H-M   'P 1'
_cell_length_a   10.53088526
_cell_length_b   10.53088376
_cell_length_c   10.53088313
_cell_angle_alpha   138.81320720
_cell_angle_beta   59.31409197
_cell_angle_gamma   139.26753149
_symmetry_Int_Tables_number   1
_chemical_formula_structural   Cs4Li2DyInBi4
_chemical_formula_sum   'Cs4 Li2 Dy1 In1 Bi4'
_cell_volume   496.92792804
_cell_formula_units_Z   1
loop_
 _symmetry_equiv_pos_site_id
 _symmetry_equiv_pos_as_xyz
  1  'x, y, z'
loop_
 _atom_site_type_symbol
 _atom_site_label
 _atom_site_symmetry_multiplicity
 _atom_site_fract_x
 _atom_site_fract_y
 _atom_site_fract_z
 _atom_site_occupancy
  Cs  Cs0  1  0.334897  0.774250  0.096955  1
  Cs  Cs1  1  0.165103  0.262058  0.439353  1
  Cs  Cs2  1  0.822706  0.725752  0.560647  1
  Cs  Cs3  1  0.677294  0.237943  0.903045  1
  Li  Li4  1  0.750000  0.250000  0.500000  1
  Li  Li5  1  0.250000  0.750001  0.500001  1
  Dy  Dy6  1  0.250000  0.250000  0.000000  1
  In  In7  1  0.749999  0.749999  0.000000  1
  Bi  Bi8  1  0.905785  0.243001  0.156467  1
  Bi  Bi9  1  0.594215  0.750683  0.337216  1
  Bi  Bi10  1  0.413467  0.257000  0.662785  1
  Bi  Bi11  1  0.086533  0.749318  0.843533  1
