# generated using pymatgen
data_YCo2O5
_symmetry_space_group_name_H-M   'P 1'
_cell_length_a   5.69056100
_cell_length_b   7.26917800
_cell_length_c   8.35852500
_cell_angle_alpha   90.00000000
_cell_angle_beta   90.00000000
_cell_angle_gamma   90.00000000
_symmetry_Int_Tables_number   1
_chemical_formula_structural   YCo2O5
_chemical_formula_sum   'Y4 Co8 O20'
_cell_volume   345.75624452
_cell_formula_units_Z   4
loop_
 _symmetry_equiv_pos_site_id
 _symmetry_equiv_pos_as_xyz
  1  'x, y, z'
loop_
 _atom_site_type_symbol
 _atom_site_label
 _atom_site_symmetry_multiplicity
 _atom_site_fract_x
 _atom_site_fract_y
 _atom_site_fract_z
 _atom_site_occupancy
  Y  Y0  1  0.500000  0.361266  0.328291  1
  Y  Y1  1  0.500000  0.638734  0.671709  1
  Y  Y2  1  0.500000  0.138734  0.828291  1
  Y  Y3  1  0.500000  0.861266  0.171709  1
  Co  Co4  1  0.244244  0.000000  0.500000  1
  Co  Co5  1  0.755756  0.000000  0.500000  1
  Co  Co6  1  0.755756  0.500000  0.000000  1
  Co  Co7  1  0.244244  0.500000  0.000000  1
  Co  Co8  1  0.000000  0.092779  0.150872  1
  Co  Co9  1  0.000000  0.907221  0.849128  1
  Co  Co10  1  0.000000  0.407221  0.650872  1
  Co  Co11  1  0.000000  0.592779  0.349128  1
  O  O12  1  0.224623  0.000000  0.000000  1
  O  O13  1  0.775377  0.000000  0.000000  1
  O  O14  1  0.775377  0.500000  0.500000  1
  O  O15  1  0.224623  0.500000  0.500000  1
  O  O16  1  0.000000  0.348809  0.068860  1
  O  O17  1  0.000000  0.651191  0.931140  1
  O  O18  1  0.000000  0.151191  0.568860  1
  O  O19  1  0.000000  0.848809  0.431140  1
  O  O20  1  0.255804  0.103684  0.293205  1
  O  O21  1  0.744196  0.896316  0.706795  1
  O  O22  1  0.255804  0.896316  0.706795  1
  O  O23  1  0.744196  0.396316  0.793205  1
  O  O24  1  0.744196  0.103684  0.293205  1
  O  O25  1  0.255804  0.603684  0.206795  1
  O  O26  1  0.744196  0.603684  0.206795  1
  O  O27  1  0.255804  0.396316  0.793205  1
  O  O28  1  0.500000  0.338460  0.054303  1
  O  O29  1  0.500000  0.661540  0.945697  1
  O  O30  1  0.500000  0.161540  0.554303  1
  O  O31  1  0.500000  0.838460  0.445697  1
