# generated using pymatgen
data_YTm7(Sc3Ga4)4
_symmetry_space_group_name_H-M   'P 1'
_cell_length_a   7.23133410
_cell_length_b   7.56694728
_cell_length_c   14.32023358
_cell_angle_alpha   90.02883278
_cell_angle_beta   90.01442323
_cell_angle_gamma   90.01242144
_symmetry_Int_Tables_number   1
_chemical_formula_structural   YTm7(Sc3Ga4)4
_chemical_formula_sum   'Y1 Tm7 Sc12 Ga16'
_cell_volume   783.59049272
_cell_formula_units_Z   1
loop_
 _symmetry_equiv_pos_site_id
 _symmetry_equiv_pos_as_xyz
  1  'x, y, z'
loop_
 _atom_site_type_symbol
 _atom_site_label
 _atom_site_symmetry_multiplicity
 _atom_site_fract_x
 _atom_site_fract_y
 _atom_site_fract_z
 _atom_site_occupancy
  Y  Y0  1  0.009992  0.178266  0.092507  1
  Tm  Tm1  1  0.990247  0.820216  0.906274  1
  Tm  Tm2  1  0.490514  0.679456  0.906798  1
  Tm  Tm3  1  0.990101  0.820498  0.592898  1
  Tm  Tm4  1  0.509791  0.321213  0.092934  1
  Tm  Tm5  1  0.009729  0.179434  0.406971  1
  Tm  Tm6  1  0.509624  0.320711  0.407462  1
  Tm  Tm7  1  0.490051  0.679496  0.592836  1
  Sc  Sc8  1  0.161607  0.504418  0.749916  1
  Sc  Sc9  1  0.838121  0.496314  0.250392  1
  Sc  Sc10  1  0.338746  0.003556  0.250420  1
  Sc  Sc11  1  0.661176  0.995748  0.749916  1
  Sc  Sc12  1  0.329262  0.172509  0.625332  1
  Sc  Sc13  1  0.670622  0.827183  0.374940  1
  Sc  Sc14  1  0.170959  0.672491  0.374972  1
  Sc  Sc15  1  0.670036  0.826678  0.125556  1
  Sc  Sc16  1  0.829433  0.327355  0.625377  1
  Sc  Sc17  1  0.329645  0.172752  0.874673  1
  Sc  Sc18  1  0.828816  0.327850  0.874286  1
  Sc  Sc19  1  0.170739  0.672646  0.125297  1
  Ga  Ga20  1  0.030657  0.115447  0.750060  1
  Ga  Ga21  1  0.969032  0.883861  0.250361  1
  Ga  Ga22  1  0.469342  0.615592  0.250134  1
  Ga  Ga23  1  0.530677  0.384834  0.749952  1
  Ga  Ga24  1  0.282425  0.869426  0.749897  1
  Ga  Ga25  1  0.716651  0.130299  0.250566  1
  Ga  Ga26  1  0.218311  0.369853  0.250514  1
  Ga  Ga27  1  0.782279  0.630749  0.749900  1
  Ga  Ga28  1  0.164741  0.465916  0.539886  1
  Ga  Ga29  1  0.835219  0.533949  0.460273  1
  Ga  Ga30  1  0.335195  0.965989  0.460143  1
  Ga  Ga31  1  0.834957  0.535375  0.039415  1
  Ga  Ga32  1  0.664784  0.034053  0.539909  1
  Ga  Ga33  1  0.164731  0.467120  0.959618  1
  Ga  Ga34  1  0.664494  0.033967  0.959935  1
  Ga  Ga35  1  0.337295  0.964780  0.039680  1
