# generated using pymatgen
data_Ho8Tm2In8RuPt3
_symmetry_space_group_name_H-M   'P 1'
_cell_length_a   3.62119300
_cell_length_b   8.10027448
_cell_length_c   18.16937892
_cell_angle_alpha   90.01638847
_cell_angle_beta   90.00000000
_cell_angle_gamma   90.00000000
_symmetry_Int_Tables_number   1
_chemical_formula_structural   Ho8Tm2In8RuPt3
_chemical_formula_sum   'Ho8 Tm2 In8 Ru1 Pt3'
_cell_volume   532.95614217
_cell_formula_units_Z   1
loop_
 _symmetry_equiv_pos_site_id
 _symmetry_equiv_pos_as_xyz
  1  'x, y, z'
loop_
 _atom_site_type_symbol
 _atom_site_label
 _atom_site_symmetry_multiplicity
 _atom_site_fract_x
 _atom_site_fract_y
 _atom_site_fract_z
 _atom_site_occupancy
  Ho  Ho0  1  0.000000  0.383805  0.914666  1
  Ho  Ho1  1  0.000000  0.618354  0.086986  1
  Ho  Ho2  1  0.000000  0.233312  0.222934  1
  Ho  Ho3  1  0.000000  0.757462  0.778674  1
  Ho  Ho4  1  0.000000  0.257064  0.721283  1
  Ho  Ho5  1  0.000000  0.750811  0.278703  1
  Ho  Ho6  1  0.000000  0.999688  0.000477  1
  Ho  Ho7  1  0.000000  0.500777  0.499208  1
  Tm  Tm8  1  0.000000  0.115493  0.411634  1
  Tm  Tm9  1  0.000000  0.884277  0.585694  1
  In  In10  1  0.500000  0.422308  0.351372  1
  In  In11  1  0.500000  0.575813  0.647560  1
  In  In12  1  0.500000  0.074647  0.851964  1
  In  In13  1  0.500000  0.931003  0.149933  1
  In  In14  1  0.500000  0.292418  0.066605  1
  In  In15  1  0.500000  0.708466  0.933601  1
  In  In16  1  0.500000  0.207873  0.566372  1
  In  In17  1  0.500000  0.795675  0.431388  1
  Ru  Ru18  1  0.500000  0.018870  0.304914  1
  Pt  Pt19  1  0.500000  0.976154  0.695462  1
  Pt  Pt20  1  0.500000  0.477225  0.803935  1
  Pt  Pt21  1  0.500000  0.518505  0.196633  1
