# generated using pymatgen
data_Tm10OsRu3
_symmetry_space_group_name_H-M   'P 1'
_cell_length_a   6.24083169
_cell_length_b   7.24957008
_cell_length_c   8.31909682
_cell_angle_alpha   96.85843256
_cell_angle_beta   112.09400054
_cell_angle_gamma   90.06208651
_symmetry_Int_Tables_number   1
_chemical_formula_structural   Tm10OsRu3
_chemical_formula_sum   'Tm10 Os1 Ru3'
_cell_volume   345.81650684
_cell_formula_units_Z   1
loop_
 _symmetry_equiv_pos_site_id
 _symmetry_equiv_pos_as_xyz
  1  'x, y, z'
loop_
 _atom_site_type_symbol
 _atom_site_label
 _atom_site_symmetry_multiplicity
 _atom_site_fract_x
 _atom_site_fract_y
 _atom_site_fract_z
 _atom_site_occupancy
  Tm  Tm0  1  0.792047  0.083303  0.813907  1
  Tm  Tm1  1  0.975978  0.415600  0.183798  1
  Tm  Tm2  1  0.207835  0.915529  0.185860  1
  Tm  Tm3  1  0.023720  0.584361  0.814313  1
  Tm  Tm4  1  0.206151  0.184444  0.565522  1
  Tm  Tm5  1  0.640270  0.316742  0.436349  1
  Tm  Tm6  1  0.794686  0.815896  0.434759  1
  Tm  Tm7  1  0.358778  0.683910  0.564517  1
  Tm  Tm8  1  0.419365  0.250000  0.999421  1
  Tm  Tm9  1  0.580896  0.750259  0.000045  1
  Os  Os10  1  0.602582  0.423237  0.780777  1
  Ru  Ru11  1  0.823641  0.076678  0.220676  1
  Ru  Ru12  1  0.397125  0.576864  0.220178  1
  Ru  Ru13  1  0.176926  0.923176  0.779879  1
