# generated using pymatgen
data_Rb3Cd16
_symmetry_space_group_name_H-M   'P 1'
_cell_length_a   9.49765700
_cell_length_b   9.49765700
_cell_length_c   11.74738500
_cell_angle_alpha   90.00000000
_cell_angle_beta   90.00000000
_cell_angle_gamma   90.00000000
_symmetry_Int_Tables_number   1
_chemical_formula_structural   Rb3Cd16
_chemical_formula_sum   'Rb6 Cd32'
_cell_volume   1059.67860240
_cell_formula_units_Z   2
loop_
 _symmetry_equiv_pos_site_id
 _symmetry_equiv_pos_as_xyz
  1  'x, y, z'
loop_
 _atom_site_type_symbol
 _atom_site_label
 _atom_site_symmetry_multiplicity
 _atom_site_fract_x
 _atom_site_fract_y
 _atom_site_fract_z
 _atom_site_occupancy
  Rb  Rb0  1  0.500000  0.500000  0.500000  1
  Rb  Rb1  1  0.000000  0.000000  0.000000  1
  Rb  Rb2  1  0.500000  0.500000  0.163390  1
  Rb  Rb3  1  0.500000  0.500000  0.836610  1
  Rb  Rb4  1  0.000000  0.000000  0.336610  1
  Rb  Rb5  1  0.000000  0.000000  0.663390  1
  Cd  Cd6  1  0.153454  0.361685  0.687439  1
  Cd  Cd7  1  0.846546  0.638315  0.687439  1
  Cd  Cd8  1  0.846546  0.361685  0.312561  1
  Cd  Cd9  1  0.153454  0.638315  0.312561  1
  Cd  Cd10  1  0.346546  0.138315  0.812561  1
  Cd  Cd11  1  0.653454  0.861685  0.812561  1
  Cd  Cd12  1  0.653454  0.138315  0.187439  1
  Cd  Cd13  1  0.346546  0.861685  0.187439  1
  Cd  Cd14  1  0.361685  0.153454  0.312561  1
  Cd  Cd15  1  0.638315  0.846546  0.312561  1
  Cd  Cd16  1  0.361685  0.846546  0.687439  1
  Cd  Cd17  1  0.638315  0.153454  0.687439  1
  Cd  Cd18  1  0.138315  0.346546  0.187439  1
  Cd  Cd19  1  0.861685  0.653454  0.187439  1
  Cd  Cd20  1  0.138315  0.653454  0.812561  1
  Cd  Cd21  1  0.861685  0.346546  0.812561  1
  Cd  Cd22  1  0.647434  0.856988  0.562459  1
  Cd  Cd23  1  0.352566  0.143012  0.562459  1
  Cd  Cd24  1  0.352566  0.856988  0.437541  1
  Cd  Cd25  1  0.647434  0.143012  0.437541  1
  Cd  Cd26  1  0.852566  0.643012  0.937541  1
  Cd  Cd27  1  0.147434  0.356988  0.937541  1
  Cd  Cd28  1  0.147434  0.643012  0.062459  1
  Cd  Cd29  1  0.852566  0.356988  0.062459  1
  Cd  Cd30  1  0.856988  0.647434  0.437541  1
  Cd  Cd31  1  0.143012  0.352566  0.437541  1
  Cd  Cd32  1  0.856988  0.352566  0.562459  1
  Cd  Cd33  1  0.143012  0.647434  0.562459  1
  Cd  Cd34  1  0.643012  0.852566  0.062459  1
  Cd  Cd35  1  0.356988  0.147434  0.062459  1
  Cd  Cd36  1  0.643012  0.147434  0.937541  1
  Cd  Cd37  1  0.356988  0.852566  0.937541  1
