# generated using pymatgen
data_Gd12TlNi6
_symmetry_space_group_name_H-M   'P 1'
_cell_length_a   8.48115420
_cell_length_b   8.48115482
_cell_length_c   8.48115400
_cell_angle_alpha   109.47121629
_cell_angle_beta   109.47121778
_cell_angle_gamma   109.47122538
_symmetry_Int_Tables_number   1
_chemical_formula_structural   Gd12TlNi6
_chemical_formula_sum   'Gd12 Tl1 Ni6'
_cell_volume   469.61614793
_cell_formula_units_Z   1
loop_
 _symmetry_equiv_pos_site_id
 _symmetry_equiv_pos_as_xyz
  1  'x, y, z'
loop_
 _atom_site_type_symbol
 _atom_site_label
 _atom_site_symmetry_multiplicity
 _atom_site_fract_x
 _atom_site_fract_y
 _atom_site_fract_z
 _atom_site_occupancy
  Gd  Gd0  1  0.812437  0.696189  0.508628  1
  Gd  Gd1  1  0.187563  0.303811  0.491372  1
  Gd  Gd2  1  0.187563  0.696189  0.883752  1
  Gd  Gd3  1  0.812437  0.303811  0.116248  1
  Gd  Gd4  1  0.696189  0.508628  0.812437  1
  Gd  Gd5  1  0.303811  0.491372  0.187563  1
  Gd  Gd6  1  0.696189  0.883752  0.187563  1
  Gd  Gd7  1  0.303811  0.116248  0.812437  1
  Gd  Gd8  1  0.508628  0.812437  0.696189  1
  Gd  Gd9  1  0.491372  0.187563  0.303811  1
  Gd  Gd10  1  0.116248  0.812437  0.303811  1
  Gd  Gd11  1  0.883752  0.187563  0.696189  1
  Tl  Tl12  1  0.000000  0.000000  0.000000  1
  Ni  Ni13  1  0.876412  0.376412  0.500000  1
  Ni  Ni14  1  0.123588  0.623588  0.500000  1
  Ni  Ni15  1  0.376412  0.500000  0.876412  1
  Ni  Ni16  1  0.623588  0.500000  0.123588  1
  Ni  Ni17  1  0.500000  0.876412  0.376412  1
  Ni  Ni18  1  0.500000  0.123588  0.623588  1
