# generated using pymatgen
data_Gd8Ho4Ru7
_symmetry_space_group_name_H-M   'P 1'
_cell_length_a   11.33475500
_cell_length_b   8.40406782
_cell_length_c   11.26472100
_cell_angle_alpha   56.38981793
_cell_angle_beta   90.00000000
_cell_angle_gamma   90.00000000
_symmetry_Int_Tables_number   1
_chemical_formula_structural   Gd8Ho4Ru7
_chemical_formula_sum   'Gd16 Ho8 Ru14'
_cell_volume   893.66505418
_cell_formula_units_Z   2
loop_
 _symmetry_equiv_pos_site_id
 _symmetry_equiv_pos_as_xyz
  1  'x, y, z'
loop_
 _atom_site_type_symbol
 _atom_site_label
 _atom_site_symmetry_multiplicity
 _atom_site_fract_x
 _atom_site_fract_y
 _atom_site_fract_z
 _atom_site_occupancy
  Gd  Gd0  1  0.705566  0.241344  0.532637  1
  Gd  Gd1  1  0.205566  0.758656  0.967363  1
  Gd  Gd2  1  0.843714  0.507856  0.655921  1
  Gd  Gd3  1  0.343714  0.492144  0.844079  1
  Gd  Gd4  1  0.156286  0.492144  0.344079  1
  Gd  Gd5  1  0.656286  0.507856  0.155921  1
  Gd  Gd6  1  0.005941  0.854893  0.359971  1
  Gd  Gd7  1  0.505941  0.145107  0.140029  1
  Gd  Gd8  1  0.994059  0.145107  0.640029  1
  Gd  Gd9  1  0.494059  0.854893  0.859971  1
  Gd  Gd10  1  0.794434  0.241344  0.032637  1
  Gd  Gd11  1  0.294434  0.758656  0.467363  1
  Gd  Gd12  1  0.930215  0.777034  0.089359  1
  Gd  Gd13  1  0.430215  0.222966  0.410641  1
  Gd  Gd14  1  0.069785  0.222966  0.910641  1
  Gd  Gd15  1  0.569785  0.777034  0.589359  1
  Ho  Ho16  1  0.302284  0.242374  0.675660  1
  Ho  Ho17  1  0.802284  0.757626  0.824340  1
  Ho  Ho18  1  0.697716  0.757626  0.324340  1
  Ho  Ho19  1  0.197716  0.242374  0.175660  1
  Ho  Ho20  1  0.926104  0.280359  0.293966  1
  Ho  Ho21  1  0.426104  0.719641  0.206034  1
  Ho  Ho22  1  0.073896  0.719641  0.706034  1
  Ho  Ho23  1  0.573896  0.280359  0.793966  1
  Ru  Ru24  1  0.500000  0.500000  0.500000  1
  Ru  Ru25  1  0.000000  0.500000  0.000000  1
  Ru  Ru26  1  0.646357  0.923387  0.034750  1
  Ru  Ru27  1  0.146357  0.076613  0.465250  1
  Ru  Ru28  1  0.353643  0.076613  0.965250  1
  Ru  Ru29  1  0.853643  0.923387  0.534750  1
  Ru  Ru30  1  0.397172  0.484069  0.104027  1
  Ru  Ru31  1  0.897172  0.515931  0.395973  1
  Ru  Ru32  1  0.602828  0.515931  0.895973  1
  Ru  Ru33  1  0.102828  0.484069  0.604027  1
  Ru  Ru34  1  0.817225  0.096193  0.849098  1
  Ru  Ru35  1  0.317225  0.903807  0.650902  1
  Ru  Ru36  1  0.182775  0.903807  0.150902  1
  Ru  Ru37  1  0.682775  0.096193  0.349098  1
