# generated using pymatgen
data_Er12Tl2Fe3
_symmetry_space_group_name_H-M   'P 1'
_cell_length_a   8.28856608
_cell_length_b   8.28867599
_cell_length_c   8.28856624
_cell_angle_alpha   108.55507896
_cell_angle_beta   108.55658172
_cell_angle_gamma   111.31737747
_symmetry_Int_Tables_number   1
_chemical_formula_structural   Er12Tl2Fe3
_chemical_formula_sum   'Er12 Tl2 Fe3'
_cell_volume   438.01143537
_cell_formula_units_Z   1
loop_
 _symmetry_equiv_pos_site_id
 _symmetry_equiv_pos_as_xyz
  1  'x, y, z'
loop_
 _atom_site_type_symbol
 _atom_site_label
 _atom_site_symmetry_multiplicity
 _atom_site_fract_x
 _atom_site_fract_y
 _atom_site_fract_z
 _atom_site_occupancy
  Er  Er0  1  0.190705  0.427001  0.236296  1
  Er  Er1  1  0.809295  0.572999  0.763704  1
  Er  Er2  1  0.190695  0.954403  0.763707  1
  Er  Er3  1  0.954438  0.190704  0.763737  1
  Er  Er4  1  0.809305  0.045597  0.236293  1
  Er  Er5  1  0.045562  0.809296  0.236263  1
  Er  Er6  1  0.426968  0.190704  0.236265  1
  Er  Er7  1  0.573032  0.809296  0.763735  1
  Er  Er8  1  0.307521  0.307513  0.615038  1
  Er  Er9  1  0.692479  0.692487  0.384962  1
  Er  Er10  1  0.692475  0.307513  0.999993  1
  Er  Er11  1  0.307525  0.692487  0.000007  1
  Tl  Tl12  1  0.000000  0.500000  0.500000  1
  Tl  Tl13  1  0.500000  0.000000  0.500000  1
  Fe  Fe14  1  0.385683  0.385667  0.999983  1
  Fe  Fe15  1  0.614317  0.614333  0.000017  1
  Fe  Fe16  1  0.000000  0.000000  0.000000  1
