# generated using pymatgen
data_KCdGa5(HgSe4)3
_symmetry_space_group_name_H-M   'P 1'
_cell_length_a   9.05108817
_cell_length_b   9.10866184
_cell_length_c   9.37460329
_cell_angle_alpha   108.60400099
_cell_angle_beta   106.53859192
_cell_angle_gamma   108.18161453
_symmetry_Int_Tables_number   1
_chemical_formula_structural   KCdGa5(HgSe4)3
_chemical_formula_sum   'K1 Cd1 Ga5 Hg3 Se12'
_cell_volume   629.38392680
_cell_formula_units_Z   1
loop_
 _symmetry_equiv_pos_site_id
 _symmetry_equiv_pos_as_xyz
  1  'x, y, z'
loop_
 _atom_site_type_symbol
 _atom_site_label
 _atom_site_symmetry_multiplicity
 _atom_site_fract_x
 _atom_site_fract_y
 _atom_site_fract_z
 _atom_site_occupancy
  K  K0  1  0.999067  0.004668  0.007772  1
  Cd  Cd1  1  0.488472  0.340253  0.934855  1
  Ga  Ga2  1  0.187916  0.553758  0.025936  1
  Ga  Ga3  1  0.022707  0.186061  0.554106  1
  Ga  Ga4  1  0.562465  0.022662  0.193745  1
  Ga  Ga5  1  0.935338  0.469853  0.332000  1
  Ga  Ga6  1  0.319931  0.929666  0.468064  1
  Hg  Hg7  1  0.624111  0.705926  0.403211  1
  Hg  Hg8  1  0.409321  0.642345  0.717601  1
  Hg  Hg9  1  0.714836  0.403705  0.634901  1
  Se  Se10  1  0.880334  0.637617  0.548308  1
  Se  Se11  1  0.549205  0.892227  0.634431  1
  Se  Se12  1  0.664831  0.591506  0.881046  1
  Se  Se13  1  0.350274  0.425680  0.146563  1
  Se  Se14  1  0.146895  0.369365  0.437235  1
  Se  Se15  1  0.429239  0.139148  0.364881  1
  Se  Se16  1  0.065315  0.674057  0.221811  1
  Se  Se17  1  0.210957  0.063414  0.662300  1
  Se  Se18  1  0.698767  0.214036  0.082412  1
  Se  Se19  1  0.782646  0.936161  0.299131  1
  Se  Se20  1  0.297467  0.785410  0.950224  1
  Se  Se21  1  0.941107  0.293682  0.780668  1
