# generated using pymatgen
data_Y2Tm3Bi3C
_symmetry_space_group_name_H-M   'P 1'
_cell_length_a   9.12410801
_cell_length_b   9.12410963
_cell_length_c   6.43825500
_cell_angle_alpha   89.99994493
_cell_angle_beta   89.99994398
_cell_angle_gamma   119.99139296
_symmetry_Int_Tables_number   1
_chemical_formula_structural   Y2Tm3Bi3C
_chemical_formula_sum   'Y4 Tm6 Bi6 C2'
_cell_volume   464.21308510
_cell_formula_units_Z   2
loop_
 _symmetry_equiv_pos_site_id
 _symmetry_equiv_pos_as_xyz
  1  'x, y, z'
loop_
 _atom_site_type_symbol
 _atom_site_label
 _atom_site_symmetry_multiplicity
 _atom_site_fract_x
 _atom_site_fract_y
 _atom_site_fract_z
 _atom_site_occupancy
  Y  Y0  1  0.666648  0.333352  0.500002  1
  Y  Y1  1  0.333352  0.666648  0.500002  1
  Y  Y2  1  0.333353  0.666646  0.000004  1
  Y  Y3  1  0.666646  0.333353  0.000004  1
  Tm  Tm4  1  0.795943  0.795943  0.250003  1
  Tm  Tm5  1  0.204005  0.999927  0.249997  1
  Tm  Tm6  1  0.999927  0.204005  0.249997  1
  Tm  Tm7  1  0.204061  0.204061  0.749995  1
  Tm  Tm8  1  0.795995  0.000073  0.749999  1
  Tm  Tm9  1  0.000073  0.795995  0.749999  1
  Bi  Bi10  1  0.398552  0.398552  0.249998  1
  Bi  Bi11  1  0.601298  0.999994  0.250002  1
  Bi  Bi12  1  0.999994  0.601298  0.250002  1
  Bi  Bi13  1  0.601446  0.601446  0.749999  1
  Bi  Bi14  1  0.398701  0.000005  0.750001  1
  Bi  Bi15  1  0.000005  0.398701  0.750001  1
  C  C16  1  0.000002  0.000002  0.499997  1
  C  C17  1  0.000000  0.000000  0.999998  1
