# generated using pymatgen
data_TbNd2Lu3(MoO7)2
_symmetry_space_group_name_H-M   'P 1'
_cell_length_a   6.45074200
_cell_length_b   6.44783293
_cell_length_c   7.54948400
_cell_angle_alpha   90.00000000
_cell_angle_beta   90.00000000
_cell_angle_gamma   109.16010697
_symmetry_Int_Tables_number   1
_chemical_formula_structural   TbNd2Lu3(MoO7)2
_chemical_formula_sum   'Tb1 Nd2 Lu3 Mo2 O14'
_cell_volume   296.61356777
_cell_formula_units_Z   1
loop_
 _symmetry_equiv_pos_site_id
 _symmetry_equiv_pos_as_xyz
  1  'x, y, z'
loop_
 _atom_site_type_symbol
 _atom_site_label
 _atom_site_symmetry_multiplicity
 _atom_site_fract_x
 _atom_site_fract_y
 _atom_site_fract_z
 _atom_site_occupancy
  Tb  Tb0  1  0.464532  0.999378  0.250000  1
  Nd  Nd1  1  0.503597  0.503849  0.501305  1
  Nd  Nd2  1  0.503597  0.503849  0.998695  1
  Lu  Lu3  1  0.003030  0.532823  0.250000  1
  Lu  Lu4  1  0.998166  0.466275  0.750000  1
  Lu  Lu5  1  0.533228  0.002785  0.750000  1
  Mo  Mo6  1  0.999829  0.999971  0.501532  1
  Mo  Mo7  1  0.999829  0.999971  0.998468  1
  O  O8  1  0.928421  0.077575  0.750000  1
  O  O9  1  0.069602  0.923882  0.250000  1
  O  O10  1  0.353898  0.638245  0.250000  1
  O  O11  1  0.647240  0.354774  0.750000  1
  O  O12  1  0.357856  0.640267  0.750000  1
  O  O13  1  0.645881  0.368921  0.250000  1
  O  O14  1  0.321769  0.072960  0.965076  1
  O  O15  1  0.674900  0.922987  0.475850  1
  O  O16  1  0.321769  0.072960  0.534924  1
  O  O17  1  0.674900  0.922987  0.024150  1
  O  O18  1  0.066193  0.320077  0.466553  1
  O  O19  1  0.932785  0.677696  0.967044  1
  O  O20  1  0.932785  0.677696  0.532956  1
  O  O21  1  0.066193  0.320077  0.033447  1
