# generated using pymatgen
data_Ho3Er(Si5Ir3)2
_symmetry_space_group_name_H-M   'P 1'
_cell_length_a   8.13206682
_cell_length_b   8.12981401
_cell_length_c   8.12981350
_cell_angle_alpha   138.08373082
_cell_angle_beta   104.02663906
_cell_angle_gamma   90.76975199
_symmetry_Int_Tables_number   1
_chemical_formula_structural   Ho3Er(Si5Ir3)2
_chemical_formula_sum   'Ho3 Er1 Si10 Ir6'
_cell_volume   332.41791848
_cell_formula_units_Z   1
loop_
 _symmetry_equiv_pos_site_id
 _symmetry_equiv_pos_as_xyz
  1  'x, y, z'
loop_
 _atom_site_type_symbol
 _atom_site_label
 _atom_site_symmetry_multiplicity
 _atom_site_fract_x
 _atom_site_fract_y
 _atom_site_fract_z
 _atom_site_occupancy
  Ho  Ho0  1  0.859882  0.631461  0.228421  1
  Ho  Ho1  1  0.140089  0.368516  0.771573  1
  Ho  Ho2  1  0.403118  0.131534  0.271584  1
  Er  Er3  1  0.596651  0.868415  0.728236  1
  Si  Si4  1  0.500062  0.749955  0.250058  1
  Si  Si5  1  0.500062  0.250005  0.750108  1
  Si  Si6  1  0.225441  0.975362  0.750081  1
  Si  Si7  1  0.774696  0.524701  0.749934  1
  Si  Si8  1  0.774696  0.024761  0.249995  1
  Si  Si9  1  0.225441  0.475360  0.250079  1
  Si  Si10  1  0.049298  0.893601  0.155698  1
  Si  Si11  1  0.950428  0.106149  0.844278  1
  Si  Si12  1  0.737866  0.393556  0.344309  1
  Si  Si13  1  0.262179  0.606561  0.655618  1
  Ir  Ir14  1  0.999967  0.749965  0.749971  1
  Ir  Ir15  1  0.999967  0.249997  0.250002  1
  Ir  Ir16  1  0.246121  0.860420  0.385702  1
  Ir  Ir17  1  0.753794  0.139429  0.614364  1
  Ir  Ir18  1  0.474894  0.360447  0.114447  1
  Ir  Ir19  1  0.525348  0.639806  0.885542  1
