# generated using pymatgen
data_CsKV2O6
_symmetry_space_group_name_H-M   'P 1'
_cell_length_a   8.17364687
_cell_length_b   8.17364601
_cell_length_c   5.95535349
_cell_angle_alpha   84.18795561
_cell_angle_beta   84.18796066
_cell_angle_gamma   92.61871478
_symmetry_Int_Tables_number   1
_chemical_formula_structural   CsKV2O6
_chemical_formula_sum   'Cs2 K2 V4 O12'
_cell_volume   393.15863642
_cell_formula_units_Z   2
loop_
 _symmetry_equiv_pos_site_id
 _symmetry_equiv_pos_as_xyz
  1  'x, y, z'
loop_
 _atom_site_type_symbol
 _atom_site_label
 _atom_site_symmetry_multiplicity
 _atom_site_fract_x
 _atom_site_fract_y
 _atom_site_fract_z
 _atom_site_occupancy
  Cs  Cs0  1  0.692541  0.307459  0.250000  1
  Cs  Cs1  1  0.307459  0.692541  0.750000  1
  K  K2  1  0.892450  0.107550  0.750000  1
  K  K3  1  0.107550  0.892450  0.250000  1
  V  V4  1  0.790981  0.637326  0.723986  1
  V  V5  1  0.362674  0.209019  0.776014  1
  V  V6  1  0.209019  0.362674  0.276014  1
  V  V7  1  0.637326  0.790981  0.223986  1
  O  O8  1  0.948746  0.779874  0.682252  1
  O  O9  1  0.220126  0.051254  0.817748  1
  O  O10  1  0.051254  0.220126  0.317748  1
  O  O11  1  0.779874  0.948746  0.182252  1
  O  O12  1  0.858356  0.447242  0.758078  1
  O  O13  1  0.552758  0.141644  0.741922  1
  O  O14  1  0.141644  0.552758  0.241922  1
  O  O15  1  0.447242  0.858356  0.258078  1
  O  O16  1  0.668195  0.656983  0.481238  1
  O  O17  1  0.343017  0.331805  0.018762  1
  O  O18  1  0.331805  0.343017  0.518762  1
  O  O19  1  0.656983  0.668195  0.981238  1
