# generated using pymatgen
data_Nd2Mg2Ni10As7
_symmetry_space_group_name_H-M   'P 1'
_cell_length_a   9.66893386
_cell_length_b   9.50319079
_cell_length_c   3.92656100
_cell_angle_alpha   90.00000000
_cell_angle_beta   90.00000000
_cell_angle_gamma   120.10608724
_symmetry_Int_Tables_number   1
_chemical_formula_structural   Nd2Mg2Ni10As7
_chemical_formula_sum   'Nd2 Mg2 Ni10 As7'
_cell_volume   312.12299235
_cell_formula_units_Z   1
loop_
 _symmetry_equiv_pos_site_id
 _symmetry_equiv_pos_as_xyz
  1  'x, y, z'
loop_
 _atom_site_type_symbol
 _atom_site_label
 _atom_site_symmetry_multiplicity
 _atom_site_fract_x
 _atom_site_fract_y
 _atom_site_fract_z
 _atom_site_occupancy
  Nd  Nd0  1  0.340995  0.664288  0.000000  1
  Nd  Nd1  1  0.667381  0.342302  0.500001  1
  Mg  Mg2  1  0.216287  0.105210  0.500001  1
  Mg  Mg3  1  0.885625  0.102247  0.500001  1
  Ni  Ni4  1  0.424939  0.061813  0.000000  1
  Ni  Ni5  1  0.146429  0.272632  0.000000  1
  Ni  Ni6  1  0.943476  0.374874  0.000000  1
  Ni  Ni7  1  0.639181  0.579932  0.000000  1
  Ni  Ni8  1  0.134490  0.842025  0.000000  1
  Ni  Ni9  1  0.712054  0.875748  0.000000  1
  Ni  Ni10  1  0.382462  0.435618  0.500001  1
  Ni  Ni11  1  0.048336  0.615872  0.500001  1
  Ni  Ni12  1  0.885026  0.776473  0.500001  1
  Ni  Ni13  1  0.568320  0.952888  0.500001  1
  As  As14  1  0.988047  0.976803  0.000000  1
  As  As15  1  0.690193  0.111713  0.000000  1
  As  As16  1  0.414129  0.313051  0.000000  1
  As  As17  1  0.894430  0.598195  0.000000  1
  As  As18  1  0.115783  0.409255  0.500001  1
  As  As19  1  0.605042  0.709505  0.500001  1
  As  As20  1  0.297376  0.879556  0.500001  1
