# generated using pymatgen
data_Sr2Bi2O7
_symmetry_space_group_name_H-M   'P 1'
_cell_length_a   7.87422558
_cell_length_b   7.87422556
_cell_length_c   7.87422636
_cell_angle_alpha   119.42517541
_cell_angle_beta   118.83316333
_cell_angle_gamma   91.51580212
_symmetry_Int_Tables_number   1
_chemical_formula_structural   Sr2Bi2O7
_chemical_formula_sum   'Sr4 Bi4 O14'
_cell_volume   349.63047679
_cell_formula_units_Z   2
loop_
 _symmetry_equiv_pos_site_id
 _symmetry_equiv_pos_as_xyz
  1  'x, y, z'
loop_
 _atom_site_type_symbol
 _atom_site_label
 _atom_site_symmetry_multiplicity
 _atom_site_fract_x
 _atom_site_fract_y
 _atom_site_fract_z
 _atom_site_occupancy
  Sr  Sr0  1  0.000000  0.000000  0.500000  1
  Sr  Sr1  1  0.000000  0.500000  0.000000  1
  Sr  Sr2  1  0.000000  0.000000  0.000000  1
  Sr  Sr3  1  0.500000  0.500000  0.000000  1
  Bi  Bi4  1  0.500000  0.000000  0.000000  1
  Bi  Bi5  1  0.500000  0.500000  0.500000  1
  Bi  Bi6  1  0.500000  0.000000  0.500000  1
  Bi  Bi7  1  0.000000  0.500000  0.500000  1
  O  O8  1  0.439076  0.095454  0.771121  1
  O  O9  1  0.560924  0.332046  0.656378  1
  O  O10  1  0.175669  0.404547  0.343622  1
  O  O11  1  0.824331  0.167954  0.228879  1
  O  O12  1  0.560924  0.904547  0.228879  1
  O  O13  1  0.439076  0.667954  0.343622  1
  O  O14  1  0.824331  0.595453  0.656378  1
  O  O15  1  0.175669  0.832046  0.771121  1
  O  O16  1  0.605296  0.750000  0.855296  1
  O  O17  1  0.394704  0.250000  0.144704  1
  O  O18  1  0.177072  0.904093  0.272978  1
  O  O19  1  0.822928  0.095907  0.727022  1
  O  O20  1  0.868885  0.595907  0.272978  1
  O  O21  1  0.131115  0.404093  0.727022  1
