# generated using pymatgen
data_Tb3Y9TcRu3
_symmetry_space_group_name_H-M   'P 1'
_cell_length_a   6.33249986
_cell_length_b   7.35455603
_cell_length_c   9.24471600
_cell_angle_alpha   90.00000000
_cell_angle_beta   90.00000000
_cell_angle_gamma   89.85202579
_symmetry_Int_Tables_number   1
_chemical_formula_structural   Tb3Y9TcRu3
_chemical_formula_sum   'Tb3 Y9 Tc1 Ru3'
_cell_volume   430.55018075
_cell_formula_units_Z   1
loop_
 _symmetry_equiv_pos_site_id
 _symmetry_equiv_pos_as_xyz
  1  'x, y, z'
loop_
 _atom_site_type_symbol
 _atom_site_label
 _atom_site_symmetry_multiplicity
 _atom_site_fract_x
 _atom_site_fract_y
 _atom_site_fract_z
 _atom_site_occupancy
  Tb  Tb0  1  0.633319  0.042026  0.250000  1
  Tb  Tb1  1  0.364743  0.955677  0.750000  1
  Tb  Tb2  1  0.134903  0.456302  0.750000  1
  Y  Y3  1  0.871468  0.542766  0.250000  1
  Y  Y4  1  0.167263  0.175750  0.064918  1
  Y  Y5  1  0.831529  0.823960  0.935164  1
  Y  Y6  1  0.665875  0.324852  0.936755  1
  Y  Y7  1  0.831529  0.823960  0.564836  1
  Y  Y8  1  0.332257  0.676026  0.064698  1
  Y  Y9  1  0.167263  0.175750  0.435082  1
  Y  Y10  1  0.332257  0.676026  0.435302  1
  Y  Y11  1  0.665875  0.324852  0.563245  1
  Tc  Tc12  1  0.463135  0.384507  0.250000  1
  Ru  Ru13  1  0.537416  0.616782  0.750000  1
  Ru  Ru14  1  0.963724  0.115329  0.750000  1
  Ru  Ru15  1  0.037447  0.885436  0.250000  1
