# generated using pymatgen
data_Yb3Er5(Si4W3)4
_symmetry_space_group_name_H-M   'P 1'
_cell_length_a   6.72481639
_cell_length_b   6.91014311
_cell_length_c   12.92130666
_cell_angle_alpha   90.05028539
_cell_angle_beta   90.05119609
_cell_angle_gamma   90.06893418
_symmetry_Int_Tables_number   1
_chemical_formula_structural   Yb3Er5(Si4W3)4
_chemical_formula_sum   'Yb3 Er5 Si16 W12'
_cell_volume   600.44502568
_cell_formula_units_Z   1
loop_
 _symmetry_equiv_pos_site_id
 _symmetry_equiv_pos_as_xyz
  1  'x, y, z'
loop_
 _atom_site_type_symbol
 _atom_site_label
 _atom_site_symmetry_multiplicity
 _atom_site_fract_x
 _atom_site_fract_y
 _atom_site_fract_z
 _atom_site_occupancy
  Yb  Yb0  1  0.002876  0.832857  0.590625  1
  Yb  Yb1  1  0.497553  0.331786  0.408982  1
  Yb  Yb2  1  0.997218  0.168079  0.091550  1
  Er  Er3  1  0.497607  0.330009  0.093968  1
  Er  Er4  1  0.997936  0.168739  0.407152  1
  Er  Er5  1  0.503221  0.668092  0.592377  1
  Er  Er6  1  0.003729  0.831752  0.907546  1
  Er  Er7  1  0.503536  0.669059  0.906534  1
  Si  Si8  1  0.662340  0.043137  0.545838  1
  Si  Si9  1  0.162978  0.456544  0.955077  1
  Si  Si10  1  0.336409  0.956883  0.044527  1
  Si  Si11  1  0.837954  0.543218  0.454607  1
  Si  Si12  1  0.338039  0.957510  0.455124  1
  Si  Si13  1  0.836839  0.542477  0.045012  1
  Si  Si14  1  0.662829  0.043746  0.955420  1
  Si  Si15  1  0.161758  0.457717  0.545629  1
  Si  Si16  1  0.533659  0.373750  0.749396  1
  Si  Si17  1  0.033080  0.126024  0.749945  1
  Si  Si18  1  0.466337  0.623108  0.250965  1
  Si  Si19  1  0.966192  0.875003  0.249721  1
  Si  Si20  1  0.803003  0.637512  0.749127  1
  Si  Si21  1  0.299607  0.864705  0.748567  1
  Si  Si22  1  0.199001  0.363574  0.250375  1
  Si  Si23  1  0.699693  0.135412  0.250076  1
  W  W24  1  0.831863  0.337958  0.626259  1
  W  W25  1  0.331681  0.162203  0.874581  1
  W  W26  1  0.168486  0.662600  0.125926  1
  W  W27  1  0.666985  0.837104  0.373659  1
  W  W28  1  0.168333  0.663228  0.374051  1
  W  W29  1  0.666094  0.835449  0.125377  1
  W  W30  1  0.829620  0.339447  0.874723  1
  W  W31  1  0.331681  0.162937  0.626153  1
  W  W32  1  0.661677  0.004236  0.750708  1
  W  W33  1  0.162727  0.495274  0.751000  1
  W  W34  1  0.339079  0.992119  0.249404  1
  W  W35  1  0.838380  0.506750  0.250023  1
