# generated using pymatgen
data_Tm4Al2B4Ir9Ru
_symmetry_space_group_name_H-M   'P 1'
_cell_length_a   9.59287827
_cell_length_b   9.59287827
_cell_length_c   3.08501800
_cell_angle_alpha   90.00000000
_cell_angle_beta   90.00000000
_cell_angle_gamma   90.40955174
_symmetry_Int_Tables_number   1
_chemical_formula_structural   Tm4Al2B4Ir9Ru
_chemical_formula_sum   'Tm4 Al2 B4 Ir9 Ru1'
_cell_volume   283.88632580
_cell_formula_units_Z   1
loop_
 _symmetry_equiv_pos_site_id
 _symmetry_equiv_pos_as_xyz
  1  'x, y, z'
loop_
 _atom_site_type_symbol
 _atom_site_label
 _atom_site_symmetry_multiplicity
 _atom_site_fract_x
 _atom_site_fract_y
 _atom_site_fract_z
 _atom_site_occupancy
  Tm  Tm0  1  0.173962  0.673962  0.000000  1
  Tm  Tm1  1  0.322675  0.177325  0.000000  1
  Tm  Tm2  1  0.677325  0.822675  0.000000  1
  Tm  Tm3  1  0.826038  0.326038  0.000000  1
  Al  Al4  1  0.000000  0.000000  0.000000  1
  Al  Al5  1  0.500000  0.500000  0.000000  1
  B  B6  1  0.121096  0.378904  0.000000  1
  B  B7  1  0.376670  0.876670  0.000000  1
  B  B8  1  0.623330  0.123330  0.000000  1
  B  B9  1  0.878904  0.621096  0.000000  1
  Ir  Ir10  1  0.069070  0.216907  0.500000  1
  Ir  Ir11  1  0.217816  0.930683  0.500000  1
  Ir  Ir12  1  0.283093  0.430930  0.500000  1
  Ir  Ir13  1  0.430683  0.717816  0.500000  1
  Ir  Ir14  1  0.500000  0.000000  0.500000  1
  Ir  Ir15  1  0.569317  0.282184  0.500000  1
  Ir  Ir16  1  0.716907  0.569070  0.500000  1
  Ir  Ir17  1  0.782184  0.069317  0.500000  1
  Ir  Ir18  1  0.930930  0.783093  0.500000  1
  Ru  Ru19  1  0.000000  0.500000  0.500000  1
