# generated using pymatgen
data_Tb2LuZr(Al3Ir)6
_symmetry_space_group_name_H-M   'P 1'
_cell_length_a   7.53683168
_cell_length_b   7.52957149
_cell_length_c   9.40564200
_cell_angle_alpha   90.00000000
_cell_angle_beta   90.00000000
_cell_angle_gamma   119.60902567
_symmetry_Int_Tables_number   1
_chemical_formula_structural   Tb2LuZr(Al3Ir)6
_chemical_formula_sum   'Tb2 Lu1 Zr1 Al18 Ir6'
_cell_volume   464.06167612
_cell_formula_units_Z   1
loop_
 _symmetry_equiv_pos_site_id
 _symmetry_equiv_pos_as_xyz
  1  'x, y, z'
loop_
 _atom_site_type_symbol
 _atom_site_label
 _atom_site_symmetry_multiplicity
 _atom_site_fract_x
 _atom_site_fract_y
 _atom_site_fract_z
 _atom_site_occupancy
  Tb  Tb0  1  0.005699  0.327689  0.750000  1
  Tb  Tb1  1  0.329030  0.006429  0.750000  1
  Lu  Lu2  1  0.671607  0.995767  0.250000  1
  Zr  Zr3  1  0.996600  0.672187  0.250000  1
  Al  Al4  1  0.124722  0.122672  0.250000  1
  Al  Al5  1  0.869571  0.868435  0.750000  1
  Al  Al6  1  0.999741  0.337264  0.080173  1
  Al  Al7  1  0.998643  0.664931  0.930889  1
  Al  Al8  1  0.998643  0.664931  0.569111  1
  Al  Al9  1  0.333203  0.998268  0.419615  1
  Al  Al10  1  0.999741  0.337264  0.419827  1
  Al  Al11  1  0.664503  0.997636  0.572189  1
  Al  Al12  1  0.664503  0.997636  0.927811  1
  Al  Al13  1  0.333203  0.998268  0.080385  1
  Al  Al14  1  0.334357  0.334480  0.549098  1
  Al  Al15  1  0.668875  0.667531  0.442107  1
  Al  Al16  1  0.668875  0.667531  0.057893  1
  Al  Al17  1  0.334357  0.334480  0.950902  1
  Al  Al18  1  0.336770  0.550837  0.250000  1
  Al  Al19  1  0.661174  0.452805  0.750000  1
  Al  Al20  1  0.555435  0.343595  0.250000  1
  Al  Al21  1  0.451830  0.659938  0.750000  1
  Ir  Ir22  1  0.672385  0.327553  0.001117  1
  Ir  Ir23  1  0.328136  0.672722  0.001840  1
  Ir  Ir24  1  0.328136  0.672722  0.498160  1
  Ir  Ir25  1  0.672385  0.327553  0.498883  1
  Ir  Ir26  1  0.998939  0.999437  0.001376  1
  Ir  Ir27  1  0.998939  0.999437  0.498624  1
