# generated using pymatgen
data_Y20Cd5Tc2Hg
_symmetry_space_group_name_H-M   'P 1'
_cell_length_a   9.62875713
_cell_length_b   9.62875857
_cell_length_c   9.91616400
_cell_angle_alpha   90.00000000
_cell_angle_beta   90.00000000
_cell_angle_gamma   119.87518339
_symmetry_Int_Tables_number   1
_chemical_formula_structural   Y20Cd5Tc2Hg
_chemical_formula_sum   'Y20 Cd5 Tc2 Hg1'
_cell_volume   797.18609795
_cell_formula_units_Z   1
loop_
 _symmetry_equiv_pos_site_id
 _symmetry_equiv_pos_as_xyz
  1  'x, y, z'
loop_
 _atom_site_type_symbol
 _atom_site_label
 _atom_site_symmetry_multiplicity
 _atom_site_fract_x
 _atom_site_fract_y
 _atom_site_fract_z
 _atom_site_occupancy
  Y  Y0  1  0.998173  0.001827  0.496352  1
  Y  Y1  1  0.998173  0.001827  0.003648  1
  Y  Y2  1  0.540956  0.459044  0.250000  1
  Y  Y3  1  0.542779  0.080066  0.250000  1
  Y  Y4  1  0.919934  0.457221  0.250000  1
  Y  Y5  1  0.459740  0.540260  0.750000  1
  Y  Y6  1  0.459224  0.918921  0.750000  1
  Y  Y7  1  0.081079  0.540776  0.750000  1
  Y  Y8  1  0.209824  0.790176  0.440202  1
  Y  Y9  1  0.210728  0.419968  0.439979  1
  Y  Y10  1  0.580032  0.789272  0.439979  1
  Y  Y11  1  0.789870  0.210130  0.560268  1
  Y  Y12  1  0.790341  0.580316  0.559429  1
  Y  Y13  1  0.419684  0.209659  0.559429  1
  Y  Y14  1  0.789870  0.210130  0.939732  1
  Y  Y15  1  0.790341  0.580316  0.940571  1
  Y  Y16  1  0.419684  0.209659  0.940571  1
  Y  Y17  1  0.209824  0.790176  0.059798  1
  Y  Y18  1  0.210728  0.419968  0.060021  1
  Y  Y19  1  0.580032  0.789272  0.060021  1
  Cd  Cd20  1  0.884954  0.767603  0.250000  1
  Cd  Cd21  1  0.232397  0.115046  0.250000  1
  Cd  Cd22  1  0.113627  0.886373  0.750000  1
  Cd  Cd23  1  0.114101  0.228710  0.750000  1
  Cd  Cd24  1  0.771290  0.885899  0.750000  1
  Tc  Tc25  1  0.333422  0.666578  0.250000  1
  Tc  Tc26  1  0.666471  0.333529  0.750000  1
  Hg  Hg27  1  0.882720  0.117280  0.250000  1
