# generated using pymatgen
data_Li2PrYSi4
_symmetry_space_group_name_H-M   'P 1'
_cell_length_a   3.84685100
_cell_length_b   7.69813476
_cell_length_c   10.36505986
_cell_angle_alpha   89.64494644
_cell_angle_beta   90.00000000
_cell_angle_gamma   90.00000000
_symmetry_Int_Tables_number   1
_chemical_formula_structural   Li2PrYSi4
_chemical_formula_sum   'Li4 Pr2 Y2 Si8'
_cell_volume   306.94060907
_cell_formula_units_Z   2
loop_
 _symmetry_equiv_pos_site_id
 _symmetry_equiv_pos_as_xyz
  1  'x, y, z'
loop_
 _atom_site_type_symbol
 _atom_site_label
 _atom_site_symmetry_multiplicity
 _atom_site_fract_x
 _atom_site_fract_y
 _atom_site_fract_z
 _atom_site_occupancy
  Li  Li0  1  0.250000  0.995548  0.389158  1
  Li  Li1  1  0.750000  0.004452  0.610842  1
  Li  Li2  1  0.250000  0.491413  0.108209  1
  Li  Li3  1  0.750000  0.508587  0.891791  1
  Pr  Pr4  1  0.250000  0.639272  0.636747  1
  Pr  Pr5  1  0.750000  0.360728  0.363253  1
  Y  Y6  1  0.250000  0.133321  0.864575  1
  Y  Y7  1  0.750000  0.866679  0.135425  1
  Si  Si8  1  0.750000  0.265672  0.063973  1
  Si  Si9  1  0.250000  0.734328  0.936027  1
  Si  Si10  1  0.750000  0.777115  0.425281  1
  Si  Si11  1  0.250000  0.222885  0.574719  1
  Si  Si12  1  0.750000  0.842189  0.826236  1
  Si  Si13  1  0.250000  0.157811  0.173764  1
  Si  Si14  1  0.750000  0.331936  0.683085  1
  Si  Si15  1  0.250000  0.668064  0.316915  1
