# generated using pymatgen
data_Bi10Mo2RuO24
_symmetry_space_group_name_H-M   'P 1'
_cell_length_a   12.30405516
_cell_length_b   12.25737193
_cell_length_c   8.80671069
_cell_angle_alpha   85.42433702
_cell_angle_beta   85.25371743
_cell_angle_gamma   27.06133191
_symmetry_Int_Tables_number   1
_chemical_formula_structural   Bi10Mo2RuO24
_chemical_formula_sum   'Bi10 Mo2 Ru1 O24'
_cell_volume   602.12452090
_cell_formula_units_Z   1
loop_
 _symmetry_equiv_pos_site_id
 _symmetry_equiv_pos_as_xyz
  1  'x, y, z'
loop_
 _atom_site_type_symbol
 _atom_site_label
 _atom_site_symmetry_multiplicity
 _atom_site_fract_x
 _atom_site_fract_y
 _atom_site_fract_z
 _atom_site_occupancy
  Bi  Bi0  1  0.454941  0.468538  0.325261  1
  Bi  Bi1  1  0.604820  0.786100  0.453239  1
  Bi  Bi2  1  0.532087  0.545944  0.673856  1
  Bi  Bi3  1  0.201766  0.274821  0.189087  1
  Bi  Bi4  1  0.074613  0.077526  0.410396  1
  Bi  Bi5  1  0.210960  0.400730  0.563683  1
  Bi  Bi6  1  0.118028  0.183941  0.752188  1
  Bi  Bi7  1  0.913899  0.937371  0.587127  1
  Bi  Bi8  1  0.831692  0.866300  0.252013  1
  Bi  Bi9  1  0.707423  0.825657  0.817988  1
  Mo  Mo10  1  0.012018  0.984325  0.995904  1
  Mo  Mo11  1  0.570067  0.681615  0.072242  1
  Ru  Ru12  1  0.301100  0.452515  0.933181  1
  O  O13  1  0.883077  0.773716  0.648762  1
  O  O14  1  0.381005  0.964700  0.004792  1
  O  O15  1  0.243164  0.103168  0.352387  1
  O  O16  1  0.245615  0.871692  0.932475  1
  O  O17  1  0.706218  0.295337  0.496923  1
  O  O18  1  0.008593  0.542475  0.355524  1
  O  O19  1  0.227611  0.773704  0.501731  1
  O  O20  1  0.857616  0.165410  0.160618  1
  O  O21  1  0.737099  0.478648  0.916228  1
  O  O22  1  0.521460  0.256655  0.077341  1
  O  O23  1  0.423090  0.227185  0.826244  1
  O  O24  1  0.298538  0.550807  0.767923  1
  O  O25  1  0.651222  0.139254  0.405995  1
  O  O26  1  0.796025  0.550250  0.171121  1
  O  O27  1  0.440784  0.704515  0.221939  1
  O  O28  1  0.863990  0.346415  0.593074  1
  O  O29  1  0.136581  0.737580  0.053778  1
  O  O30  1  0.357410  0.862090  0.579974  1
  O  O31  1  0.966623  0.485656  0.696122  1
  O  O32  1  0.135206  0.648351  0.419504  1
  O  O33  1  0.531135  0.017834  0.308094  1
  O  O34  1  0.820655  0.149635  0.838026  1
  O  O35  1  0.029373  0.621247  0.995669  1
  O  O36  1  0.449075  0.003714  0.649591  1
