# generated using pymatgen
data_Tb3Y7(SnBi)3
_symmetry_space_group_name_H-M   'P 1'
_cell_length_a   9.08094309
_cell_length_b   9.11680017
_cell_length_c   6.49764903
_cell_angle_alpha   90.00732392
_cell_angle_beta   89.99024883
_cell_angle_gamma   119.85090260
_symmetry_Int_Tables_number   1
_chemical_formula_structural   Tb3Y7(SnBi)3
_chemical_formula_sum   'Tb3 Y7 Sn3 Bi3'
_cell_volume   466.56353298
_cell_formula_units_Z   1
loop_
 _symmetry_equiv_pos_site_id
 _symmetry_equiv_pos_as_xyz
  1  'x, y, z'
loop_
 _atom_site_type_symbol
 _atom_site_label
 _atom_site_symmetry_multiplicity
 _atom_site_fract_x
 _atom_site_fract_y
 _atom_site_fract_z
 _atom_site_occupancy
  Tb  Tb0  1  0.325785  0.659109  0.498603  1
  Tb  Tb1  1  0.671714  0.338135  0.498752  1
  Tb  Tb2  1  0.325832  0.659121  0.001389  1
  Y  Y3  1  0.758890  0.753288  0.250045  1
  Y  Y4  1  0.005421  0.245838  0.249885  1
  Y  Y5  1  0.765015  0.005950  0.750038  1
  Y  Y6  1  0.236248  0.999709  0.249910  1
  Y  Y7  1  0.000174  0.755832  0.750051  1
  Y  Y8  1  0.238199  0.243669  0.750064  1
  Y  Y9  1  0.671623  0.338108  0.001230  1
  Sn  Sn10  1  0.997248  0.391898  0.750210  1
  Sn  Sn11  1  0.392452  0.389374  0.249837  1
  Sn  Sn12  1  0.001020  0.608899  0.249840  1
  Bi  Bi13  1  0.609527  0.611857  0.750136  1
  Bi  Bi14  1  0.391329  0.000412  0.750137  1
  Bi  Bi15  1  0.609524  0.998801  0.249875  1
