# generated using pymatgen
data_ScTaTe10
_symmetry_space_group_name_H-M   'P 1'
_cell_length_a   8.52311868
_cell_length_b   8.52311840
_cell_length_c   13.69558700
_cell_angle_alpha   90.00000000
_cell_angle_beta   90.00000000
_cell_angle_gamma   152.96924469
_symmetry_Int_Tables_number   1
_chemical_formula_structural   ScTaTe10
_chemical_formula_sum   'Sc1 Ta1 Te10'
_cell_volume   452.14912600
_cell_formula_units_Z   1
loop_
 _symmetry_equiv_pos_site_id
 _symmetry_equiv_pos_as_xyz
  1  'x, y, z'
loop_
 _atom_site_type_symbol
 _atom_site_label
 _atom_site_symmetry_multiplicity
 _atom_site_fract_x
 _atom_site_fract_y
 _atom_site_fract_z
 _atom_site_occupancy
  Sc  Sc0  1  0.310592  0.689408  0.250000  1
  Ta  Ta1  1  0.693580  0.306420  0.750000  1
  Te  Te2  1  0.779178  0.220822  0.933907  1
  Te  Te3  1  0.210269  0.789731  0.069050  1
  Te  Te4  1  0.319638  0.680362  0.750000  1
  Te  Te5  1  0.673097  0.326903  0.250000  1
  Te  Te6  1  0.093317  0.906683  0.849862  1
  Te  Te7  1  0.918782  0.081218  0.150354  1
  Te  Te8  1  0.918782  0.081218  0.349646  1
  Te  Te9  1  0.093317  0.906683  0.650138  1
  Te  Te10  1  0.779178  0.220822  0.566093  1
  Te  Te11  1  0.210269  0.789731  0.430950  1
