# generated using pymatgen
data_CaDy3(Sc3Sn4)2
_symmetry_space_group_name_H-M   'P 1'
_cell_length_a   7.68692012
_cell_length_b   7.99182008
_cell_length_c   14.93617261
_cell_angle_alpha   90.13387256
_cell_angle_beta   89.37236588
_cell_angle_gamma   90.23480067
_symmetry_Int_Tables_number   1
_chemical_formula_structural   CaDy3(Sc3Sn4)2
_chemical_formula_sum   'Ca2 Dy6 Sc12 Sn16'
_cell_volume   917.50099766
_cell_formula_units_Z   2
loop_
 _symmetry_equiv_pos_site_id
 _symmetry_equiv_pos_as_xyz
  1  'x, y, z'
loop_
 _atom_site_type_symbol
 _atom_site_label
 _atom_site_symmetry_multiplicity
 _atom_site_fract_x
 _atom_site_fract_y
 _atom_site_fract_z
 _atom_site_occupancy
  Ca  Ca0  1  0.992295  0.176488  0.091933  1
  Ca  Ca1  1  0.007705  0.823512  0.908067  1
  Dy  Dy2  1  0.504758  0.677501  0.903257  1
  Dy  Dy3  1  0.003539  0.821316  0.592881  1
  Dy  Dy4  1  0.495242  0.322499  0.096743  1
  Dy  Dy5  1  0.996461  0.178684  0.407119  1
  Dy  Dy6  1  0.494580  0.322893  0.407046  1
  Dy  Dy7  1  0.505420  0.677107  0.592954  1
  Sc  Sc8  1  0.167117  0.497358  0.748152  1
  Sc  Sc9  1  0.832883  0.502642  0.251848  1
  Sc  Sc10  1  0.333412  0.996622  0.251441  1
  Sc  Sc11  1  0.666588  0.003378  0.748559  1
  Sc  Sc12  1  0.337804  0.160611  0.627789  1
  Sc  Sc13  1  0.662196  0.839389  0.372211  1
  Sc  Sc14  1  0.162091  0.660328  0.374048  1
  Sc  Sc15  1  0.667507  0.840215  0.129135  1
  Sc  Sc16  1  0.837909  0.339672  0.625952  1
  Sc  Sc17  1  0.332493  0.159785  0.870865  1
  Sc  Sc18  1  0.831644  0.340472  0.872482  1
  Sc  Sc19  1  0.168356  0.659528  0.127518  1
  Sn  Sn20  1  0.027071  0.126174  0.749209  1
  Sn  Sn21  1  0.972929  0.873826  0.250791  1
  Sn  Sn22  1  0.471039  0.624793  0.249999  1
  Sn  Sn23  1  0.528961  0.375207  0.750001  1
  Sn  Sn24  1  0.308960  0.850082  0.746693  1
  Sn  Sn25  1  0.691040  0.149918  0.253307  1
  Sn  Sn26  1  0.192298  0.349974  0.251793  1
  Sn  Sn27  1  0.807702  0.650026  0.748207  1
  Sn  Sn28  1  0.183067  0.454457  0.541865  1
  Sn  Sn29  1  0.816933  0.545543  0.458135  1
  Sn  Sn30  1  0.319809  0.956235  0.458297  1
  Sn  Sn31  1  0.820244  0.543630  0.043802  1
  Sn  Sn32  1  0.680191  0.043765  0.541703  1
  Sn  Sn33  1  0.179756  0.456370  0.956198  1
  Sn  Sn34  1  0.667709  0.041382  0.955978  1
  Sn  Sn35  1  0.332291  0.958618  0.044022  1
