# generated using pymatgen
data_Pr10InSi4Os
_symmetry_space_group_name_H-M   'P 1'
_cell_length_a   7.75135900
_cell_length_b   9.32126935
_cell_length_c   7.75135900
_cell_angle_alpha   114.56900488
_cell_angle_beta   90.00000000
_cell_angle_gamma   114.56900488
_symmetry_Int_Tables_number   1
_chemical_formula_structural   Pr10InSi4Os
_chemical_formula_sum   'Pr10 In1 Si4 Os1'
_cell_volume   453.00088964
_cell_formula_units_Z   1
loop_
 _symmetry_equiv_pos_site_id
 _symmetry_equiv_pos_as_xyz
  1  'x, y, z'
loop_
 _atom_site_type_symbol
 _atom_site_label
 _atom_site_symmetry_multiplicity
 _atom_site_fract_x
 _atom_site_fract_y
 _atom_site_fract_z
 _atom_site_occupancy
  Pr  Pr0  1  0.970473  0.940946  0.970473  1
  Pr  Pr1  1  0.529527  0.059054  0.529527  1
  Pr  Pr2  1  0.514210  0.717712  0.660402  1
  Pr  Pr3  1  0.203504  0.717712  0.057311  1
  Pr  Pr4  1  0.660402  0.717712  0.203504  1
  Pr  Pr5  1  0.057311  0.717712  0.514210  1
  Pr  Pr6  1  0.442689  0.282288  0.296496  1
  Pr  Pr7  1  0.839598  0.282288  0.985790  1
  Pr  Pr8  1  0.296496  0.282288  0.839598  1
  Pr  Pr9  1  0.985790  0.282288  0.442689  1
  In  In10  1  0.750000  0.500000  0.750000  1
  Si  Si11  1  0.885051  0.000000  0.614949  1
  Si  Si12  1  0.114949  0.000000  0.385051  1
  Si  Si13  1  0.614949  0.000000  0.114949  1
  Si  Si14  1  0.385051  0.000000  0.885051  1
  Os  Os15  1  0.250000  0.500000  0.250000  1
