# generated using pymatgen
data_YTa2(Nb2Br9)2
_symmetry_space_group_name_H-M   'P 1'
_cell_length_a   10.73279790
_cell_length_b   10.72728159
_cell_length_c   10.73134732
_cell_angle_alpha   56.06315106
_cell_angle_beta   56.02841922
_cell_angle_gamma   56.05826579
_symmetry_Int_Tables_number   1
_chemical_formula_structural   YTa2(Nb2Br9)2
_chemical_formula_sum   'Y1 Ta2 Nb4 Br18'
_cell_volume   793.72719744
_cell_formula_units_Z   1
loop_
 _symmetry_equiv_pos_site_id
 _symmetry_equiv_pos_as_xyz
  1  'x, y, z'
loop_
 _atom_site_type_symbol
 _atom_site_label
 _atom_site_symmetry_multiplicity
 _atom_site_fract_x
 _atom_site_fract_y
 _atom_site_fract_z
 _atom_site_occupancy
  Y  Y0  1  0.999482  0.000118  0.000391  1
  Ta  Ta1  1  0.412603  0.309382  0.642624  1
  Ta  Ta2  1  0.357313  0.587566  0.690495  1
  Nb  Nb3  1  0.691935  0.356336  0.587800  1
  Nb  Nb4  1  0.308353  0.643680  0.411883  1
  Nb  Nb5  1  0.644268  0.411731  0.307563  1
  Nb  Nb6  1  0.588436  0.692293  0.355782  1
  Br  Br7  1  0.567037  0.162027  0.443562  1
  Br  Br8  1  0.224251  0.371937  0.905692  1
  Br  Br9  1  0.907455  0.223438  0.371093  1
  Br  Br10  1  0.371095  0.907425  0.223865  1
  Br  Br11  1  0.776368  0.628844  0.092636  1
  Br  Br12  1  0.093779  0.775509  0.630447  1
  Br  Br13  1  0.700786  0.960264  0.160732  1
  Br  Br14  1  0.959263  0.159948  0.701808  1
  Br  Br15  1  0.162293  0.699770  0.957383  1
  Br  Br16  1  0.299619  0.042925  0.838454  1
  Br  Br17  1  0.040287  0.838847  0.299259  1
  Br  Br18  1  0.839655  0.298668  0.039973  1
  Br  Br19  1  0.556265  0.433060  0.837906  1
  Br  Br20  1  0.163370  0.439317  0.569973  1
  Br  Br21  1  0.441542  0.568286  0.162176  1
  Br  Br22  1  0.430204  0.836646  0.560567  1
  Br  Br23  1  0.837902  0.558697  0.431495  1
  Br  Br24  1  0.626438  0.093290  0.776444  1
