# generated using pymatgen
data_Cs4Zr6RuBr18
_symmetry_space_group_name_H-M   'P 1'
_cell_length_a   11.05577119
_cell_length_b   11.39697425
_cell_length_c   11.48967800
_cell_angle_alpha   118.26520378
_cell_angle_beta   100.80987379
_cell_angle_gamma   104.13599500
_symmetry_Int_Tables_number   1
_chemical_formula_structural   Cs4Zr6RuBr18
_chemical_formula_sum   'Cs4 Zr6 Ru1 Br18'
_cell_volume   1155.95737304
_cell_formula_units_Z   1
loop_
 _symmetry_equiv_pos_site_id
 _symmetry_equiv_pos_as_xyz
  1  'x, y, z'
loop_
 _atom_site_type_symbol
 _atom_site_label
 _atom_site_symmetry_multiplicity
 _atom_site_fract_x
 _atom_site_fract_y
 _atom_site_fract_z
 _atom_site_occupancy
  Cs  Cs0  1  0.662343  0.537650  0.229066  1
  Cs  Cs1  1  0.337657  0.462350  0.770934  1
  Cs  Cs2  1  0.697570  0.229899  0.566597  1
  Cs  Cs3  1  0.302430  0.770101  0.433403  1
  Zr  Zr4  1  0.155434  0.057890  0.232894  1
  Zr  Zr5  1  0.844566  0.942110  0.767106  1
  Zr  Zr6  1  0.858076  0.123903  0.130367  1
  Zr  Zr7  1  0.141924  0.876097  0.869633  1
  Zr  Zr8  1  0.149154  0.240412  0.046138  1
  Zr  Zr9  1  0.850846  0.759588  0.953862  1
  Ru  Ru10  1  0.000000  0.000000  0.000000  1
  Br  Br11  1  0.007753  0.390341  0.186808  1
  Br  Br12  1  0.992247  0.609659  0.813192  1
  Br  Br13  1  0.322885  0.321496  0.300827  1
  Br  Br14  1  0.677115  0.678504  0.699173  1
  Br  Br15  1  0.316702  0.503331  0.099812  1
  Br  Br16  1  0.683298  0.496669  0.900188  1
  Br  Br17  1  0.005521  0.805091  0.201484  1
  Br  Br18  1  0.994479  0.194909  0.798516  1
  Br  Br19  1  0.709011  0.259772  0.273146  1
  Br  Br20  1  0.290989  0.740228  0.726854  1
  Br  Br21  1  0.309016  0.124917  0.909854  1
  Br  Br22  1  0.690984  0.875083  0.090146  1
  Br  Br23  1  0.016232  0.195150  0.390237  1
  Br  Br24  1  0.983768  0.804850  0.609763  1
  Br  Br25  1  0.314786  0.929738  0.109686  1
  Br  Br26  1  0.685214  0.070262  0.890314  1
  Br  Br27  1  0.330533  0.121668  0.486737  1
  Br  Br28  1  0.669467  0.878332  0.513263  1
