# generated using pymatgen
data_Er5Sc3Ti11Si16Mo
_symmetry_space_group_name_H-M   'P 1'
_cell_length_a   6.95497722
_cell_length_b   6.95120239
_cell_length_c   12.77360652
_cell_angle_alpha   89.94546197
_cell_angle_beta   90.08788351
_cell_angle_gamma   89.97115733
_symmetry_Int_Tables_number   1
_chemical_formula_structural   Er5Sc3Ti11Si16Mo
_chemical_formula_sum   'Er5 Sc3 Ti11 Si16 Mo1'
_cell_volume   617.54472517
_cell_formula_units_Z   1
loop_
 _symmetry_equiv_pos_site_id
 _symmetry_equiv_pos_as_xyz
  1  'x, y, z'
loop_
 _atom_site_type_symbol
 _atom_site_label
 _atom_site_symmetry_multiplicity
 _atom_site_fract_x
 _atom_site_fract_y
 _atom_site_fract_z
 _atom_site_occupancy
  Er  Er0  1  0.838792  0.495925  0.282766  1
  Er  Er1  1  0.160772  0.501918  0.783275  1
  Er  Er2  1  0.657706  0.998590  0.967446  1
  Er  Er3  1  0.004412  0.339262  0.532439  1
  Er  Er4  1  0.998520  0.658034  0.033246  1
  Sc  Sc5  1  0.343329  0.999900  0.466549  1
  Sc  Sc6  1  0.500003  0.842312  0.716577  1
  Sc  Sc7  1  0.497299  0.157523  0.215144  1
  Ti  Ti8  1  0.175011  0.828981  0.250138  1
  Ti  Ti9  1  0.826608  0.172625  0.749798  1
  Ti  Ti10  1  0.671179  0.674772  0.500029  1
  Ti  Ti11  1  0.153511  0.006698  0.875564  1
  Ti  Ti12  1  0.492813  0.651245  0.124645  1
  Ti  Ti13  1  0.504704  0.349421  0.625225  1
  Ti  Ti14  1  0.650206  0.491902  0.875638  1
  Ti  Ti15  1  0.350390  0.507887  0.374170  1
  Ti  Ti16  1  0.848499  0.994810  0.375544  1
  Ti  Ti17  1  0.008692  0.152903  0.124760  1
  Ti  Ti18  1  0.992414  0.849752  0.623786  1
  Si  Si19  1  0.207807  0.127486  0.681908  1
  Si  Si20  1  0.369651  0.704146  0.932316  1
  Si  Si21  1  0.627700  0.291776  0.432276  1
  Si  Si22  1  0.699722  0.365642  0.069137  1
  Si  Si23  1  0.300200  0.639197  0.568010  1
  Si  Si24  1  0.793224  0.872131  0.183822  1
  Si  Si25  1  0.139099  0.199509  0.318165  1
  Si  Si26  1  0.864725  0.797480  0.815197  1
  Si  Si27  1  0.293498  0.955566  0.066316  1
  Si  Si28  1  0.543181  0.799429  0.315455  1
  Si  Si29  1  0.454162  0.203515  0.813780  1
  Si  Si30  1  0.789807  0.548323  0.684924  1
  Si  Si31  1  0.210330  0.450062  0.185530  1
  Si  Si32  1  0.701004  0.043992  0.565291  1
  Si  Si33  1  0.953217  0.290848  0.935458  1
  Si  Si34  1  0.050079  0.710715  0.435308  1
  Mo  Mo35  1  0.327734  0.325724  0.000369  1
