# generated using pymatgen
data_Sr2InSnPt2
_symmetry_space_group_name_H-M   'P 1'
_cell_length_a   4.62966400
_cell_length_b   7.71885300
_cell_length_c   8.40994600
_cell_angle_alpha   90.00000000
_cell_angle_beta   90.00000000
_cell_angle_gamma   90.00000000
_symmetry_Int_Tables_number   1
_chemical_formula_structural   Sr2InSnPt2
_chemical_formula_sum   'Sr4 In2 Sn2 Pt4'
_cell_volume   300.53527242
_cell_formula_units_Z   2
loop_
 _symmetry_equiv_pos_site_id
 _symmetry_equiv_pos_as_xyz
  1  'x, y, z'
loop_
 _atom_site_type_symbol
 _atom_site_label
 _atom_site_symmetry_multiplicity
 _atom_site_fract_x
 _atom_site_fract_y
 _atom_site_fract_z
 _atom_site_occupancy
  Sr  Sr0  1  0.750000  0.972724  0.679506  1
  Sr  Sr1  1  0.250000  0.025181  0.320482  1
  Sr  Sr2  1  0.750000  0.474819  0.820482  1
  Sr  Sr3  1  0.250000  0.527276  0.179506  1
  In  In4  1  0.750000  0.351341  0.430584  1
  In  In5  1  0.250000  0.148659  0.930584  1
  Sn  Sn6  1  0.250000  0.654692  0.568217  1
  Sn  Sn7  1  0.750000  0.845308  0.068217  1
  Pt  Pt8  1  0.250000  0.779447  0.882978  1
  Pt  Pt9  1  0.250000  0.291073  0.618233  1
  Pt  Pt10  1  0.750000  0.720553  0.382978  1
  Pt  Pt11  1  0.750000  0.208927  0.118233  1
