# generated using pymatgen
data_Ba2GaAsPt2
_symmetry_space_group_name_H-M   'P 1'
_cell_length_a   6.81297100
_cell_length_b   6.88361017
_cell_length_c   6.91437041
_cell_angle_alpha   91.70461324
_cell_angle_beta   90.00000000
_cell_angle_gamma   90.00000000
_symmetry_Int_Tables_number   1
_chemical_formula_structural   Ba2GaAsPt2
_chemical_formula_sum   'Ba4 Ga2 As2 Pt4'
_cell_volume   324.12551378
_cell_formula_units_Z   2
loop_
 _symmetry_equiv_pos_site_id
 _symmetry_equiv_pos_as_xyz
  1  'x, y, z'
loop_
 _atom_site_type_symbol
 _atom_site_label
 _atom_site_symmetry_multiplicity
 _atom_site_fract_x
 _atom_site_fract_y
 _atom_site_fract_z
 _atom_site_occupancy
  Ba  Ba0  1  0.635411  0.376702  0.865307  1
  Ba  Ba1  1  0.363235  0.864330  0.631662  1
  Ba  Ba2  1  0.135411  0.123298  0.134693  1
  Ba  Ba3  1  0.863235  0.635670  0.368338  1
  Ga  Ga4  1  0.158933  0.346642  0.656987  1
  Ga  Ga5  1  0.658933  0.153358  0.343013  1
  As  As6  1  0.335912  0.660816  0.171022  1
  As  As7  1  0.835912  0.839184  0.828978  1
  Pt  Pt8  1  0.591052  0.902604  0.087238  1
  Pt  Pt9  1  0.091052  0.597396  0.912762  1
  Pt  Pt10  1  0.415457  0.414115  0.411627  1
  Pt  Pt11  1  0.915457  0.085885  0.588373  1
