# generated using pymatgen
data_Pr8Tm12Tl15Sn
_symmetry_space_group_name_H-M   'P 1'
_cell_length_a   8.04834218
_cell_length_b   8.37704057
_cell_length_c   15.89782800
_cell_angle_alpha   90.04622900
_cell_angle_beta   89.55186438
_cell_angle_gamma   90.12187749
_symmetry_Int_Tables_number   1
_chemical_formula_structural   Pr8Tm12Tl15Sn
_chemical_formula_sum   'Pr8 Tm12 Tl15 Sn1'
_cell_volume   1071.81651020
_cell_formula_units_Z   1
loop_
 _symmetry_equiv_pos_site_id
 _symmetry_equiv_pos_as_xyz
  1  'x, y, z'
loop_
 _atom_site_type_symbol
 _atom_site_label
 _atom_site_symmetry_multiplicity
 _atom_site_fract_x
 _atom_site_fract_y
 _atom_site_fract_z
 _atom_site_occupancy
  Pr  Pr0  1  0.004626  0.183359  0.406043  1
  Pr  Pr1  1  0.503709  0.316424  0.407608  1
  Pr  Pr2  1  0.495074  0.683137  0.906716  1
  Pr  Pr3  1  0.493592  0.682628  0.593959  1
  Pr  Pr4  1  0.996169  0.816918  0.594226  1
  Pr  Pr5  1  0.994773  0.815541  0.906653  1
  Pr  Pr6  1  0.505120  0.315510  0.093398  1
  Pr  Pr7  1  0.005270  0.184515  0.093337  1
  Tm  Tm8  1  0.331357  0.163661  0.624043  1
  Tm  Tm9  1  0.668595  0.838325  0.375444  1
  Tm  Tm10  1  0.664987  0.999943  0.750112  1
  Tm  Tm11  1  0.171270  0.664677  0.375405  1
  Tm  Tm12  1  0.830459  0.337960  0.874872  1
  Tm  Tm13  1  0.829884  0.335640  0.625209  1
  Tm  Tm14  1  0.835919  0.499833  0.249204  1
  Tm  Tm15  1  0.335033  0.001736  0.250262  1
  Tm  Tm16  1  0.329905  0.162234  0.875168  1
  Tm  Tm17  1  0.171500  0.660749  0.124813  1
  Tm  Tm18  1  0.668997  0.837729  0.124594  1
  Tm  Tm19  1  0.165727  0.500366  0.748402  1
  Tl  Tl20  1  0.293745  0.860219  0.749982  1
  Tl  Tl21  1  0.475191  0.621375  0.250806  1
  Tl  Tl22  1  0.026248  0.121936  0.749995  1
  Tl  Tl23  1  0.526295  0.378072  0.750433  1
  Tl  Tl24  1  0.973712  0.877383  0.249065  1
  Tl  Tl25  1  0.706580  0.139482  0.250230  1
  Tl  Tl26  1  0.824121  0.537500  0.041979  1
  Tl  Tl27  1  0.324247  0.960949  0.042004  1
  Tl  Tl28  1  0.175349  0.462250  0.957476  1
  Tl  Tl29  1  0.677116  0.037714  0.541979  1
  Tl  Tl30  1  0.324345  0.962288  0.458650  1
  Tl  Tl31  1  0.824253  0.538953  0.457828  1
  Tl  Tl32  1  0.793950  0.639910  0.749610  1
  Tl  Tl33  1  0.206097  0.360792  0.250943  1
  Tl  Tl34  1  0.675239  0.038593  0.957886  1
  Sn  Sn35  1  0.171546  0.461699  0.541668  1
