# generated using pymatgen
data_NaEuWN3
_symmetry_space_group_name_H-M   'P 1'
_cell_length_a   6.32849669
_cell_length_b   6.32849705
_cell_length_c   12.66201500
_cell_angle_alpha   89.81029925
_cell_angle_beta   89.81029924
_cell_angle_gamma   122.66893010
_symmetry_Int_Tables_number   1
_chemical_formula_structural   NaEuWN3
_chemical_formula_sum   'Na4 Eu4 W4 N12'
_cell_volume   426.87862056
_cell_formula_units_Z   4
loop_
 _symmetry_equiv_pos_site_id
 _symmetry_equiv_pos_as_xyz
  1  'x, y, z'
loop_
 _atom_site_type_symbol
 _atom_site_label
 _atom_site_symmetry_multiplicity
 _atom_site_fract_x
 _atom_site_fract_y
 _atom_site_fract_z
 _atom_site_occupancy
  Na  Na0  1  0.930255  0.526404  0.383791  1
  Na  Na1  1  0.473596  0.069745  0.116209  1
  Na  Na2  1  0.069745  0.473596  0.616209  1
  Na  Na3  1  0.526404  0.930255  0.883791  1
  Eu  Eu4  1  0.108442  0.326210  0.082966  1
  Eu  Eu5  1  0.673790  0.891558  0.417034  1
  Eu  Eu6  1  0.891558  0.673790  0.917034  1
  Eu  Eu7  1  0.326210  0.108442  0.582966  1
  W  W8  1  0.758511  0.724056  0.162759  1
  W  W9  1  0.275944  0.241489  0.337241  1
  W  W10  1  0.241489  0.275944  0.837241  1
  W  W11  1  0.724056  0.758511  0.662759  1
  N  N12  1  0.456012  0.543988  0.250000  1
  N  N13  1  0.543988  0.456012  0.750000  1
  N  N14  1  0.865626  0.525451  0.109771  1
  N  N15  1  0.474549  0.134374  0.390229  1
  N  N16  1  0.134374  0.474549  0.890229  1
  N  N17  1  0.525451  0.865626  0.609771  1
  N  N18  1  0.874673  0.711792  0.547510  1
  N  N19  1  0.288208  0.125327  0.952490  1
  N  N20  1  0.125327  0.288208  0.452490  1
  N  N21  1  0.711792  0.874673  0.047510  1
  N  N22  1  0.006263  0.993737  0.250000  1
  N  N23  1  0.993737  0.006263  0.750000  1
