# generated using pymatgen
data_TbPr3(Ga5Pd3)2
_symmetry_space_group_name_H-M   'P 1'
_cell_length_a   8.74645057
_cell_length_b   8.74471273
_cell_length_c   8.74471300
_cell_angle_alpha   140.64524371
_cell_angle_beta   107.86880139
_cell_angle_gamma   85.40464651
_symmetry_Int_Tables_number   1
_chemical_formula_structural   TbPr3(Ga5Pd3)2
_chemical_formula_sum   'Tb1 Pr3 Ga10 Pd6'
_cell_volume   389.74383882
_cell_formula_units_Z   1
loop_
 _symmetry_equiv_pos_site_id
 _symmetry_equiv_pos_as_xyz
  1  'x, y, z'
loop_
 _atom_site_type_symbol
 _atom_site_label
 _atom_site_symmetry_multiplicity
 _atom_site_fract_x
 _atom_site_fract_y
 _atom_site_fract_z
 _atom_site_occupancy
  Tb  Tb0  1  0.913162  0.638098  0.275064  1
  Pr  Pr1  1  0.636863  0.862329  0.774533  1
  Pr  Pr2  1  0.363342  0.137772  0.225570  1
  Pr  Pr3  1  0.087583  0.361987  0.725596  1
  Ga  Ga4  1  0.288951  0.039614  0.749421  1
  Ga  Ga5  1  0.710678  0.958858  0.250242  1
  Ga  Ga6  1  0.710678  0.460436  0.751820  1
  Ga  Ga7  1  0.288951  0.539531  0.249337  1
  Ga  Ga8  1  0.431897  0.596871  0.835026  1
  Ga  Ga9  1  0.569132  0.404061  0.165070  1
  Ga  Ga10  1  0.762809  0.097157  0.665651  1
  Ga  Ga11  1  0.238671  0.902792  0.335879  1
  Ga  Ga12  1  0.999363  0.749901  0.748397  1
  Ga  Ga13  1  0.999363  0.250966  0.249462  1
  Pd  Pd14  1  0.238898  0.643760  0.595139  1
  Pd  Pd15  1  0.759421  0.355722  0.403698  1
  Pd  Pd16  1  0.045576  0.143790  0.901786  1
  Pd  Pd17  1  0.953014  0.855756  0.097258  1
  Pd  Pd18  1  0.500824  0.750319  0.250546  1
  Pd  Pd19  1  0.500824  0.250278  0.750505  1
