# generated using pymatgen
data_U6Fe16Si7S
_symmetry_space_group_name_H-M   'P 1'
_cell_length_a   8.27032564
_cell_length_b   8.27032594
_cell_length_c   8.27032500
_cell_angle_alpha   59.99999978
_cell_angle_beta   59.99999857
_cell_angle_gamma   60.00000256
_symmetry_Int_Tables_number   1
_chemical_formula_structural   U6Fe16Si7S
_chemical_formula_sum   'U6 Fe16 Si7 S1'
_cell_volume   399.99339285
_cell_formula_units_Z   1
loop_
 _symmetry_equiv_pos_site_id
 _symmetry_equiv_pos_as_xyz
  1  'x, y, z'
loop_
 _atom_site_type_symbol
 _atom_site_label
 _atom_site_symmetry_multiplicity
 _atom_site_fract_x
 _atom_site_fract_y
 _atom_site_fract_z
 _atom_site_occupancy
  U  U0  1  0.726440  0.273559  0.273559  1
  U  U1  1  0.273559  0.726440  0.726440  1
  U  U2  1  0.273559  0.726440  0.273559  1
  U  U3  1  0.273559  0.273559  0.726440  1
  U  U4  1  0.726440  0.273559  0.726440  1
  U  U5  1  0.726440  0.726440  0.273559  1
  Fe  Fe6  1  0.326918  0.326918  0.326918  1
  Fe  Fe7  1  0.326918  0.326918  0.019245  1
  Fe  Fe8  1  0.019245  0.326918  0.326918  1
  Fe  Fe9  1  0.326918  0.019245  0.326918  1
  Fe  Fe10  1  0.673082  0.673082  0.673082  1
  Fe  Fe11  1  0.673082  0.673082  0.980754  1
  Fe  Fe12  1  0.673082  0.980754  0.673082  1
  Fe  Fe13  1  0.980754  0.673082  0.673082  1
  Fe  Fe14  1  0.122739  0.122739  0.122739  1
  Fe  Fe15  1  0.122739  0.122739  0.631782  1
  Fe  Fe16  1  0.631782  0.122739  0.122739  1
  Fe  Fe17  1  0.122739  0.631782  0.122739  1
  Fe  Fe18  1  0.877261  0.877261  0.877261  1
  Fe  Fe19  1  0.877261  0.877261  0.368217  1
  Fe  Fe20  1  0.877261  0.368217  0.877261  1
  Fe  Fe21  1  0.368217  0.877261  0.877261  1
  Si  Si22  1  0.000000  0.000000  0.000000  1
  Si  Si23  1  0.500000  0.000000  0.000000  1
  Si  Si24  1  0.000000  0.500000  0.500000  1
  Si  Si25  1  0.000000  0.500000  0.000000  1
  Si  Si26  1  0.000000  0.000000  0.500000  1
  Si  Si27  1  0.500000  0.000000  0.500000  1
  Si  Si28  1  0.500000  0.500000  0.000000  1
  S  S29  1  0.500000  0.500000  0.500000  1
