# generated using pymatgen
data_Dy3ErCo18(P6Ru)2
_symmetry_space_group_name_H-M   'P 1'
_cell_length_a   3.66391100
_cell_length_b   10.32095314
_cell_length_c   11.73632615
_cell_angle_alpha   89.98141532
_cell_angle_beta   90.00000488
_cell_angle_gamma   89.99999445
_symmetry_Int_Tables_number   1
_chemical_formula_structural   Dy3ErCo18(P6Ru)2
_chemical_formula_sum   'Dy3 Er1 Co18 P12 Ru2'
_cell_volume   443.80978071
_cell_formula_units_Z   1
loop_
 _symmetry_equiv_pos_site_id
 _symmetry_equiv_pos_as_xyz
  1  'x, y, z'
loop_
 _atom_site_type_symbol
 _atom_site_label
 _atom_site_symmetry_multiplicity
 _atom_site_fract_x
 _atom_site_fract_y
 _atom_site_fract_z
 _atom_site_occupancy
  Dy  Dy0  1  0.250000  0.582276  0.702305  1
  Dy  Dy1  1  0.250000  0.917673  0.202241  1
  Dy  Dy2  1  0.750000  0.086054  0.795565  1
  Er  Er3  1  0.750000  0.414132  0.295582  1
  Co  Co4  1  0.750000  0.283987  0.008762  1
  Co  Co5  1  0.750000  0.216066  0.508622  1
  Co  Co6  1  0.250000  0.405892  0.487096  1
  Co  Co7  1  0.250000  0.094082  0.987975  1
  Co  Co8  1  0.750000  0.590727  0.510024  1
  Co  Co9  1  0.750000  0.908992  0.010216  1
  Co  Co10  1  0.250000  0.221140  0.176826  1
  Co  Co11  1  0.250000  0.279573  0.676590  1
  Co  Co12  1  0.750000  0.778334  0.823039  1
  Co  Co13  1  0.750000  0.721348  0.322878  1
  Co  Co14  1  0.250000  0.886459  0.701556  1
  Co  Co15  1  0.250000  0.612843  0.201923  1
  Co  Co16  1  0.750000  0.116989  0.300927  1
  Co  Co17  1  0.750000  0.383515  0.801144  1
  Co  Co18  1  0.250000  0.464538  0.932915  1
  Co  Co19  1  0.250000  0.035809  0.432360  1
  Co  Co20  1  0.750000  0.532347  0.069458  1
  Co  Co21  1  0.750000  0.967314  0.568937  1
  P  P22  1  0.250000  0.417097  0.112678  1
  P  P23  1  0.250000  0.082893  0.611933  1
  P  P24  1  0.750000  0.578661  0.887312  1
  P  P25  1  0.750000  0.921384  0.386990  1
  P  P26  1  0.250000  0.270487  0.869369  1
  P  P27  1  0.250000  0.230392  0.368921  1
  P  P28  1  0.750000  0.728654  0.132611  1
  P  P29  1  0.750000  0.771261  0.632593  1
  P  P30  1  0.250000  0.594339  0.390114  1
  P  P31  1  0.250000  0.904940  0.890436  1
  P  P32  1  0.750000  0.396834  0.608560  1
  P  P33  1  0.750000  0.103215  0.108531  1
  Ru  Ru34  1  0.250000  0.714944  0.991641  1
  Ru  Ru35  1  0.250000  0.784811  0.491370  1
