# generated using pymatgen
data_Ho8Ge(Pd11Pt)2
_symmetry_space_group_name_H-M   'P 1'
_cell_length_a   8.34221500
_cell_length_b   8.33149200
_cell_length_c   8.33149200
_cell_angle_alpha   90.00000000
_cell_angle_beta   90.00000000
_cell_angle_gamma   90.00000000
_symmetry_Int_Tables_number   1
_chemical_formula_structural   Ho8Ge(Pd11Pt)2
_chemical_formula_sum   'Ho8 Ge1 Pd22 Pt2'
_cell_volume   579.06450109
_cell_formula_units_Z   1
loop_
 _symmetry_equiv_pos_site_id
 _symmetry_equiv_pos_as_xyz
  1  'x, y, z'
loop_
 _atom_site_type_symbol
 _atom_site_label
 _atom_site_symmetry_multiplicity
 _atom_site_fract_x
 _atom_site_fract_y
 _atom_site_fract_z
 _atom_site_occupancy
  Ho  Ho0  1  0.253650  0.253927  0.253927  1
  Ho  Ho1  1  0.746350  0.746073  0.746073  1
  Ho  Ho2  1  0.746350  0.746073  0.253927  1
  Ho  Ho3  1  0.746350  0.253927  0.746073  1
  Ho  Ho4  1  0.253650  0.253927  0.746073  1
  Ho  Ho5  1  0.253650  0.746073  0.253927  1
  Ho  Ho6  1  0.253650  0.746073  0.746073  1
  Ho  Ho7  1  0.746350  0.253927  0.253927  1
  Ge  Ge8  1  0.000000  0.000000  0.000000  1
  Pd  Pd9  1  0.259462  0.500000  0.000000  1
  Pd  Pd10  1  0.740538  0.500000  0.000000  1
  Pd  Pd11  1  0.000000  0.259473  0.500000  1
  Pd  Pd12  1  0.500000  0.259460  0.000000  1
  Pd  Pd13  1  0.000000  0.740527  0.500000  1
  Pd  Pd14  1  0.500000  0.740540  0.000000  1
  Pd  Pd15  1  0.500000  0.000000  0.259460  1
  Pd  Pd16  1  0.259462  0.000000  0.500000  1
  Pd  Pd17  1  0.500000  0.000000  0.740540  1
  Pd  Pd18  1  0.740538  0.000000  0.500000  1
  Pd  Pd19  1  0.000000  0.500000  0.259473  1
  Pd  Pd20  1  0.000000  0.500000  0.740527  1
  Pd  Pd21  1  0.500000  0.253185  0.500000  1
  Pd  Pd22  1  0.500000  0.746815  0.500000  1
  Pd  Pd23  1  0.500000  0.500000  0.253185  1
  Pd  Pd24  1  0.500000  0.500000  0.746815  1
  Pd  Pd25  1  0.288632  0.000000  0.000000  1
  Pd  Pd26  1  0.711368  0.000000  0.000000  1
  Pd  Pd27  1  0.000000  0.288588  0.000000  1
  Pd  Pd28  1  0.000000  0.711412  0.000000  1
  Pd  Pd29  1  0.000000  0.000000  0.288588  1
  Pd  Pd30  1  0.000000  0.000000  0.711412  1
  Pt  Pt31  1  0.252945  0.500000  0.500000  1
  Pt  Pt32  1  0.747055  0.500000  0.500000  1
