# generated using pymatgen
data_Mn16TlO32
_symmetry_space_group_name_H-M   'P 1'
_cell_length_a   5.88375400
_cell_length_b   9.89371143
_cell_length_c   9.94354800
_cell_angle_alpha   89.84030356
_cell_angle_beta   89.99975655
_cell_angle_gamma   89.99992404
_symmetry_Int_Tables_number   1
_chemical_formula_structural   Mn16TlO32
_chemical_formula_sum   'Mn16 Tl1 O32'
_cell_volume   578.83320056
_cell_formula_units_Z   1
loop_
 _symmetry_equiv_pos_site_id
 _symmetry_equiv_pos_as_xyz
  1  'x, y, z'
loop_
 _atom_site_type_symbol
 _atom_site_label
 _atom_site_symmetry_multiplicity
 _atom_site_fract_x
 _atom_site_fract_y
 _atom_site_fract_z
 _atom_site_occupancy
  Mn  Mn0  1  0.500002  0.166590  0.346559  1
  Mn  Mn1  1  0.000001  0.164572  0.344503  1
  Mn  Mn2  1  0.499994  0.349003  0.829925  1
  Mn  Mn3  1  0.999993  0.347037  0.831769  1
  Mn  Mn4  1  0.000002  0.652121  0.160764  1
  Mn  Mn5  1  0.500000  0.650079  0.162695  1
  Mn  Mn6  1  0.000002  0.834326  0.648188  1
  Mn  Mn7  1  0.500002  0.832419  0.646205  1
  Mn  Mn8  1  0.749928  0.667501  0.845938  1
  Mn  Mn9  1  0.250072  0.667500  0.845938  1
  Mn  Mn10  1  0.749895  0.848049  0.329322  1
  Mn  Mn11  1  0.250111  0.848048  0.329321  1
  Mn  Mn12  1  0.749898  0.150954  0.663480  1
  Mn  Mn13  1  0.250098  0.150955  0.663481  1
  Mn  Mn14  1  0.749920  0.331549  0.146717  1
  Mn  Mn15  1  0.250077  0.331548  0.146715  1
  Tl  Tl16  1  0.000014  0.499158  0.494976  1
  O  O17  1  0.749645  0.957066  0.658465  1
  O  O18  1  0.250358  0.957066  0.658467  1
  O  O19  1  0.749612  0.665100  0.038850  1
  O  O20  1  0.250390  0.665100  0.038849  1
  O  O21  1  0.749643  0.334140  0.953741  1
  O  O22  1  0.250344  0.334137  0.953739  1
  O  O23  1  0.749638  0.041838  0.334441  1
  O  O24  1  0.250369  0.041838  0.334438  1
  O  O25  1  0.999999  0.456480  0.161314  1
  O  O26  1  0.499998  0.455682  0.160132  1
  O  O27  1  0.000001  0.168038  0.539269  1
  O  O28  1  0.499999  0.166963  0.540093  1
  O  O29  1  0.500002  0.831870  0.452757  1
  O  O30  1  0.000002  0.830779  0.453545  1
  O  O31  1  0.500000  0.543385  0.832486  1
  O  O32  1  0.999999  0.542626  0.831521  1
  O  O33  1  0.500001  0.796581  0.839018  1
  O  O34  1  0.000002  0.796922  0.840258  1
  O  O35  1  0.000002  0.844472  0.200528  1
  O  O36  1  0.500003  0.843210  0.200829  1
  O  O37  1  0.000000  0.202121  0.152438  1
  O  O38  1  0.500001  0.202470  0.153720  1
  O  O39  1  0.499996  0.155841  0.791967  1
  O  O40  1  0.999994  0.154629  0.792250  1
  O  O41  1  0.751887  0.296657  0.340694  1
  O  O42  1  0.248114  0.296656  0.340693  1
  O  O43  1  0.751799  0.345374  0.700464  1
  O  O44  1  0.248191  0.345372  0.700465  1
  O  O45  1  0.751819  0.702364  0.651976  1
  O  O46  1  0.248185  0.702363  0.651975  1
  O  O47  1  0.751826  0.653558  0.292110  1
  O  O48  1  0.248175  0.653557  0.292109  1
