# generated using pymatgen
data_Pu4V2FeB16Os
_symmetry_space_group_name_H-M   'P 1'
_cell_length_a   5.97536394
_cell_length_b   11.56109000
_cell_length_c   3.47446600
_cell_angle_alpha   90.00000000
_cell_angle_beta   90.00000000
_cell_angle_gamma   90.04558098
_symmetry_Int_Tables_number   1
_chemical_formula_structural   Pu4V2FeB16Os
_chemical_formula_sum   'Pu4 V2 Fe1 B16 Os1'
_cell_volume   240.02201231
_cell_formula_units_Z   1
loop_
 _symmetry_equiv_pos_site_id
 _symmetry_equiv_pos_as_xyz
  1  'x, y, z'
loop_
 _atom_site_type_symbol
 _atom_site_label
 _atom_site_symmetry_multiplicity
 _atom_site_fract_x
 _atom_site_fract_y
 _atom_site_fract_z
 _atom_site_occupancy
  Pu  Pu0  1  0.624976  0.346280  0.000000  1
  Pu  Pu1  1  0.374525  0.652004  0.000000  1
  Pu  Pu2  1  0.124536  0.149867  0.000000  1
  Pu  Pu3  1  0.874250  0.852284  0.000000  1
  V  V4  1  0.372240  0.916375  0.000000  1
  V  V5  1  0.132459  0.412225  0.000000  1
  Fe  Fe6  1  0.626098  0.083532  0.000000  1
  B  B7  1  0.779917  0.182861  0.500000  1
  B  B8  1  0.214811  0.814853  0.500000  1
  B  B9  1  0.286540  0.312252  0.500000  1
  B  B10  1  0.715884  0.686809  0.500000  1
  B  B11  1  0.862165  0.033914  0.500000  1
  B  B12  1  0.135492  0.968759  0.500000  1
  B  B13  1  0.365236  0.467519  0.500000  1
  B  B14  1  0.634811  0.532356  0.500000  1
  B  B15  1  0.884588  0.452504  0.500000  1
  B  B16  1  0.114962  0.547168  0.500000  1
  B  B17  1  0.388339  0.047922  0.500000  1
  B  B18  1  0.615236  0.955453  0.500000  1
  B  B19  1  0.972335  0.306765  0.500000  1
  B  B20  1  0.026592  0.692885  0.500000  1
  B  B21  1  0.476813  0.190328  0.500000  1
  B  B22  1  0.526639  0.809211  0.500000  1
  Os  Os23  1  0.870554  0.585871  0.000000  1
