# generated using pymatgen
data_Ca2Fe(CN)2
_symmetry_space_group_name_H-M   'P 1'
_cell_length_a   6.64883659
_cell_length_b   6.64883633
_cell_length_c   6.64883747
_cell_angle_alpha   136.41151383
_cell_angle_beta   112.97751518
_cell_angle_gamma   83.41480892
_symmetry_Int_Tables_number   1
_chemical_formula_structural   Ca2Fe(CN)2
_chemical_formula_sum   'Ca4 Fe2 C4 N4'
_cell_volume   179.91632920
_cell_formula_units_Z   2
loop_
 _symmetry_equiv_pos_site_id
 _symmetry_equiv_pos_as_xyz
  1  'x, y, z'
loop_
 _atom_site_type_symbol
 _atom_site_label
 _atom_site_symmetry_multiplicity
 _atom_site_fract_x
 _atom_site_fract_y
 _atom_site_fract_z
 _atom_site_occupancy
  Ca  Ca0  1  0.195539  0.350586  0.844952  1
  Ca  Ca1  1  0.804461  0.649414  0.155048  1
  Ca  Ca2  1  0.505633  0.850586  0.655048  1
  Ca  Ca3  1  0.494367  0.149414  0.344952  1
  Fe  Fe4  1  0.000000  0.250000  0.250000  1
  Fe  Fe5  1  0.000000  0.750000  0.750000  1
  C  C6  1  0.909502  0.074955  0.834548  1
  C  C7  1  0.090498  0.925045  0.165452  1
  C  C8  1  0.240406  0.574955  0.665452  1
  C  C9  1  0.759594  0.425045  0.334548  1
  N  N10  1  0.798510  0.127975  0.670536  1
  N  N11  1  0.201490  0.872025  0.329464  1
  N  N12  1  0.457440  0.627975  0.829464  1
  N  N13  1  0.542560  0.372025  0.170536  1
