# generated using pymatgen
data_Er2Tm10Co6Pb
_symmetry_space_group_name_H-M   'P 1'
_cell_length_a   8.26910195
_cell_length_b   8.26910173
_cell_length_c   8.26551107
_cell_angle_alpha   109.46826644
_cell_angle_beta   109.47156690
_cell_angle_gamma   109.49142381
_symmetry_Int_Tables_number   1
_chemical_formula_structural   Er2Tm10Co6Pb
_chemical_formula_sum   'Er2 Tm10 Co6 Pb1'
_cell_volume   434.98085698
_cell_formula_units_Z   1
loop_
 _symmetry_equiv_pos_site_id
 _symmetry_equiv_pos_as_xyz
  1  'x, y, z'
loop_
 _atom_site_type_symbol
 _atom_site_label
 _atom_site_symmetry_multiplicity
 _atom_site_fract_x
 _atom_site_fract_y
 _atom_site_fract_z
 _atom_site_occupancy
  Er  Er0  1  0.805362  0.696422  0.501786  1
  Er  Er1  1  0.194638  0.303578  0.498214  1
  Tm  Tm2  1  0.194762  0.696302  0.891064  1
  Tm  Tm3  1  0.805238  0.303698  0.108936  1
  Tm  Tm4  1  0.696422  0.501686  0.805708  1
  Tm  Tm5  1  0.303578  0.498314  0.194292  1
  Tm  Tm6  1  0.695978  0.890714  0.194292  1
  Tm  Tm7  1  0.304022  0.109286  0.805708  1
  Tm  Tm8  1  0.501695  0.805699  0.696381  1
  Tm  Tm9  1  0.498305  0.194301  0.303619  1
  Tm  Tm10  1  0.109317  0.805313  0.303619  1
  Tm  Tm11  1  0.890683  0.194687  0.696381  1
  Co  Co12  1  0.885767  0.385767  0.500000  1
  Co  Co13  1  0.114233  0.614233  0.500000  1
  Co  Co14  1  0.386064  0.500105  0.886169  1
  Co  Co15  1  0.613936  0.499895  0.113831  1
  Co  Co16  1  0.499872  0.885983  0.385855  1
  Co  Co17  1  0.500128  0.114017  0.614145  1
  Pb  Pb18  1  0.000000  0.000000  0.000000  1
