# generated using pymatgen
data_Tb2OF4
_symmetry_space_group_name_H-M   'P 1'
_cell_length_a   6.79391071
_cell_length_b   6.79391107
_cell_length_c   5.75183375
_cell_angle_alpha   79.54362416
_cell_angle_beta   79.54362546
_cell_angle_gamma   46.43988512
_symmetry_Int_Tables_number   1
_chemical_formula_structural   Tb2OF4
_chemical_formula_sum   'Tb4 O2 F8'
_cell_volume   188.59802064
_cell_formula_units_Z   2
loop_
 _symmetry_equiv_pos_site_id
 _symmetry_equiv_pos_as_xyz
  1  'x, y, z'
loop_
 _atom_site_type_symbol
 _atom_site_label
 _atom_site_symmetry_multiplicity
 _atom_site_fract_x
 _atom_site_fract_y
 _atom_site_fract_z
 _atom_site_occupancy
  Tb  Tb0  1  0.104857  0.680625  0.578341  1
  Tb  Tb1  1  0.680625  0.104857  0.078341  1
  Tb  Tb2  1  0.319375  0.895143  0.921659  1
  Tb  Tb3  1  0.895143  0.319375  0.421659  1
  O  O4  1  0.950965  0.049035  0.750000  1
  O  O5  1  0.049035  0.950965  0.250000  1
  F  F6  1  0.314990  0.517213  0.924378  1
  F  F7  1  0.517213  0.314990  0.424378  1
  F  F8  1  0.706223  0.852698  0.830091  1
  F  F9  1  0.852698  0.706223  0.330091  1
  F  F10  1  0.147302  0.293777  0.669909  1
  F  F11  1  0.293777  0.147302  0.169909  1
  F  F12  1  0.482787  0.685010  0.575622  1
  F  F13  1  0.685010  0.482787  0.075622  1
