# generated using pymatgen
data_Ce3Ni3As4
_symmetry_space_group_name_H-M   'P 1'
_cell_length_a   7.88074850
_cell_length_b   7.88074853
_cell_length_c   7.88074800
_cell_angle_alpha   109.47121928
_cell_angle_beta   109.47121935
_cell_angle_gamma   109.47122549
_symmetry_Int_Tables_number   1
_chemical_formula_structural   Ce3Ni3As4
_chemical_formula_sum   'Ce6 Ni6 As8'
_cell_volume   376.77360914
_cell_formula_units_Z   2
loop_
 _symmetry_equiv_pos_site_id
 _symmetry_equiv_pos_as_xyz
  1  'x, y, z'
loop_
 _atom_site_type_symbol
 _atom_site_label
 _atom_site_symmetry_multiplicity
 _atom_site_fract_x
 _atom_site_fract_y
 _atom_site_fract_z
 _atom_site_occupancy
  Ce  Ce0  1  0.875000  0.250000  0.125000  1
  Ce  Ce1  1  0.625000  0.750000  0.375000  1
  Ce  Ce2  1  0.250000  0.125000  0.875000  1
  Ce  Ce3  1  0.750000  0.375000  0.625000  1
  Ce  Ce4  1  0.125000  0.875000  0.250000  1
  Ce  Ce5  1  0.375000  0.625000  0.750000  1
  Ni  Ni6  1  0.375000  0.250000  0.625000  1
  Ni  Ni7  1  0.125000  0.750000  0.875000  1
  Ni  Ni8  1  0.250000  0.625000  0.375000  1
  Ni  Ni9  1  0.750000  0.875000  0.125000  1
  Ni  Ni10  1  0.625000  0.375000  0.250000  1
  Ni  Ni11  1  0.875000  0.125000  0.750000  1
  As  As12  1  0.657954  0.500000  0.000000  1
  As  As13  1  0.500000  0.000000  0.657954  1
  As  As14  1  0.000000  0.657954  0.500000  1
  As  As15  1  0.842046  0.842046  0.842046  1
  As  As16  1  0.500000  0.000000  0.157954  1
  As  As17  1  0.157954  0.500000  0.000000  1
  As  As18  1  0.000000  0.157954  0.500000  1
  As  As19  1  0.342046  0.342046  0.342046  1
