# generated using pymatgen
data_Ho16Mg3AgIr4
_symmetry_space_group_name_H-M   'P 1'
_cell_length_a   9.63302523
_cell_length_b   9.63302496
_cell_length_c   9.63302557
_cell_angle_alpha   60.00903637
_cell_angle_beta   60.00903781
_cell_angle_gamma   60.00904112
_symmetry_Int_Tables_number   1
_chemical_formula_structural   Ho16Mg3AgIr4
_chemical_formula_sum   'Ho16 Mg3 Ag1 Ir4'
_cell_volume   632.21104911
_cell_formula_units_Z   1
loop_
 _symmetry_equiv_pos_site_id
 _symmetry_equiv_pos_as_xyz
  1  'x, y, z'
loop_
 _atom_site_type_symbol
 _atom_site_label
 _atom_site_symmetry_multiplicity
 _atom_site_fract_x
 _atom_site_fract_y
 _atom_site_fract_z
 _atom_site_occupancy
  Ho  Ho0  1  0.346490  0.346490  0.346490  1
  Ho  Ho1  1  0.348238  0.348238  0.957913  1
  Ho  Ho2  1  0.348238  0.957913  0.348238  1
  Ho  Ho3  1  0.957913  0.348238  0.348238  1
  Ho  Ho4  1  0.810971  0.187933  0.187933  1
  Ho  Ho5  1  0.187635  0.810931  0.810931  1
  Ho  Ho6  1  0.187933  0.810971  0.187933  1
  Ho  Ho7  1  0.810931  0.187635  0.810931  1
  Ho  Ho8  1  0.187933  0.187933  0.810971  1
  Ho  Ho9  1  0.810931  0.810931  0.187635  1
  Ho  Ho10  1  0.933727  0.562328  0.562328  1
  Ho  Ho11  1  0.562500  0.936431  0.936431  1
  Ho  Ho12  1  0.562328  0.933727  0.562328  1
  Ho  Ho13  1  0.936431  0.562500  0.936431  1
  Ho  Ho14  1  0.562328  0.562328  0.933727  1
  Ho  Ho15  1  0.936431  0.936431  0.562500  1
  Mg  Mg16  1  0.580106  0.580106  0.265786  1
  Mg  Mg17  1  0.580106  0.265786  0.580106  1
  Mg  Mg18  1  0.265786  0.580106  0.580106  1
  Ag  Ag19  1  0.581576  0.581576  0.581576  1
  Ir  Ir20  1  0.141586  0.141586  0.141586  1
  Ir  Ir21  1  0.141850  0.141850  0.576185  1
  Ir  Ir22  1  0.141850  0.576185  0.141850  1
  Ir  Ir23  1  0.576185  0.141850  0.141850  1
