# generated using pymatgen
data_La4CeRu2
_symmetry_space_group_name_H-M   'P 1'
_cell_length_a   9.16871837
_cell_length_b   9.16871968
_cell_length_c   7.33138724
_cell_angle_alpha   85.87633142
_cell_angle_beta   85.87633078
_cell_angle_gamma   42.58036215
_symmetry_Int_Tables_number   1
_chemical_formula_structural   La4CeRu2
_chemical_formula_sum   'La8 Ce2 Ru4'
_cell_volume   415.77024897
_cell_formula_units_Z   2
loop_
 _symmetry_equiv_pos_site_id
 _symmetry_equiv_pos_as_xyz
  1  'x, y, z'
loop_
 _atom_site_type_symbol
 _atom_site_label
 _atom_site_symmetry_multiplicity
 _atom_site_fract_x
 _atom_site_fract_y
 _atom_site_fract_z
 _atom_site_occupancy
  La  La0  1  0.986436  0.191373  0.092948  1
  La  La1  1  0.808627  0.013564  0.407052  1
  La  La2  1  0.355849  0.218575  0.829465  1
  La  La3  1  0.781425  0.644151  0.670535  1
  La  La4  1  0.654808  0.777756  0.174039  1
  La  La5  1  0.222244  0.345192  0.325961  1
  La  La6  1  0.565961  0.434039  0.750000  1
  La  La7  1  0.418062  0.581938  0.250000  1
  Ce  Ce8  1  0.994035  0.815716  0.896551  1
  Ce  Ce9  1  0.184284  0.005965  0.603449  1
  Ru  Ru10  1  0.153594  0.625741  0.614037  1
  Ru  Ru11  1  0.374259  0.846406  0.885963  1
  Ru  Ru12  1  0.858203  0.357786  0.429221  1
  Ru  Ru13  1  0.642214  0.141797  0.070779  1
