# generated using pymatgen
data_Ho10Tl3Re
_symmetry_space_group_name_H-M   'P 1'
_cell_length_a   9.72166700
_cell_length_b   9.72166711
_cell_length_c   9.75535900
_cell_angle_alpha   90.00000000
_cell_angle_beta   90.00000000
_cell_angle_gamma   119.99999624
_symmetry_Int_Tables_number   1
_chemical_formula_structural   Ho10Tl3Re
_chemical_formula_sum   'Ho20 Tl6 Re2'
_cell_volume   798.46409355
_cell_formula_units_Z   2
loop_
 _symmetry_equiv_pos_site_id
 _symmetry_equiv_pos_as_xyz
  1  'x, y, z'
loop_
 _atom_site_type_symbol
 _atom_site_label
 _atom_site_symmetry_multiplicity
 _atom_site_fract_x
 _atom_site_fract_y
 _atom_site_fract_z
 _atom_site_occupancy
  Ho  Ho0  1  0.000000  0.000000  0.500000  1
  Ho  Ho1  1  0.000000  0.000000  0.000000  1
  Ho  Ho2  1  0.210290  0.789710  0.440005  1
  Ho  Ho3  1  0.210290  0.420580  0.440005  1
  Ho  Ho4  1  0.579420  0.789710  0.440005  1
  Ho  Ho5  1  0.789710  0.210290  0.559995  1
  Ho  Ho6  1  0.789710  0.579420  0.559995  1
  Ho  Ho7  1  0.420580  0.210290  0.559995  1
  Ho  Ho8  1  0.789710  0.210290  0.940005  1
  Ho  Ho9  1  0.789710  0.579420  0.940005  1
  Ho  Ho10  1  0.420580  0.210290  0.940005  1
  Ho  Ho11  1  0.210290  0.789710  0.059995  1
  Ho  Ho12  1  0.210290  0.420580  0.059995  1
  Ho  Ho13  1  0.579420  0.789710  0.059995  1
  Ho  Ho14  1  0.535520  0.464480  0.250000  1
  Ho  Ho15  1  0.535520  0.071038  0.250000  1
  Ho  Ho16  1  0.928962  0.464480  0.250000  1
  Ho  Ho17  1  0.464480  0.535520  0.750000  1
  Ho  Ho18  1  0.464480  0.928962  0.750000  1
  Ho  Ho19  1  0.071038  0.535520  0.750000  1
  Tl  Tl20  1  0.882162  0.117838  0.250000  1
  Tl  Tl21  1  0.882162  0.764327  0.250000  1
  Tl  Tl22  1  0.235673  0.117838  0.250000  1
  Tl  Tl23  1  0.117838  0.882162  0.750000  1
  Tl  Tl24  1  0.117838  0.235673  0.750000  1
  Tl  Tl25  1  0.764327  0.882162  0.750000  1
  Re  Re26  1  0.333333  0.666667  0.250000  1
  Re  Re27  1  0.666667  0.333333  0.750000  1
