# generated using pymatgen
data_Lu12Co4TcSn
_symmetry_space_group_name_H-M   'P 1'
_cell_length_a   8.11254409
_cell_length_b   8.11254323
_cell_length_c   8.11254374
_cell_angle_alpha   111.73442751
_cell_angle_beta   110.71249472
_cell_angle_gamma   106.02258186
_symmetry_Int_Tables_number   1
_chemical_formula_structural   Lu12Co4TcSn
_chemical_formula_sum   'Lu12 Co4 Tc1 Sn1'
_cell_volume   409.86410779
_cell_formula_units_Z   1
loop_
 _symmetry_equiv_pos_site_id
 _symmetry_equiv_pos_as_xyz
  1  'x, y, z'
loop_
 _atom_site_type_symbol
 _atom_site_label
 _atom_site_symmetry_multiplicity
 _atom_site_fract_x
 _atom_site_fract_y
 _atom_site_fract_z
 _atom_site_occupancy
  Lu  Lu0  1  0.421076  0.224487  0.196588  1
  Lu  Lu1  1  0.578924  0.775513  0.803412  1
  Lu  Lu2  1  0.027899  0.224487  0.803412  1
  Lu  Lu3  1  0.972101  0.775513  0.196588  1
  Lu  Lu4  1  0.181779  0.276468  0.458248  1
  Lu  Lu5  1  0.818221  0.723532  0.541752  1
  Lu  Lu6  1  0.181779  0.723532  0.905312  1
  Lu  Lu7  1  0.818221  0.276468  0.094688  1
  Lu  Lu8  1  0.313487  0.619600  0.306113  1
  Lu  Lu9  1  0.686513  0.380400  0.693887  1
  Lu  Lu10  1  0.313487  0.007373  0.693887  1
  Lu  Lu11  1  0.686513  0.992627  0.306113  1
  Co  Co12  1  0.374212  0.000000  0.374212  1
  Co  Co13  1  0.625788  0.000000  0.625788  1
  Co  Co14  1  0.112521  0.612521  0.500000  1
  Co  Co15  1  0.887479  0.387479  0.500000  1
  Tc  Tc16  1  0.000000  0.000000  0.000000  1
  Sn  Sn17  1  0.500000  0.500000  0.000000  1
