# generated using pymatgen
data_Ti3Co2Si3Mo
_symmetry_space_group_name_H-M   'P 1'
_cell_length_a   7.21922813
_cell_length_b   7.21922860
_cell_length_c   7.21922796
_cell_angle_alpha   125.73608089
_cell_angle_beta   123.44680817
_cell_angle_gamma   82.22894226
_symmetry_Int_Tables_number   1
_chemical_formula_structural   Ti3Co2Si3Mo
_chemical_formula_sum   'Ti6 Co4 Si6 Mo2'
_cell_volume   244.95718327
_cell_formula_units_Z   2
loop_
 _symmetry_equiv_pos_site_id
 _symmetry_equiv_pos_as_xyz
  1  'x, y, z'
loop_
 _atom_site_type_symbol
 _atom_site_label
 _atom_site_symmetry_multiplicity
 _atom_site_fract_x
 _atom_site_fract_y
 _atom_site_fract_z
 _atom_site_occupancy
  Ti  Ti0  1  0.965459  0.726978  0.261518  1
  Ti  Ti1  1  0.034541  0.296060  0.761518  1
  Ti  Ti2  1  0.246517  0.161712  0.415195  1
  Ti  Ti3  1  0.753483  0.168680  0.915195  1
  Ti  Ti4  1  0.558219  0.345197  0.286977  1
  Ti  Ti5  1  0.441781  0.728758  0.786977  1
  Co  Co6  1  0.161219  0.002051  0.913714  1
  Co  Co7  1  0.838781  0.752496  0.840832  1
  Co  Co8  1  0.411664  0.752496  0.413714  1
  Co  Co9  1  0.588336  0.002051  0.340832  1
  Si  Si10  1  0.781966  0.811345  0.529379  1
  Si  Si11  1  0.218034  0.747413  0.029379  1
  Si  Si12  1  0.335199  0.061716  0.743316  1
  Si  Si13  1  0.664801  0.408117  0.726517  1
  Si  Si14  1  0.181600  0.408117  0.243316  1
  Si  Si15  1  0.818400  0.061716  0.226517  1
  Mo  Mo16  1  0.500000  0.502751  0.002751  1
  Mo  Mo17  1  0.000000  0.502751  0.502751  1
