# generated using pymatgen
data_Ta16Be3GaTe16
_symmetry_space_group_name_H-M   'P 1'
_cell_length_a   4.78665800
_cell_length_b   11.16522988
_cell_length_c   19.41935800
_cell_angle_alpha   90.02394754
_cell_angle_beta   90.00000000
_cell_angle_gamma   90.00000000
_symmetry_Int_Tables_number   1
_chemical_formula_structural   Ta16Be3GaTe16
_chemical_formula_sum   'Ta16 Be3 Ga1 Te16'
_cell_volume   1037.85073791
_cell_formula_units_Z   1
loop_
 _symmetry_equiv_pos_site_id
 _symmetry_equiv_pos_as_xyz
  1  'x, y, z'
loop_
 _atom_site_type_symbol
 _atom_site_label
 _atom_site_symmetry_multiplicity
 _atom_site_fract_x
 _atom_site_fract_y
 _atom_site_fract_z
 _atom_site_occupancy
  Ta  Ta0  1  0.501253  0.559591  0.389641  1
  Ta  Ta1  1  0.501253  0.440409  0.610359  1
  Ta  Ta2  1  0.507438  0.062236  0.114549  1
  Ta  Ta3  1  0.507438  0.937764  0.885451  1
  Ta  Ta4  1  0.498788  0.692072  0.534520  1
  Ta  Ta5  1  0.498788  0.307928  0.465480  1
  Ta  Ta6  1  0.507982  0.199514  0.964230  1
  Ta  Ta7  1  0.507982  0.800486  0.035770  1
  Ta  Ta8  1  0.000220  0.678190  0.446162  1
  Ta  Ta9  1  0.000220  0.321810  0.553838  1
  Ta  Ta10  1  0.992361  0.185310  0.055793  1
  Ta  Ta11  1  0.992361  0.814690  0.944207  1
  Ta  Ta12  1  0.999753  0.406585  0.397644  1
  Ta  Ta13  1  0.999753  0.593415  0.602356  1
  Ta  Ta14  1  0.992072  0.902983  0.106235  1
  Ta  Ta15  1  0.992072  0.097017  0.893765  1
  Be  Be16  1  0.249900  0.500000  0.500000  1
  Be  Be17  1  0.749973  0.000000  0.000000  1
  Be  Be18  1  0.750105  0.500000  0.500000  1
  Ga  Ga19  1  0.249877  0.000000  0.000000  1
  Te  Te20  1  0.999516  0.838119  0.560464  1
  Te  Te21  1  0.999516  0.161881  0.439536  1
  Te  Te22  1  0.001752  0.341503  0.938908  1
  Te  Te23  1  0.001752  0.658497  0.061092  1
  Te  Te24  1  0.500097  0.335611  0.319794  1
  Te  Te25  1  0.500097  0.664389  0.680206  1
  Te  Te26  1  0.498691  0.834565  0.181856  1
  Te  Te27  1  0.498691  0.165435  0.818144  1
  Te  Te28  1  0.500202  0.813281  0.405475  1
  Te  Te29  1  0.500202  0.186719  0.594525  1
  Te  Te30  1  0.498305  0.316488  0.095492  1
  Te  Te31  1  0.498305  0.683512  0.904508  1
  Te  Te32  1  0.000374  0.605173  0.305879  1
  Te  Te33  1  0.000374  0.394827  0.694121  1
  Te  Te34  1  0.001269  0.106437  0.195776  1
  Te  Te35  1  0.001269  0.893563  0.804224  1
