# generated using pymatgen
data_Tb3Dy9Co4BiRu
_symmetry_space_group_name_H-M   'P 1'
_cell_length_a   8.33664255
_cell_length_b   8.33664337
_cell_length_c   8.33376291
_cell_angle_alpha   111.04770298
_cell_angle_beta   110.53069542
_cell_angle_gamma   106.88137189
_symmetry_Int_Tables_number   1
_chemical_formula_structural   Tb3Dy9Co4BiRu
_chemical_formula_sum   'Tb3 Dy9 Co4 Bi1 Ru1'
_cell_volume   445.08970376
_cell_formula_units_Z   1
loop_
 _symmetry_equiv_pos_site_id
 _symmetry_equiv_pos_as_xyz
  1  'x, y, z'
loop_
 _atom_site_type_symbol
 _atom_site_label
 _atom_site_symmetry_multiplicity
 _atom_site_fract_x
 _atom_site_fract_y
 _atom_site_fract_z
 _atom_site_occupancy
  Tb  Tb0  1  0.816783  0.713342  0.530124  1
  Tb  Tb1  1  0.182809  0.286573  0.469382  1
  Tb  Tb2  1  0.183412  0.713529  0.896940  1
  Dy  Dy3  1  0.817121  0.286207  0.103329  1
  Dy  Dy4  1  0.688095  0.378891  0.691292  1
  Dy  Dy5  1  0.311638  0.620832  0.308811  1
  Dy  Dy6  1  0.687979  0.997172  0.308811  1
  Dy  Dy7  1  0.312402  0.003198  0.691292  1
  Dy  Dy8  1  0.593980  0.789520  0.805018  1
  Dy  Dy9  1  0.406425  0.210979  0.195220  1
  Dy  Dy10  1  0.984241  0.788795  0.195220  1
  Dy  Dy11  1  0.015498  0.211038  0.805018  1
  Co  Co12  1  0.623727  0.000200  0.623927  1
  Co  Co13  1  0.376403  0.000046  0.376449  1
  Co  Co14  1  0.111257  0.611115  0.499477  1
  Co  Co15  1  0.888361  0.388220  0.499477  1
  Bi  Bi16  1  0.500060  0.499978  0.000038  1
  Ru  Ru17  1  0.999810  0.000365  0.000175  1
