# generated using pymatgen
data_BaHf4(AsO4)6
_symmetry_space_group_name_H-M   'P 1'
_cell_length_a   9.05844371
_cell_length_b   9.05844300
_cell_length_c   9.75644535
_cell_angle_alpha   62.33968359
_cell_angle_beta   62.33968253
_cell_angle_gamma   59.99999538
_symmetry_Int_Tables_number   1
_chemical_formula_structural   BaHf4(AsO4)6
_chemical_formula_sum   'Ba1 Hf4 As6 O24'
_cell_volume   585.28747465
_cell_formula_units_Z   1
loop_
 _symmetry_equiv_pos_site_id
 _symmetry_equiv_pos_as_xyz
  1  'x, y, z'
loop_
 _atom_site_type_symbol
 _atom_site_label
 _atom_site_symmetry_multiplicity
 _atom_site_fract_x
 _atom_site_fract_y
 _atom_site_fract_z
 _atom_site_occupancy
  Ba  Ba0  1  0.500000  0.500000  0.500000  1
  Hf  Hf1  1  0.146490  0.146490  0.560529  1
  Hf  Hf2  1  0.853510  0.853510  0.439471  1
  Hf  Hf3  1  0.647996  0.647996  0.056013  1
  Hf  Hf4  1  0.352004  0.352004  0.943987  1
  As  As5  1  0.964810  0.251087  0.253823  1
  As  As6  1  0.251087  0.530280  0.253823  1
  As  As7  1  0.530280  0.964810  0.253823  1
  As  As8  1  0.035190  0.748913  0.746177  1
  As  As9  1  0.748913  0.469720  0.746177  1
  As  As10  1  0.469720  0.035190  0.746177  1
  O  O11  1  0.981003  0.274111  0.410516  1
  O  O12  1  0.274111  0.334370  0.410516  1
  O  O13  1  0.334370  0.981003  0.410516  1
  O  O14  1  0.018997  0.725889  0.589484  1
  O  O15  1  0.725889  0.665630  0.589484  1
  O  O16  1  0.665630  0.018997  0.589484  1
  O  O17  1  0.496693  0.869595  0.922594  1
  O  O18  1  0.869595  0.711119  0.922594  1
  O  O19  1  0.711119  0.496693  0.922594  1
  O  O20  1  0.503307  0.130405  0.077406  1
  O  O21  1  0.130405  0.288881  0.077406  1
  O  O22  1  0.288881  0.503307  0.077406  1
  O  O23  1  0.033904  0.954952  0.699453  1
  O  O24  1  0.954952  0.311692  0.699453  1
  O  O25  1  0.311692  0.033904  0.699453  1
  O  O26  1  0.966096  0.045048  0.300547  1
  O  O27  1  0.045048  0.688308  0.300547  1
  O  O28  1  0.688308  0.966096  0.300547  1
  O  O29  1  0.598619  0.763328  0.226345  1
  O  O30  1  0.763328  0.411708  0.226345  1
  O  O31  1  0.411708  0.598619  0.226345  1
  O  O32  1  0.401381  0.236672  0.773655  1
  O  O33  1  0.236672  0.588292  0.773655  1
  O  O34  1  0.588292  0.401381  0.773655  1
