# generated using pymatgen
data_CeTm7(Co4As3)4
_symmetry_space_group_name_H-M   'P 1'
_cell_length_a   12.92195300
_cell_length_b   12.92195180
_cell_length_c   3.91569300
_cell_angle_alpha   90.00000000
_cell_angle_beta   90.00000000
_cell_angle_gamma   119.96517063
_symmetry_Int_Tables_number   1
_chemical_formula_structural   CeTm7(Co4As3)4
_chemical_formula_sum   'Ce1 Tm7 Co16 As12'
_cell_volume   566.43209711
_cell_formula_units_Z   1
loop_
 _symmetry_equiv_pos_site_id
 _symmetry_equiv_pos_as_xyz
  1  'x, y, z'
loop_
 _atom_site_type_symbol
 _atom_site_label
 _atom_site_symmetry_multiplicity
 _atom_site_fract_x
 _atom_site_fract_y
 _atom_site_fract_z
 _atom_site_occupancy
  Ce  Ce0  1  0.822117  0.822117  0.500000  1
  Tm  Tm1  1  0.438620  0.438620  0.000000  1
  Tm  Tm2  1  0.000867  0.184601  0.500000  1
  Tm  Tm3  1  0.559222  0.999836  0.000000  1
  Tm  Tm4  1  0.334761  0.666553  0.000000  1
  Tm  Tm5  1  0.666553  0.334761  0.000000  1
  Tm  Tm6  1  0.999836  0.559222  0.000000  1
  Tm  Tm7  1  0.184601  0.000867  0.500000  1
  Co  Co8  1  0.627647  0.822073  0.000000  1
  Co  Co9  1  0.371526  0.193919  0.000000  1
  Co  Co10  1  0.002851  0.722601  0.500000  1
  Co  Co11  1  0.276557  0.276557  0.500000  1
  Co  Co12  1  0.876643  0.354204  0.500000  1
  Co  Co13  1  0.722601  0.002851  0.500000  1
  Co  Co14  1  0.822073  0.627647  0.000000  1
  Co  Co15  1  0.180449  0.805012  0.000000  1
  Co  Co16  1  0.354204  0.876643  0.500000  1
  Co  Co17  1  0.122117  0.474896  0.500000  1
  Co  Co18  1  0.645004  0.521667  0.500000  1
  Co  Co19  1  0.997374  0.997374  0.000000  1
  Co  Co20  1  0.521667  0.645004  0.500000  1
  Co  Co21  1  0.474896  0.122117  0.500000  1
  Co  Co22  1  0.193919  0.371526  0.000000  1
  Co  Co23  1  0.805012  0.180449  0.000000  1
  As  As24  1  0.999968  0.349060  0.000000  1
  As  As25  1  0.825372  0.519221  0.500000  1
  As  As26  1  0.691961  0.176036  0.500000  1
  As  As27  1  0.176180  0.176180  0.000000  1
  As  As28  1  0.648941  0.648941  0.000000  1
  As  As29  1  0.821460  0.004186  0.000000  1
  As  As30  1  0.519221  0.825372  0.500000  1
  As  As31  1  0.176036  0.691961  0.500000  1
  As  As32  1  0.349060  0.999968  0.000000  1
  As  As33  1  0.480783  0.305715  0.500000  1
  As  As34  1  0.004186  0.821460  0.000000  1
  As  As35  1  0.305715  0.480783  0.500000  1
