# generated using pymatgen
data_KPuAuS3
_symmetry_space_group_name_H-M   'P 1'
_cell_length_a   7.36251600
_cell_length_b   7.36251532
_cell_length_c   10.29800300
_cell_angle_alpha   90.00000000
_cell_angle_beta   90.00000000
_cell_angle_gamma   147.98675467
_symmetry_Int_Tables_number   1
_chemical_formula_structural   KPuAuS3
_chemical_formula_sum   'K2 Pu2 Au2 S6'
_cell_volume   295.92101913
_cell_formula_units_Z   2
loop_
 _symmetry_equiv_pos_site_id
 _symmetry_equiv_pos_as_xyz
  1  'x, y, z'
loop_
 _atom_site_type_symbol
 _atom_site_label
 _atom_site_symmetry_multiplicity
 _atom_site_fract_x
 _atom_site_fract_y
 _atom_site_fract_z
 _atom_site_occupancy
  K  K0  1  0.762718  0.237284  0.250000  1
  K  K1  1  0.237284  0.762718  0.750000  1
  Pu  Pu2  1  0.500001  0.500001  0.000000  1
  Pu  Pu3  1  0.500001  0.500001  0.500000  1
  Au  Au4  1  0.057973  0.942028  0.250000  1
  Au  Au5  1  0.942028  0.057973  0.750000  1
  S  S6  1  0.125133  0.874868  0.035927  1
  S  S7  1  0.439226  0.560776  0.250000  1
  S  S8  1  0.125133  0.874868  0.464073  1
  S  S9  1  0.874868  0.125133  0.535927  1
  S  S10  1  0.560776  0.439226  0.750000  1
  S  S11  1  0.874868  0.125133  0.964073  1
