# generated using pymatgen
data_Y7Tm12LuPt16
_symmetry_space_group_name_H-M   'P 1'
_cell_length_a   7.43954304
_cell_length_b   7.51233369
_cell_length_c   14.61594113
_cell_angle_alpha   90.00027138
_cell_angle_beta   89.98728463
_cell_angle_gamma   89.96403268
_symmetry_Int_Tables_number   1
_chemical_formula_structural   Y7Tm12LuPt16
_chemical_formula_sum   'Y7 Tm12 Lu1 Pt16'
_cell_volume   816.86035731
_cell_formula_units_Z   1
loop_
 _symmetry_equiv_pos_site_id
 _symmetry_equiv_pos_as_xyz
  1  'x, y, z'
loop_
 _atom_site_type_symbol
 _atom_site_label
 _atom_site_symmetry_multiplicity
 _atom_site_fract_x
 _atom_site_fract_y
 _atom_site_fract_z
 _atom_site_occupancy
  Y  Y0  1  0.498957  0.679468  0.093172  1
  Y  Y1  1  0.501387  0.320580  0.592864  1
  Y  Y2  1  0.001220  0.179387  0.907101  1
  Y  Y3  1  0.000934  0.178532  0.592618  1
  Y  Y4  1  0.501251  0.320757  0.907091  1
  Y  Y5  1  0.498855  0.679688  0.406976  1
  Y  Y6  1  0.998776  0.820619  0.092941  1
  Tm  Tm7  1  0.181074  0.510316  0.250361  1
  Tm  Tm8  1  0.818923  0.489799  0.749876  1
  Tm  Tm9  1  0.318904  0.010094  0.749968  1
  Tm  Tm10  1  0.656163  0.832723  0.622400  1
  Tm  Tm11  1  0.156117  0.667397  0.877449  1
  Tm  Tm12  1  0.843874  0.332346  0.377495  1
  Tm  Tm13  1  0.343922  0.167419  0.122683  1
  Tm  Tm14  1  0.343417  0.167078  0.377663  1
  Tm  Tm15  1  0.843859  0.332292  0.122725  1
  Tm  Tm16  1  0.155527  0.667890  0.622175  1
  Tm  Tm17  1  0.656086  0.832426  0.877557  1
  Tm  Tm18  1  0.997494  0.819675  0.406617  1
  Lu  Lu19  1  0.681332  0.989723  0.250410  1
  Pt  Pt20  1  0.817529  0.643079  0.251275  1
  Pt  Pt21  1  0.316154  0.858752  0.250514  1
  Pt  Pt22  1  0.683692  0.141429  0.749857  1
  Pt  Pt23  1  0.183664  0.358633  0.749822  1
  Pt  Pt24  1  0.546790  0.384125  0.250140  1
  Pt  Pt25  1  0.045477  0.114669  0.250632  1
  Pt  Pt26  1  0.953662  0.884107  0.749954  1
  Pt  Pt27  1  0.453577  0.615877  0.749884  1
  Pt  Pt28  1  0.818308  0.535269  0.541450  1
  Pt  Pt29  1  0.317975  0.965837  0.958027  1
  Pt  Pt30  1  0.684646  0.032297  0.457350  1
  Pt  Pt31  1  0.181851  0.466077  0.042109  1
  Pt  Pt32  1  0.181185  0.468066  0.457234  1
  Pt  Pt33  1  0.682021  0.034210  0.042156  1
  Pt  Pt34  1  0.317502  0.965250  0.541436  1
  Pt  Pt35  1  0.817901  0.534114  0.958018  1
