# generated using pymatgen
data_Tb9Ho(SnSb)3
_symmetry_space_group_name_H-M   'P 1'
_cell_length_a   6.43002200
_cell_length_b   9.03473327
_cell_length_c   9.03471200
_cell_angle_alpha   120.00022235
_cell_angle_beta   89.99982179
_cell_angle_gamma   90.00026033
_symmetry_Int_Tables_number   1
_chemical_formula_structural   Tb9Ho(SnSb)3
_chemical_formula_sum   'Tb9 Ho1 Sn3 Sb3'
_cell_volume   454.53964271
_cell_formula_units_Z   1
loop_
 _symmetry_equiv_pos_site_id
 _symmetry_equiv_pos_as_xyz
  1  'x, y, z'
loop_
 _atom_site_type_symbol
 _atom_site_label
 _atom_site_symmetry_multiplicity
 _atom_site_fract_x
 _atom_site_fract_y
 _atom_site_fract_z
 _atom_site_occupancy
  Tb  Tb0  1  0.500697  0.333337  0.666671  1
  Tb  Tb1  1  0.500571  0.666661  0.333319  1
  Tb  Tb2  1  0.999450  0.666664  0.333325  1
  Tb  Tb3  1  0.750024  0.241670  0.000053  1
  Tb  Tb4  1  0.750024  0.758371  0.758310  1
  Tb  Tb5  1  0.750025  0.999977  0.241641  1
  Tb  Tb6  1  0.249869  0.757984  0.000049  1
  Tb  Tb7  1  0.249875  0.242088  0.242046  1
  Tb  Tb8  1  0.249874  0.999932  0.757909  1
  Ho  Ho9  1  0.999008  0.333334  0.666685  1
  Sn  Sn10  1  0.750591  0.606413  0.999188  1
  Sn  Sn11  1  0.750587  0.392804  0.393603  1
  Sn  Sn12  1  0.750584  0.000791  0.607204  1
  Sb  Sb13  1  0.249600  0.391214  0.999567  1
  Sb  Sb14  1  0.249611  0.608327  0.608772  1
  Sb  Sb15  1  0.249612  0.000435  0.391657  1
