# generated using pymatgen
data_Sr2FeNi5(PO4)6
_symmetry_space_group_name_H-M   'P 1'
_cell_length_a   9.08759809
_cell_length_b   9.08756626
_cell_length_c   9.08742246
_cell_angle_alpha   137.64398028
_cell_angle_beta   110.00003943
_cell_angle_gamma   85.35278205
_symmetry_Int_Tables_number   1
_chemical_formula_structural   Sr2FeNi5(PO4)6
_chemical_formula_sum   'Sr2 Fe1 Ni5 P6 O24'
_cell_volume   457.31809837
_cell_formula_units_Z   1
loop_
 _symmetry_equiv_pos_site_id
 _symmetry_equiv_pos_as_xyz
  1  'x, y, z'
loop_
 _atom_site_type_symbol
 _atom_site_label
 _atom_site_symmetry_multiplicity
 _atom_site_fract_x
 _atom_site_fract_y
 _atom_site_fract_z
 _atom_site_occupancy
  Sr  Sr0  1  0.749095  0.156753  0.407663  1
  Sr  Sr1  1  0.250905  0.843247  0.592337  1
  Fe  Fe2  1  0.000000  0.000000  0.000000  1
  Ni  Ni3  1  0.615173  0.615051  0.497844  1
  Ni  Ni4  1  0.384827  0.384949  0.502156  1
  Ni  Ni5  1  0.117205  0.615054  0.999868  1
  Ni  Ni6  1  0.882795  0.384946  0.000132  1
  Ni  Ni7  1  0.500000  0.500000  0.000000  1
  P  P8  1  0.322991  0.819180  0.999661  1
  P  P9  1  0.751096  0.667475  0.916382  1
  P  P10  1  0.180476  0.180816  0.503795  1
  P  P11  1  0.677009  0.180820  0.000339  1
  P  P12  1  0.248904  0.332525  0.083618  1
  P  P13  1  0.819524  0.819184  0.496205  1
  O  O14  1  0.574033  0.933027  0.775909  1
  O  O15  1  0.074417  0.297137  0.643753  1
  O  O16  1  0.847127  0.894561  0.047440  1
  O  O17  1  0.346613  0.702833  0.777262  1
  O  O18  1  0.146119  0.213456  0.346751  1
  O  O19  1  0.339883  0.282349  0.942461  1
  O  O20  1  0.629940  0.695027  0.340335  1
  O  O21  1  0.853881  0.786544  0.653249  1
  O  O22  1  0.367835  0.480358  0.349622  1
  O  O23  1  0.157128  0.933009  0.358961  1
  O  O24  1  0.645304  0.304993  0.934917  1
  O  O25  1  0.632165  0.519642  0.650378  1
  O  O26  1  0.866691  0.213475  0.067352  1
  O  O27  1  0.842872  0.066991  0.641039  1
  O  O28  1  0.354696  0.695007  0.065083  1
  O  O29  1  0.370060  0.304973  0.659665  1
  O  O30  1  0.660117  0.717651  0.057539  1
  O  O31  1  0.925583  0.702863  0.356247  1
  O  O32  1  0.152873  0.105438  0.952560  1
  O  O33  1  0.869279  0.519651  0.887471  1
  O  O34  1  0.130721  0.480349  0.112529  1
  O  O35  1  0.133309  0.786525  0.932648  1
  O  O36  1  0.653387  0.297167  0.222738  1
  O  O37  1  0.425967  0.066973  0.224091  1
