# generated using pymatgen
data_Ho4Ga4CuRu3
_symmetry_space_group_name_H-M   'P 1'
_cell_length_a   4.48886300
_cell_length_b   7.18863418
_cell_length_c   7.08185694
_cell_angle_alpha   88.68449087
_cell_angle_beta   90.00000000
_cell_angle_gamma   90.00000000
_symmetry_Int_Tables_number   1
_chemical_formula_structural   Ho4Ga4CuRu3
_chemical_formula_sum   'Ho4 Ga4 Cu1 Ru3'
_cell_volume   228.46275123
_cell_formula_units_Z   1
loop_
 _symmetry_equiv_pos_site_id
 _symmetry_equiv_pos_as_xyz
  1  'x, y, z'
loop_
 _atom_site_type_symbol
 _atom_site_label
 _atom_site_symmetry_multiplicity
 _atom_site_fract_x
 _atom_site_fract_y
 _atom_site_fract_z
 _atom_site_occupancy
  Ho  Ho0  1  0.250000  0.300892  0.521119  1
  Ho  Ho1  1  0.250000  0.192266  0.015989  1
  Ho  Ho2  1  0.750000  0.702552  0.489704  1
  Ho  Ho3  1  0.750000  0.806081  0.980786  1
  Ga  Ga4  1  0.250000  0.897289  0.700391  1
  Ga  Ga5  1  0.250000  0.610231  0.195786  1
  Ga  Ga6  1  0.750000  0.099062  0.293231  1
  Ga  Ga7  1  0.750000  0.395088  0.802686  1
  Cu  Cu8  1  0.750000  0.433758  0.167356  1
  Ru  Ru9  1  0.250000  0.936736  0.338440  1
  Ru  Ru10  1  0.250000  0.559596  0.835914  1
  Ru  Ru11  1  0.750000  0.066449  0.658598  1
