# generated using pymatgen
data_Tm2(NpAl5)3
_symmetry_space_group_name_H-M   'P 1'
_cell_length_a   12.39651815
_cell_length_b   12.39651825
_cell_length_c   12.39651753
_cell_angle_alpha   28.21552276
_cell_angle_beta   28.21552125
_cell_angle_gamma   28.21551973
_symmetry_Int_Tables_number   1
_chemical_formula_structural   Tm2(NpAl5)3
_chemical_formula_sum   'Tm2 Np3 Al15'
_cell_volume   376.22261238
_cell_formula_units_Z   1
loop_
 _symmetry_equiv_pos_site_id
 _symmetry_equiv_pos_as_xyz
  1  'x, y, z'
loop_
 _atom_site_type_symbol
 _atom_site_label
 _atom_site_symmetry_multiplicity
 _atom_site_fract_x
 _atom_site_fract_y
 _atom_site_fract_z
 _atom_site_occupancy
  Tm  Tm0  1  0.400376  0.400376  0.400376  1
  Tm  Tm1  1  0.599624  0.599624  0.599624  1
  Np  Np2  1  0.000000  0.000000  0.000000  1
  Np  Np3  1  0.130804  0.130804  0.130804  1
  Np  Np4  1  0.869196  0.869196  0.869196  1
  Al  Al5  1  0.128106  0.636654  0.636654  1
  Al  Al6  1  0.636654  0.636654  0.128106  1
  Al  Al7  1  0.636654  0.128106  0.636654  1
  Al  Al8  1  0.363346  0.871894  0.363346  1
  Al  Al9  1  0.363346  0.363346  0.871894  1
  Al  Al10  1  0.871894  0.363346  0.363346  1
  Al  Al11  1  0.423585  0.887218  0.887218  1
  Al  Al12  1  0.887218  0.887218  0.423585  1
  Al  Al13  1  0.887218  0.423585  0.887218  1
  Al  Al14  1  0.112782  0.576415  0.112782  1
  Al  Al15  1  0.112782  0.112782  0.576415  1
  Al  Al16  1  0.576415  0.112782  0.112782  1
  Al  Al17  1  0.500000  0.500000  0.000000  1
  Al  Al18  1  0.500000  0.000000  0.500000  1
  Al  Al19  1  0.000000  0.500000  0.500000  1
