# generated using pymatgen
data_NdDy3(Si5Pt3)2
_symmetry_space_group_name_H-M   'P 1'
_cell_length_a   8.17880095
_cell_length_b   8.18509257
_cell_length_c   8.18509206
_cell_angle_alpha   136.36864838
_cell_angle_beta   104.86163720
_cell_angle_gamma   91.14211362
_symmetry_Int_Tables_number   1
_chemical_formula_structural   NdDy3(Si5Pt3)2
_chemical_formula_sum   'Nd1 Dy3 Si10 Pt6'
_cell_volume   347.64878302
_cell_formula_units_Z   1
loop_
 _symmetry_equiv_pos_site_id
 _symmetry_equiv_pos_as_xyz
  1  'x, y, z'
loop_
 _atom_site_type_symbol
 _atom_site_label
 _atom_site_symmetry_multiplicity
 _atom_site_fract_x
 _atom_site_fract_y
 _atom_site_fract_z
 _atom_site_occupancy
  Nd  Nd0  1  0.898842  0.129401  0.769441  1
  Dy  Dy1  1  0.641099  0.370224  0.270875  1
  Dy  Dy2  1  0.359190  0.629844  0.729346  1
  Dy  Dy3  1  0.099664  0.870265  0.229398  1
  Si  Si4  1  0.273021  0.522614  0.250865  1
  Si  Si5  1  0.727909  0.478266  0.749834  1
  Si  Si6  1  0.727909  0.978075  0.249643  1
  Si  Si7  1  0.273021  0.022156  0.750407  1
  Si  Si8  1  0.460656  0.111675  0.348979  1
  Si  Si9  1  0.537178  0.886493  0.650686  1
  Si  Si10  1  0.763041  0.611759  0.151283  1
  Si  Si11  1  0.237975  0.389424  0.848553  1
  Si  Si12  1  0.000186  0.249557  0.250280  1
  Si  Si13  1  0.000186  0.749907  0.750629  1
  Pt  Pt14  1  0.250287  0.137553  0.112734  1
  Pt  Pt15  1  0.749335  0.861313  0.888022  1
  Pt  Pt16  1  0.026312  0.637383  0.388929  1
  Pt  Pt17  1  0.975718  0.364464  0.611254  1
  Pt  Pt18  1  0.499234  0.250369  0.749979  1
  Pt  Pt19  1  0.499234  0.749256  0.248867  1
