# generated using pymatgen
data_Rb7Na(PSe3)4
_symmetry_space_group_name_H-M   'P 1'
_cell_length_a   10.12507859
_cell_length_b   10.12507896
_cell_length_c   8.92063569
_cell_angle_alpha   92.37699227
_cell_angle_beta   92.37699053
_cell_angle_gamma   96.82732058
_symmetry_Int_Tables_number   1
_chemical_formula_structural   Rb7Na(PSe3)4
_chemical_formula_sum   'Rb7 Na1 P4 Se12'
_cell_volume   906.25946514
_cell_formula_units_Z   1
loop_
 _symmetry_equiv_pos_site_id
 _symmetry_equiv_pos_as_xyz
  1  'x, y, z'
loop_
 _atom_site_type_symbol
 _atom_site_label
 _atom_site_symmetry_multiplicity
 _atom_site_fract_x
 _atom_site_fract_y
 _atom_site_fract_z
 _atom_site_occupancy
  Rb  Rb0  1  0.723519  0.776481  0.250000  1
  Rb  Rb1  1  0.779528  0.720472  0.750000  1
  Rb  Rb2  1  0.192214  0.811102  0.149669  1
  Rb  Rb3  1  0.819647  0.192445  0.860834  1
  Rb  Rb4  1  0.221615  0.278385  0.250000  1
  Rb  Rb5  1  0.688898  0.307786  0.350331  1
  Rb  Rb6  1  0.307555  0.680353  0.639166  1
  Na  Na7  1  0.282446  0.217554  0.750000  1
  P  P8  1  0.935838  0.077958  0.458209  1
  P  P9  1  0.422042  0.564162  0.041791  1
  P  P10  1  0.078987  0.940791  0.560834  1
  P  P11  1  0.559209  0.421013  0.939166  1
  Se  Se12  1  0.009563  0.281599  0.546834  1
  Se  Se13  1  0.734125  0.010827  0.532797  1
  Se  Se14  1  0.945218  0.053113  0.210916  1
  Se  Se15  1  0.218401  0.490437  0.953166  1
  Se  Se16  1  0.489173  0.765875  0.967203  1
  Se  Se17  1  0.281414  0.009855  0.490299  1
  Se  Se18  1  0.533456  0.432099  0.692665  1
  Se  Se19  1  0.446887  0.554782  0.289084  1
  Se  Se20  1  0.764198  0.491980  0.027342  1
  Se  Se21  1  0.490145  0.218586  0.009701  1
  Se  Se22  1  0.008020  0.735802  0.472658  1
  Se  Se23  1  0.067901  0.966544  0.807335  1
