# generated using pymatgen
data_Tb4MgP12Ru19
_symmetry_space_group_name_H-M   'P 1'
_cell_length_a   12.47659533
_cell_length_b   12.50498730
_cell_length_c   3.99082200
_cell_angle_alpha   90.00000000
_cell_angle_beta   90.00000000
_cell_angle_gamma   120.07530302
_symmetry_Int_Tables_number   1
_chemical_formula_structural   Tb4MgP12Ru19
_chemical_formula_sum   'Tb4 Mg1 P12 Ru19'
_cell_volume   538.81824035
_cell_formula_units_Z   1
loop_
 _symmetry_equiv_pos_site_id
 _symmetry_equiv_pos_as_xyz
  1  'x, y, z'
loop_
 _atom_site_type_symbol
 _atom_site_label
 _atom_site_symmetry_multiplicity
 _atom_site_fract_x
 _atom_site_fract_y
 _atom_site_fract_z
 _atom_site_occupancy
  Tb  Tb0  1  0.816001  0.815531  0.500000  1
  Tb  Tb1  1  0.183999  0.999529  0.500000  1
  Tb  Tb2  1  0.673335  0.333130  0.000000  1
  Tb  Tb3  1  0.326665  0.659796  0.000000  1
  Mg  Mg4  1  0.000000  0.189189  0.500000  1
  P  P5  1  0.000000  0.826819  0.000000  1
  P  P6  1  0.194064  0.181345  0.000000  1
  P  P7  1  0.805936  0.987281  0.000000  1
  P  P8  1  0.698683  0.169542  0.500000  1
  P  P9  1  0.830730  0.525103  0.500000  1
  P  P10  1  0.480798  0.306572  0.500000  1
  P  P11  1  0.169270  0.694373  0.500000  1
  P  P12  1  0.519202  0.825773  0.500000  1
  P  P13  1  0.301317  0.470858  0.500000  1
  P  P14  1  0.000000  0.380964  0.000000  1
  P  P15  1  0.625177  0.625645  0.000000  1
  P  P16  1  0.374823  0.000468  0.000000  1
  Ru  Ru17  1  0.000000  0.560310  0.000000  1
  Ru  Ru18  1  0.439349  0.445877  0.000000  1
  Ru  Ru19  1  0.560651  0.006528  0.000000  1
  Ru  Ru20  1  0.000000  0.721415  0.500000  1
  Ru  Ru21  1  0.283145  0.279755  0.500000  1
  Ru  Ru22  1  0.716855  0.996611  0.500000  1
  Ru  Ru23  1  0.825271  0.182878  0.000000  1
  Ru  Ru24  1  0.815630  0.627210  0.000000  1
  Ru  Ru25  1  0.384396  0.195064  0.000000  1
  Ru  Ru26  1  0.184370  0.811579  0.000000  1
  Ru  Ru27  1  0.615604  0.810667  0.000000  1
  Ru  Ru28  1  0.174729  0.357606  0.000000  1
  Ru  Ru29  1  0.874326  0.364892  0.500000  1
  Ru  Ru30  1  0.633289  0.508729  0.500000  1
  Ru  Ru31  1  0.496541  0.126861  0.500000  1
  Ru  Ru32  1  0.366711  0.875440  0.500000  1
  Ru  Ru33  1  0.503459  0.630320  0.500000  1
  Ru  Ru34  1  0.125674  0.490567  0.500000  1
  Ru  Ru35  1  0.000000  0.015767  0.000000  1
