# generated using pymatgen
data_LiDy16CdIn2Pt3Rh
_symmetry_space_group_name_H-M   'P 1'
_cell_length_a   9.68619919
_cell_length_b   9.68619823
_cell_length_c   9.68619800
_cell_angle_alpha   59.67278080
_cell_angle_beta   59.67278412
_cell_angle_gamma   59.67278226
_symmetry_Int_Tables_number   1
_chemical_formula_structural   LiDy16CdIn2Pt3Rh
_chemical_formula_sum   'Li1 Dy16 Cd1 In2 Pt3 Rh1'
_cell_volume   637.82935874
_cell_formula_units_Z   1
loop_
 _symmetry_equiv_pos_site_id
 _symmetry_equiv_pos_as_xyz
  1  'x, y, z'
loop_
 _atom_site_type_symbol
 _atom_site_label
 _atom_site_symmetry_multiplicity
 _atom_site_fract_x
 _atom_site_fract_y
 _atom_site_fract_z
 _atom_site_occupancy
  Li  Li0  1  0.571734  0.571866  0.571866  1
  Dy  Dy1  1  0.352779  0.352441  0.352441  1
  Dy  Dy2  1  0.349320  0.349041  0.948477  1
  Dy  Dy3  1  0.349320  0.948477  0.349041  1
  Dy  Dy4  1  0.948193  0.349181  0.349181  1
  Dy  Dy5  1  0.812875  0.190858  0.190858  1
  Dy  Dy6  1  0.187745  0.812714  0.812714  1
  Dy  Dy7  1  0.190675  0.813147  0.190694  1
  Dy  Dy8  1  0.811819  0.188333  0.812425  1
  Dy  Dy9  1  0.190675  0.190694  0.813147  1
  Dy  Dy10  1  0.811819  0.812425  0.188333  1
  Dy  Dy11  1  0.935974  0.565342  0.565342  1
  Dy  Dy12  1  0.563869  0.935814  0.935814  1
  Dy  Dy13  1  0.565452  0.935947  0.565022  1
  Dy  Dy14  1  0.936615  0.563614  0.935072  1
  Dy  Dy15  1  0.565452  0.565022  0.935947  1
  Dy  Dy16  1  0.936615  0.935072  0.563614  1
  Cd  Cd17  1  0.252951  0.582782  0.582782  1
  In  In18  1  0.582158  0.583029  0.253703  1
  In  In19  1  0.582158  0.253703  0.583029  1
  Pt  Pt20  1  0.143817  0.143358  0.570996  1
  Pt  Pt21  1  0.143817  0.570996  0.143358  1
  Pt  Pt22  1  0.571150  0.143363  0.143363  1
  Rh  Rh23  1  0.143013  0.142776  0.142776  1
