# generated using pymatgen
data_TeWF34
_symmetry_space_group_name_H-M   'P 1'
_cell_length_a   8.92113044
_cell_length_b   8.62876249
_cell_length_c   10.17583975
_cell_angle_alpha   81.82489722
_cell_angle_beta   87.32834443
_cell_angle_gamma   66.24949072
_symmetry_Int_Tables_number   1
_chemical_formula_structural   TeWF34
_chemical_formula_sum   'Te1 W1 F34'
_cell_volume   709.64310833
_cell_formula_units_Z   1
loop_
 _symmetry_equiv_pos_site_id
 _symmetry_equiv_pos_as_xyz
  1  'x, y, z'
loop_
 _atom_site_type_symbol
 _atom_site_label
 _atom_site_symmetry_multiplicity
 _atom_site_fract_x
 _atom_site_fract_y
 _atom_site_fract_z
 _atom_site_occupancy
  Te  Te0  1  0.863263  0.250838  0.761487  1
  W  W1  1  0.137278  0.749301  0.240947  1
  F  F2  1  0.602110  0.200591  0.484684  1
  F  F3  1  0.404016  0.790940  0.512113  1
  F  F4  1  0.824315  0.707176  0.722015  1
  F  F5  1  0.174058  0.303162  0.289186  1
  F  F6  1  0.086926  0.759310  0.861472  1
  F  F7  1  0.920520  0.225457  0.145230  1
  F  F8  1  0.554333  0.144110  0.374560  1
  F  F9  1  0.441571  0.857684  0.620981  1
  F  F10  1  0.648180  0.323553  0.700706  1
  F  F11  1  0.354960  0.677063  0.299973  1
  F  F12  1  0.931871  0.072471  0.658774  1
  F  F13  1  0.063781  0.925917  0.347435  1
  F  F14  1  0.904055  0.388802  0.618732  1
  F  F15  1  0.096860  0.610773  0.385298  1
  F  F16  1  0.858104  0.799427  0.605293  1
  F  F17  1  0.148777  0.180746  0.386924  1
  F  F18  1  0.796926  0.430724  0.863093  1
  F  F19  1  0.204411  0.565637  0.140760  1
  F  F20  1  0.214219  0.687691  0.770535  1
  F  F21  1  0.785427  0.316144  0.223496  1
  F  F22  1  0.925117  0.820964  0.171347  1
  F  F23  1  0.075982  0.178488  0.826481  1
  F  F24  1  0.819848  0.111299  0.902242  1
  F  F25  1  0.180688  0.893226  0.101276  1
  F  F26  1  0.480456  0.590910  0.983482  1
  F  F27  1  0.516592  0.413278  0.016003  1
  F  F28  1  0.454389  0.087266  0.868218  1
  F  F29  1  0.533855  0.923921  0.133285  1
  F  F30  1  0.287301  0.241350  0.610526  1
  F  F31  1  0.710304  0.760417  0.381460  1
  F  F32  1  0.259021  0.387914  0.673662  1
  F  F33  1  0.747242  0.607879  0.323953  1
  F  F34  1  0.553787  0.920554  0.837141  1
  F  F35  1  0.439455  0.095017  0.157232  1
