# generated using pymatgen
data_LaSc3(ZnSn)4
_symmetry_space_group_name_H-M   'P 1'
_cell_length_a   4.46835400
_cell_length_b   4.46835220
_cell_length_c   15.45772400
_cell_angle_alpha   90.00000000
_cell_angle_beta   90.00000000
_cell_angle_gamma   120.00001332
_symmetry_Int_Tables_number   1
_chemical_formula_structural   LaSc3(ZnSn)4
_chemical_formula_sum   'La1 Sc3 Zn4 Sn4'
_cell_volume   267.28284894
_cell_formula_units_Z   1
loop_
 _symmetry_equiv_pos_site_id
 _symmetry_equiv_pos_as_xyz
  1  'x, y, z'
loop_
 _atom_site_type_symbol
 _atom_site_label
 _atom_site_symmetry_multiplicity
 _atom_site_fract_x
 _atom_site_fract_y
 _atom_site_fract_z
 _atom_site_occupancy
  La  La0  1  0.000000  0.000000  0.000000  1
  Sc  Sc1  1  0.000000  0.000000  0.261599  1
  Sc  Sc2  1  0.000000  0.000000  0.738401  1
  Sc  Sc3  1  0.000000  0.000000  0.500000  1
  Zn  Zn4  1  0.333333  0.666667  0.172658  1
  Zn  Zn5  1  0.666667  0.333333  0.827342  1
  Zn  Zn6  1  0.666667  0.333333  0.657075  1
  Zn  Zn7  1  0.333333  0.666667  0.342925  1
  Sn  Sn8  1  0.333333  0.666667  0.604763  1
  Sn  Sn9  1  0.666667  0.333333  0.395237  1
  Sn  Sn10  1  0.666667  0.333333  0.127959  1
  Sn  Sn11  1  0.333333  0.666667  0.872041  1
