# generated using pymatgen
data_Pr11Nd(Si7Cl3)2
_symmetry_space_group_name_H-M   'P 1'
_cell_length_a   4.02642800
_cell_length_b   11.54800581
_cell_length_c   16.31893000
_cell_angle_alpha   90.21828305
_cell_angle_beta   90.00000000
_cell_angle_gamma   90.00000000
_symmetry_Int_Tables_number   1
_chemical_formula_structural   Pr11Nd(Si7Cl3)2
_chemical_formula_sum   'Pr11 Nd1 Si14 Cl6'
_cell_volume   758.77927254
_cell_formula_units_Z   1
loop_
 _symmetry_equiv_pos_site_id
 _symmetry_equiv_pos_as_xyz
  1  'x, y, z'
loop_
 _atom_site_type_symbol
 _atom_site_label
 _atom_site_symmetry_multiplicity
 _atom_site_fract_x
 _atom_site_fract_y
 _atom_site_fract_z
 _atom_site_occupancy
  Pr  Pr0  1  0.500000  0.335056  0.499462  1
  Pr  Pr1  1  0.000000  0.664793  0.000602  1
  Pr  Pr2  1  0.500000  0.353404  0.754720  1
  Pr  Pr3  1  0.000000  0.646629  0.745232  1
  Pr  Pr4  1  0.500000  0.353274  0.245086  1
  Pr  Pr5  1  0.000000  0.646825  0.255276  1
  Pr  Pr6  1  0.500000  0.054193  0.877210  1
  Pr  Pr7  1  0.000000  0.946115  0.622626  1
  Pr  Pr8  1  0.500000  0.054174  0.122302  1
  Pr  Pr9  1  0.500000  0.351394  0.999964  1
  Pr  Pr10  1  0.000000  0.649006  0.499997  1
  Nd  Nd11  1  0.000000  0.945139  0.377865  1
  Si  Si12  1  0.000000  0.142349  0.999755  1
  Si  Si13  1  0.500000  0.858300  0.499891  1
  Si  Si14  1  0.500000  0.569026  0.876664  1
  Si  Si15  1  0.000000  0.431258  0.623203  1
  Si  Si16  1  0.500000  0.569068  0.123915  1
  Si  Si17  1  0.000000  0.431179  0.376459  1
  Si  Si18  1  0.000000  0.247796  0.873402  1
  Si  Si19  1  0.500000  0.752502  0.626296  1
  Si  Si20  1  0.000000  0.247633  0.126203  1
  Si  Si21  1  0.500000  0.753345  0.373821  1
  Si  Si22  1  0.000000  0.456626  0.876630  1
  Si  Si23  1  0.500000  0.543374  0.623221  1
  Si  Si24  1  0.500000  0.543487  0.376880  1
  Si  Si25  1  0.000000  0.456585  0.123504  1
  Cl  Cl26  1  0.500000  0.107602  0.695174  1
  Cl  Cl27  1  0.000000  0.892203  0.804431  1
  Cl  Cl28  1  0.000000  0.138232  0.499478  1
  Cl  Cl29  1  0.500000  0.861112  0.999527  1
  Cl  Cl30  1  0.500000  0.105985  0.305293  1
  Cl  Cl31  1  0.000000  0.892329  0.195916  1
