# generated using pymatgen
data_Hf4In2IrPd3
_symmetry_space_group_name_H-M   'P 1'
_cell_length_a   7.62295728
_cell_length_b   7.62295728
_cell_length_c   3.30997300
_cell_angle_alpha   90.00000000
_cell_angle_beta   90.00000000
_cell_angle_gamma   90.17881081
_symmetry_Int_Tables_number   1
_chemical_formula_structural   Hf4In2IrPd3
_chemical_formula_sum   'Hf4 In2 Ir1 Pd3'
_cell_volume   192.33986557
_cell_formula_units_Z   1
loop_
 _symmetry_equiv_pos_site_id
 _symmetry_equiv_pos_as_xyz
  1  'x, y, z'
loop_
 _atom_site_type_symbol
 _atom_site_label
 _atom_site_symmetry_multiplicity
 _atom_site_fract_x
 _atom_site_fract_y
 _atom_site_fract_z
 _atom_site_occupancy
  Hf  Hf0  1  0.173418  0.326582  0.000000  1
  Hf  Hf1  1  0.836849  0.663151  0.000000  1
  Hf  Hf2  1  0.654947  0.171011  0.000000  1
  Hf  Hf3  1  0.328989  0.845053  0.000000  1
  In  In4  1  0.995401  0.999991  0.500000  1
  In  In5  1  0.500009  0.504599  0.500000  1
  Ir  Ir6  1  0.372726  0.127274  0.500000  1
  Pd  Pd7  1  0.634682  0.865318  0.500000  1
  Pd  Pd8  1  0.872137  0.369159  0.500000  1
  Pd  Pd9  1  0.130841  0.627863  0.500000  1
