# generated using pymatgen
data_Tm4Co17(ReP4)3
_symmetry_space_group_name_H-M   'P 1'
_cell_length_a   3.69510000
_cell_length_b   10.31123852
_cell_length_c   11.77517016
_cell_angle_alpha   89.89903551
_cell_angle_beta   90.00000000
_cell_angle_gamma   90.00000000
_symmetry_Int_Tables_number   1
_chemical_formula_structural   Tm4Co17(ReP4)3
_chemical_formula_sum   'Tm4 Co17 Re3 P12'
_cell_volume   448.64573811
_cell_formula_units_Z   1
loop_
 _symmetry_equiv_pos_site_id
 _symmetry_equiv_pos_as_xyz
  1  'x, y, z'
loop_
 _atom_site_type_symbol
 _atom_site_label
 _atom_site_symmetry_multiplicity
 _atom_site_fract_x
 _atom_site_fract_y
 _atom_site_fract_z
 _atom_site_occupancy
  Tm  Tm0  1  0.250000  0.581519  0.702509  1
  Tm  Tm1  1  0.250000  0.915170  0.205309  1
  Tm  Tm2  1  0.750000  0.414520  0.295981  1
  Tm  Tm3  1  0.750000  0.083735  0.794506  1
  Co  Co4  1  0.750000  0.216491  0.509925  1
  Co  Co5  1  0.250000  0.405996  0.487715  1
  Co  Co6  1  0.250000  0.093429  0.987888  1
  Co  Co7  1  0.750000  0.593073  0.511249  1
  Co  Co8  1  0.750000  0.906541  0.012184  1
  Co  Co9  1  0.250000  0.220583  0.177238  1
  Co  Co10  1  0.250000  0.277698  0.676656  1
  Co  Co11  1  0.750000  0.777830  0.822303  1
  Co  Co12  1  0.750000  0.722581  0.323374  1
  Co  Co13  1  0.250000  0.886837  0.701477  1
  Co  Co14  1  0.250000  0.613048  0.202514  1
  Co  Co15  1  0.750000  0.115904  0.301050  1
  Co  Co16  1  0.750000  0.386331  0.797355  1
  Co  Co17  1  0.250000  0.464047  0.932502  1
  Co  Co18  1  0.250000  0.035484  0.432236  1
  Co  Co19  1  0.750000  0.536375  0.068034  1
  Co  Co20  1  0.750000  0.966447  0.568530  1
  Re  Re21  1  0.250000  0.711038  0.988997  1
  Re  Re22  1  0.250000  0.789104  0.489558  1
  Re  Re23  1  0.750000  0.288623  0.010789  1
  P  P24  1  0.250000  0.419117  0.114906  1
  P  P25  1  0.250000  0.082433  0.612307  1
  P  P26  1  0.750000  0.579337  0.884948  1
  P  P27  1  0.750000  0.921450  0.386363  1
  P  P28  1  0.250000  0.268323  0.864797  1
  P  P29  1  0.250000  0.231459  0.369152  1
  P  P30  1  0.750000  0.731575  0.134888  1
  P  P31  1  0.750000  0.769069  0.633299  1
  P  P32  1  0.250000  0.594347  0.390882  1
  P  P33  1  0.250000  0.905702  0.889861  1
  P  P34  1  0.750000  0.399610  0.607009  1
  P  P35  1  0.750000  0.095172  0.111710  1
