# generated using pymatgen
data_Y20Cd6TcRu
_symmetry_space_group_name_H-M   'P 1'
_cell_length_a   9.61167800
_cell_length_b   9.61167772
_cell_length_c   9.95053900
_cell_angle_alpha   90.00000000
_cell_angle_beta   90.00000000
_cell_angle_gamma   120.00000096
_symmetry_Int_Tables_number   1
_chemical_formula_structural   Y20Cd6TcRu
_chemical_formula_sum   'Y20 Cd6 Tc1 Ru1'
_cell_volume   796.11470786
_cell_formula_units_Z   1
loop_
 _symmetry_equiv_pos_site_id
 _symmetry_equiv_pos_as_xyz
  1  'x, y, z'
loop_
 _atom_site_type_symbol
 _atom_site_label
 _atom_site_symmetry_multiplicity
 _atom_site_fract_x
 _atom_site_fract_y
 _atom_site_fract_z
 _atom_site_occupancy
  Y  Y0  1  0.000000  0.000000  0.500230  1
  Y  Y1  1  0.000000  0.000000  0.999770  1
  Y  Y2  1  0.209869  0.790131  0.441082  1
  Y  Y3  1  0.209869  0.419738  0.441082  1
  Y  Y4  1  0.580262  0.790131  0.441082  1
  Y  Y5  1  0.789943  0.210057  0.559317  1
  Y  Y6  1  0.789943  0.579884  0.559317  1
  Y  Y7  1  0.420116  0.210057  0.559317  1
  Y  Y8  1  0.789943  0.210057  0.940683  1
  Y  Y9  1  0.789943  0.579884  0.940683  1
  Y  Y10  1  0.420116  0.210057  0.940683  1
  Y  Y11  1  0.209869  0.790131  0.058918  1
  Y  Y12  1  0.209869  0.419738  0.058918  1
  Y  Y13  1  0.580262  0.790131  0.058918  1
  Y  Y14  1  0.540312  0.459688  0.250000  1
  Y  Y15  1  0.540312  0.080624  0.250000  1
  Y  Y16  1  0.919376  0.459688  0.250000  1
  Y  Y17  1  0.458587  0.541413  0.750000  1
  Y  Y18  1  0.458587  0.917175  0.750000  1
  Y  Y19  1  0.082825  0.541413  0.750000  1
  Cd  Cd20  1  0.885302  0.114698  0.250000  1
  Cd  Cd21  1  0.885302  0.770605  0.250000  1
  Cd  Cd22  1  0.229395  0.114698  0.250000  1
  Cd  Cd23  1  0.114516  0.885484  0.750000  1
  Cd  Cd24  1  0.114516  0.229032  0.750000  1
  Cd  Cd25  1  0.770968  0.885484  0.750000  1
  Tc  Tc26  1  0.333333  0.666667  0.250000  1
  Ru  Ru27  1  0.666667  0.333333  0.750000  1
