# generated using pymatgen
data_Tm6CrCo14(P4Rh)3
_symmetry_space_group_name_H-M   'P 1'
_cell_length_a   3.67186400
_cell_length_b   10.61842600
_cell_length_c   12.26765800
_cell_angle_alpha   90.00000000
_cell_angle_beta   90.00000000
_cell_angle_gamma   90.00000000
_symmetry_Int_Tables_number   1
_chemical_formula_structural   Tm6CrCo14(P4Rh)3
_chemical_formula_sum   'Tm6 Cr1 Co14 P12 Rh3'
_cell_volume   478.30882314
_cell_formula_units_Z   1
loop_
 _symmetry_equiv_pos_site_id
 _symmetry_equiv_pos_as_xyz
  1  'x, y, z'
loop_
 _atom_site_type_symbol
 _atom_site_label
 _atom_site_symmetry_multiplicity
 _atom_site_fract_x
 _atom_site_fract_y
 _atom_site_fract_z
 _atom_site_occupancy
  Tm  Tm0  1  0.000000  0.500000  0.519220  1
  Tm  Tm1  1  0.500000  0.000000  0.478808  1
  Tm  Tm2  1  0.500000  0.814062  0.204937  1
  Tm  Tm3  1  0.500000  0.185938  0.204937  1
  Tm  Tm4  1  0.000000  0.684135  0.796685  1
  Tm  Tm5  1  0.000000  0.315865  0.796685  1
  Cr  Cr6  1  0.500000  0.500000  0.157885  1
  Co  Co7  1  0.000000  0.500000  0.990095  1
  Co  Co8  1  0.500000  0.000000  0.011697  1
  Co  Co9  1  0.500000  0.333500  0.995145  1
  Co  Co10  1  0.500000  0.666500  0.995145  1
  Co  Co11  1  0.000000  0.169843  0.007904  1
  Co  Co12  1  0.000000  0.830157  0.007904  1
  Co  Co13  1  0.500000  0.298894  0.430675  1
  Co  Co14  1  0.500000  0.701106  0.430675  1
  Co  Co15  1  0.000000  0.201164  0.568448  1
  Co  Co16  1  0.000000  0.798836  0.568448  1
  Co  Co17  1  0.500000  0.878660  0.708089  1
  Co  Co18  1  0.500000  0.121340  0.708089  1
  Co  Co19  1  0.000000  0.619456  0.290771  1
  Co  Co20  1  0.000000  0.380544  0.290771  1
  P  P21  1  0.500000  0.500000  0.889418  1
  P  P22  1  0.000000  0.000000  0.110320  1
  P  P23  1  0.500000  0.500000  0.345994  1
  P  P24  1  0.000000  0.000000  0.648415  1
  P  P25  1  0.500000  0.304563  0.614290  1
  P  P26  1  0.500000  0.695437  0.614290  1
  P  P27  1  0.000000  0.196107  0.385113  1
  P  P28  1  0.000000  0.803893  0.385113  1
  P  P29  1  0.500000  0.843728  0.893618  1
  P  P30  1  0.500000  0.156272  0.893618  1
  P  P31  1  0.000000  0.652730  0.109230  1
  P  P32  1  0.000000  0.347270  0.109230  1
  Rh  Rh33  1  0.000000  0.000000  0.839220  1
  Rh  Rh34  1  0.500000  0.500000  0.702428  1
  Rh  Rh35  1  0.000000  0.000000  0.296690  1
