# generated using pymatgen
data_Dy3Y13Cd4(OsPt)2
_symmetry_space_group_name_H-M   'P 1'
_cell_length_a   9.69521052
_cell_length_b   9.70461443
_cell_length_c   9.77614503
_cell_angle_alpha   59.75405566
_cell_angle_beta   59.72165127
_cell_angle_gamma   59.55649434
_symmetry_Int_Tables_number   1
_chemical_formula_structural   Dy3Y13Cd4(OsPt)2
_chemical_formula_sum   'Dy3 Y13 Cd4 Os2 Pt2'
_cell_volume   645.64022110
_cell_formula_units_Z   1
loop_
 _symmetry_equiv_pos_site_id
 _symmetry_equiv_pos_as_xyz
  1  'x, y, z'
loop_
 _atom_site_type_symbol
 _atom_site_label
 _atom_site_symmetry_multiplicity
 _atom_site_fract_x
 _atom_site_fract_y
 _atom_site_fract_z
 _atom_site_occupancy
  Dy  Dy0  1  0.349953  0.350014  0.351606  1
  Dy  Dy1  1  0.349930  0.349984  0.948458  1
  Dy  Dy2  1  0.345906  0.956341  0.348892  1
  Y  Y3  1  0.954405  0.346632  0.349479  1
  Y  Y4  1  0.814204  0.187783  0.191923  1
  Y  Y5  1  0.187904  0.813827  0.806019  1
  Y  Y6  1  0.187899  0.813829  0.192238  1
  Y  Y7  1  0.814209  0.187776  0.806083  1
  Y  Y8  1  0.188920  0.188771  0.811148  1
  Y  Y9  1  0.807410  0.807536  0.192524  1
  Y  Y10  1  0.938521  0.556366  0.566608  1
  Y  Y11  1  0.555702  0.938802  0.939225  1
  Y  Y12  1  0.555673  0.938824  0.566241  1
  Y  Y13  1  0.938509  0.556384  0.938490  1
  Y  Y14  1  0.562399  0.562573  0.937505  1
  Y  Y15  1  0.939495  0.939030  0.560733  1
  Cd  Cd16  1  0.579928  0.580024  0.581243  1
  Cd  Cd17  1  0.579930  0.580026  0.258807  1
  Cd  Cd18  1  0.581134  0.255021  0.581932  1
  Cd  Cd19  1  0.255305  0.581044  0.581839  1
  Os  Os20  1  0.146172  0.144670  0.136143  1
  Os  Os21  1  0.146221  0.144664  0.573006  1
  Pt  Pt22  1  0.146582  0.574174  0.139636  1
  Pt  Pt23  1  0.573692  0.145907  0.140224  1
