# generated using pymatgen
data_Nd12Co6Ag
_symmetry_space_group_name_H-M   'P 1'
_cell_length_a   8.59321297
_cell_length_b   8.59321265
_cell_length_c   8.59321200
_cell_angle_alpha   109.47121911
_cell_angle_beta   109.47121834
_cell_angle_gamma   109.47122036
_symmetry_Int_Tables_number   1
_chemical_formula_structural   Nd12Co6Ag
_chemical_formula_sum   'Nd12 Co6 Ag1'
_cell_volume   488.47775577
_cell_formula_units_Z   1
loop_
 _symmetry_equiv_pos_site_id
 _symmetry_equiv_pos_as_xyz
  1  'x, y, z'
loop_
 _atom_site_type_symbol
 _atom_site_label
 _atom_site_symmetry_multiplicity
 _atom_site_fract_x
 _atom_site_fract_y
 _atom_site_fract_z
 _atom_site_occupancy
  Nd  Nd0  1  0.807559  0.694514  0.502073  1
  Nd  Nd1  1  0.192441  0.305486  0.497927  1
  Nd  Nd2  1  0.192441  0.694514  0.886955  1
  Nd  Nd3  1  0.807559  0.305486  0.113045  1
  Nd  Nd4  1  0.694514  0.502073  0.807559  1
  Nd  Nd5  1  0.305486  0.497927  0.192441  1
  Nd  Nd6  1  0.694514  0.886955  0.192441  1
  Nd  Nd7  1  0.305486  0.113045  0.807559  1
  Nd  Nd8  1  0.502073  0.807559  0.694514  1
  Nd  Nd9  1  0.497927  0.192441  0.305486  1
  Nd  Nd10  1  0.113045  0.807559  0.305486  1
  Nd  Nd11  1  0.886955  0.192441  0.694514  1
  Co  Co12  1  0.886867  0.386867  0.500000  1
  Co  Co13  1  0.113133  0.613133  0.500000  1
  Co  Co14  1  0.386867  0.500000  0.886867  1
  Co  Co15  1  0.613133  0.500000  0.113133  1
  Co  Co16  1  0.500000  0.886867  0.386867  1
  Co  Co17  1  0.500000  0.113133  0.613133  1
  Ag  Ag18  1  0.000000  0.000000  0.000000  1
