# generated using pymatgen
data_TmScFeB6
_symmetry_space_group_name_H-M   'P 1'
_cell_length_a   3.41060300
_cell_length_b   8.87311800
_cell_length_c   11.22679100
_cell_angle_alpha   90.00000000
_cell_angle_beta   90.00000000
_cell_angle_gamma   90.00000000
_symmetry_Int_Tables_number   1
_chemical_formula_structural   TmScFeB6
_chemical_formula_sum   'Tm4 Sc4 Fe4 B24'
_cell_volume   339.75281568
_cell_formula_units_Z   4
loop_
 _symmetry_equiv_pos_site_id
 _symmetry_equiv_pos_as_xyz
  1  'x, y, z'
loop_
 _atom_site_type_symbol
 _atom_site_label
 _atom_site_symmetry_multiplicity
 _atom_site_fract_x
 _atom_site_fract_y
 _atom_site_fract_z
 _atom_site_occupancy
  Tm  Tm0  1  0.000000  0.821914  0.085873  1
  Tm  Tm1  1  0.000000  0.178086  0.914127  1
  Tm  Tm2  1  0.000000  0.321914  0.414127  1
  Tm  Tm3  1  0.000000  0.678086  0.585873  1
  Sc  Sc4  1  0.000000  0.444070  0.128292  1
  Sc  Sc5  1  0.000000  0.555930  0.871708  1
  Sc  Sc6  1  0.000000  0.944070  0.371708  1
  Sc  Sc7  1  0.000000  0.055930  0.628292  1
  Fe  Fe8  1  0.000000  0.140271  0.181471  1
  Fe  Fe9  1  0.000000  0.859729  0.818529  1
  Fe  Fe10  1  0.000000  0.640271  0.318529  1
  Fe  Fe11  1  0.000000  0.359729  0.681471  1
  B  B12  1  0.500000  0.054945  0.068108  1
  B  B13  1  0.500000  0.945055  0.931892  1
  B  B14  1  0.500000  0.554945  0.431892  1
  B  B15  1  0.500000  0.445055  0.568108  1
  B  B16  1  0.500000  0.250757  0.081864  1
  B  B17  1  0.500000  0.749243  0.918136  1
  B  B18  1  0.500000  0.750757  0.418136  1
  B  B19  1  0.500000  0.249243  0.581864  1
  B  B20  1  0.500000  0.292251  0.234197  1
  B  B21  1  0.500000  0.707749  0.765803  1
  B  B22  1  0.500000  0.792251  0.265803  1
  B  B23  1  0.500000  0.207749  0.734197  1
  B  B24  1  0.500000  0.129952  0.316114  1
  B  B25  1  0.500000  0.870048  0.683886  1
  B  B26  1  0.500000  0.629952  0.183886  1
  B  B27  1  0.500000  0.370048  0.816114  1
  B  B28  1  0.500000  0.483741  0.286486  1
  B  B29  1  0.500000  0.516259  0.713514  1
  B  B30  1  0.500000  0.983741  0.213514  1
  B  B31  1  0.500000  0.016259  0.786486  1
  B  B32  1  0.500000  0.101243  0.472612  1
  B  B33  1  0.500000  0.898757  0.527388  1
  B  B34  1  0.500000  0.601243  0.027388  1
  B  B35  1  0.500000  0.398757  0.972612  1
