# generated using pymatgen
data_Nd6Mn2NbMoC12
_symmetry_space_group_name_H-M   'P 1'
_cell_length_a   8.42165600
_cell_length_b   8.42165670
_cell_length_c   5.24656700
_cell_angle_alpha   90.00000000
_cell_angle_beta   90.00000000
_cell_angle_gamma   119.99998154
_symmetry_Int_Tables_number   1
_chemical_formula_structural   Nd6Mn2NbMoC12
_chemical_formula_sum   'Nd6 Mn2 Nb1 Mo1 C12'
_cell_volume   322.25596681
_cell_formula_units_Z   1
loop_
 _symmetry_equiv_pos_site_id
 _symmetry_equiv_pos_as_xyz
  1  'x, y, z'
loop_
 _atom_site_type_symbol
 _atom_site_label
 _atom_site_symmetry_multiplicity
 _atom_site_fract_x
 _atom_site_fract_y
 _atom_site_fract_z
 _atom_site_occupancy
  Nd  Nd0  1  0.616407  0.678824  0.750450  1
  Nd  Nd1  1  0.937584  0.616407  0.249550  1
  Nd  Nd2  1  0.678824  0.062416  0.249550  1
  Nd  Nd3  1  0.321176  0.937584  0.750450  1
  Nd  Nd4  1  0.062416  0.383593  0.750450  1
  Nd  Nd5  1  0.383593  0.321176  0.249550  1
  Mn  Mn6  1  0.666667  0.333333  0.750353  1
  Mn  Mn7  1  0.333333  0.666667  0.249647  1
  Nb  Nb8  1  0.000000  0.000000  0.500000  1
  Mo  Mo9  1  0.000000  0.000000  0.000000  1
  C  C10  1  0.957404  0.756441  0.749829  1
  C  C11  1  0.200963  0.957404  0.250171  1
  C  C12  1  0.756441  0.799037  0.250171  1
  C  C13  1  0.243559  0.200963  0.749829  1
  C  C14  1  0.799037  0.042596  0.749829  1
  C  C15  1  0.042596  0.243559  0.250171  1
  C  C16  1  0.857172  0.568706  0.752013  1
  C  C17  1  0.288464  0.857172  0.247987  1
  C  C18  1  0.568706  0.711536  0.247987  1
  C  C19  1  0.431294  0.288464  0.752013  1
  C  C20  1  0.142828  0.431294  0.247987  1
  C  C21  1  0.711536  0.142828  0.752013  1
