# generated using pymatgen
data_Y20Ru7Pt5
_symmetry_space_group_name_H-M   'P 1'
_cell_length_a   10.94844723
_cell_length_b   10.94844785
_cell_length_c   6.46963361
_cell_angle_alpha   90.03991502
_cell_angle_beta   90.03991617
_cell_angle_gamma   89.73603192
_symmetry_Int_Tables_number   1
_chemical_formula_structural   Y20Ru7Pt5
_chemical_formula_sum   'Y20 Ru7 Pt5'
_cell_volume   775.49669473
_cell_formula_units_Z   1
loop_
 _symmetry_equiv_pos_site_id
 _symmetry_equiv_pos_as_xyz
  1  'x, y, z'
loop_
 _atom_site_type_symbol
 _atom_site_label
 _atom_site_symmetry_multiplicity
 _atom_site_fract_x
 _atom_site_fract_y
 _atom_site_fract_z
 _atom_site_occupancy
  Y  Y0  1  0.296745  0.089125  0.374293  1
  Y  Y1  1  0.296721  0.910190  0.874136  1
  Y  Y2  1  0.702559  0.084140  0.873788  1
  Y  Y3  1  0.702711  0.910463  0.374690  1
  Y  Y4  1  0.584257  0.790304  0.878093  1
  Y  Y5  1  0.582638  0.205747  0.373226  1
  Y  Y6  1  0.415076  0.792412  0.377449  1
  Y  Y7  1  0.412294  0.206715  0.879925  1
  Y  Y8  1  0.209696  0.415743  0.621907  1
  Y  Y9  1  0.207588  0.584924  0.122551  1
  Y  Y10  1  0.794253  0.417362  0.126774  1
  Y  Y11  1  0.793285  0.587706  0.620075  1
  Y  Y12  1  0.910875  0.703255  0.125707  1
  Y  Y13  1  0.915860  0.297441  0.626212  1
  Y  Y14  1  0.089810  0.703279  0.625864  1
  Y  Y15  1  0.089537  0.297289  0.125310  1
  Y  Y16  1  0.000033  0.999767  0.499403  1
  Y  Y17  1  0.000233  0.999967  0.000597  1
  Y  Y18  1  0.497467  0.501838  0.002207  1
  Y  Y19  1  0.498162  0.502533  0.497793  1
  Ru  Ru20  1  0.653783  0.652210  0.249516  1
  Ru  Ru21  1  0.347790  0.346217  0.250484  1
  Ru  Ru22  1  0.346011  0.653989  0.750000  1
  Ru  Ru23  1  0.499914  0.000448  0.122232  1
  Ru  Ru24  1  0.500034  0.000241  0.624205  1
  Ru  Ru25  1  0.999759  0.499966  0.875795  1
  Ru  Ru26  1  0.999552  0.500086  0.377768  1
  Pt  Pt27  1  0.847051  0.152949  0.250000  1
  Pt  Pt28  1  0.848436  0.848908  0.750193  1
  Pt  Pt29  1  0.151092  0.151564  0.749807  1
  Pt  Pt30  1  0.151926  0.848074  0.250000  1
  Pt  Pt31  1  0.654849  0.345151  0.750000  1
