# generated using pymatgen
data_Ca2Nd2Zn3In5
_symmetry_space_group_name_H-M   'P 1'
_cell_length_a   4.80345800
_cell_length_b   7.63669505
_cell_length_c   8.29398401
_cell_angle_alpha   90.00840507
_cell_angle_beta   90.00000000
_cell_angle_gamma   90.00000000
_symmetry_Int_Tables_number   1
_chemical_formula_structural   Ca2Nd2Zn3In5
_chemical_formula_sum   'Ca2 Nd2 Zn3 In5'
_cell_volume   304.24442921
_cell_formula_units_Z   1
loop_
 _symmetry_equiv_pos_site_id
 _symmetry_equiv_pos_as_xyz
  1  'x, y, z'
loop_
 _atom_site_type_symbol
 _atom_site_label
 _atom_site_symmetry_multiplicity
 _atom_site_fract_x
 _atom_site_fract_y
 _atom_site_fract_z
 _atom_site_occupancy
  Ca  Ca0  1  0.500000  0.496867  0.744382  1
  Ca  Ca1  1  0.000000  0.503625  0.255168  1
  Nd  Nd2  1  0.500000  0.984563  0.748799  1
  Nd  Nd3  1  0.000000  0.991830  0.252860  1
  Zn  Zn4  1  0.500000  0.790919  0.417019  1
  Zn  Zn5  1  0.000000  0.792022  0.917152  1
  Zn  Zn6  1  0.000000  0.293316  0.579489  1
  In  In7  1  0.500000  0.725547  0.083319  1
  In  In8  1  0.500000  0.210688  0.428438  1
  In  In9  1  0.000000  0.202080  0.903076  1
  In  In10  1  0.000000  0.721187  0.584738  1
  In  In11  1  0.500000  0.287356  0.085559  1
