# generated using pymatgen
data_ErTm3Sc6(In2Rh)4
_symmetry_space_group_name_H-M   'P 1'
_cell_length_a   3.48259300
_cell_length_b   7.78115619
_cell_length_c   17.79402943
_cell_angle_alpha   90.02511882
_cell_angle_beta   90.00000000
_cell_angle_gamma   90.00000000
_symmetry_Int_Tables_number   1
_chemical_formula_structural   ErTm3Sc6(In2Rh)4
_chemical_formula_sum   'Er1 Tm3 Sc6 In8 Rh4'
_cell_volume   482.19324073
_cell_formula_units_Z   1
loop_
 _symmetry_equiv_pos_site_id
 _symmetry_equiv_pos_as_xyz
  1  'x, y, z'
loop_
 _atom_site_type_symbol
 _atom_site_label
 _atom_site_symmetry_multiplicity
 _atom_site_fract_x
 _atom_site_fract_y
 _atom_site_fract_z
 _atom_site_occupancy
  Er  Er0  1  0.000000  0.746596  0.779745  1
  Tm  Tm1  1  0.000000  0.253463  0.220355  1
  Tm  Tm2  1  0.000000  0.246561  0.720342  1
  Tm  Tm3  1  0.000000  0.753463  0.279644  1
  Sc  Sc4  1  0.000000  0.999993  0.999986  1
  Sc  Sc5  1  0.000000  0.499996  0.499979  1
  Sc  Sc6  1  0.000000  0.877688  0.585973  1
  Sc  Sc7  1  0.000000  0.122404  0.413979  1
  Sc  Sc8  1  0.000000  0.377555  0.914011  1
  Sc  Sc9  1  0.000000  0.622384  0.086013  1
  In  In10  1  0.500000  0.798212  0.436935  1
  In  In11  1  0.500000  0.201830  0.563036  1
  In  In12  1  0.500000  0.298229  0.063060  1
  In  In13  1  0.500000  0.701733  0.937092  1
  In  In14  1  0.500000  0.929486  0.146397  1
  In  In15  1  0.500000  0.070757  0.853657  1
  In  In16  1  0.500000  0.429497  0.353600  1
  In  In17  1  0.500000  0.570315  0.646286  1
  Rh  Rh18  1  0.500000  0.962457  0.692062  1
  Rh  Rh19  1  0.500000  0.037972  0.307790  1
  Rh  Rh20  1  0.500000  0.461501  0.807868  1
  Rh  Rh21  1  0.500000  0.537906  0.192191  1
