# generated using pymatgen
data_Tb7Dy(Si3Ir)4
_symmetry_space_group_name_H-M   'P 1'
_cell_length_a   8.18848901
_cell_length_b   8.18913840
_cell_length_c   7.96579000
_cell_angle_alpha   90.00000000
_cell_angle_beta   90.00000000
_cell_angle_gamma   120.00261532
_symmetry_Int_Tables_number   1
_chemical_formula_structural   Tb7Dy(Si3Ir)4
_chemical_formula_sum   'Tb7 Dy1 Si12 Ir4'
_cell_volume   462.58337454
_cell_formula_units_Z   1
loop_
 _symmetry_equiv_pos_site_id
 _symmetry_equiv_pos_as_xyz
  1  'x, y, z'
loop_
 _atom_site_type_symbol
 _atom_site_label
 _atom_site_symmetry_multiplicity
 _atom_site_fract_x
 _atom_site_fract_y
 _atom_site_fract_z
 _atom_site_occupancy
  Tb  Tb0  1  0.999981  0.999990  0.250000  1
  Tb  Tb1  1  0.000010  0.000005  0.750000  1
  Tb  Tb2  1  0.509321  0.490689  0.250000  1
  Tb  Tb3  1  0.509321  0.018634  0.250000  1
  Tb  Tb4  1  0.981367  0.490684  0.250000  1
  Tb  Tb5  1  0.490656  0.509308  0.750000  1
  Tb  Tb6  1  0.490656  0.981346  0.750000  1
  Dy  Dy7  1  0.018606  0.509302  0.750000  1
  Si  Si8  1  0.166711  0.833213  0.499338  1
  Si  Si9  1  0.166711  0.333499  0.499338  1
  Si  Si10  1  0.666534  0.833268  0.499290  1
  Si  Si11  1  0.833282  0.166769  0.500736  1
  Si  Si12  1  0.833282  0.666512  0.500736  1
  Si  Si13  1  0.333465  0.166732  0.500720  1
  Si  Si14  1  0.833282  0.166769  0.999264  1
  Si  Si15  1  0.833282  0.666512  0.999264  1
  Si  Si16  1  0.333465  0.166732  0.999280  1
  Si  Si17  1  0.166711  0.833213  0.000662  1
  Si  Si18  1  0.166711  0.333499  0.000662  1
  Si  Si19  1  0.666534  0.833268  0.000710  1
  Ir  Ir20  1  0.333272  0.666637  0.467263  1
  Ir  Ir21  1  0.666784  0.333392  0.532882  1
  Ir  Ir22  1  0.666784  0.333392  0.967118  1
  Ir  Ir23  1  0.333272  0.666637  0.032737  1
