# generated using pymatgen
data_LaNd3Cd2Cu3Ru
_symmetry_space_group_name_H-M   'P 1'
_cell_length_a   7.72298475
_cell_length_b   7.72298368
_cell_length_c   3.92794100
_cell_angle_alpha   90.00000000
_cell_angle_beta   90.00000000
_cell_angle_gamma   90.53492483
_symmetry_Int_Tables_number   1
_chemical_formula_structural   LaNd3Cd2Cu3Ru
_chemical_formula_sum   'La1 Nd3 Cd2 Cu3 Ru1'
_cell_volume   234.26980861
_cell_formula_units_Z   1
loop_
 _symmetry_equiv_pos_site_id
 _symmetry_equiv_pos_as_xyz
  1  'x, y, z'
loop_
 _atom_site_type_symbol
 _atom_site_label
 _atom_site_symmetry_multiplicity
 _atom_site_fract_x
 _atom_site_fract_y
 _atom_site_fract_z
 _atom_site_occupancy
  La  La0  1  0.693608  0.193608  0.000000  1
  Nd  Nd1  1  0.325924  0.825924  0.000000  1
  Nd  Nd2  1  0.163842  0.321636  0.000000  1
  Nd  Nd3  1  0.821636  0.663842  0.000000  1
  Cd  Cd4  1  0.492834  0.504447  0.500000  1
  Cd  Cd5  1  0.004447  0.992834  0.500000  1
  Cu  Cu6  1  0.119443  0.619443  0.500000  1
  Cu  Cu7  1  0.385576  0.120323  0.500000  1
  Cu  Cu8  1  0.620323  0.885576  0.500000  1
  Ru  Ru9  1  0.872368  0.372368  0.500000  1
