# generated using pymatgen
data_CaHg2SeO6
_symmetry_space_group_name_H-M   'P 1'
_cell_length_a   7.07236374
_cell_length_b   7.42132892
_cell_length_c   7.76164439
_cell_angle_alpha   74.68957841
_cell_angle_beta   69.17604908
_cell_angle_gamma   64.64847066
_symmetry_Int_Tables_number   1
_chemical_formula_structural   CaHg2SeO6
_chemical_formula_sum   'Ca2 Hg4 Se2 O12'
_cell_volume   341.07077774
_cell_formula_units_Z   2
loop_
 _symmetry_equiv_pos_site_id
 _symmetry_equiv_pos_as_xyz
  1  'x, y, z'
loop_
 _atom_site_type_symbol
 _atom_site_label
 _atom_site_symmetry_multiplicity
 _atom_site_fract_x
 _atom_site_fract_y
 _atom_site_fract_z
 _atom_site_occupancy
  Ca  Ca0  1  0.331752  0.140759  0.214264  1
  Ca  Ca1  1  0.668248  0.859241  0.785736  1
  Hg  Hg2  1  0.843968  0.645751  0.208117  1
  Hg  Hg3  1  0.156032  0.354249  0.791883  1
  Hg  Hg4  1  0.658533  0.353918  0.792783  1
  Hg  Hg5  1  0.341467  0.646082  0.207217  1
  Se  Se6  1  0.796966  0.137142  0.313325  1
  Se  Se7  1  0.203034  0.862858  0.686675  1
  O  O8  1  0.636187  0.206610  0.173551  1
  O  O9  1  0.446429  0.199913  0.863600  1
  O  O10  1  0.945391  0.920962  0.822877  1
  O  O11  1  0.771586  0.930884  0.457441  1
  O  O12  1  0.272644  0.672154  0.573153  1
  O  O13  1  0.150894  0.486697  0.238933  1
  O  O14  1  0.228414  0.069116  0.542559  1
  O  O15  1  0.553571  0.800087  0.136400  1
  O  O16  1  0.363813  0.793390  0.826449  1
  O  O17  1  0.849106  0.513303  0.761067  1
  O  O18  1  0.727356  0.327846  0.426847  1
  O  O19  1  0.054609  0.079038  0.177123  1
