# generated using pymatgen
data_TbErTm2SiBr6
_symmetry_space_group_name_H-M   'P 1'
_cell_length_a   4.02160900
_cell_length_b   13.15896647
_cell_length_c   13.89861600
_cell_angle_alpha   90.37290034
_cell_angle_beta   90.00000000
_cell_angle_gamma   90.00000000
_symmetry_Int_Tables_number   1
_chemical_formula_structural   TbErTm2SiBr6
_chemical_formula_sum   'Tb2 Er2 Tm4 Si2 Br12'
_cell_volume   735.50221091
_cell_formula_units_Z   2
loop_
 _symmetry_equiv_pos_site_id
 _symmetry_equiv_pos_as_xyz
  1  'x, y, z'
loop_
 _atom_site_type_symbol
 _atom_site_label
 _atom_site_symmetry_multiplicity
 _atom_site_fract_x
 _atom_site_fract_y
 _atom_site_fract_z
 _atom_site_occupancy
  Tb  Tb0  1  0.000000  0.619182  0.920616  1
  Tb  Tb1  1  0.000000  0.380818  0.079384  1
  Er  Er2  1  0.000000  0.116833  0.578002  1
  Er  Er3  1  0.000000  0.883167  0.421998  1
  Tm  Tm4  1  0.500000  0.117091  0.342599  1
  Tm  Tm5  1  0.500000  0.882909  0.657401  1
  Tm  Tm6  1  0.500000  0.618089  0.158548  1
  Tm  Tm7  1  0.500000  0.381911  0.841452  1
  Si  Si8  1  0.500000  0.000000  0.500000  1
  Si  Si9  1  0.500000  0.500000  0.000000  1
  Br  Br10  1  0.500000  0.240658  0.166558  1
  Br  Br11  1  0.500000  0.759342  0.833442  1
  Br  Br12  1  0.500000  0.746807  0.336716  1
  Br  Br13  1  0.500000  0.253193  0.663284  1
  Br  Br14  1  0.000000  0.253916  0.411916  1
  Br  Br15  1  0.000000  0.746084  0.588084  1
  Br  Br16  1  0.000000  0.755467  0.092838  1
  Br  Br17  1  0.000000  0.244533  0.907162  1
  Br  Br18  1  0.000000  0.002036  0.244298  1
  Br  Br19  1  0.000000  0.997964  0.755702  1
  Br  Br20  1  0.000000  0.506509  0.258882  1
  Br  Br21  1  0.000000  0.493491  0.741118  1
