# generated using pymatgen
data_YbPr15(ErIr3)4
_symmetry_space_group_name_H-M   'P 1'
_cell_length_a   11.23127867
_cell_length_b   11.25472665
_cell_length_c   6.53652369
_cell_angle_alpha   89.89345170
_cell_angle_beta   90.20966442
_cell_angle_gamma   89.90651809
_symmetry_Int_Tables_number   1
_chemical_formula_structural   YbPr15(ErIr3)4
_chemical_formula_sum   'Yb1 Pr15 Er4 Ir12'
_cell_volume   826.24102064
_cell_formula_units_Z   1
loop_
 _symmetry_equiv_pos_site_id
 _symmetry_equiv_pos_as_xyz
  1  'x, y, z'
loop_
 _atom_site_type_symbol
 _atom_site_label
 _atom_site_symmetry_multiplicity
 _atom_site_fract_x
 _atom_site_fract_y
 _atom_site_fract_z
 _atom_site_occupancy
  Yb  Yb0  1  0.290719  0.085858  0.381276  1
  Pr  Pr1  1  0.287724  0.914054  0.882721  1
  Pr  Pr2  1  0.710501  0.086734  0.882374  1
  Pr  Pr3  1  0.711829  0.913484  0.382139  1
  Pr  Pr4  1  0.586965  0.789283  0.881039  1
  Pr  Pr5  1  0.583105  0.210930  0.381955  1
  Pr  Pr6  1  0.411109  0.791648  0.381767  1
  Pr  Pr7  1  0.410750  0.210089  0.882008  1
  Pr  Pr8  1  0.211359  0.412334  0.619585  1
  Pr  Pr9  1  0.212607  0.586965  0.118685  1
  Pr  Pr10  1  0.788704  0.411704  0.118867  1
  Pr  Pr11  1  0.788750  0.587326  0.619052  1
  Pr  Pr12  1  0.912728  0.711570  0.119098  1
  Pr  Pr13  1  0.912116  0.287867  0.621319  1
  Pr  Pr14  1  0.086947  0.711824  0.618387  1
  Pr  Pr15  1  0.090521  0.286121  0.121397  1
  Er  Er16  1  0.004157  0.001501  0.498086  1
  Er  Er17  1  0.999015  0.000276  0.998437  1
  Er  Er18  1  0.500166  0.499679  0.998374  1
  Er  Er19  1  0.499345  0.500826  0.497908  1
  Ir  Ir20  1  0.854318  0.147832  0.250154  1
  Ir  Ir21  1  0.853761  0.853250  0.748239  1
  Ir  Ir22  1  0.147091  0.147332  0.752903  1
  Ir  Ir23  1  0.145586  0.850006  0.247513  1
  Ir  Ir24  1  0.646286  0.352426  0.748769  1
  Ir  Ir25  1  0.647144  0.647281  0.249478  1
  Ir  Ir26  1  0.352256  0.355319  0.247445  1
  Ir  Ir27  1  0.352690  0.647804  0.748708  1
  Ir  Ir28  1  0.499667  0.000282  0.118510  1
  Ir  Ir29  1  0.500873  0.999761  0.619956  1
  Ir  Ir30  1  0.000775  0.499362  0.882485  1
  Ir  Ir31  1  0.000436  0.499271  0.381368  1
