# generated using pymatgen
data_Li2CePrSi2Sn
_symmetry_space_group_name_H-M   'P 1'
_cell_length_a   9.80887200
_cell_length_b   9.80887245
_cell_length_c   6.82591500
_cell_angle_alpha   90.00000000
_cell_angle_beta   90.00000000
_cell_angle_gamma   153.23923645
_symmetry_Int_Tables_number   1
_chemical_formula_structural   Li2CePrSi2Sn
_chemical_formula_sum   'Li4 Ce2 Pr2 Si4 Sn2'
_cell_volume   295.71160294
_cell_formula_units_Z   2
loop_
 _symmetry_equiv_pos_site_id
 _symmetry_equiv_pos_as_xyz
  1  'x, y, z'
loop_
 _atom_site_type_symbol
 _atom_site_label
 _atom_site_symmetry_multiplicity
 _atom_site_fract_x
 _atom_site_fract_y
 _atom_site_fract_z
 _atom_site_occupancy
  Li  Li0  1  0.816275  0.183725  0.555527  1
  Li  Li1  1  0.183725  0.816275  0.444473  1
  Li  Li2  1  0.183725  0.816275  0.055527  1
  Li  Li3  1  0.816275  0.183725  0.944473  1
  Ce  Ce4  1  0.547597  0.452403  0.250000  1
  Ce  Ce5  1  0.452403  0.547597  0.750000  1
  Pr  Pr6  1  0.350055  0.649945  0.250000  1
  Pr  Pr7  1  0.649945  0.350055  0.750000  1
  Si  Si8  1  0.943845  0.056155  0.073137  1
  Si  Si9  1  0.056155  0.943845  0.926863  1
  Si  Si10  1  0.056155  0.943845  0.573137  1
  Si  Si11  1  0.943845  0.056155  0.426863  1
  Sn  Sn12  1  0.718231  0.281769  0.250000  1
  Sn  Sn13  1  0.281769  0.718231  0.750000  1
