# generated using pymatgen
data_SrCa2(AgSn)3
_symmetry_space_group_name_H-M   'P 1'
_cell_length_a   4.88009600
_cell_length_b   4.88009677
_cell_length_c   11.53811000
_cell_angle_alpha   90.00000000
_cell_angle_beta   90.00000000
_cell_angle_gamma   119.99999477
_symmetry_Int_Tables_number   1
_chemical_formula_structural   SrCa2(AgSn)3
_chemical_formula_sum   'Sr1 Ca2 Ag3 Sn3'
_cell_volume   237.96995536
_cell_formula_units_Z   1
loop_
 _symmetry_equiv_pos_site_id
 _symmetry_equiv_pos_as_xyz
  1  'x, y, z'
loop_
 _atom_site_type_symbol
 _atom_site_label
 _atom_site_symmetry_multiplicity
 _atom_site_fract_x
 _atom_site_fract_y
 _atom_site_fract_z
 _atom_site_occupancy
  Sr  Sr0  1  0.000000  0.000000  0.827667  1
  Ca  Ca1  1  0.000000  0.000000  0.489532  1
  Ca  Ca2  1  0.000000  0.000000  0.171657  1
  Ag  Ag3  1  0.666667  0.333333  0.012576  1
  Ag  Ag4  1  0.333333  0.666667  0.653563  1
  Ag  Ag5  1  0.333333  0.666667  0.303500  1
  Sn  Sn6  1  0.666667  0.333333  0.628848  1
  Sn  Sn7  1  0.666667  0.333333  0.351264  1
  Sn  Sn8  1  0.333333  0.666667  0.017392  1
