# generated using pymatgen
data_Ca2Al20IrRu3
_symmetry_space_group_name_H-M   'P 1'
_cell_length_a   6.87858557
_cell_length_b   6.87838714
_cell_length_c   9.15119335
_cell_angle_alpha   90.02743964
_cell_angle_beta   89.95648540
_cell_angle_gamma   96.67178790
_symmetry_Int_Tables_number   1
_chemical_formula_structural   Ca2Al20IrRu3
_chemical_formula_sum   'Ca2 Al20 Ir1 Ru3'
_cell_volume   430.04338990
_cell_formula_units_Z   1
loop_
 _symmetry_equiv_pos_site_id
 _symmetry_equiv_pos_as_xyz
  1  'x, y, z'
loop_
 _atom_site_type_symbol
 _atom_site_label
 _atom_site_symmetry_multiplicity
 _atom_site_fract_x
 _atom_site_fract_y
 _atom_site_fract_z
 _atom_site_occupancy
  Ca  Ca0  1  0.874700  0.124238  0.749686  1
  Ca  Ca1  1  0.125300  0.875762  0.250314  1
  Al  Al2  1  0.621060  0.375792  0.548840  1
  Al  Al3  1  0.378940  0.624208  0.451160  1
  Al  Al4  1  0.376651  0.623602  0.047916  1
  Al  Al5  1  0.623349  0.376398  0.952084  1
  Al  Al6  1  0.226350  0.223703  0.498612  1
  Al  Al7  1  0.773650  0.776297  0.501388  1
  Al  Al8  1  0.773325  0.773895  0.000689  1
  Al  Al9  1  0.226675  0.226105  0.999311  1
  Al  Al10  1  0.842074  0.158326  0.099222  1
  Al  Al11  1  0.157926  0.841674  0.900778  1
  Al  Al12  1  0.158333  0.843937  0.599992  1
  Al  Al13  1  0.841667  0.156063  0.400008  1
  Al  Al14  1  0.858446  0.587154  0.751561  1
  Al  Al15  1  0.141554  0.412846  0.248439  1
  Al  Al16  1  0.413999  0.141097  0.750483  1
  Al  Al17  1  0.586001  0.858903  0.249517  1
  Al  Al18  1  0.221582  0.479383  0.752127  1
  Al  Al19  1  0.778418  0.520617  0.247873  1
  Al  Al20  1  0.520212  0.779112  0.749926  1
  Al  Al21  1  0.479788  0.220888  0.250074  1
  Ir  Ir22  1  0.000000  0.500000  0.500000  1
  Ru  Ru23  1  0.000000  0.500000  0.000000  1
  Ru  Ru24  1  0.500000  0.000000  0.000000  1
  Ru  Ru25  1  0.500000  0.000000  0.500000  1
