# generated using pymatgen
data_U3Ti(Tc2Sn)4
_symmetry_space_group_name_H-M   'P 1'
_cell_length_a   6.39243176
_cell_length_b   6.39977968
_cell_length_c   6.88697019
_cell_angle_alpha   90.01457155
_cell_angle_beta   90.02297215
_cell_angle_gamma   89.94909068
_symmetry_Int_Tables_number   1
_chemical_formula_structural   U3Ti(Tc2Sn)4
_chemical_formula_sum   'U3 Ti1 Tc8 Sn4'
_cell_volume   281.74687447
_cell_formula_units_Z   1
loop_
 _symmetry_equiv_pos_site_id
 _symmetry_equiv_pos_as_xyz
  1  'x, y, z'
loop_
 _atom_site_type_symbol
 _atom_site_label
 _atom_site_symmetry_multiplicity
 _atom_site_fract_x
 _atom_site_fract_y
 _atom_site_fract_z
 _atom_site_occupancy
  U  U0  1  0.249930  0.249999  0.999998  1
  U  U1  1  0.750063  0.750011  0.999996  1
  U  U2  1  0.750187  0.750003  0.500000  1
  Ti  Ti3  1  0.249908  0.249998  0.500006  1
  Tc  Tc4  1  0.499267  0.000729  0.254328  1
  Tc  Tc5  1  0.499287  0.499293  0.254354  1
  Tc  Tc6  1  0.000722  0.000739  0.254533  1
  Tc  Tc7  1  0.000742  0.499238  0.254494  1
  Tc  Tc8  1  0.000731  0.000747  0.745468  1
  Tc  Tc9  1  0.000751  0.499238  0.745501  1
  Tc  Tc10  1  0.499272  0.000716  0.745673  1
  Tc  Tc11  1  0.499286  0.499302  0.745638  1
  Sn  Sn12  1  0.750141  0.249995  0.999998  1
  Sn  Sn13  1  0.249855  0.750000  0.999996  1
  Sn  Sn14  1  0.249997  0.750005  0.500006  1
  Sn  Sn15  1  0.749857  0.249994  0.500011  1
