# generated using pymatgen
data_Y7Hf(B6Os)4
_symmetry_space_group_name_H-M   'P 1'
_cell_length_a   3.63829700
_cell_length_b   9.12772403
_cell_length_c   11.50703369
_cell_angle_alpha   90.06657502
_cell_angle_beta   90.00000000
_cell_angle_gamma   90.00000000
_symmetry_Int_Tables_number   1
_chemical_formula_structural   Y7Hf(B6Os)4
_chemical_formula_sum   'Y7 Hf1 B24 Os4'
_cell_volume   382.14109262
_cell_formula_units_Z   1
loop_
 _symmetry_equiv_pos_site_id
 _symmetry_equiv_pos_as_xyz
  1  'x, y, z'
loop_
 _atom_site_type_symbol
 _atom_site_label
 _atom_site_symmetry_multiplicity
 _atom_site_fract_x
 _atom_site_fract_y
 _atom_site_fract_z
 _atom_site_occupancy
  Y  Y0  1  0.000000  0.322130  0.413424  1
  Y  Y1  1  0.000000  0.678165  0.587075  1
  Y  Y2  1  0.000000  0.820707  0.085895  1
  Y  Y3  1  0.000000  0.179512  0.913202  1
  Y  Y4  1  0.000000  0.944606  0.373853  1
  Y  Y5  1  0.000000  0.056255  0.627440  1
  Y  Y6  1  0.000000  0.444627  0.125024  1
  Hf  Hf7  1  0.000000  0.556396  0.873055  1
  B  B8  1  0.500000  0.553813  0.432824  1
  B  B9  1  0.500000  0.447054  0.568100  1
  B  B10  1  0.500000  0.053679  0.066346  1
  B  B11  1  0.500000  0.943623  0.933243  1
  B  B12  1  0.500000  0.747466  0.419701  1
  B  B13  1  0.500000  0.253605  0.581295  1
  B  B14  1  0.500000  0.248299  0.079767  1
  B  B15  1  0.500000  0.747718  0.919417  1
  B  B16  1  0.500000  0.790872  0.265911  1
  B  B17  1  0.500000  0.209936  0.735192  1
  B  B18  1  0.500000  0.291272  0.233160  1
  B  B19  1  0.500000  0.705476  0.766568  1
  B  B20  1  0.500000  0.631047  0.185207  1
  B  B21  1  0.500000  0.372041  0.816063  1
  B  B22  1  0.500000  0.132374  0.314284  1
  B  B23  1  0.500000  0.866496  0.685854  1
  B  B24  1  0.500000  0.983659  0.212844  1
  B  B25  1  0.500000  0.015326  0.787901  1
  B  B26  1  0.500000  0.482842  0.286775  1
  B  B27  1  0.500000  0.519477  0.714780  1
  B  B28  1  0.500000  0.604349  0.024713  1
  B  B29  1  0.500000  0.398854  0.967952  1
  B  B30  1  0.500000  0.110896  0.470309  1
  B  B31  1  0.500000  0.889358  0.530842  1
  Os  Os32  1  0.000000  0.637127  0.320087  1
  Os  Os33  1  0.000000  0.365647  0.682344  1
  Os  Os34  1  0.000000  0.138078  0.177385  1
  Os  Os35  1  0.000000  0.857221  0.822169  1
