# generated using pymatgen
data_CeErBRh6
_symmetry_space_group_name_H-M   'P 1'
_cell_length_a   5.83417409
_cell_length_b   5.83417391
_cell_length_c   5.83417400
_cell_angle_alpha   59.99999949
_cell_angle_beta   60.00000052
_cell_angle_gamma   59.99999931
_symmetry_Int_Tables_number   1
_chemical_formula_structural   CeErBRh6
_chemical_formula_sum   'Ce1 Er1 B1 Rh6'
_cell_volume   140.41811300
_cell_formula_units_Z   1
loop_
 _symmetry_equiv_pos_site_id
 _symmetry_equiv_pos_as_xyz
  1  'x, y, z'
loop_
 _atom_site_type_symbol
 _atom_site_label
 _atom_site_symmetry_multiplicity
 _atom_site_fract_x
 _atom_site_fract_y
 _atom_site_fract_z
 _atom_site_occupancy
  Ce  Ce0  1  0.250000  0.250000  0.250000  1
  Er  Er1  1  0.750000  0.750000  0.750000  1
  B  B2  1  0.499999  0.499999  0.499999  1
  Rh  Rh3  1  0.756851  0.243148  0.243148  1
  Rh  Rh4  1  0.243148  0.756851  0.243148  1
  Rh  Rh5  1  0.756851  0.756851  0.243148  1
  Rh  Rh6  1  0.243148  0.243148  0.756851  1
  Rh  Rh7  1  0.756851  0.243148  0.756851  1
  Rh  Rh8  1  0.243148  0.756851  0.756851  1
