# generated using pymatgen
data_Na6SnSb3Pt4
_symmetry_space_group_name_H-M   'P 1'
_cell_length_a   6.12486500
_cell_length_b   7.98190856
_cell_length_c   13.62739400
_cell_angle_alpha   89.67229160
_cell_angle_beta   90.00000000
_cell_angle_gamma   90.00000000
_symmetry_Int_Tables_number   1
_chemical_formula_structural   Na6SnSb3Pt4
_chemical_formula_sum   'Na12 Sn2 Sb6 Pt8'
_cell_volume   666.20667190
_cell_formula_units_Z   2
loop_
 _symmetry_equiv_pos_site_id
 _symmetry_equiv_pos_as_xyz
  1  'x, y, z'
loop_
 _atom_site_type_symbol
 _atom_site_label
 _atom_site_symmetry_multiplicity
 _atom_site_fract_x
 _atom_site_fract_y
 _atom_site_fract_z
 _atom_site_occupancy
  Na  Na0  1  0.633286  0.229046  0.251173  1
  Na  Na1  1  0.366714  0.770954  0.748827  1
  Na  Na2  1  0.366714  0.729046  0.251173  1
  Na  Na3  1  0.633286  0.270954  0.748827  1
  Na  Na4  1  0.143233  0.386943  0.096255  1
  Na  Na5  1  0.856767  0.613057  0.903745  1
  Na  Na6  1  0.863188  0.612893  0.595307  1
  Na  Na7  1  0.863188  0.887107  0.404693  1
  Na  Na8  1  0.136812  0.387107  0.404693  1
  Na  Na9  1  0.136812  0.112893  0.595307  1
  Na  Na10  1  0.143233  0.113057  0.903745  1
  Na  Na11  1  0.856767  0.886943  0.096255  1
  Sn  Sn12  1  0.372447  0.750000  0.500000  1
  Sn  Sn13  1  0.627553  0.250000  0.500000  1
  Sb  Sb14  1  0.141489  0.085349  0.248014  1
  Sb  Sb15  1  0.858511  0.914651  0.751986  1
  Sb  Sb16  1  0.858511  0.585349  0.248014  1
  Sb  Sb17  1  0.141489  0.414651  0.751986  1
  Sb  Sb18  1  0.642119  0.250000  0.000000  1
  Sb  Sb19  1  0.357881  0.750000  0.000000  1
  Pt  Pt20  1  0.381968  0.040048  0.092532  1
  Pt  Pt21  1  0.618032  0.959952  0.907468  1
  Pt  Pt22  1  0.629992  0.964292  0.594503  1
  Pt  Pt23  1  0.629992  0.535708  0.405497  1
  Pt  Pt24  1  0.370008  0.035708  0.405497  1
  Pt  Pt25  1  0.370008  0.464292  0.594503  1
  Pt  Pt26  1  0.381968  0.459952  0.907468  1
  Pt  Pt27  1  0.618032  0.540048  0.092532  1
