# generated using pymatgen
data_Dy11HoCo4BiOs
_symmetry_space_group_name_H-M   'P 1'
_cell_length_a   8.33852912
_cell_length_b   8.33665521
_cell_length_c   8.33652995
_cell_angle_alpha   111.34686789
_cell_angle_beta   110.31029855
_cell_angle_gamma   106.78225006
_symmetry_Int_Tables_number   1
_chemical_formula_structural   Dy11HoCo4BiOs
_chemical_formula_sum   'Dy11 Ho1 Co4 Bi1 Os1'
_cell_volume   445.39282764
_cell_formula_units_Z   1
loop_
 _symmetry_equiv_pos_site_id
 _symmetry_equiv_pos_as_xyz
  1  'x, y, z'
loop_
 _atom_site_type_symbol
 _atom_site_label
 _atom_site_symmetry_multiplicity
 _atom_site_fract_x
 _atom_site_fract_y
 _atom_site_fract_z
 _atom_site_occupancy
  Dy  Dy0  1  0.819710  0.717790  0.537251  1
  Dy  Dy1  1  0.180431  0.282609  0.463169  1
  Dy  Dy2  1  0.180429  0.717258  0.897825  1
  Dy  Dy3  1  0.819710  0.282465  0.101915  1
  Dy  Dy4  1  0.687697  0.377952  0.690671  1
  Dy  Dy5  1  0.312289  0.621760  0.309227  1
  Dy  Dy6  1  0.687689  0.997031  0.309734  1
  Dy  Dy7  1  0.312298  0.003063  0.690544  1
  Dy  Dy8  1  0.590938  0.787113  0.803818  1
  Dy  Dy9  1  0.408921  0.212981  0.195947  1
  Dy  Dy10  1  0.983216  0.787062  0.196168  1
  Ho  Ho11  1  0.016667  0.212751  0.803887  1
  Co  Co12  1  0.624502  0.000175  0.624322  1
  Co  Co13  1  0.375686  0.999899  0.375793  1
  Co  Co14  1  0.110543  0.610590  0.499954  1
  Co  Co15  1  0.889591  0.389312  0.500280  1
  Bi  Bi16  1  0.499696  0.499856  0.999844  1
  Os  Os17  1  0.999985  0.000334  0.999650  1
