# generated using pymatgen
data_Tb12InNi5
_symmetry_space_group_name_H-M   'P 1'
_cell_length_a   8.36300586
_cell_length_b   8.36300504
_cell_length_c   8.36300574
_cell_angle_alpha   111.46164299
_cell_angle_beta   109.84537812
_cell_angle_gamma   107.13587992
_symmetry_Int_Tables_number   1
_chemical_formula_structural   Tb12InNi5
_chemical_formula_sum   'Tb12 In1 Ni5'
_cell_volume   449.61030269
_cell_formula_units_Z   1
loop_
 _symmetry_equiv_pos_site_id
 _symmetry_equiv_pos_as_xyz
  1  'x, y, z'
loop_
 _atom_site_type_symbol
 _atom_site_label
 _atom_site_symmetry_multiplicity
 _atom_site_fract_x
 _atom_site_fract_y
 _atom_site_fract_z
 _atom_site_occupancy
  Tb  Tb0  1  0.816236  0.702926  0.519163  1
  Tb  Tb1  1  0.183764  0.297074  0.480837  1
  Tb  Tb2  1  0.183764  0.702926  0.886692  1
  Tb  Tb3  1  0.816236  0.297074  0.113308  1
  Tb  Tb4  1  0.679589  0.374093  0.694503  1
  Tb  Tb5  1  0.320411  0.625907  0.305497  1
  Tb  Tb6  1  0.679589  0.985086  0.305497  1
  Tb  Tb7  1  0.320411  0.014914  0.694503  1
  Tb  Tb8  1  0.599673  0.790064  0.809610  1
  Tb  Tb9  1  0.400327  0.209936  0.190390  1
  Tb  Tb10  1  0.980454  0.790064  0.190390  1
  Tb  Tb11  1  0.019546  0.209936  0.809610  1
  In  In12  1  0.500000  0.500000  0.000000  1
  Ni  Ni13  1  0.632179  0.000000  0.632179  1
  Ni  Ni14  1  0.367821  0.000000  0.367821  1
  Ni  Ni15  1  0.123929  0.623929  0.500000  1
  Ni  Ni16  1  0.876071  0.376071  0.500000  1
  Ni  Ni17  1  0.000000  0.000000  0.000000  1
