# generated using pymatgen
data_Zr5CrPb2
_symmetry_space_group_name_H-M   'P 1'
_cell_length_a   5.60472175
_cell_length_b   8.51539474
_cell_length_c   8.51539486
_cell_angle_alpha   83.78252880
_cell_angle_beta   70.78624130
_cell_angle_gamma   70.78624413
_symmetry_Int_Tables_number   1
_chemical_formula_structural   Zr5CrPb2
_chemical_formula_sum   'Zr10 Cr2 Pb4'
_cell_volume   362.39416894
_cell_formula_units_Z   2
loop_
 _symmetry_equiv_pos_site_id
 _symmetry_equiv_pos_as_xyz
  1  'x, y, z'
loop_
 _atom_site_type_symbol
 _atom_site_label
 _atom_site_symmetry_multiplicity
 _atom_site_fract_x
 _atom_site_fract_y
 _atom_site_fract_z
 _atom_site_occupancy
  Zr  Zr0  1  0.070949  0.125679  0.732423  1
  Zr  Zr1  1  0.929051  0.874321  0.267577  1
  Zr  Zr2  1  0.803373  0.267577  0.125679  1
  Zr  Zr3  1  0.429051  0.267577  0.874321  1
  Zr  Zr4  1  0.196627  0.732423  0.874321  1
  Zr  Zr5  1  0.570949  0.732423  0.125679  1
  Zr  Zr6  1  0.696627  0.874321  0.732423  1
  Zr  Zr7  1  0.303373  0.125679  0.267577  1
  Zr  Zr8  1  0.250000  0.500000  0.500000  1
  Zr  Zr9  1  0.750000  0.500000  0.500000  1
  Cr  Cr10  1  0.250000  0.000000  0.000000  1
  Cr  Cr11  1  0.750000  0.000000  0.000000  1
  Pb  Pb12  1  0.164191  0.500000  0.171617  1
  Pb  Pb13  1  0.835809  0.500000  0.828383  1
  Pb  Pb14  1  0.335809  0.828383  0.500000  1
  Pb  Pb15  1  0.664191  0.171617  0.500000  1
