# generated using pymatgen
data_Dy4Al18IrRh5
_symmetry_space_group_name_H-M   'P 1'
_cell_length_a   7.55623268
_cell_length_b   7.55623307
_cell_length_c   9.47562344
_cell_angle_alpha   89.96834407
_cell_angle_beta   89.96834346
_cell_angle_gamma   119.37863169
_symmetry_Int_Tables_number   1
_chemical_formula_structural   Dy4Al18IrRh5
_chemical_formula_sum   'Dy4 Al18 Ir1 Rh5'
_cell_volume   471.44841254
_cell_formula_units_Z   1
loop_
 _symmetry_equiv_pos_site_id
 _symmetry_equiv_pos_as_xyz
  1  'x, y, z'
loop_
 _atom_site_type_symbol
 _atom_site_label
 _atom_site_symmetry_multiplicity
 _atom_site_fract_x
 _atom_site_fract_y
 _atom_site_fract_z
 _atom_site_occupancy
  Dy  Dy0  1  0.994682  0.671585  0.749032  1
  Dy  Dy1  1  0.005318  0.328415  0.250968  1
  Dy  Dy2  1  0.671585  0.994682  0.749032  1
  Dy  Dy3  1  0.328415  0.005318  0.250968  1
  Al  Al4  1  0.128675  0.128675  0.750281  1
  Al  Al5  1  0.871325  0.871325  0.249719  1
  Al  Al6  1  0.000879  0.335469  0.574518  1
  Al  Al7  1  0.999121  0.664531  0.425482  1
  Al  Al8  1  0.999257  0.664498  0.074340  1
  Al  Al9  1  0.335502  0.000743  0.925660  1
  Al  Al10  1  0.000743  0.335502  0.925660  1
  Al  Al11  1  0.664498  0.999257  0.074340  1
  Al  Al12  1  0.664531  0.999121  0.425482  1
  Al  Al13  1  0.335469  0.000879  0.574518  1
  Al  Al14  1  0.333167  0.333167  0.050777  1
  Al  Al15  1  0.666833  0.666833  0.949223  1
  Al  Al16  1  0.666404  0.666404  0.550531  1
  Al  Al17  1  0.333596  0.333596  0.449469  1
  Al  Al18  1  0.339470  0.549790  0.749839  1
  Al  Al19  1  0.660530  0.450210  0.250161  1
  Al  Al20  1  0.549790  0.339470  0.749839  1
  Al  Al21  1  0.450210  0.660530  0.250161  1
  Ir  Ir22  1  0.000000  0.000000  0.500000  1
  Rh  Rh23  1  0.672085  0.327915  0.500000  1
  Rh  Rh24  1  0.327915  0.672085  0.500000  1
  Rh  Rh25  1  0.327870  0.672130  0.000000  1
  Rh  Rh26  1  0.672130  0.327870  0.000000  1
  Rh  Rh27  1  0.000000  0.000000  0.000000  1
