# generated using pymatgen
data_Y2Si7(Ni3Rh)3
_symmetry_space_group_name_H-M   'P 1'
_cell_length_a   9.30097600
_cell_length_b   9.30097644
_cell_length_c   3.71758200
_cell_angle_alpha   90.00000000
_cell_angle_beta   90.00000000
_cell_angle_gamma   119.99999229
_symmetry_Int_Tables_number   1
_chemical_formula_structural   Y2Si7(Ni3Rh)3
_chemical_formula_sum   'Y2 Si7 Ni9 Rh3'
_cell_volume   278.51480762
_cell_formula_units_Z   1
loop_
 _symmetry_equiv_pos_site_id
 _symmetry_equiv_pos_as_xyz
  1  'x, y, z'
loop_
 _atom_site_type_symbol
 _atom_site_label
 _atom_site_symmetry_multiplicity
 _atom_site_fract_x
 _atom_site_fract_y
 _atom_site_fract_z
 _atom_site_occupancy
  Y  Y0  1  0.333333  0.666667  0.737093  1
  Y  Y1  1  0.666667  0.333333  0.238632  1
  Si  Si2  1  0.000000  0.000000  0.736735  1
  Si  Si3  1  0.403041  0.290329  0.738423  1
  Si  Si4  1  0.709671  0.112712  0.738423  1
  Si  Si5  1  0.887288  0.596959  0.738423  1
  Si  Si6  1  0.595546  0.707521  0.237725  1
  Si  Si7  1  0.292479  0.888025  0.237725  1
  Si  Si8  1  0.111975  0.404454  0.237725  1
  Ni  Ni9  1  0.437391  0.057946  0.737737  1
  Ni  Ni10  1  0.942054  0.379445  0.737737  1
  Ni  Ni11  1  0.620555  0.562609  0.737737  1
  Ni  Ni12  1  0.562933  0.944895  0.237893  1
  Ni  Ni13  1  0.055105  0.618038  0.237893  1
  Ni  Ni14  1  0.381962  0.437067  0.237893  1
  Ni  Ni15  1  0.156332  0.284550  0.738687  1
  Ni  Ni16  1  0.715450  0.871782  0.738687  1
  Ni  Ni17  1  0.128218  0.843668  0.738687  1
  Rh  Rh18  1  0.880659  0.780264  0.238715  1
  Rh  Rh19  1  0.219736  0.100395  0.238715  1
  Rh  Rh20  1  0.899605  0.119341  0.238715  1
