# generated using pymatgen
data_Nd5Th3(Nb3Ge4)4
_symmetry_space_group_name_H-M   'P 1'
_cell_length_a   7.15801803
_cell_length_b   7.32905437
_cell_length_c   13.80511375
_cell_angle_alpha   89.97684875
_cell_angle_beta   89.91880574
_cell_angle_gamma   89.97129407
_symmetry_Int_Tables_number   1
_chemical_formula_structural   Nd5Th3(Nb3Ge4)4
_chemical_formula_sum   'Nd5 Th3 Nb12 Ge16'
_cell_volume   724.23614371
_cell_formula_units_Z   1
loop_
 _symmetry_equiv_pos_site_id
 _symmetry_equiv_pos_as_xyz
  1  'x, y, z'
loop_
 _atom_site_type_symbol
 _atom_site_label
 _atom_site_symmetry_multiplicity
 _atom_site_fract_x
 _atom_site_fract_y
 _atom_site_fract_z
 _atom_site_occupancy
  Nd  Nd0  1  0.496491  0.329255  0.094510  1
  Nd  Nd1  1  0.996067  0.170957  0.404916  1
  Nd  Nd2  1  0.503594  0.670961  0.595422  1
  Nd  Nd3  1  0.002610  0.828850  0.904832  1
  Nd  Nd4  1  0.502595  0.670855  0.905044  1
  Th  Th5  1  0.003040  0.828783  0.595313  1
  Th  Th6  1  0.496667  0.329299  0.405596  1
  Th  Th7  1  0.997414  0.170612  0.093747  1
  Nb  Nb8  1  0.666991  0.013321  0.749539  1
  Nb  Nb9  1  0.165058  0.487837  0.749446  1
  Nb  Nb10  1  0.333649  0.988522  0.250533  1
  Nb  Nb11  1  0.833296  0.511528  0.249314  1
  Nb  Nb12  1  0.839076  0.331161  0.626932  1
  Nb  Nb13  1  0.338988  0.169729  0.872944  1
  Nb  Nb14  1  0.159704  0.669567  0.127349  1
  Nb  Nb15  1  0.660565  0.830912  0.372951  1
  Nb  Nb16  1  0.162827  0.667471  0.373848  1
  Nb  Nb17  1  0.664200  0.833279  0.126924  1
  Nb  Nb18  1  0.839184  0.330326  0.873536  1
  Nb  Nb19  1  0.337924  0.168039  0.626415  1
  Ge  Ge20  1  0.806230  0.628671  0.751255  1
  Ge  Ge21  1  0.309421  0.870288  0.750879  1
  Ge  Ge22  1  0.191435  0.371048  0.250083  1
  Ge  Ge23  1  0.691513  0.129259  0.249460  1
  Ge  Ge24  1  0.538406  0.369679  0.749951  1
  Ge  Ge25  1  0.038857  0.130622  0.750658  1
  Ge  Ge26  1  0.461689  0.631617  0.248883  1
  Ge  Ge27  1  0.961896  0.868772  0.251020  1
  Ge  Ge28  1  0.668251  0.043995  0.544736  1
  Ge  Ge29  1  0.169692  0.457765  0.955022  1
  Ge  Ge30  1  0.333053  0.954972  0.044189  1
  Ge  Ge31  1  0.831740  0.544292  0.455350  1
  Ge  Ge32  1  0.329225  0.954757  0.455381  1
  Ge  Ge33  1  0.829332  0.545191  0.044100  1
  Ge  Ge34  1  0.668669  0.043199  0.954951  1
  Ge  Ge35  1  0.170650  0.454611  0.544972  1
