# generated using pymatgen
data_ErPaReB6
_symmetry_space_group_name_H-M   'P 1'
_cell_length_a   3.70690100
_cell_length_b   9.14276300
_cell_length_c   11.49684100
_cell_angle_alpha   90.00000000
_cell_angle_beta   90.00000000
_cell_angle_gamma   90.00000000
_symmetry_Int_Tables_number   1
_chemical_formula_structural   ErPaReB6
_chemical_formula_sum   'Er4 Pa4 Re4 B24'
_cell_volume   389.64308636
_cell_formula_units_Z   4
loop_
 _symmetry_equiv_pos_site_id
 _symmetry_equiv_pos_as_xyz
  1  'x, y, z'
loop_
 _atom_site_type_symbol
 _atom_site_label
 _atom_site_symmetry_multiplicity
 _atom_site_fract_x
 _atom_site_fract_y
 _atom_site_fract_z
 _atom_site_occupancy
  Er  Er0  1  0.000000  0.944796  0.374245  1
  Er  Er1  1  0.000000  0.055204  0.625755  1
  Er  Er2  1  0.000000  0.444796  0.125755  1
  Er  Er3  1  0.000000  0.555204  0.874245  1
  Pa  Pa4  1  0.000000  0.322376  0.413485  1
  Pa  Pa5  1  0.000000  0.677624  0.586515  1
  Pa  Pa6  1  0.000000  0.822376  0.086515  1
  Pa  Pa7  1  0.000000  0.177624  0.913485  1
  Re  Re8  1  0.000000  0.638658  0.321429  1
  Re  Re9  1  0.000000  0.361342  0.678571  1
  Re  Re10  1  0.000000  0.138658  0.178571  1
  Re  Re11  1  0.000000  0.861342  0.821429  1
  B  B12  1  0.500000  0.553049  0.433439  1
  B  B13  1  0.500000  0.446951  0.566561  1
  B  B14  1  0.500000  0.053049  0.066561  1
  B  B15  1  0.500000  0.946951  0.933439  1
  B  B16  1  0.500000  0.749001  0.419974  1
  B  B17  1  0.500000  0.250999  0.580026  1
  B  B18  1  0.500000  0.249001  0.080026  1
  B  B19  1  0.500000  0.750999  0.919974  1
  B  B20  1  0.500000  0.793104  0.265522  1
  B  B21  1  0.500000  0.206896  0.734478  1
  B  B22  1  0.500000  0.293104  0.234478  1
  B  B23  1  0.500000  0.706896  0.765522  1
  B  B24  1  0.500000  0.632422  0.184735  1
  B  B25  1  0.500000  0.367578  0.815265  1
  B  B26  1  0.500000  0.132422  0.315265  1
  B  B27  1  0.500000  0.867578  0.684735  1
  B  B28  1  0.500000  0.982263  0.213368  1
  B  B29  1  0.500000  0.017737  0.786632  1
  B  B30  1  0.500000  0.482263  0.286632  1
  B  B31  1  0.500000  0.517737  0.713368  1
  B  B32  1  0.500000  0.608846  0.030084  1
  B  B33  1  0.500000  0.391154  0.969916  1
  B  B34  1  0.500000  0.108846  0.469916  1
  B  B35  1  0.500000  0.891154  0.530084  1
