# generated using pymatgen
data_SrPa2(GeIr)3
_symmetry_space_group_name_H-M   'P 1'
_cell_length_a   7.33054500
_cell_length_b   7.33054487
_cell_length_c   3.92061000
_cell_angle_alpha   90.00000000
_cell_angle_beta   90.00000000
_cell_angle_gamma   120.91047409
_symmetry_Int_Tables_number   1
_chemical_formula_structural   SrPa2(GeIr)3
_chemical_formula_sum   'Sr1 Pa2 Ge3 Ir3'
_cell_volume   180.75852070
_cell_formula_units_Z   1
loop_
 _symmetry_equiv_pos_site_id
 _symmetry_equiv_pos_as_xyz
  1  'x, y, z'
loop_
 _atom_site_type_symbol
 _atom_site_label
 _atom_site_symmetry_multiplicity
 _atom_site_fract_x
 _atom_site_fract_y
 _atom_site_fract_z
 _atom_site_occupancy
  Sr  Sr0  1  0.409985  0.409985  0.500000  1
  Pa  Pa1  1  0.587790  0.004135  0.500000  1
  Pa  Pa2  1  0.004135  0.587790  0.500000  1
  Ge  Ge3  1  0.742413  0.742413  0.000000  1
  Ge  Ge4  1  0.243705  0.005354  0.000000  1
  Ge  Ge5  1  0.005354  0.243705  0.000000  1
  Ir  Ir6  1  0.702494  0.330828  0.000000  1
  Ir  Ir7  1  0.330828  0.702494  0.000000  1
  Ir  Ir8  1  0.973295  0.973295  0.500000  1
