# generated using pymatgen
data_Y2NiB8Rh
_symmetry_space_group_name_H-M   'P 1'
_cell_length_a   6.92045068
_cell_length_b   6.92045045
_cell_length_c   6.92045027
_cell_angle_alpha   111.21481786
_cell_angle_beta   113.38860833
_cell_angle_gamma   103.95554402
_symmetry_Int_Tables_number   1
_chemical_formula_structural   Y2NiB8Rh
_chemical_formula_sum   'Y4 Ni2 B16 Rh2'
_cell_volume   253.28985572
_cell_formula_units_Z   2
loop_
 _symmetry_equiv_pos_site_id
 _symmetry_equiv_pos_as_xyz
  1  'x, y, z'
loop_
 _atom_site_type_symbol
 _atom_site_label
 _atom_site_symmetry_multiplicity
 _atom_site_fract_x
 _atom_site_fract_y
 _atom_site_fract_z
 _atom_site_occupancy
  Y  Y0  1  0.791319  0.791319  0.000000  1
  Y  Y1  1  0.208681  0.208681  0.000000  1
  Y  Y2  1  0.751262  0.251262  0.500000  1
  Y  Y3  1  0.248738  0.748738  0.500000  1
  Ni  Ni4  1  0.500000  0.744653  0.244653  1
  Ni  Ni5  1  0.500000  0.255347  0.755347  1
  B  B6  1  0.273092  0.108710  0.381802  1
  B  B7  1  0.726908  0.891290  0.618198  1
  B  B8  1  0.273092  0.891290  0.164382  1
  B  B9  1  0.726908  0.108710  0.835618  1
  B  B10  1  0.110946  0.730190  0.841137  1
  B  B11  1  0.889054  0.269810  0.158863  1
  B  B12  1  0.110946  0.269810  0.380757  1
  B  B13  1  0.889054  0.730190  0.619243  1
  B  B14  1  0.114555  0.108978  0.527565  1
  B  B15  1  0.581412  0.586988  0.472435  1
  B  B16  1  0.114555  0.586988  0.005577  1
  B  B17  1  0.581412  0.108978  0.994423  1
  B  B18  1  0.885445  0.891022  0.472435  1
  B  B19  1  0.418588  0.413012  0.527565  1
  B  B20  1  0.885445  0.413012  0.994423  1
  B  B21  1  0.418588  0.891022  0.005577  1
  Rh  Rh22  1  0.276624  0.500000  0.776624  1
  Rh  Rh23  1  0.723376  0.500000  0.223376  1
