# generated using pymatgen
data_Ac3NdAu3O4
_symmetry_space_group_name_H-M   'P 1'
_cell_length_a   7.28929800
_cell_length_b   7.28929718
_cell_length_c   8.54202000
_cell_angle_alpha   90.00000000
_cell_angle_beta   90.00000000
_cell_angle_gamma   146.41913095
_symmetry_Int_Tables_number   1
_chemical_formula_structural   Ac3NdAu3O4
_chemical_formula_sum   'Ac3 Nd1 Au3 O4'
_cell_volume   251.04185280
_cell_formula_units_Z   1
loop_
 _symmetry_equiv_pos_site_id
 _symmetry_equiv_pos_as_xyz
  1  'x, y, z'
loop_
 _atom_site_type_symbol
 _atom_site_label
 _atom_site_symmetry_multiplicity
 _atom_site_fract_x
 _atom_site_fract_y
 _atom_site_fract_z
 _atom_site_occupancy
  Ac  Ac0  1  0.315735  0.684265  0.754817  1
  Ac  Ac1  1  0.315735  0.684265  0.245183  1
  Ac  Ac2  1  0.002096  0.997904  0.000000  1
  Nd  Nd3  1  0.983307  0.016693  0.500000  1
  Au  Au4  1  0.635907  0.364093  0.330641  1
  Au  Au5  1  0.635907  0.364093  0.669359  1
  Au  Au6  1  0.683323  0.316677  0.000000  1
  O  O7  1  0.398556  0.601444  0.500000  1
  O  O8  1  0.411177  0.588823  0.000000  1
  O  O9  1  0.909733  0.090267  0.746923  1
  O  O10  1  0.909733  0.090267  0.253077  1
