# generated using pymatgen
data_Nd4Lu4Tc3B24Ru
_symmetry_space_group_name_H-M   'P 1'
_cell_length_a   3.69669000
_cell_length_b   9.17303657
_cell_length_c   11.62872814
_cell_angle_alpha   89.94017843
_cell_angle_beta   90.00000000
_cell_angle_gamma   90.00000000
_symmetry_Int_Tables_number   1
_chemical_formula_structural   Nd4Lu4Tc3B24Ru
_chemical_formula_sum   'Nd4 Lu4 Tc3 B24 Ru1'
_cell_volume   394.32847400
_cell_formula_units_Z   1
loop_
 _symmetry_equiv_pos_site_id
 _symmetry_equiv_pos_as_xyz
  1  'x, y, z'
loop_
 _atom_site_type_symbol
 _atom_site_label
 _atom_site_symmetry_multiplicity
 _atom_site_fract_x
 _atom_site_fract_y
 _atom_site_fract_z
 _atom_site_occupancy
  Nd  Nd0  1  0.000000  0.322492  0.414046  1
  Nd  Nd1  1  0.000000  0.676246  0.584324  1
  Nd  Nd2  1  0.000000  0.822469  0.086876  1
  Nd  Nd3  1  0.000000  0.178444  0.914900  1
  Lu  Lu4  1  0.000000  0.942794  0.369606  1
  Lu  Lu5  1  0.000000  0.057702  0.630818  1
  Lu  Lu6  1  0.000000  0.443317  0.130645  1
  Lu  Lu7  1  0.000000  0.557201  0.868930  1
  Tc  Tc8  1  0.000000  0.640131  0.318553  1
  Tc  Tc9  1  0.000000  0.359972  0.681988  1
  Tc  Tc10  1  0.000000  0.139499  0.180605  1
  B  B11  1  0.500000  0.555064  0.430318  1
  B  B12  1  0.500000  0.444697  0.569376  1
  B  B13  1  0.500000  0.055244  0.069494  1
  B  B14  1  0.500000  0.944126  0.930207  1
  B  B15  1  0.500000  0.751014  0.416278  1
  B  B16  1  0.500000  0.248498  0.583941  1
  B  B17  1  0.500000  0.251685  0.083717  1
  B  B18  1  0.500000  0.749225  0.915866  1
  B  B19  1  0.500000  0.792060  0.266323  1
  B  B20  1  0.500000  0.208175  0.734338  1
  B  B21  1  0.500000  0.291952  0.233775  1
  B  B22  1  0.500000  0.708835  0.765927  1
  B  B23  1  0.500000  0.629166  0.185590  1
  B  B24  1  0.500000  0.370974  0.814902  1
  B  B25  1  0.500000  0.128700  0.314105  1
  B  B26  1  0.500000  0.870790  0.685785  1
  B  B27  1  0.500000  0.982982  0.213681  1
  B  B28  1  0.500000  0.015586  0.786587  1
  B  B29  1  0.500000  0.483363  0.286000  1
  B  B30  1  0.500000  0.516589  0.713624  1
  B  B31  1  0.500000  0.596909  0.026288  1
  B  B32  1  0.500000  0.404515  0.973411  1
  B  B33  1  0.500000  0.096127  0.473925  1
  B  B34  1  0.500000  0.903667  0.526888  1
  Ru  Ru35  1  0.000000  0.859788  0.818365  1
