# generated using pymatgen
data_NdLu(Bi3O7)2
_symmetry_space_group_name_H-M   'P 1'
_cell_length_a   6.66460632
_cell_length_b   6.88531959
_cell_length_c   7.88282618
_cell_angle_alpha   106.70331328
_cell_angle_beta   89.34986226
_cell_angle_gamma   99.25660872
_symmetry_Int_Tables_number   1
_chemical_formula_structural   NdLu(Bi3O7)2
_chemical_formula_sum   'Nd1 Lu1 Bi6 O14'
_cell_volume   341.71930964
_cell_formula_units_Z   1
loop_
 _symmetry_equiv_pos_site_id
 _symmetry_equiv_pos_as_xyz
  1  'x, y, z'
loop_
 _atom_site_type_symbol
 _atom_site_label
 _atom_site_symmetry_multiplicity
 _atom_site_fract_x
 _atom_site_fract_y
 _atom_site_fract_z
 _atom_site_occupancy
  Nd  Nd0  1  0.541495  0.997799  0.753381  1
  Lu  Lu1  1  0.461044  0.002306  0.250425  1
  Bi  Bi2  1  0.001382  0.000893  0.498475  1
  Bi  Bi3  1  0.001958  0.001199  0.006077  1
  Bi  Bi4  1  0.256227  0.517929  0.876787  1
  Bi  Bi5  1  0.735728  0.490142  0.121872  1
  Bi  Bi6  1  0.718573  0.460154  0.600378  1
  Bi  Bi7  1  0.274558  0.530213  0.383840  1
  O  O8  1  0.466313  0.665078  0.187011  1
  O  O9  1  0.536711  0.353343  0.817775  1
  O  O10  1  0.305016  0.938358  0.965807  1
  O  O11  1  0.698912  0.052559  0.057429  1
  O  O12  1  0.297059  0.916257  0.500490  1
  O  O13  1  0.704203  0.083690  0.481286  1
  O  O14  1  0.524832  0.341612  0.346080  1
  O  O15  1  0.461172  0.640300  0.640170  1
  O  O16  1  0.918106  0.677564  0.965779  1
  O  O17  1  0.090390  0.322992  0.038581  1
  O  O18  1  0.093433  0.324132  0.625039  1
  O  O19  1  0.894666  0.677517  0.377966  1
  O  O20  1  0.889939  0.932476  0.734710  1
  O  O21  1  0.128283  0.073486  0.270641  1
