# generated using pymatgen
data_Ho16In4CuRu3
_symmetry_space_group_name_H-M   'P 1'
_cell_length_a   9.59944931
_cell_length_b   9.59944913
_cell_length_c   9.59979934
_cell_angle_alpha   60.00120998
_cell_angle_beta   60.00120792
_cell_angle_gamma   60.00000328
_symmetry_Int_Tables_number   1
_chemical_formula_structural   Ho16In4CuRu3
_chemical_formula_sum   'Ho16 In4 Cu1 Ru3'
_cell_volume   625.52941252
_cell_formula_units_Z   1
loop_
 _symmetry_equiv_pos_site_id
 _symmetry_equiv_pos_as_xyz
  1  'x, y, z'
loop_
 _atom_site_type_symbol
 _atom_site_label
 _atom_site_symmetry_multiplicity
 _atom_site_fract_x
 _atom_site_fract_y
 _atom_site_fract_z
 _atom_site_occupancy
  Ho  Ho0  1  0.187831  0.187831  0.807668  1
  Ho  Ho1  1  0.599812  0.599812  0.200564  1
  Ho  Ho2  1  0.438718  0.061223  0.438835  1
  Ho  Ho3  1  0.438658  0.438658  0.068446  1
  Ho  Ho4  1  0.816669  0.187831  0.807668  1
  Ho  Ho5  1  0.191057  0.809986  0.188971  1
  Ho  Ho6  1  0.438658  0.054239  0.068446  1
  Ho  Ho7  1  0.187831  0.816669  0.807668  1
  Ho  Ho8  1  0.054239  0.438658  0.068446  1
  Ho  Ho9  1  0.809986  0.809986  0.188971  1
  Ho  Ho10  1  0.200527  0.601604  0.596264  1
  Ho  Ho11  1  0.061223  0.438718  0.438835  1
  Ho  Ho12  1  0.061223  0.061223  0.438835  1
  Ho  Ho13  1  0.809986  0.191057  0.188971  1
  Ho  Ho14  1  0.601604  0.200527  0.596264  1
  Ho  Ho15  1  0.601604  0.601604  0.596264  1
  In  In16  1  0.832922  0.832922  0.832198  1
  In  In17  1  0.833003  0.833003  0.500994  1
  In  In18  1  0.501958  0.832922  0.832198  1
  In  In19  1  0.832922  0.501958  0.832198  1
  Cu  Cu20  1  0.391824  0.391824  0.824528  1
  Ru  Ru21  1  0.392196  0.823351  0.392256  1
  Ru  Ru22  1  0.392196  0.392196  0.392256  1
  Ru  Ru23  1  0.823351  0.392196  0.392256  1
