# generated using pymatgen
data_PmThCuSi3
_symmetry_space_group_name_H-M   'P 1'
_cell_length_a   5.86726419
_cell_length_b   5.86707812
_cell_length_c   5.86707900
_cell_angle_alpha   139.58644490
_cell_angle_beta   106.32431061
_cell_angle_gamma   87.56612573
_symmetry_Int_Tables_number   1
_chemical_formula_structural   PmThCuSi3
_chemical_formula_sum   'Pm1 Th1 Cu1 Si3'
_cell_volume   120.78597239
_cell_formula_units_Z   1
loop_
 _symmetry_equiv_pos_site_id
 _symmetry_equiv_pos_as_xyz
  1  'x, y, z'
loop_
 _atom_site_type_symbol
 _atom_site_label
 _atom_site_symmetry_multiplicity
 _atom_site_fract_x
 _atom_site_fract_y
 _atom_site_fract_z
 _atom_site_occupancy
  Pm  Pm0  1  0.003356  0.002714  0.000641  1
  Th  Th1  1  0.497794  0.497297  0.000497  1
  Cu  Cu2  1  0.580497  0.249654  0.330845  1
  Si  Si3  1  0.084101  0.748746  0.335353  1
  Si  Si4  1  0.908060  0.250881  0.657179  1
  Si  Si5  1  0.426190  0.750706  0.675483  1
