# generated using pymatgen
data_Tb2Ho8AlBi5
_symmetry_space_group_name_H-M   'P 1'
_cell_length_a   9.08338356
_cell_length_b   9.08338195
_cell_length_c   6.39806600
_cell_angle_alpha   90.00000000
_cell_angle_beta   90.00000000
_cell_angle_gamma   119.71632694
_symmetry_Int_Tables_number   1
_chemical_formula_structural   Tb2Ho8AlBi5
_chemical_formula_sum   'Tb2 Ho8 Al1 Bi5'
_cell_volume   458.46787993
_cell_formula_units_Z   1
loop_
 _symmetry_equiv_pos_site_id
 _symmetry_equiv_pos_as_xyz
  1  'x, y, z'
loop_
 _atom_site_type_symbol
 _atom_site_label
 _atom_site_symmetry_multiplicity
 _atom_site_fract_x
 _atom_site_fract_y
 _atom_site_fract_z
 _atom_site_occupancy
  Tb  Tb0  1  0.758394  0.000296  0.250000  1
  Tb  Tb1  1  0.000296  0.758394  0.250000  1
  Ho  Ho2  1  0.659319  0.335466  0.996542  1
  Ho  Ho3  1  0.335466  0.659319  0.996542  1
  Ho  Ho4  1  0.335466  0.659319  0.503458  1
  Ho  Ho5  1  0.659319  0.335466  0.503458  1
  Ho  Ho6  1  0.749892  0.749892  0.750000  1
  Ho  Ho7  1  0.243630  0.013199  0.750000  1
  Ho  Ho8  1  0.013199  0.243630  0.750000  1
  Ho  Ho9  1  0.240320  0.240320  0.250000  1
  Al  Al10  1  0.396066  0.396066  0.750000  1
  Bi  Bi11  1  0.611458  0.002725  0.750000  1
  Bi  Bi12  1  0.002725  0.611458  0.750000  1
  Bi  Bi13  1  0.606959  0.606959  0.250000  1
  Bi  Bi14  1  0.390990  0.996501  0.250000  1
  Bi  Bi15  1  0.996501  0.390990  0.250000  1
