# generated using pymatgen
data_Tb6Ti4Al12Rh7
_symmetry_space_group_name_H-M   'P 1'
_cell_length_a   9.00027047
_cell_length_b   9.00027050
_cell_length_c   9.00027100
_cell_angle_alpha   60.00000185
_cell_angle_beta   60.00000172
_cell_angle_gamma   59.99999704
_symmetry_Int_Tables_number   1
_chemical_formula_structural   Tb6Ti4Al12Rh7
_chemical_formula_sum   'Tb6 Ti4 Al12 Rh7'
_cell_volume   515.52735337
_cell_formula_units_Z   1
loop_
 _symmetry_equiv_pos_site_id
 _symmetry_equiv_pos_as_xyz
  1  'x, y, z'
loop_
 _atom_site_type_symbol
 _atom_site_label
 _atom_site_symmetry_multiplicity
 _atom_site_fract_x
 _atom_site_fract_y
 _atom_site_fract_z
 _atom_site_occupancy
  Tb  Tb0  1  0.702996  0.297004  0.297004  1
  Tb  Tb1  1  0.702996  0.297004  0.702996  1
  Tb  Tb2  1  0.702996  0.702996  0.297004  1
  Tb  Tb3  1  0.297004  0.702996  0.702996  1
  Tb  Tb4  1  0.297004  0.702996  0.297004  1
  Tb  Tb5  1  0.297004  0.297004  0.702996  1
  Ti  Ti6  1  0.642524  0.119158  0.119158  1
  Ti  Ti7  1  0.119158  0.642524  0.119158  1
  Ti  Ti8  1  0.119158  0.119158  0.642524  1
  Ti  Ti9  1  0.119158  0.119158  0.119158  1
  Al  Al10  1  0.356625  0.881125  0.881125  1
  Al  Al11  1  0.881125  0.356625  0.881125  1
  Al  Al12  1  0.881125  0.881125  0.356625  1
  Al  Al13  1  0.881125  0.881125  0.881125  1
  Al  Al14  1  0.012066  0.329312  0.329312  1
  Al  Al15  1  0.329312  0.012066  0.329312  1
  Al  Al16  1  0.329312  0.329312  0.012066  1
  Al  Al17  1  0.329312  0.329312  0.329312  1
  Al  Al18  1  0.983620  0.672127  0.672127  1
  Al  Al19  1  0.672127  0.983620  0.672127  1
  Al  Al20  1  0.672127  0.672127  0.983620  1
  Al  Al21  1  0.672127  0.672127  0.672127  1
  Rh  Rh22  1  0.000000  0.000000  0.000000  1
  Rh  Rh23  1  0.498552  0.001448  0.001448  1
  Rh  Rh24  1  0.498552  0.001448  0.498552  1
  Rh  Rh25  1  0.498552  0.498552  0.001448  1
  Rh  Rh26  1  0.001448  0.498552  0.498552  1
  Rh  Rh27  1  0.001448  0.498552  0.001448  1
  Rh  Rh28  1  0.001448  0.001448  0.498552  1
