# generated using pymatgen
data_Hf8Zr9Si16Mo3
_symmetry_space_group_name_H-M   'P 1'
_cell_length_a   7.01428428
_cell_length_b   7.01428440
_cell_length_c   12.83399974
_cell_angle_alpha   89.85829098
_cell_angle_beta   90.14170645
_cell_angle_gamma   89.92625543
_symmetry_Int_Tables_number   1
_chemical_formula_structural   Hf8Zr9Si16Mo3
_chemical_formula_sum   'Hf8 Zr9 Si16 Mo3'
_cell_volume   631.43076825
_cell_formula_units_Z   1
loop_
 _symmetry_equiv_pos_site_id
 _symmetry_equiv_pos_as_xyz
  1  'x, y, z'
loop_
 _atom_site_type_symbol
 _atom_site_label
 _atom_site_symmetry_multiplicity
 _atom_site_fract_x
 _atom_site_fract_y
 _atom_site_fract_z
 _atom_site_occupancy
  Hf  Hf0  1  0.645783  0.498795  0.873212  1
  Hf  Hf1  1  0.355360  0.505076  0.377612  1
  Hf  Hf2  1  0.996635  0.855843  0.625855  1
  Hf  Hf3  1  0.002718  0.143358  0.127490  1
  Hf  Hf4  1  0.505076  0.355360  0.622388  1
  Hf  Hf5  1  0.498795  0.645783  0.126788  1
  Hf  Hf6  1  0.855843  0.996635  0.374145  1
  Hf  Hf7  1  0.143358  0.002718  0.872510  1
  Zr  Zr8  1  0.324961  0.324961  0.000000  1
  Zr  Zr9  1  0.847036  0.497468  0.283671  1
  Zr  Zr10  1  0.152344  0.504417  0.781267  1
  Zr  Zr11  1  0.996477  0.652644  0.032235  1
  Zr  Zr12  1  0.003718  0.345734  0.529438  1
  Zr  Zr13  1  0.504417  0.152344  0.218733  1
  Zr  Zr14  1  0.497468  0.847036  0.716329  1
  Zr  Zr15  1  0.652644  0.996477  0.967765  1
  Zr  Zr16  1  0.345734  0.003718  0.470562  1
  Si  Si17  1  0.706882  0.354793  0.071383  1
  Si  Si18  1  0.296642  0.646430  0.571814  1
  Si  Si19  1  0.853749  0.796772  0.821401  1
  Si  Si20  1  0.146832  0.203833  0.322827  1
  Si  Si21  1  0.646430  0.296642  0.428186  1
  Si  Si22  1  0.354793  0.706882  0.928617  1
  Si  Si23  1  0.796772  0.853749  0.178599  1
  Si  Si24  1  0.203833  0.146832  0.677173  1
  Si  Si25  1  0.800722  0.548710  0.683320  1
  Si  Si26  1  0.196626  0.455167  0.187428  1
  Si  Si27  1  0.047860  0.700190  0.434999  1
  Si  Si28  1  0.945315  0.298221  0.933681  1
  Si  Si29  1  0.455167  0.196626  0.812572  1
  Si  Si30  1  0.548710  0.800722  0.316680  1
  Si  Si31  1  0.700190  0.047860  0.565001  1
  Si  Si32  1  0.298221  0.945315  0.066319  1
  Mo  Mo33  1  0.823853  0.173817  0.747892  1
  Mo  Mo34  1  0.173817  0.823853  0.252108  1
  Mo  Mo35  1  0.675220  0.675220  0.500000  1
