# generated using pymatgen
data_Yb5Y3(OsC2)4
_symmetry_space_group_name_H-M   'P 1'
_cell_length_a   5.12507100
_cell_length_b   6.42548466
_cell_length_c   10.14468088
_cell_angle_alpha   90.20887703
_cell_angle_beta   90.00000000
_cell_angle_gamma   90.00000000
_symmetry_Int_Tables_number   1
_chemical_formula_structural   Yb5Y3(OsC2)4
_chemical_formula_sum   'Yb5 Y3 Os4 C8'
_cell_volume   334.07292629
_cell_formula_units_Z   1
loop_
 _symmetry_equiv_pos_site_id
 _symmetry_equiv_pos_as_xyz
  1  'x, y, z'
loop_
 _atom_site_type_symbol
 _atom_site_label
 _atom_site_symmetry_multiplicity
 _atom_site_fract_x
 _atom_site_fract_y
 _atom_site_fract_z
 _atom_site_occupancy
  Yb  Yb0  1  0.250000  0.196197  0.947889  1
  Yb  Yb1  1  0.250000  0.530349  0.223978  1
  Yb  Yb2  1  0.750000  0.467554  0.777481  1
  Yb  Yb3  1  0.750000  0.969751  0.726274  1
  Yb  Yb4  1  0.250000  0.030920  0.274045  1
  Y  Y5  1  0.250000  0.688254  0.552483  1
  Y  Y6  1  0.750000  0.311667  0.443637  1
  Y  Y7  1  0.750000  0.810964  0.056369  1
  Os  Os8  1  0.250000  0.728176  0.855600  1
  Os  Os9  1  0.750000  0.272909  0.141996  1
  Os  Os10  1  0.750000  0.774387  0.358712  1
  Os  Os11  1  0.250000  0.227307  0.643906  1
  C  C12  1  0.250000  0.466876  0.755964  1
  C  C13  1  0.750000  0.536997  0.241798  1
  C  C14  1  0.750000  0.036639  0.258523  1
  C  C15  1  0.250000  0.963275  0.738631  1
  C  C16  1  0.250000  0.799087  0.035631  1
  C  C17  1  0.750000  0.188407  0.966040  1
  C  C18  1  0.750000  0.688885  0.537136  1
  C  C19  1  0.250000  0.311400  0.463908  1
