# generated using pymatgen
data_CeTc6HgO24
_symmetry_space_group_name_H-M   'P 1'
_cell_length_a   10.01687800
_cell_length_b   10.01687816
_cell_length_c   6.10305200
_cell_angle_alpha   90.00000000
_cell_angle_beta   90.00000000
_cell_angle_gamma   119.99999947
_symmetry_Int_Tables_number   1
_chemical_formula_structural   CeTc6HgO24
_chemical_formula_sum   'Ce1 Tc6 Hg1 O24'
_cell_volume   530.32546320
_cell_formula_units_Z   1
loop_
 _symmetry_equiv_pos_site_id
 _symmetry_equiv_pos_as_xyz
  1  'x, y, z'
loop_
 _atom_site_type_symbol
 _atom_site_label
 _atom_site_symmetry_multiplicity
 _atom_site_fract_x
 _atom_site_fract_y
 _atom_site_fract_z
 _atom_site_occupancy
  Ce  Ce0  1  0.666667  0.333333  0.750000  1
  Tc  Tc1  1  0.088119  0.391963  0.750000  1
  Tc  Tc2  1  0.389109  0.291151  0.250000  1
  Tc  Tc3  1  0.608037  0.696155  0.750000  1
  Tc  Tc4  1  0.902040  0.610891  0.250000  1
  Tc  Tc5  1  0.303845  0.911881  0.750000  1
  Tc  Tc6  1  0.708849  0.097960  0.250000  1
  Hg  Hg7  1  0.333333  0.666667  0.250000  1
  O  O8  1  0.490709  0.640405  0.518383  1
  O  O9  1  0.359595  0.850304  0.518383  1
  O  O10  1  0.812878  0.718441  0.250000  1
  O  O11  1  0.108558  0.840213  0.750000  1
  O  O12  1  0.281559  0.094437  0.250000  1
  O  O13  1  0.159787  0.268344  0.750000  1
  O  O14  1  0.510380  0.356537  0.017482  1
  O  O15  1  0.905563  0.187122  0.250000  1
  O  O16  1  0.097669  0.732113  0.250000  1
  O  O17  1  0.149696  0.509291  0.981617  1
  O  O18  1  0.149696  0.509291  0.518383  1
  O  O19  1  0.885285  0.288458  0.750000  1
  O  O20  1  0.267887  0.365557  0.250000  1
  O  O21  1  0.711542  0.596827  0.750000  1
  O  O22  1  0.846159  0.489620  0.482518  1
  O  O23  1  0.403173  0.114715  0.750000  1
  O  O24  1  0.643463  0.153841  0.017482  1
  O  O25  1  0.490709  0.640405  0.981617  1
  O  O26  1  0.359595  0.850304  0.981617  1
  O  O27  1  0.643463  0.153841  0.482518  1
  O  O28  1  0.510380  0.356537  0.482518  1
  O  O29  1  0.846159  0.489620  0.017482  1
  O  O30  1  0.731656  0.891442  0.750000  1
  O  O31  1  0.634443  0.902331  0.250000  1
