# generated using pymatgen
data_Li4Tb5NdPt13
_symmetry_space_group_name_H-M   'P 1'
_cell_length_a   8.29956472
_cell_length_b   8.29955992
_cell_length_c   8.29955900
_cell_angle_alpha   109.50716236
_cell_angle_beta   109.45117672
_cell_angle_gamma   109.45118540
_symmetry_Int_Tables_number   1
_chemical_formula_structural   Li4Tb5NdPt13
_chemical_formula_sum   'Li4 Tb5 Nd1 Pt13'
_cell_volume   440.11439822
_cell_formula_units_Z   1
loop_
 _symmetry_equiv_pos_site_id
 _symmetry_equiv_pos_as_xyz
  1  'x, y, z'
loop_
 _atom_site_type_symbol
 _atom_site_label
 _atom_site_symmetry_multiplicity
 _atom_site_fract_x
 _atom_site_fract_y
 _atom_site_fract_z
 _atom_site_occupancy
  Li  Li0  1  0.000006  0.999697  0.497949  1
  Li  Li1  1  0.000006  0.497949  0.999697  1
  Li  Li2  1  0.501740  0.999689  0.999689  1
  Li  Li3  1  0.498255  0.497945  0.497945  1
  Tb  Tb4  1  0.695260  0.695319  0.000036  1
  Tb  Tb5  1  0.304740  0.000083  0.304792  1
  Tb  Tb6  1  0.000025  0.307402  0.307402  1
  Tb  Tb7  1  0.304740  0.304792  0.000083  1
  Tb  Tb8  1  0.695260  0.000036  0.695319  1
  Nd  Nd9  1  0.999974  0.698350  0.698350  1
  Pt  Pt10  1  0.333095  0.332976  0.666083  1
  Pt  Pt11  1  0.666983  0.999872  0.332893  1
  Pt  Pt12  1  0.999996  0.668813  0.329037  1
  Pt  Pt13  1  0.666983  0.332893  0.999872  1
  Pt  Pt14  1  0.333095  0.666083  0.332976  1
  Pt  Pt15  1  0.999996  0.329037  0.668813  1
  Pt  Pt16  1  0.334471  0.666063  0.000562  1
  Pt  Pt17  1  0.334471  0.000562  0.666063  1
  Pt  Pt18  1  0.660366  0.329092  0.329092  1
  Pt  Pt19  1  0.665456  0.666027  0.331465  1
  Pt  Pt20  1  0.665456  0.331465  0.666027  1
  Pt  Pt21  1  0.339634  0.668725  0.668725  1
  Pt  Pt22  1  0.999996  0.007130  0.007130  1
