# generated using pymatgen
data_Dy2ZnP6(Ir5Rh)2
_symmetry_space_group_name_H-M   'P 1'
_cell_length_a   9.63290691
_cell_length_b   9.65872599
_cell_length_c   3.95582645
_cell_angle_alpha   90.19883498
_cell_angle_beta   90.11925865
_cell_angle_gamma   119.74955065
_symmetry_Int_Tables_number   1
_chemical_formula_structural   Dy2ZnP6(Ir5Rh)2
_chemical_formula_sum   'Dy2 Zn1 P6 Ir10 Rh2'
_cell_volume   319.54261970
_cell_formula_units_Z   1
loop_
 _symmetry_equiv_pos_site_id
 _symmetry_equiv_pos_as_xyz
  1  'x, y, z'
loop_
 _atom_site_type_symbol
 _atom_site_label
 _atom_site_symmetry_multiplicity
 _atom_site_fract_x
 _atom_site_fract_y
 _atom_site_fract_z
 _atom_site_occupancy
  Dy  Dy0  1  0.332859  0.667007  0.748812  1
  Dy  Dy1  1  0.666695  0.333431  0.247709  1
  Zn  Zn2  1  0.000985  0.000771  0.540773  1
  P  P3  1  0.405651  0.283290  0.746474  1
  P  P4  1  0.717447  0.121288  0.745242  1
  P  P5  1  0.876511  0.593760  0.749400  1
  P  P6  1  0.596928  0.719862  0.247878  1
  P  P7  1  0.279678  0.879819  0.251929  1
  P  P8  1  0.122876  0.402137  0.247336  1
  Ir  Ir9  1  0.454860  0.069317  0.746875  1
  Ir  Ir10  1  0.930137  0.385803  0.747337  1
  Ir  Ir11  1  0.613875  0.543799  0.749014  1
  Ir  Ir12  1  0.542245  0.933224  0.247777  1
  Ir  Ir13  1  0.067520  0.608104  0.249859  1
  Ir  Ir14  1  0.391680  0.459242  0.247494  1
  Ir  Ir15  1  0.164471  0.289000  0.747055  1
  Ir  Ir16  1  0.710788  0.873479  0.751005  1
  Ir  Ir17  1  0.121755  0.832149  0.754197  1
  Ir  Ir18  1  0.842687  0.720041  0.249251  1
  Rh  Rh19  1  0.281430  0.125029  0.242104  1
  Rh  Rh20  1  0.878922  0.159448  0.242480  1
