# generated using pymatgen
data_PrNd15Cd4Co3Pd
_symmetry_space_group_name_H-M   'P 1'
_cell_length_a   9.87663294
_cell_length_b   9.85440931
_cell_length_c   9.85440948
_cell_angle_alpha   59.96729552
_cell_angle_beta   60.07734671
_cell_angle_gamma   60.07734529
_symmetry_Int_Tables_number   1
_chemical_formula_structural   PrNd15Cd4Co3Pd
_chemical_formula_sum   'Pr1 Nd15 Cd4 Co3 Pd1'
_cell_volume   678.81924922
_cell_formula_units_Z   1
loop_
 _symmetry_equiv_pos_site_id
 _symmetry_equiv_pos_as_xyz
  1  'x, y, z'
loop_
 _atom_site_type_symbol
 _atom_site_label
 _atom_site_symmetry_multiplicity
 _atom_site_fract_x
 _atom_site_fract_y
 _atom_site_fract_z
 _atom_site_occupancy
  Pr  Pr0  1  0.337021  0.352959  0.352959  1
  Nd  Nd1  1  0.339201  0.353764  0.955142  1
  Nd  Nd2  1  0.339201  0.955142  0.353764  1
  Nd  Nd3  1  0.960980  0.346708  0.346708  1
  Nd  Nd4  1  0.822089  0.189103  0.189103  1
  Nd  Nd5  1  0.188219  0.810195  0.810195  1
  Nd  Nd6  1  0.189924  0.810768  0.187627  1
  Nd  Nd7  1  0.821042  0.188222  0.798065  1
  Nd  Nd8  1  0.189924  0.187627  0.810768  1
  Nd  Nd9  1  0.821042  0.798065  0.188222  1
  Nd  Nd10  1  0.935354  0.563767  0.563767  1
  Nd  Nd11  1  0.558549  0.940061  0.940061  1
  Nd  Nd12  1  0.561459  0.939975  0.562049  1
  Nd  Nd13  1  0.935615  0.561586  0.938380  1
  Nd  Nd14  1  0.561459  0.562049  0.939975  1
  Nd  Nd15  1  0.935615  0.938380  0.561586  1
  Cd  Cd16  1  0.579898  0.579452  0.579452  1
  Cd  Cd17  1  0.580770  0.579465  0.260254  1
  Cd  Cd18  1  0.580770  0.260254  0.579465  1
  Cd  Cd19  1  0.257094  0.581512  0.581512  1
  Co  Co20  1  0.142406  0.141833  0.141833  1
  Co  Co21  1  0.142901  0.142170  0.575979  1
  Co  Co22  1  0.142901  0.575979  0.142170  1
  Pd  Pd23  1  0.576568  0.140959  0.140959  1
