# generated using pymatgen
data_Fe3Sb10PtSe2
_symmetry_space_group_name_H-M   'P 1'
_cell_length_a   7.86740215
_cell_length_b   7.88556852
_cell_length_c   7.88708712
_cell_angle_alpha   108.71423679
_cell_angle_beta   109.59005560
_cell_angle_gamma   110.03285075
_symmetry_Int_Tables_number   1
_chemical_formula_structural   Fe3Sb10PtSe2
_chemical_formula_sum   'Fe3 Sb10 Pt1 Se2'
_cell_volume   376.98488082
_cell_formula_units_Z   1
loop_
 _symmetry_equiv_pos_site_id
 _symmetry_equiv_pos_as_xyz
  1  'x, y, z'
loop_
 _atom_site_type_symbol
 _atom_site_label
 _atom_site_symmetry_multiplicity
 _atom_site_fract_x
 _atom_site_fract_y
 _atom_site_fract_z
 _atom_site_occupancy
  Fe  Fe0  1  0.500751  0.997660  0.001721  1
  Fe  Fe1  1  0.987103  0.993955  0.502357  1
  Fe  Fe2  1  0.998416  0.501487  0.990921  1
  Sb  Sb3  1  0.503252  0.666858  0.853488  1
  Sb  Sb4  1  0.671393  0.159364  0.830444  1
  Sb  Sb5  1  0.841586  0.159874  0.320666  1
  Sb  Sb6  1  0.157490  0.827977  0.672782  1
  Sb  Sb7  1  0.169334  0.327755  0.839984  1
  Sb  Sb8  1  0.150165  0.500366  0.331618  1
  Sb  Sb9  1  0.329179  0.147419  0.497479  1
  Sb  Sb10  1  0.497975  0.330594  0.147477  1
  Sb  Sb11  1  0.320863  0.843896  0.164276  1
  Sb  Sb12  1  0.829656  0.668889  0.159448  1
  Pt  Pt13  1  0.511592  0.508743  0.505725  1
  Se  Se14  1  0.671247  0.859631  0.508671  1
  Se  Se15  1  0.859998  0.505533  0.672945  1
