# generated using pymatgen
data_Dy16MgCd2Co4Ag
_symmetry_space_group_name_H-M   'P 1'
_cell_length_a   9.51484193
_cell_length_b   9.50126764
_cell_length_c   9.51484327
_cell_angle_alpha   59.78103434
_cell_angle_beta   59.84779050
_cell_angle_gamma   59.78103425
_symmetry_Int_Tables_number   1
_chemical_formula_structural   Dy16MgCd2Co4Ag
_chemical_formula_sum   'Dy16 Mg1 Cd2 Co4 Ag1'
_cell_volume   605.51610686
_cell_formula_units_Z   1
loop_
 _symmetry_equiv_pos_site_id
 _symmetry_equiv_pos_as_xyz
  1  'x, y, z'
loop_
 _atom_site_type_symbol
 _atom_site_label
 _atom_site_symmetry_multiplicity
 _atom_site_fract_x
 _atom_site_fract_y
 _atom_site_fract_z
 _atom_site_occupancy
  Dy  Dy0  1  0.154013  0.536581  0.154013  1
  Dy  Dy1  1  0.686833  0.315810  0.686833  1
  Dy  Dy2  1  0.689045  0.310761  0.311938  1
  Dy  Dy3  1  0.938718  0.558649  0.564648  1
  Dy  Dy4  1  0.534538  0.152952  0.154481  1
  Dy  Dy5  1  0.154481  0.152952  0.534538  1
  Dy  Dy6  1  0.936291  0.936002  0.563319  1
  Dy  Dy7  1  0.312149  0.688512  0.312149  1
  Dy  Dy8  1  0.563319  0.936002  0.936291  1
  Dy  Dy9  1  0.562878  0.936493  0.562878  1
  Dy  Dy10  1  0.687232  0.688166  0.313745  1
  Dy  Dy11  1  0.564648  0.558649  0.938718  1
  Dy  Dy12  1  0.938761  0.558628  0.938761  1
  Dy  Dy13  1  0.313745  0.688166  0.687232  1
  Dy  Dy14  1  0.154082  0.151728  0.154082  1
  Dy  Dy15  1  0.311938  0.310761  0.689045  1
  Mg  Mg16  1  0.924755  0.930725  0.924755  1
  Cd  Cd17  1  0.919205  0.921219  0.243256  1
  Cd  Cd18  1  0.243256  0.921219  0.919205  1
  Co  Co19  1  0.356784  0.358060  0.921341  1
  Co  Co20  1  0.357969  0.920530  0.357969  1
  Co  Co21  1  0.921341  0.358060  0.356784  1
  Co  Co22  1  0.357887  0.359193  0.357887  1
  Ag  Ag23  1  0.916128  0.250183  0.916128  1
