# generated using pymatgen
data_Sm5Y11(MgSn4)4
_symmetry_space_group_name_H-M   'P 1'
_cell_length_a   7.70135972
_cell_length_b   8.25390155
_cell_length_c   15.26977700
_cell_angle_alpha   89.96528476
_cell_angle_beta   89.97515141
_cell_angle_gamma   89.99436914
_symmetry_Int_Tables_number   1
_chemical_formula_structural   Sm5Y11(MgSn4)4
_chemical_formula_sum   'Sm5 Y11 Mg4 Sn16'
_cell_volume   970.64241718
_cell_formula_units_Z   1
loop_
 _symmetry_equiv_pos_site_id
 _symmetry_equiv_pos_as_xyz
  1  'x, y, z'
loop_
 _atom_site_type_symbol
 _atom_site_label
 _atom_site_symmetry_multiplicity
 _atom_site_fract_x
 _atom_site_fract_y
 _atom_site_fract_z
 _atom_site_occupancy
  Sm  Sm0  1  0.999805  0.182499  0.093836  1
  Sm  Sm1  1  0.000732  0.817758  0.905419  1
  Sm  Sm2  1  0.499920  0.681812  0.907156  1
  Sm  Sm3  1  0.000470  0.816259  0.591522  1
  Sm  Sm4  1  0.500362  0.317703  0.093820  1
  Y  Y5  1  0.998393  0.184852  0.408162  1
  Y  Y6  1  0.497227  0.315854  0.408260  1
  Y  Y7  1  0.501105  0.683824  0.590825  1
  Y  Y8  1  0.336675  0.169184  0.627173  1
  Y  Y9  1  0.664070  0.830208  0.372444  1
  Y  Y10  1  0.163942  0.668837  0.372536  1
  Y  Y11  1  0.664639  0.830119  0.129749  1
  Y  Y12  1  0.836052  0.330692  0.626974  1
  Y  Y13  1  0.335884  0.169615  0.871285  1
  Y  Y14  1  0.834950  0.329991  0.871202  1
  Y  Y15  1  0.164579  0.669812  0.129543  1
  Mg  Mg16  1  0.161017  0.504336  0.749434  1
  Mg  Mg17  1  0.839779  0.495640  0.251102  1
  Mg  Mg18  1  0.339847  0.004928  0.250733  1
  Mg  Mg19  1  0.661326  0.996186  0.749730  1
  Sn  Sn20  1  0.024640  0.097040  0.748821  1
  Sn  Sn21  1  0.977077  0.905586  0.251668  1
  Sn  Sn22  1  0.476853  0.594353  0.251608  1
  Sn  Sn23  1  0.522992  0.404030  0.748412  1
  Sn  Sn24  1  0.182662  0.461899  0.538539  1
  Sn  Sn25  1  0.816927  0.535130  0.460029  1
  Sn  Sn26  1  0.318574  0.964299  0.459652  1
  Sn  Sn27  1  0.821709  0.539219  0.038290  1
  Sn  Sn28  1  0.679172  0.038194  0.538100  1
  Sn  Sn29  1  0.178313  0.461457  0.961988  1
  Sn  Sn30  1  0.678946  0.038070  0.962175  1
  Sn  Sn31  1  0.321282  0.961391  0.038676  1
  Sn  Sn32  1  0.304189  0.851202  0.747842  1
  Sn  Sn33  1  0.698435  0.149733  0.252702  1
  Sn  Sn34  1  0.197959  0.350622  0.252342  1
  Sn  Sn35  1  0.799496  0.647666  0.748250  1
