# generated using pymatgen
data_Sm8Ta(IO8)3
_symmetry_space_group_name_H-M   'P 1'
_cell_length_a   5.59407116
_cell_length_b   7.85276860
_cell_length_c   11.89006487
_cell_angle_alpha   76.29714317
_cell_angle_beta   90.06977527
_cell_angle_gamma   89.78613415
_symmetry_Int_Tables_number   1
_chemical_formula_structural   Sm8Ta(IO8)3
_chemical_formula_sum   'Sm8 Ta1 I3 O24'
_cell_volume   507.44672240
_cell_formula_units_Z   1
loop_
 _symmetry_equiv_pos_site_id
 _symmetry_equiv_pos_as_xyz
  1  'x, y, z'
loop_
 _atom_site_type_symbol
 _atom_site_label
 _atom_site_symmetry_multiplicity
 _atom_site_fract_x
 _atom_site_fract_y
 _atom_site_fract_z
 _atom_site_occupancy
  Sm  Sm0  1  0.739252  0.979930  0.751491  1
  Sm  Sm1  1  0.254965  0.020576  0.252346  1
  Sm  Sm2  1  0.196171  0.776482  0.583674  1
  Sm  Sm3  1  0.818747  0.804407  0.067716  1
  Sm  Sm4  1  0.681455  0.505276  0.758020  1
  Sm  Sm5  1  0.307670  0.500501  0.243430  1
  Sm  Sm6  1  0.182664  0.198756  0.925472  1
  Sm  Sm7  1  0.810087  0.222198  0.419532  1
  Ta  Ta8  1  0.251617  0.718740  0.887577  1
  I  I9  1  0.746354  0.734184  0.381780  1
  I  I10  1  0.251413  0.266586  0.620682  1
  I  I11  1  0.737822  0.289921  0.107036  1
  O  O12  1  0.028850  0.934272  0.892202  1
  O  O13  1  0.522749  0.850479  0.926673  1
  O  O14  1  0.929100  0.940888  0.394736  1
  O  O15  1  0.466681  0.775179  0.727018  1
  O  O16  1  0.469978  0.835827  0.433899  1
  O  O17  1  0.984782  0.709508  0.764628  1
  O  O18  1  0.585122  0.819670  0.233639  1
  O  O19  1  0.851273  0.641617  0.534959  1
  O  O20  1  0.351874  0.485844  0.883699  1
  O  O21  1  0.019329  0.701594  0.288022  1
  O  O22  1  0.375545  0.488442  0.622847  1
  O  O23  1  0.829707  0.350399  0.940178  1
  O  O24  1  0.142010  0.634915  0.048419  1
  O  O25  1  0.623695  0.512790  0.378490  1
  O  O26  1  0.982637  0.294197  0.718519  1
  O  O27  1  0.616311  0.517491  0.100838  1
  O  O28  1  0.136942  0.366775  0.472828  1
  O  O29  1  0.423982  0.184112  0.765904  1
  O  O30  1  0.059411  0.279311  0.262050  1
  O  O31  1  0.522487  0.164332  0.565435  1
  O  O32  1  0.548686  0.230975  0.269226  1
  O  O33  1  0.067753  0.057459  0.607099  1
  O  O34  1  0.474431  0.162618  0.069733  1
  O  O35  1  0.008447  0.043749  0.100201  1
