# generated using pymatgen
data_Tb9Ho3Co6Sn
_symmetry_space_group_name_H-M   'P 1'
_cell_length_a   8.36321114
_cell_length_b   8.36321105
_cell_length_c   8.36602473
_cell_angle_alpha   109.48875785
_cell_angle_beta   109.59834613
_cell_angle_gamma   109.31301602
_symmetry_Int_Tables_number   1
_chemical_formula_structural   Tb9Ho3Co6Sn
_chemical_formula_sum   'Tb9 Ho3 Co6 Sn1'
_cell_volume   450.51979380
_cell_formula_units_Z   1
loop_
 _symmetry_equiv_pos_site_id
 _symmetry_equiv_pos_as_xyz
  1  'x, y, z'
loop_
 _atom_site_type_symbol
 _atom_site_label
 _atom_site_symmetry_multiplicity
 _atom_site_fract_x
 _atom_site_fract_y
 _atom_site_fract_z
 _atom_site_occupancy
  Tb  Tb0  1  0.806058  0.303276  0.109333  1
  Tb  Tb1  1  0.696876  0.502908  0.805354  1
  Tb  Tb2  1  0.303319  0.497416  0.194372  1
  Tb  Tb3  1  0.696954  0.891053  0.194372  1
  Tb  Tb4  1  0.302447  0.108477  0.805354  1
  Tb  Tb5  1  0.502366  0.805055  0.696943  1
  Tb  Tb6  1  0.497119  0.194560  0.302961  1
  Tb  Tb7  1  0.108400  0.805841  0.302961  1
  Tb  Tb8  1  0.891889  0.194578  0.696943  1
  Ho  Ho9  1  0.806194  0.696371  0.502566  1
  Ho  Ho10  1  0.194176  0.303936  0.498110  1
  Ho  Ho11  1  0.193867  0.696076  0.889943  1
  Co  Co12  1  0.887627  0.387534  0.500653  1
  Co  Co13  1  0.113119  0.613026  0.500653  1
  Co  Co14  1  0.386148  0.499991  0.886139  1
  Co  Co15  1  0.613480  0.500224  0.113704  1
  Co  Co16  1  0.500007  0.886724  0.386732  1
  Co  Co17  1  0.499814  0.113178  0.612992  1
  Sn  Sn18  1  0.000141  0.999774  0.999915  1
