# generated using pymatgen
data_Hg2PdPtO7
_symmetry_space_group_name_H-M   'P 1'
_cell_length_a   7.30817147
_cell_length_b   7.31091054
_cell_length_c   7.31091181
_cell_angle_alpha   59.96294670
_cell_angle_beta   60.01239086
_cell_angle_gamma   60.01239194
_symmetry_Int_Tables_number   1
_chemical_formula_structural   Hg2PdPtO7
_chemical_formula_sum   'Hg4 Pd2 Pt2 O14'
_cell_volume   276.18256173
_cell_formula_units_Z   2
loop_
 _symmetry_equiv_pos_site_id
 _symmetry_equiv_pos_as_xyz
  1  'x, y, z'
loop_
 _atom_site_type_symbol
 _atom_site_label
 _atom_site_symmetry_multiplicity
 _atom_site_fract_x
 _atom_site_fract_y
 _atom_site_fract_z
 _atom_site_occupancy
  Hg  Hg0  1  0.125000  0.125000  0.125000  1
  Hg  Hg1  1  0.625000  0.125000  0.125000  1
  Hg  Hg2  1  0.125000  0.625000  0.125000  1
  Hg  Hg3  1  0.125000  0.125000  0.625000  1
  Pd  Pd4  1  0.625000  0.625000  0.625000  1
  Pd  Pd5  1  0.125000  0.625000  0.625000  1
  Pt  Pt6  1  0.625000  0.625000  0.125000  1
  Pt  Pt7  1  0.625000  0.125000  0.625000  1
  O  O8  1  0.703094  0.296906  0.296906  1
  O  O9  1  0.702795  0.293919  0.705208  1
  O  O10  1  0.999956  0.000044  0.000044  1
  O  O11  1  0.298078  0.705208  0.293919  1
  O  O12  1  0.702795  0.705208  0.293919  1
  O  O13  1  0.955710  0.544290  0.544290  1
  O  O14  1  0.294290  0.705710  0.705710  1
  O  O15  1  0.250044  0.249956  0.249956  1
  O  O16  1  0.951922  0.544792  0.956081  1
  O  O17  1  0.547205  0.956081  0.544792  1
  O  O18  1  0.547205  0.544792  0.956081  1
  O  O19  1  0.951922  0.956081  0.544792  1
  O  O20  1  0.546906  0.953094  0.953094  1
  O  O21  1  0.298078  0.293919  0.705208  1
