# generated using pymatgen
data_La2Be23Au3
_symmetry_space_group_name_H-M   'P 1'
_cell_length_a   7.55694600
_cell_length_b   7.55683137
_cell_length_c   7.66503148
_cell_angle_alpha   119.53083035
_cell_angle_beta   90.00081585
_cell_angle_gamma   119.99800619
_symmetry_Int_Tables_number   1
_chemical_formula_structural   La2Be23Au3
_chemical_formula_sum   'La2 Be23 Au3'
_cell_volume   311.70126462
_cell_formula_units_Z   1
loop_
 _symmetry_equiv_pos_site_id
 _symmetry_equiv_pos_as_xyz
  1  'x, y, z'
loop_
 _atom_site_type_symbol
 _atom_site_label
 _atom_site_symmetry_multiplicity
 _atom_site_fract_x
 _atom_site_fract_y
 _atom_site_fract_z
 _atom_site_occupancy
  La  La0  1  0.755618  0.511225  0.266835  1
  La  La1  1  0.246625  0.493253  0.739875  1
  Be  Be2  1  0.996988  0.993974  0.991046  1
  Be  Be3  1  0.437331  0.010075  0.235045  1
  Be  Be4  1  0.224971  0.662316  0.235015  1
  Be  Be5  1  0.572729  0.797722  0.235080  1
  Be  Be6  1  0.289175  0.227895  0.303104  1
  Be  Be7  1  0.075151  0.364259  0.303004  1
  Be  Be8  1  0.938733  0.013973  0.303100  1
  Be  Be9  1  0.219300  0.002824  0.441822  1
  Be  Be10  1  0.439005  0.658319  0.441783  1
  Be  Be11  1  0.783524  0.222559  0.441809  1
  Be  Be12  1  0.501873  0.003741  0.505568  1
  Be  Be13  1  0.564410  0.349121  0.566043  1
  Be  Be14  1  0.216931  0.781335  0.566031  1
  Be  Be15  1  0.784735  0.001627  0.566051  1
  Be  Be16  1  0.056713  0.988999  0.698746  1
  Be  Be17  1  0.709761  0.766455  0.698749  1
  Be  Be18  1  0.932241  0.641983  0.698761  1
  Be  Be19  1  0.561727  0.995478  0.771124  1
  Be  Be20  1  0.433744  0.209421  0.771130  1
  Be  Be21  1  0.775661  0.337371  0.771146  1
  Be  Be22  1  0.935355  0.233745  0.925788  1
  Be  Be23  1  0.692091  0.627445  0.925800  1
  Be  Be24  1  0.298426  0.990497  0.925828  1
  Au  Au25  1  0.698167  0.004714  0.057239  1
  Au  Au26  1  0.306551  0.359020  0.057239  1
  Au  Au27  1  0.052459  0.750643  0.057234  1
