# generated using pymatgen
data_Nd7ThGaPd24
_symmetry_space_group_name_H-M   'P 1'
_cell_length_a   8.50174709
_cell_length_b   8.50174709
_cell_length_c   8.50174709
_cell_angle_alpha   90.07948382
_cell_angle_beta   90.07948382
_cell_angle_gamma   89.92051618
_symmetry_Int_Tables_number   1
_chemical_formula_structural   Nd7ThGaPd24
_chemical_formula_sum   'Nd7 Th1 Ga1 Pd24'
_cell_volume   614.50198680
_cell_formula_units_Z   1
loop_
 _symmetry_equiv_pos_site_id
 _symmetry_equiv_pos_as_xyz
  1  'x, y, z'
loop_
 _atom_site_type_symbol
 _atom_site_label
 _atom_site_symmetry_multiplicity
 _atom_site_fract_x
 _atom_site_fract_y
 _atom_site_fract_z
 _atom_site_occupancy
  Nd  Nd0  1  0.252281  0.747809  0.252191  1
  Nd  Nd1  1  0.747809  0.252281  0.252191  1
  Nd  Nd2  1  0.747809  0.747809  0.747719  1
  Nd  Nd3  1  0.747588  0.747588  0.252412  1
  Nd  Nd4  1  0.748580  0.252171  0.747829  1
  Nd  Nd5  1  0.252171  0.748580  0.747829  1
  Nd  Nd6  1  0.252171  0.252171  0.251420  1
  Th  Th7  1  0.253655  0.253655  0.746345  1
  Ga  Ga8  1  0.998542  0.998542  0.001458  1
  Pd  Pd9  1  0.498041  0.498041  0.746891  1
  Pd  Pd10  1  0.498041  0.253109  0.501959  1
  Pd  Pd11  1  0.253109  0.498041  0.501959  1
  Pd  Pd12  1  0.499630  0.499630  0.252736  1
  Pd  Pd13  1  0.499630  0.747264  0.500370  1
  Pd  Pd14  1  0.747264  0.499630  0.500370  1
  Pd  Pd15  1  0.001778  0.001778  0.708948  1
  Pd  Pd16  1  0.001778  0.291052  0.998222  1
  Pd  Pd17  1  0.291052  0.001778  0.998222  1
  Pd  Pd18  1  0.000050  0.000050  0.292950  1
  Pd  Pd19  1  0.000050  0.707050  0.999950  1
  Pd  Pd20  1  0.707050  0.000050  0.999950  1
  Pd  Pd21  1  0.003066  0.498124  0.739901  1
  Pd  Pd22  1  0.498124  0.260099  0.996934  1
  Pd  Pd23  1  0.260099  0.003066  0.501876  1
  Pd  Pd24  1  0.003066  0.260099  0.501876  1
  Pd  Pd25  1  0.498124  0.003066  0.739901  1
  Pd  Pd26  1  0.260099  0.498124  0.996934  1
  Pd  Pd27  1  0.000205  0.499552  0.260087  1
  Pd  Pd28  1  0.499552  0.739913  0.999795  1
  Pd  Pd29  1  0.000205  0.739913  0.500448  1
  Pd  Pd30  1  0.499552  0.000205  0.260087  1
  Pd  Pd31  1  0.739913  0.000205  0.500448  1
  Pd  Pd32  1  0.739913  0.499552  0.999795  1
