# generated using pymatgen
data_SmTh2In2GaRh3
_symmetry_space_group_name_H-M   'P 1'
_cell_length_a   7.59243347
_cell_length_b   7.67282565
_cell_length_c   3.91599100
_cell_angle_alpha   90.00000000
_cell_angle_beta   90.00000000
_cell_angle_gamma   119.61668762
_symmetry_Int_Tables_number   1
_chemical_formula_structural   SmTh2In2GaRh3
_chemical_formula_sum   'Sm1 Th2 In2 Ga1 Rh3'
_cell_volume   198.32304553
_cell_formula_units_Z   1
loop_
 _symmetry_equiv_pos_site_id
 _symmetry_equiv_pos_as_xyz
  1  'x, y, z'
loop_
 _atom_site_type_symbol
 _atom_site_label
 _atom_site_symmetry_multiplicity
 _atom_site_fract_x
 _atom_site_fract_y
 _atom_site_fract_z
 _atom_site_occupancy
  Sm  Sm0  1  0.408051  0.009874  0.500000  1
  Th  Th1  1  0.007417  0.410989  0.500000  1
  Th  Th2  1  0.573286  0.568028  0.500000  1
  In  In3  1  0.008110  0.761103  0.000000  1
  In  In4  1  0.735303  0.994780  0.000000  1
  Ga  Ga5  1  0.248829  0.239905  0.000000  1
  Rh  Rh6  1  0.329515  0.635919  0.000000  1
  Rh  Rh7  1  0.011603  0.027365  0.500000  1
  Rh  Rh8  1  0.677886  0.352038  0.000000  1
