# generated using pymatgen
data_Y3In3CuHgPd
_symmetry_space_group_name_H-M   'P 1'
_cell_length_a   7.81152400
_cell_length_b   7.81152467
_cell_length_c   3.87537900
_cell_angle_alpha   90.00000000
_cell_angle_beta   90.00000000
_cell_angle_gamma   119.99999716
_symmetry_Int_Tables_number   1
_chemical_formula_structural   Y3In3CuHgPd
_chemical_formula_sum   'Y3 In3 Cu1 Hg1 Pd1'
_cell_volume   204.79361197
_cell_formula_units_Z   1
loop_
 _symmetry_equiv_pos_site_id
 _symmetry_equiv_pos_as_xyz
  1  'x, y, z'
loop_
 _atom_site_type_symbol
 _atom_site_label
 _atom_site_symmetry_multiplicity
 _atom_site_fract_x
 _atom_site_fract_y
 _atom_site_fract_z
 _atom_site_occupancy
  Y  Y0  1  0.393162  0.411284  0.500000  1
  Y  Y1  1  0.588716  0.981878  0.500000  1
  Y  Y2  1  0.018122  0.606838  0.500000  1
  In  In3  1  0.749683  0.753373  0.000000  1
  In  In4  1  0.246627  0.996310  0.000000  1
  In  In5  1  0.003690  0.250317  0.000000  1
  Cu  Cu6  1  0.000000  0.000000  0.500000  1
  Hg  Hg7  1  0.666667  0.333333  0.000000  1
  Pd  Pd8  1  0.333333  0.666667  0.000000  1
