# generated using pymatgen
data_Nd2HoHf(Al3Ir)6
_symmetry_space_group_name_H-M   'P 1'
_cell_length_a   7.56684000
_cell_length_b   7.55918298
_cell_length_c   9.46848400
_cell_angle_alpha   90.00000000
_cell_angle_beta   90.00000000
_cell_angle_gamma   119.52636480
_symmetry_Int_Tables_number   1
_chemical_formula_structural   Nd2HoHf(Al3Ir)6
_chemical_formula_sum   'Nd2 Ho1 Hf1 Al18 Ir6'
_cell_volume   471.25232784
_cell_formula_units_Z   1
loop_
 _symmetry_equiv_pos_site_id
 _symmetry_equiv_pos_as_xyz
  1  'x, y, z'
loop_
 _atom_site_type_symbol
 _atom_site_label
 _atom_site_symmetry_multiplicity
 _atom_site_fract_x
 _atom_site_fract_y
 _atom_site_fract_z
 _atom_site_occupancy
  Nd  Nd0  1  0.004969  0.327212  0.750000  1
  Nd  Nd1  1  0.329608  0.006529  0.750000  1
  Ho  Ho2  1  0.671700  0.995907  0.250000  1
  Hf  Hf3  1  0.998092  0.674834  0.250000  1
  Al  Al4  1  0.125283  0.123302  0.250000  1
  Al  Al5  1  0.867908  0.866562  0.750000  1
  Al  Al6  1  0.999712  0.338646  0.081968  1
  Al  Al7  1  0.997810  0.664878  0.934151  1
  Al  Al8  1  0.997810  0.664878  0.565849  1
  Al  Al9  1  0.332866  0.997792  0.418049  1
  Al  Al10  1  0.999712  0.338646  0.418032  1
  Al  Al11  1  0.664449  0.996276  0.569906  1
  Al  Al12  1  0.664449  0.996276  0.930094  1
  Al  Al13  1  0.332866  0.997792  0.081951  1
  Al  Al14  1  0.334357  0.334612  0.542628  1
  Al  Al15  1  0.669391  0.667150  0.440729  1
  Al  Al16  1  0.669391  0.667150  0.059271  1
  Al  Al17  1  0.334357  0.334612  0.957372  1
  Al  Al18  1  0.337018  0.550671  0.250000  1
  Al  Al19  1  0.660725  0.454526  0.750000  1
  Al  Al20  1  0.556601  0.344879  0.250000  1
  Al  Al21  1  0.452959  0.659322  0.750000  1
  Ir  Ir22  1  0.672795  0.329127  0.003306  1
  Ir  Ir23  1  0.328340  0.672451  0.004224  1
  Ir  Ir24  1  0.328340  0.672451  0.495776  1
  Ir  Ir25  1  0.672795  0.329127  0.496694  1
  Ir  Ir26  1  0.997849  0.997196  0.003988  1
  Ir  Ir27  1  0.997849  0.997196  0.496012  1
