# generated using pymatgen
data_PaNbCo3
_symmetry_space_group_name_H-M   'P 1'
_cell_length_a   5.22868100
_cell_length_b   7.12039000
_cell_length_c   8.13840400
_cell_angle_alpha   90.00000000
_cell_angle_beta   90.00000000
_cell_angle_gamma   90.00000000
_symmetry_Int_Tables_number   1
_chemical_formula_structural   PaNbCo3
_chemical_formula_sum   'Pa4 Nb4 Co12'
_cell_volume   302.99479848
_cell_formula_units_Z   4
loop_
 _symmetry_equiv_pos_site_id
 _symmetry_equiv_pos_as_xyz
  1  'x, y, z'
loop_
 _atom_site_type_symbol
 _atom_site_label
 _atom_site_symmetry_multiplicity
 _atom_site_fract_x
 _atom_site_fract_y
 _atom_site_fract_z
 _atom_site_occupancy
  Pa  Pa0  1  0.750000  0.885882  0.852761  1
  Pa  Pa1  1  0.750000  0.385882  0.647239  1
  Pa  Pa2  1  0.250000  0.114118  0.147239  1
  Pa  Pa3  1  0.250000  0.614118  0.352761  1
  Nb  Nb4  1  0.750000  0.947397  0.412642  1
  Nb  Nb5  1  0.750000  0.447397  0.087358  1
  Nb  Nb6  1  0.250000  0.052603  0.587358  1
  Nb  Nb7  1  0.250000  0.552603  0.912642  1
  Co  Co8  1  0.750000  0.595881  0.367890  1
  Co  Co9  1  0.750000  0.095881  0.132110  1
  Co  Co10  1  0.250000  0.404119  0.632110  1
  Co  Co11  1  0.250000  0.904119  0.867890  1
  Co  Co12  1  0.989656  0.267842  0.375115  1
  Co  Co13  1  0.510344  0.767842  0.124885  1
  Co  Co14  1  0.489656  0.732158  0.624885  1
  Co  Co15  1  0.010344  0.232158  0.875115  1
  Co  Co16  1  0.010344  0.732158  0.624885  1
  Co  Co17  1  0.489656  0.232158  0.875115  1
  Co  Co18  1  0.510344  0.267842  0.375115  1
  Co  Co19  1  0.989656  0.767842  0.124885  1
