# generated using pymatgen
data_Pr5Dy3(CuP)12
_symmetry_space_group_name_H-M   'P 1'
_cell_length_a   3.96598300
_cell_length_b   10.84840760
_cell_length_c   13.03099999
_cell_angle_alpha   89.93724416
_cell_angle_beta   90.00000000
_cell_angle_gamma   90.00000000
_symmetry_Int_Tables_number   1
_chemical_formula_structural   Pr5Dy3(CuP)12
_chemical_formula_sum   'Pr5 Dy3 Cu12 P12'
_cell_volume   560.65322727
_cell_formula_units_Z   1
loop_
 _symmetry_equiv_pos_site_id
 _symmetry_equiv_pos_as_xyz
  1  'x, y, z'
loop_
 _atom_site_type_symbol
 _atom_site_label
 _atom_site_symmetry_multiplicity
 _atom_site_fract_x
 _atom_site_fract_y
 _atom_site_fract_z
 _atom_site_occupancy
  Pr  Pr0  1  0.250000  0.932789  0.798171  1
  Pr  Pr1  1  0.750000  0.430746  0.707404  1
  Pr  Pr2  1  0.250000  0.567058  0.290961  1
  Pr  Pr3  1  0.750000  0.068258  0.206169  1
  Pr  Pr4  1  0.250000  0.843007  0.502099  1
  Dy  Dy5  1  0.750000  0.343317  0.998178  1
  Dy  Dy6  1  0.250000  0.655965  0.001056  1
  Dy  Dy7  1  0.750000  0.158796  0.498722  1
  Cu  Cu8  1  0.250000  0.398437  0.511507  1
  Cu  Cu9  1  0.750000  0.898741  0.988923  1
  Cu  Cu10  1  0.250000  0.102142  0.012166  1
  Cu  Cu11  1  0.750000  0.597104  0.489087  1
  Cu  Cu12  1  0.250000  0.272528  0.332259  1
  Cu  Cu13  1  0.750000  0.769468  0.164168  1
  Cu  Cu14  1  0.250000  0.229978  0.833345  1
  Cu  Cu15  1  0.750000  0.729327  0.670338  1
  Cu  Cu16  1  0.250000  0.858782  0.274786  1
  Cu  Cu17  1  0.750000  0.359548  0.219925  1
  Cu  Cu18  1  0.250000  0.640344  0.779588  1
  Cu  Cu19  1  0.750000  0.141955  0.722458  1
  P  P20  1  0.250000  0.234849  0.644373  1
  P  P21  1  0.750000  0.734202  0.857052  1
  P  P22  1  0.250000  0.265850  0.143621  1
  P  P23  1  0.750000  0.763050  0.349300  1
  P  P24  1  0.250000  0.601410  0.599366  1
  P  P25  1  0.750000  0.107821  0.904045  1
  P  P26  1  0.250000  0.894137  0.095046  1
  P  P27  1  0.750000  0.393896  0.401746  1
  P  P28  1  0.250000  0.061938  0.371495  1
  P  P29  1  0.750000  0.556726  0.125205  1
  P  P30  1  0.250000  0.442335  0.873545  1
  P  P31  1  0.750000  0.945495  0.633897  1
