# generated using pymatgen
data_Ho5InSb2
_symmetry_space_group_name_H-M   'P 1'
_cell_length_a   8.93487201
_cell_length_b   8.93423657
_cell_length_c   6.42305600
_cell_angle_alpha   90.00000000
_cell_angle_beta   90.00000000
_cell_angle_gamma   119.99764446
_symmetry_Int_Tables_number   1
_chemical_formula_structural   Ho5InSb2
_chemical_formula_sum   'Ho10 In2 Sb4'
_cell_volume   444.04648007
_cell_formula_units_Z   2
loop_
 _symmetry_equiv_pos_site_id
 _symmetry_equiv_pos_as_xyz
  1  'x, y, z'
loop_
 _atom_site_type_symbol
 _atom_site_label
 _atom_site_symmetry_multiplicity
 _atom_site_fract_x
 _atom_site_fract_y
 _atom_site_fract_z
 _atom_site_occupancy
  Ho  Ho0  1  0.335023  0.667512  0.000000  1
  Ho  Ho1  1  0.663557  0.331778  0.500000  1
  Ho  Ho2  1  0.663557  0.331778  0.000000  1
  Ho  Ho3  1  0.335023  0.667512  0.500000  1
  Ho  Ho4  1  0.758449  0.998782  0.750000  1
  Ho  Ho5  1  0.758449  0.759667  0.250000  1
  Ho  Ho6  1  0.002014  0.241808  0.250000  1
  Ho  Ho7  1  0.002014  0.760206  0.750000  1
  Ho  Ho8  1  0.240607  0.237497  0.750000  1
  Ho  Ho9  1  0.240607  0.003110  0.250000  1
  In  In10  1  0.394211  0.998368  0.750000  1
  In  In11  1  0.394211  0.395843  0.250000  1
  Sb  Sb12  1  0.999395  0.607383  0.250000  1
  Sb  Sb13  1  0.999395  0.392012  0.750000  1
  Sb  Sb14  1  0.606743  0.606376  0.750000  1
  Sb  Sb15  1  0.606743  0.000367  0.250000  1
