# generated using pymatgen
data_Yb8AgAs5
_symmetry_space_group_name_H-M   'P 1'
_cell_length_a   7.74085068
_cell_length_b   7.74085038
_cell_length_c   7.74085102
_cell_angle_alpha   109.26360220
_cell_angle_beta   109.88725662
_cell_angle_gamma   109.26360565
_symmetry_Int_Tables_number   1
_chemical_formula_structural   Yb8AgAs5
_chemical_formula_sum   'Yb8 Ag1 As5'
_cell_volume   357.04831989
_cell_formula_units_Z   1
loop_
 _symmetry_equiv_pos_site_id
 _symmetry_equiv_pos_as_xyz
  1  'x, y, z'
loop_
 _atom_site_type_symbol
 _atom_site_label
 _atom_site_symmetry_multiplicity
 _atom_site_fract_x
 _atom_site_fract_y
 _atom_site_fract_z
 _atom_site_occupancy
  Yb  Yb0  1  0.156049  0.508892  0.995840  1
  Yb  Yb1  1  0.487297  0.990375  0.622773  1
  Yb  Yb2  1  0.377227  0.364524  0.367602  1
  Yb  Yb3  1  0.003078  0.135476  0.512703  1
  Yb  Yb4  1  0.852843  0.839791  0.843951  1
  Yb  Yb5  1  0.004160  0.660209  0.513052  1
  Yb  Yb6  1  0.632398  0.509625  0.996922  1
  Yb  Yb7  1  0.486948  0.991108  0.147157  1
  Ag  Ag8  1  0.875000  0.250000  0.125000  1
  As  As9  1  0.111642  0.866324  0.242540  1
  As  As10  1  0.376216  0.633676  0.745318  1
  As  As11  1  0.254682  0.130898  0.888358  1
  As  As12  1  0.757460  0.369102  0.623784  1
  As  As13  1  0.625000  0.750000  0.375000  1
