# generated using pymatgen
data_Hf4Be5B3Ru10
_symmetry_space_group_name_H-M   'P 1'
_cell_length_a   3.13502900
_cell_length_b   8.64110789
_cell_length_c   10.12875181
_cell_angle_alpha   90.16210829
_cell_angle_beta   90.00000000
_cell_angle_gamma   90.00000000
_symmetry_Int_Tables_number   1
_chemical_formula_structural   Hf4Be5B3Ru10
_chemical_formula_sum   'Hf4 Be5 B3 Ru10'
_cell_volume   274.38804244
_cell_formula_units_Z   1
loop_
 _symmetry_equiv_pos_site_id
 _symmetry_equiv_pos_as_xyz
  1  'x, y, z'
loop_
 _atom_site_type_symbol
 _atom_site_label
 _atom_site_symmetry_multiplicity
 _atom_site_fract_x
 _atom_site_fract_y
 _atom_site_fract_z
 _atom_site_occupancy
  Hf  Hf0  1  0.500000  0.844226  0.182582  1
  Hf  Hf1  1  0.500000  0.154985  0.816235  1
  Hf  Hf2  1  0.500000  0.658153  0.680910  1
  Hf  Hf3  1  0.500000  0.341450  0.319311  1
  Be  Be4  1  0.500000  0.960349  0.593415  1
  Be  Be5  1  0.500000  0.037189  0.406901  1
  Be  Be6  1  0.500000  0.847670  0.902397  1
  Be  Be7  1  0.500000  0.152286  0.097956  1
  Be  Be8  1  0.500000  0.656503  0.402164  1
  B  B9  1  0.500000  0.347980  0.596019  1
  B  B10  1  0.500000  0.464709  0.911366  1
  B  B11  1  0.500000  0.533760  0.088435  1
  Ru  Ru12  1  0.000000  0.651457  0.954148  1
  Ru  Ru13  1  0.000000  0.346802  0.042266  1
  Ru  Ru14  1  0.000000  0.841471  0.450340  1
  Ru  Ru15  1  0.000000  0.169615  0.555735  1
  Ru  Ru16  1  0.000000  0.999982  0.000147  1
  Ru  Ru17  1  0.000000  0.405661  0.763015  1
  Ru  Ru18  1  0.000000  0.591044  0.233178  1
  Ru  Ru19  1  0.000000  0.494764  0.502694  1
  Ru  Ru20  1  0.000000  0.899793  0.740918  1
  Ru  Ru21  1  0.000000  0.100149  0.259870  1
