# generated using pymatgen
data_Sm8SiSI12
_symmetry_space_group_name_H-M   'P 1'
_cell_length_a   4.27712200
_cell_length_b   14.21067189
_cell_length_c   14.99672500
_cell_angle_alpha   90.12139205
_cell_angle_beta   90.00000000
_cell_angle_gamma   90.00000000
_symmetry_Int_Tables_number   1
_chemical_formula_structural   Sm8SiSI12
_chemical_formula_sum   'Sm8 Si1 S1 I12'
_cell_volume   911.51055807
_cell_formula_units_Z   1
loop_
 _symmetry_equiv_pos_site_id
 _symmetry_equiv_pos_as_xyz
  1  'x, y, z'
loop_
 _atom_site_type_symbol
 _atom_site_label
 _atom_site_symmetry_multiplicity
 _atom_site_fract_x
 _atom_site_fract_y
 _atom_site_fract_z
 _atom_site_occupancy
  Sm  Sm0  1  0.500000  0.111110  0.352847  1
  Sm  Sm1  1  0.500000  0.888890  0.647153  1
  Sm  Sm2  1  0.500000  0.616406  0.153710  1
  Sm  Sm3  1  0.500000  0.383594  0.846290  1
  Sm  Sm4  1  0.000000  0.105121  0.570715  1
  Sm  Sm5  1  0.000000  0.894879  0.429285  1
  Sm  Sm6  1  0.000000  0.613181  0.923213  1
  Sm  Sm7  1  0.000000  0.386819  0.076787  1
  Si  Si8  1  0.500000  0.500000  0.000000  1
  S  S9  1  0.500000  0.000000  0.500000  1
  I  I10  1  0.500000  0.243245  0.166041  1
  I  I11  1  0.500000  0.756755  0.833959  1
  I  I12  1  0.500000  0.751434  0.340252  1
  I  I13  1  0.500000  0.248566  0.659748  1
  I  I14  1  0.000000  0.257073  0.417643  1
  I  I15  1  0.000000  0.742927  0.582357  1
  I  I16  1  0.000000  0.760548  0.084272  1
  I  I17  1  0.000000  0.239452  0.915728  1
  I  I18  1  0.000000  0.998103  0.243347  1
  I  I19  1  0.000000  0.001897  0.756653  1
  I  I20  1  0.000000  0.500322  0.261139  1
  I  I21  1  0.000000  0.499678  0.738861  1
