# generated using pymatgen
data_La9Nd3Ru3RhBr12
_symmetry_space_group_name_H-M   'P 1'
_cell_length_a   10.61100685
_cell_length_b   10.58853571
_cell_length_c   10.57157434
_cell_angle_alpha   108.71893014
_cell_angle_beta   110.84194441
_cell_angle_gamma   108.87172297
_symmetry_Int_Tables_number   1
_chemical_formula_structural   La9Nd3Ru3RhBr12
_chemical_formula_sum   'La9 Nd3 Ru3 Rh1 Br12'
_cell_volume   913.83723971
_cell_formula_units_Z   1
loop_
 _symmetry_equiv_pos_site_id
 _symmetry_equiv_pos_as_xyz
  1  'x, y, z'
loop_
 _atom_site_type_symbol
 _atom_site_label
 _atom_site_symmetry_multiplicity
 _atom_site_fract_x
 _atom_site_fract_y
 _atom_site_fract_z
 _atom_site_occupancy
  La  La0  1  0.014483  0.028968  0.264483  1
  La  La1  1  0.231051  0.265260  0.744889  1
  La  La2  1  0.020641  0.486682  0.754907  1
  La  La3  1  0.475414  0.239486  0.466492  1
  La  La4  1  0.269596  0.013988  0.034516  1
  La  La5  1  0.764072  0.239486  0.272993  1
  La  La6  1  0.744393  0.013988  0.479474  1
  La  La7  1  0.466041  0.486682  0.231776  1
  La  La8  1  0.034209  0.265260  0.020371  1
  Nd  Nd9  1  0.263889  0.744095  0.231674  1
  Nd  Nd10  1  0.480206  0.744095  0.012421  1
  Nd  Nd11  1  0.234659  0.469318  0.484659  1
  Ru  Ru12  1  0.249847  0.499694  0.999847  1
  Ru  Ru13  1  0.996933  0.247778  0.496018  1
  Ru  Ru14  1  0.250844  0.247778  0.251760  1
  Rh  Rh15  1  0.499331  0.998661  0.249331  1
  Br  Br16  1  0.250732  0.993080  0.504827  1
  Br  Br17  1  0.511133  0.512234  0.756522  1
  Br  Br18  1  0.255320  0.755256  0.745272  1
  Br  Br19  1  0.990983  0.743106  0.997835  1
  Br  Br20  1  0.001103  0.512234  0.255712  1
  Br  Br21  1  0.742349  0.993080  0.988252  1
  Br  Br22  1  0.752120  0.743106  0.245271  1
  Br  Br23  1  0.499938  0.755256  0.509986  1
  Br  Br24  1  0.504367  0.250640  0.997154  1
  Br  Br25  1  0.754159  0.508320  0.504159  1
  Br  Br26  1  0.746274  0.250640  0.753486  1
  Br  Br27  1  0.995914  0.991826  0.745914  1
