# generated using pymatgen
data_Y3Ho5(CdIr)2
_symmetry_space_group_name_H-M   'P 1'
_cell_length_a   9.62521054
_cell_length_b   9.62521001
_cell_length_c   9.62521000
_cell_angle_alpha   60.00000005
_cell_angle_beta   60.00000185
_cell_angle_gamma   59.99999943
_symmetry_Int_Tables_number   1
_chemical_formula_structural   Y3Ho5(CdIr)2
_chemical_formula_sum   'Y6 Ho10 Cd4 Ir4'
_cell_volume   630.54439907
_cell_formula_units_Z   2
loop_
 _symmetry_equiv_pos_site_id
 _symmetry_equiv_pos_as_xyz
  1  'x, y, z'
loop_
 _atom_site_type_symbol
 _atom_site_label
 _atom_site_symmetry_multiplicity
 _atom_site_fract_x
 _atom_site_fract_y
 _atom_site_fract_z
 _atom_site_occupancy
  Y  Y0  1  0.938855  0.561145  0.561145  1
  Y  Y1  1  0.561145  0.938855  0.938855  1
  Y  Y2  1  0.561145  0.938855  0.561145  1
  Y  Y3  1  0.938855  0.561145  0.938855  1
  Y  Y4  1  0.561145  0.561145  0.938855  1
  Y  Y5  1  0.938855  0.938855  0.561145  1
  Ho  Ho6  1  0.348400  0.348400  0.348400  1
  Ho  Ho7  1  0.348400  0.348400  0.954800  1
  Ho  Ho8  1  0.348400  0.954800  0.348400  1
  Ho  Ho9  1  0.954800  0.348400  0.348400  1
  Ho  Ho10  1  0.810586  0.189414  0.189414  1
  Ho  Ho11  1  0.189414  0.810586  0.810586  1
  Ho  Ho12  1  0.189414  0.810586  0.189414  1
  Ho  Ho13  1  0.810586  0.189414  0.810586  1
  Ho  Ho14  1  0.189414  0.189414  0.810586  1
  Ho  Ho15  1  0.810586  0.810586  0.189414  1
  Cd  Cd16  1  0.580969  0.580969  0.580969  1
  Cd  Cd17  1  0.580969  0.580969  0.257094  1
  Cd  Cd18  1  0.580969  0.257094  0.580969  1
  Cd  Cd19  1  0.257094  0.580969  0.580969  1
  Ir  Ir20  1  0.141679  0.141679  0.141679  1
  Ir  Ir21  1  0.141679  0.141679  0.574964  1
  Ir  Ir22  1  0.141679  0.574964  0.141679  1
  Ir  Ir23  1  0.574964  0.141679  0.141679  1
