# generated using pymatgen
data_TbHo2ZnGa7Ag3
_symmetry_space_group_name_H-M   'P 1'
_cell_length_a   4.32143957
_cell_length_b   8.33968700
_cell_length_c   8.36755033
_cell_angle_alpha   70.25468655
_cell_angle_beta   75.03515887
_cell_angle_gamma   74.98399092
_symmetry_Int_Tables_number   1
_chemical_formula_structural   TbHo2ZnGa7Ag3
_chemical_formula_sum   'Tb1 Ho2 Zn1 Ga7 Ag3'
_cell_volume   269.26320296
_cell_formula_units_Z   1
loop_
 _symmetry_equiv_pos_site_id
 _symmetry_equiv_pos_as_xyz
  1  'x, y, z'
loop_
 _atom_site_type_symbol
 _atom_site_label
 _atom_site_symmetry_multiplicity
 _atom_site_fract_x
 _atom_site_fract_y
 _atom_site_fract_z
 _atom_site_occupancy
  Tb  Tb0  1  0.498523  0.500424  0.502530  1
  Ho  Ho1  1  0.202082  0.796303  0.799531  1
  Ho  Ho2  1  0.799347  0.202789  0.198518  1
  Zn  Zn3  1  0.356571  0.365131  0.921727  1
  Ga  Ga4  1  0.643512  0.638408  0.074569  1
  Ga  Ga5  1  0.356284  0.926592  0.360840  1
  Ga  Ga6  1  0.642310  0.075138  0.640242  1
  Ga  Ga7  1  0.161424  0.470034  0.207118  1
  Ga  Ga8  1  0.842428  0.524829  0.790316  1
  Ga  Ga9  1  0.157703  0.211485  0.473108  1
  Ga  Ga10  1  0.841770  0.788032  0.528429  1
  Ag  Ag11  1  0.498775  0.001651  0.000799  1
  Ag  Ag12  1  0.000275  0.804565  0.194883  1
  Ag  Ag13  1  0.998996  0.194616  0.807393  1
