# generated using pymatgen
data_Mn8NbOs2W
_symmetry_space_group_name_H-M   'P 1'
_cell_length_a   4.69026600
_cell_length_b   4.69026470
_cell_length_c   7.76583600
_cell_angle_alpha   90.00000000
_cell_angle_beta   90.00000000
_cell_angle_gamma   120.00000920
_symmetry_Int_Tables_number   1
_chemical_formula_structural   Mn8NbOs2W
_chemical_formula_sum   'Mn8 Nb1 Os2 W1'
_cell_volume   147.94954461
_cell_formula_units_Z   1
loop_
 _symmetry_equiv_pos_site_id
 _symmetry_equiv_pos_as_xyz
  1  'x, y, z'
loop_
 _atom_site_type_symbol
 _atom_site_label
 _atom_site_symmetry_multiplicity
 _atom_site_fract_x
 _atom_site_fract_y
 _atom_site_fract_z
 _atom_site_occupancy
  Mn  Mn0  1  0.172998  0.345995  0.748306  1
  Mn  Mn1  1  0.825738  0.174262  0.252007  1
  Mn  Mn2  1  0.348525  0.174262  0.252007  1
  Mn  Mn3  1  0.654005  0.827002  0.748306  1
  Mn  Mn4  1  0.000000  0.000000  0.001168  1
  Mn  Mn5  1  0.000000  0.000000  0.499593  1
  Mn  Mn6  1  0.825738  0.651475  0.252007  1
  Mn  Mn7  1  0.172998  0.827002  0.748306  1
  Nb  Nb8  1  0.333333  0.666667  0.061403  1
  Os  Os9  1  0.666667  0.333333  0.923583  1
  Os  Os10  1  0.666667  0.333333  0.573097  1
  W  W11  1  0.333333  0.666667  0.440218  1
