# generated using pymatgen
data_Y4Er12MgNi4Ag3
_symmetry_space_group_name_H-M   'P 1'
_cell_length_a   9.41975307
_cell_length_b   9.42450464
_cell_length_c   9.42653600
_cell_angle_alpha   59.99286270
_cell_angle_beta   59.97617023
_cell_angle_gamma   60.04598560
_symmetry_Int_Tables_number   1
_chemical_formula_structural   Y4Er12MgNi4Ag3
_chemical_formula_sum   'Y4 Er12 Mg1 Ni4 Ag3'
_cell_volume   591.81248249
_cell_formula_units_Z   1
loop_
 _symmetry_equiv_pos_site_id
 _symmetry_equiv_pos_as_xyz
  1  'x, y, z'
loop_
 _atom_site_type_symbol
 _atom_site_label
 _atom_site_symmetry_multiplicity
 _atom_site_fract_x
 _atom_site_fract_y
 _atom_site_fract_z
 _atom_site_occupancy
  Y  Y0  1  0.185331  0.814158  0.814167  1
  Y  Y1  1  0.813553  0.186078  0.186106  1
  Y  Y2  1  0.813553  0.186078  0.814262  1
  Y  Y3  1  0.185331  0.814158  0.186345  1
  Er  Er4  1  0.812554  0.813233  0.187106  1
  Er  Er5  1  0.185839  0.188182  0.812990  1
  Er  Er6  1  0.598143  0.597757  0.597011  1
  Er  Er7  1  0.598143  0.597757  0.207090  1
  Er  Er8  1  0.597392  0.207175  0.597717  1
  Er  Er9  1  0.193925  0.601599  0.602238  1
  Er  Er10  1  0.059289  0.439818  0.439755  1
  Er  Er11  1  0.436549  0.063382  0.063346  1
  Er  Er12  1  0.436549  0.063382  0.436722  1
  Er  Er13  1  0.059289  0.439818  0.061139  1
  Er  Er14  1  0.436486  0.436732  0.063391  1
  Er  Er15  1  0.059371  0.061128  0.439751  1
  Mg  Mg16  1  0.538517  0.820588  0.820448  1
  Ni  Ni17  1  0.389284  0.394316  0.395113  1
  Ni  Ni18  1  0.389284  0.394316  0.821288  1
  Ni  Ni19  1  0.389917  0.821330  0.394376  1
  Ni  Ni20  1  0.821243  0.393205  0.392775  1
  Ag  Ag21  1  0.833126  0.833089  0.834177  1
  Ag  Ag22  1  0.833126  0.833089  0.499606  1
  Ag  Ag23  1  0.834205  0.499633  0.833081  1
