# generated using pymatgen
data_Hf5Th8Ta7Si16
_symmetry_space_group_name_H-M   'P 1'
_cell_length_a   7.26410882
_cell_length_b   7.26344594
_cell_length_c   13.48340091
_cell_angle_alpha   89.89665831
_cell_angle_beta   90.08113475
_cell_angle_gamma   89.99739397
_symmetry_Int_Tables_number   1
_chemical_formula_structural   Hf5Th8Ta7Si16
_chemical_formula_sum   'Hf5 Th8 Ta7 Si16'
_cell_volume   711.41555236
_cell_formula_units_Z   1
loop_
 _symmetry_equiv_pos_site_id
 _symmetry_equiv_pos_as_xyz
  1  'x, y, z'
loop_
 _atom_site_type_symbol
 _atom_site_label
 _atom_site_symmetry_multiplicity
 _atom_site_fract_x
 _atom_site_fract_y
 _atom_site_fract_z
 _atom_site_occupancy
  Hf  Hf0  1  0.156651  0.995915  0.374133  1
  Hf  Hf1  1  0.842885  0.003127  0.874425  1
  Hf  Hf2  1  0.504645  0.656071  0.623809  1
  Hf  Hf3  1  0.341072  0.494547  0.876264  1
  Hf  Hf4  1  0.495105  0.342471  0.124222  1
  Th  Th5  1  0.000505  0.338580  0.218363  1
  Th  Th6  1  0.999057  0.660711  0.716345  1
  Th  Th7  1  0.161085  0.501734  0.467334  1
  Th  Th8  1  0.501857  0.837826  0.034189  1
  Th  Th9  1  0.839694  0.498794  0.968100  1
  Th  Th10  1  0.498355  0.161830  0.531628  1
  Th  Th11  1  0.337050  0.998020  0.782755  1
  Th  Th12  1  0.662476  0.002151  0.282958  1
  Ta  Ta13  1  0.168442  0.165980  0.000441  1
  Ta  Ta14  1  0.830622  0.831559  0.498762  1
  Ta  Ta15  1  0.331915  0.670289  0.249741  1
  Ta  Ta16  1  0.671249  0.328355  0.747502  1
  Ta  Ta17  1  0.659588  0.507635  0.376416  1
  Ta  Ta18  1  0.990617  0.158512  0.625788  1
  Ta  Ta19  1  0.005330  0.841841  0.127463  1
  Si  Si20  1  0.288563  0.038201  0.183864  1
  Si  Si21  1  0.709673  0.961791  0.683331  1
  Si  Si22  1  0.461809  0.788844  0.433169  1
  Si  Si23  1  0.206450  0.545136  0.066568  1
  Si  Si24  1  0.541660  0.206516  0.933775  1
  Si  Si25  1  0.792610  0.456841  0.562921  1
  Si  Si26  1  0.039053  0.291524  0.812922  1
  Si  Si27  1  0.956653  0.707775  0.313769  1
  Si  Si28  1  0.376152  0.304864  0.316725  1
  Si  Si29  1  0.630003  0.698238  0.814765  1
  Si  Si30  1  0.195761  0.876300  0.566171  1
  Si  Si31  1  0.129008  0.799680  0.938326  1
  Si  Si32  1  0.804362  0.124845  0.066897  1
  Si  Si33  1  0.870976  0.205378  0.436311  1
  Si  Si34  1  0.293523  0.369235  0.683261  1
  Si  Si35  1  0.705543  0.628882  0.186589  1
