# generated using pymatgen
data_K8EuDy3F20
_symmetry_space_group_name_H-M   'P 1'
_cell_length_a   6.69517203
_cell_length_b   7.39329500
_cell_length_c   10.99369703
_cell_angle_alpha   90.00000000
_cell_angle_beta   89.99053936
_cell_angle_gamma   90.00000000
_symmetry_Int_Tables_number   1
_chemical_formula_structural   K8EuDy3F20
_chemical_formula_sum   'K8 Eu1 Dy3 F20'
_cell_volume   544.18120014
_cell_formula_units_Z   1
loop_
 _symmetry_equiv_pos_site_id
 _symmetry_equiv_pos_as_xyz
  1  'x, y, z'
loop_
 _atom_site_type_symbol
 _atom_site_label
 _atom_site_symmetry_multiplicity
 _atom_site_fract_x
 _atom_site_fract_y
 _atom_site_fract_z
 _atom_site_occupancy
  K  K0  1  0.529600  0.496669  0.828913  1
  K  K1  1  0.470362  0.500817  0.170801  1
  K  K2  1  0.027374  0.500544  0.672382  1
  K  K3  1  0.470362  0.999183  0.170801  1
  K  K4  1  0.970993  0.496401  0.327895  1
  K  K5  1  0.529600  0.003331  0.828913  1
  K  K6  1  0.970993  0.003599  0.327895  1
  K  K7  1  0.027374  0.999456  0.672382  1
  Eu  Eu8  1  0.561962  0.750000  0.501452  1
  Dy  Dy9  1  0.435676  0.250000  0.498256  1
  Dy  Dy10  1  0.062956  0.250000  0.998009  1
  Dy  Dy11  1  0.936696  0.750000  0.002118  1
  F  F12  1  0.837490  0.750000  0.809320  1
  F  F13  1  0.162022  0.250000  0.190471  1
  F  F14  1  0.335225  0.250000  0.691412  1
  F  F15  1  0.667094  0.750000  0.306185  1
  F  F16  1  0.368310  0.750000  0.668300  1
  F  F17  1  0.632137  0.250000  0.336265  1
  F  F18  1  0.867700  0.250000  0.836462  1
  F  F19  1  0.131864  0.750000  0.163936  1
  F  F20  1  0.901469  0.750000  0.512249  1
  F  F21  1  0.106254  0.250000  0.487304  1
  F  F22  1  0.391728  0.250000  0.986203  1
  F  F23  1  0.608138  0.750000  0.014153  1
  F  F24  1  0.644409  0.039078  0.579597  1
  F  F25  1  0.354427  0.972272  0.419172  1
  F  F26  1  0.143549  0.966430  0.923308  1
  F  F27  1  0.354427  0.527728  0.419172  1
  F  F28  1  0.855925  0.033747  0.076886  1
  F  F29  1  0.644409  0.460922  0.579597  1
  F  F30  1  0.855925  0.466253  0.076886  1
  F  F31  1  0.143549  0.533570  0.923308  1
