# generated using pymatgen
data_TbHf11Sc7Si16W
_symmetry_space_group_name_H-M   'P 1'
_cell_length_a   7.12773929
_cell_length_b   7.12457731
_cell_length_c   13.03112184
_cell_angle_alpha   89.94224171
_cell_angle_beta   89.92166869
_cell_angle_gamma   90.11632837
_symmetry_Int_Tables_number   1
_chemical_formula_structural   TbHf11Sc7Si16W
_chemical_formula_sum   'Tb1 Hf11 Sc7 Si16 W1'
_cell_volume   661.74579745
_cell_formula_units_Z   1
loop_
 _symmetry_equiv_pos_site_id
 _symmetry_equiv_pos_as_xyz
  1  'x, y, z'
loop_
 _atom_site_type_symbol
 _atom_site_label
 _atom_site_symmetry_multiplicity
 _atom_site_fract_x
 _atom_site_fract_y
 _atom_site_fract_z
 _atom_site_occupancy
  Tb  Tb0  1  0.657404  0.007949  0.282490  1
  Hf  Hf1  1  0.825635  0.824366  0.501148  1
  Hf  Hf2  1  0.323328  0.674461  0.248096  1
  Hf  Hf3  1  0.675280  0.324273  0.751666  1
  Hf  Hf4  1  0.146063  0.998229  0.373924  1
  Hf  Hf5  1  0.855927  0.003465  0.877455  1
  Hf  Hf6  1  0.502555  0.645147  0.626079  1
  Hf  Hf7  1  0.352386  0.495640  0.875829  1
  Hf  Hf8  1  0.493592  0.352444  0.122213  1
  Hf  Hf9  1  0.645659  0.502221  0.375580  1
  Hf  Hf10  1  0.999112  0.144646  0.627920  1
  Hf  Hf11  1  0.002841  0.853847  0.120581  1
  Sc  Sc12  1  0.999742  0.347094  0.211445  1
  Sc  Sc13  1  0.004414  0.654972  0.717395  1
  Sc  Sc14  1  0.155277  0.496628  0.465967  1
  Sc  Sc15  1  0.500311  0.845751  0.033413  1
  Sc  Sc16  1  0.847026  0.501107  0.965018  1
  Sc  Sc17  1  0.496097  0.154108  0.536118  1
  Sc  Sc18  1  0.345590  0.998618  0.787572  1
  Si  Si19  1  0.351641  0.299445  0.318152  1
  Si  Si20  1  0.644951  0.704248  0.821148  1
  Si  Si21  1  0.204247  0.855508  0.570559  1
  Si  Si22  1  0.146183  0.797952  0.929488  1
  Si  Si23  1  0.799540  0.147043  0.068217  1
  Si  Si24  1  0.861214  0.208799  0.434142  1
  Si  Si25  1  0.296205  0.354741  0.681263  1
  Si  Si26  1  0.705662  0.639694  0.177602  1
  Si  Si27  1  0.295412  0.051352  0.180074  1
  Si  Si28  1  0.696805  0.952253  0.686779  1
  Si  Si29  1  0.448167  0.799516  0.437029  1
  Si  Si30  1  0.195494  0.543965  0.062900  1
  Si  Si31  1  0.543569  0.195496  0.935763  1
  Si  Si32  1  0.803756  0.452121  0.566113  1
  Si  Si33  1  0.050053  0.300997  0.818068  1
  Si  Si34  1  0.953739  0.695676  0.313830  1
  W  W35  1  0.175122  0.176226  0.998962  1
