# generated using pymatgen
data_La3Nd5Si12(IrRh)2
_symmetry_space_group_name_H-M   'P 1'
_cell_length_a   8.28400900
_cell_length_b   8.28401164
_cell_length_c   8.50991700
_cell_angle_alpha   90.00000000
_cell_angle_beta   90.00000000
_cell_angle_gamma   119.99999345
_symmetry_Int_Tables_number   1
_chemical_formula_structural   La3Nd5Si12(IrRh)2
_chemical_formula_sum   'La3 Nd5 Si12 Ir2 Rh2'
_cell_volume   505.75157885
_cell_formula_units_Z   1
loop_
 _symmetry_equiv_pos_site_id
 _symmetry_equiv_pos_as_xyz
  1  'x, y, z'
loop_
 _atom_site_type_symbol
 _atom_site_label
 _atom_site_symmetry_multiplicity
 _atom_site_fract_x
 _atom_site_fract_y
 _atom_site_fract_z
 _atom_site_occupancy
  La  La0  1  0.498954  0.501046  0.750106  1
  La  La1  1  0.498954  0.997905  0.750106  1
  La  La2  1  0.002095  0.501046  0.750106  1
  Nd  Nd3  1  0.000000  0.000000  0.249099  1
  Nd  Nd4  1  0.000000  0.000000  0.751387  1
  Nd  Nd5  1  0.501321  0.498679  0.249696  1
  Nd  Nd6  1  0.501321  0.002641  0.249696  1
  Nd  Nd7  1  0.997359  0.498679  0.249696  1
  Si  Si8  1  0.166436  0.833564  0.496318  1
  Si  Si9  1  0.166436  0.332873  0.496318  1
  Si  Si10  1  0.667127  0.833564  0.496318  1
  Si  Si11  1  0.833628  0.166372  0.497271  1
  Si  Si12  1  0.833628  0.667256  0.497271  1
  Si  Si13  1  0.332744  0.166372  0.497271  1
  Si  Si14  1  0.834224  0.165776  0.003210  1
  Si  Si15  1  0.834224  0.668446  0.003210  1
  Si  Si16  1  0.331554  0.165776  0.003210  1
  Si  Si17  1  0.165874  0.834126  0.003193  1
  Si  Si18  1  0.165874  0.331749  0.003193  1
  Si  Si19  1  0.668251  0.834126  0.003193  1
  Ir  Ir20  1  0.333333  0.666667  0.492996  1
  Ir  Ir21  1  0.666667  0.333333  0.499655  1
  Rh  Rh22  1  0.666667  0.333333  0.999051  1
  Rh  Rh23  1  0.333333  0.666667  0.008432  1
