# generated using pymatgen
data_Tb3ThMgFe
_symmetry_space_group_name_H-M   'P 1'
_cell_length_a   9.63809292
_cell_length_b   9.63809332
_cell_length_c   9.63809300
_cell_angle_alpha   59.99999768
_cell_angle_beta   59.99999629
_cell_angle_gamma   59.99999694
_symmetry_Int_Tables_number   1
_chemical_formula_structural   Tb3ThMgFe
_chemical_formula_sum   'Tb12 Th4 Mg4 Fe4'
_cell_volume   633.07960262
_cell_formula_units_Z   4
loop_
 _symmetry_equiv_pos_site_id
 _symmetry_equiv_pos_as_xyz
  1  'x, y, z'
loop_
 _atom_site_type_symbol
 _atom_site_label
 _atom_site_symmetry_multiplicity
 _atom_site_fract_x
 _atom_site_fract_y
 _atom_site_fract_z
 _atom_site_occupancy
  Tb  Tb0  1  0.063047  0.436953  0.436953  1
  Tb  Tb1  1  0.436953  0.063047  0.063047  1
  Tb  Tb2  1  0.436953  0.063047  0.436953  1
  Tb  Tb3  1  0.063047  0.436953  0.063047  1
  Tb  Tb4  1  0.436953  0.436953  0.063047  1
  Tb  Tb5  1  0.063047  0.063047  0.436953  1
  Tb  Tb6  1  0.187488  0.812512  0.812512  1
  Tb  Tb7  1  0.812512  0.187488  0.187488  1
  Tb  Tb8  1  0.812512  0.187488  0.812512  1
  Tb  Tb9  1  0.187488  0.812512  0.187488  1
  Tb  Tb10  1  0.812512  0.812512  0.187488  1
  Tb  Tb11  1  0.187488  0.187488  0.812512  1
  Th  Th12  1  0.592730  0.592730  0.592730  1
  Th  Th13  1  0.592730  0.592730  0.221812  1
  Th  Th14  1  0.592730  0.221812  0.592730  1
  Th  Th15  1  0.221812  0.592730  0.592730  1
  Mg  Mg16  1  0.829504  0.829504  0.829504  1
  Mg  Mg17  1  0.829504  0.829504  0.511487  1
  Mg  Mg18  1  0.829504  0.511487  0.829504  1
  Mg  Mg19  1  0.511487  0.829504  0.829504  1
  Fe  Fe20  1  0.394400  0.394400  0.394400  1
  Fe  Fe21  1  0.394400  0.394400  0.816799  1
  Fe  Fe22  1  0.394400  0.816799  0.394400  1
  Fe  Fe23  1  0.816799  0.394400  0.394400  1
