# generated using pymatgen
data_TlCo2(TcO4)6
_symmetry_space_group_name_H-M   'P 1'
_cell_length_a   9.88975472
_cell_length_b   9.88975490
_cell_length_c   9.88975600
_cell_angle_alpha   56.79135940
_cell_angle_beta   56.79135871
_cell_angle_gamma   56.79135560
_symmetry_Int_Tables_number   1
_chemical_formula_structural   TlCo2(TcO4)6
_chemical_formula_sum   'Tl1 Co2 Tc6 O24'
_cell_volume   633.32209939
_cell_formula_units_Z   1
loop_
 _symmetry_equiv_pos_site_id
 _symmetry_equiv_pos_as_xyz
  1  'x, y, z'
loop_
 _atom_site_type_symbol
 _atom_site_label
 _atom_site_symmetry_multiplicity
 _atom_site_fract_x
 _atom_site_fract_y
 _atom_site_fract_z
 _atom_site_occupancy
  Tl  Tl0  1  0.857373  0.857373  0.857373  1
  Co  Co1  1  0.358863  0.358863  0.358863  1
  Co  Co2  1  0.642197  0.642197  0.642197  1
  Tc  Tc3  1  0.463393  0.733730  0.043252  1
  Tc  Tc4  1  0.733730  0.043252  0.463393  1
  Tc  Tc5  1  0.043252  0.463393  0.733730  1
  Tc  Tc6  1  0.961141  0.522263  0.273501  1
  Tc  Tc7  1  0.273501  0.961141  0.522263  1
  Tc  Tc8  1  0.522263  0.273501  0.961141  1
  O  O9  1  0.468869  0.340829  0.120108  1
  O  O10  1  0.120108  0.468869  0.340829  1
  O  O11  1  0.331132  0.945433  0.002015  1
  O  O12  1  0.340829  0.120108  0.468869  1
  O  O13  1  0.653013  0.707488  0.045420  1
  O  O14  1  0.357037  0.605180  0.244672  1
  O  O15  1  0.605180  0.244672  0.357037  1
  O  O16  1  0.945433  0.002015  0.331132  1
  O  O17  1  0.244672  0.357037  0.605180  1
  O  O18  1  0.006104  0.661642  0.056259  1
  O  O19  1  0.962172  0.338284  0.294619  1
  O  O20  1  0.294619  0.962172  0.338284  1
  O  O21  1  0.707488  0.045420  0.653013  1
  O  O22  1  0.045420  0.653013  0.707488  1
  O  O23  1  0.002015  0.331132  0.945433  1
  O  O24  1  0.758141  0.626327  0.401835  1
  O  O25  1  0.056259  0.006104  0.661642  1
  O  O26  1  0.401835  0.758141  0.626327  1
  O  O27  1  0.626327  0.401835  0.758141  1
  O  O28  1  0.338284  0.294619  0.962172  1
  O  O29  1  0.671493  0.878579  0.519997  1
  O  O30  1  0.661642  0.056259  0.006104  1
  O  O31  1  0.878579  0.519997  0.671493  1
  O  O32  1  0.519997  0.671493  0.878579  1
