# generated using pymatgen
data_Dy7Y(CoAg)2
_symmetry_space_group_name_H-M   'P 1'
_cell_length_a   9.41225649
_cell_length_b   9.41225719
_cell_length_c   9.41174900
_cell_angle_alpha   60.00178954
_cell_angle_beta   60.00178709
_cell_angle_gamma   59.99642777
_symmetry_Int_Tables_number   1
_chemical_formula_structural   Dy7Y(CoAg)2
_chemical_formula_sum   'Dy14 Y2 Co4 Ag4'
_cell_volume   589.58019951
_cell_formula_units_Z   2
loop_
 _symmetry_equiv_pos_site_id
 _symmetry_equiv_pos_as_xyz
  1  'x, y, z'
loop_
 _atom_site_type_symbol
 _atom_site_label
 _atom_site_symmetry_multiplicity
 _atom_site_fract_x
 _atom_site_fract_y
 _atom_site_fract_z
 _atom_site_occupancy
  Dy  Dy0  1  0.347702  0.347702  0.347898  1
  Dy  Dy1  1  0.347702  0.347702  0.956698  1
  Dy  Dy2  1  0.347898  0.956698  0.347702  1
  Dy  Dy3  1  0.956698  0.347898  0.347702  1
  Dy  Dy4  1  0.811855  0.188145  0.188145  1
  Dy  Dy5  1  0.188145  0.811855  0.811855  1
  Dy  Dy6  1  0.188145  0.811855  0.188145  1
  Dy  Dy7  1  0.811855  0.188145  0.811855  1
  Dy  Dy8  1  0.188099  0.188099  0.811901  1
  Dy  Dy9  1  0.811901  0.811901  0.188099  1
  Dy  Dy10  1  0.937518  0.562482  0.562482  1
  Dy  Dy11  1  0.562482  0.937518  0.937518  1
  Dy  Dy12  1  0.562482  0.937518  0.562482  1
  Dy  Dy13  1  0.937518  0.562482  0.937518  1
  Y  Y14  1  0.562788  0.562788  0.937212  1
  Y  Y15  1  0.937212  0.937212  0.562788  1
  Co  Co16  1  0.141241  0.141241  0.141159  1
  Co  Co17  1  0.141241  0.141241  0.576360  1
  Co  Co18  1  0.141159  0.576360  0.141241  1
  Co  Co19  1  0.576360  0.141159  0.141241  1
  Ag  Ag20  1  0.581143  0.581143  0.580877  1
  Ag  Ag21  1  0.581143  0.581143  0.256839  1
  Ag  Ag22  1  0.580877  0.256839  0.581143  1
  Ag  Ag23  1  0.256839  0.580877  0.581143  1
