# generated using pymatgen
data_HoCoP3Rh4
_symmetry_space_group_name_H-M   'P 1'
_cell_length_a   3.85042400
_cell_length_b   10.77782700
_cell_length_c   12.41359300
_cell_angle_alpha   90.00000000
_cell_angle_beta   90.00000000
_cell_angle_gamma   90.00000000
_symmetry_Int_Tables_number   1
_chemical_formula_structural   HoCoP3Rh4
_chemical_formula_sum   'Ho4 Co4 P12 Rh16'
_cell_volume   515.15422516
_cell_formula_units_Z   4
loop_
 _symmetry_equiv_pos_site_id
 _symmetry_equiv_pos_as_xyz
  1  'x, y, z'
loop_
 _atom_site_type_symbol
 _atom_site_label
 _atom_site_symmetry_multiplicity
 _atom_site_fract_x
 _atom_site_fract_y
 _atom_site_fract_z
 _atom_site_occupancy
  Ho  Ho0  1  0.250000  0.585071  0.707213  1
  Ho  Ho1  1  0.250000  0.914929  0.207213  1
  Ho  Ho2  1  0.750000  0.414929  0.292787  1
  Ho  Ho3  1  0.750000  0.085071  0.792787  1
  Co  Co4  1  0.250000  0.464303  0.933841  1
  Co  Co5  1  0.250000  0.035697  0.433841  1
  Co  Co6  1  0.750000  0.535697  0.066159  1
  Co  Co7  1  0.750000  0.964303  0.566159  1
  P  P8  1  0.250000  0.424091  0.106092  1
  P  P9  1  0.250000  0.075909  0.606092  1
  P  P10  1  0.750000  0.575909  0.893908  1
  P  P11  1  0.750000  0.924091  0.393908  1
  P  P12  1  0.250000  0.272144  0.872539  1
  P  P13  1  0.250000  0.227856  0.372539  1
  P  P14  1  0.750000  0.727856  0.127461  1
  P  P15  1  0.750000  0.772144  0.627461  1
  P  P16  1  0.250000  0.599444  0.388098  1
  P  P17  1  0.250000  0.900556  0.888098  1
  P  P18  1  0.750000  0.400556  0.611902  1
  P  P19  1  0.750000  0.099444  0.111902  1
  Rh  Rh20  1  0.250000  0.716629  0.988040  1
  Rh  Rh21  1  0.250000  0.783371  0.488040  1
  Rh  Rh22  1  0.750000  0.283371  0.011960  1
  Rh  Rh23  1  0.750000  0.216629  0.511960  1
  Rh  Rh24  1  0.250000  0.408324  0.479689  1
  Rh  Rh25  1  0.250000  0.091676  0.979689  1
  Rh  Rh26  1  0.750000  0.591676  0.520311  1
  Rh  Rh27  1  0.750000  0.908324  0.020311  1
  Rh  Rh28  1  0.250000  0.227935  0.178401  1
  Rh  Rh29  1  0.250000  0.272065  0.678401  1
  Rh  Rh30  1  0.750000  0.772065  0.821599  1
  Rh  Rh31  1  0.750000  0.727935  0.321599  1
  Rh  Rh32  1  0.250000  0.887255  0.699089  1
  Rh  Rh33  1  0.250000  0.612745  0.199089  1
  Rh  Rh34  1  0.750000  0.112745  0.300911  1
  Rh  Rh35  1  0.750000  0.387255  0.800911  1
