# generated using pymatgen
data_CsZn(AgTe2)4
_symmetry_space_group_name_H-M   'P 1'
_cell_length_a   12.15276680
_cell_length_b   12.15276679
_cell_length_c   10.79257200
_cell_angle_alpha   90.43658353
_cell_angle_beta   90.43658353
_cell_angle_gamma   14.63823031
_symmetry_Int_Tables_number   1
_chemical_formula_structural   CsZn(AgTe2)4
_chemical_formula_sum   'Cs1 Zn1 Ag4 Te8'
_cell_volume   402.80373505
_cell_formula_units_Z   1
loop_
 _symmetry_equiv_pos_site_id
 _symmetry_equiv_pos_as_xyz
  1  'x, y, z'
loop_
 _atom_site_type_symbol
 _atom_site_label
 _atom_site_symmetry_multiplicity
 _atom_site_fract_x
 _atom_site_fract_y
 _atom_site_fract_z
 _atom_site_occupancy
  Cs  Cs0  1  0.000000  0.000000  0.000000  1
  Zn  Zn1  1  0.500000  0.500000  0.500000  1
  Ag  Ag2  1  0.240484  0.240484  0.115548  1
  Ag  Ag3  1  0.839908  0.839908  0.464567  1
  Ag  Ag4  1  0.160092  0.160092  0.535433  1
  Ag  Ag5  1  0.759516  0.759516  0.884452  1
  Te  Te6  1  0.927606  0.927606  0.643225  1
  Te  Te7  1  0.072394  0.072394  0.356775  1
  Te  Te8  1  0.584590  0.584590  0.718031  1
  Te  Te9  1  0.415410  0.415410  0.281969  1
  Te  Te10  1  0.647322  0.647322  0.981188  1
  Te  Te11  1  0.352678  0.352678  0.018812  1
  Te  Te12  1  0.736660  0.736660  0.340489  1
  Te  Te13  1  0.263340  0.263340  0.659511  1
