# generated using pymatgen
data_LiFe4(NiP2)2
_symmetry_space_group_name_H-M   'P 1'
_cell_length_a   6.52951333
_cell_length_b   6.59116496
_cell_length_c   3.36526000
_cell_angle_alpha   90.00000000
_cell_angle_beta   90.00000000
_cell_angle_gamma   120.31284046
_symmetry_Int_Tables_number   1
_chemical_formula_structural   LiFe4(NiP2)2
_chemical_formula_sum   'Li1 Fe4 Ni2 P4'
_cell_volume   125.03008734
_cell_formula_units_Z   1
loop_
 _symmetry_equiv_pos_site_id
 _symmetry_equiv_pos_as_xyz
  1  'x, y, z'
loop_
 _atom_site_type_symbol
 _atom_site_label
 _atom_site_symmetry_multiplicity
 _atom_site_fract_x
 _atom_site_fract_y
 _atom_site_fract_z
 _atom_site_occupancy
  Li  Li0  1  0.334376  0.667189  0.000000  1
  Fe  Fe1  1  0.933692  0.466846  0.500000  1
  Fe  Fe2  1  0.867145  0.127784  0.000000  1
  Fe  Fe3  1  0.867145  0.739360  0.000000  1
  Fe  Fe4  1  0.264713  0.132357  0.000000  1
  Ni  Ni5  1  0.530508  0.469844  0.500000  1
  Ni  Ni6  1  0.530508  0.060665  0.500000  1
  P  P7  1  0.676015  0.338007  0.000000  1
  P  P8  1  0.714928  0.857464  0.500000  1
  P  P9  1  0.140485  0.290815  0.500000  1
  P  P10  1  0.140485  0.849670  0.500000  1
