# generated using pymatgen
data_Na4TmSi12Ir19
_symmetry_space_group_name_H-M   'P 1'
_cell_length_a   12.77327200
_cell_length_b   12.76749168
_cell_length_c   4.00141900
_cell_angle_alpha   90.00000000
_cell_angle_beta   90.00000000
_cell_angle_gamma   120.01497756
_symmetry_Int_Tables_number   1
_chemical_formula_structural   Na4TmSi12Ir19
_chemical_formula_sum   'Na4 Tm1 Si12 Ir19'
_cell_volume   565.04994943
_cell_formula_units_Z   1
loop_
 _symmetry_equiv_pos_site_id
 _symmetry_equiv_pos_as_xyz
  1  'x, y, z'
loop_
 _atom_site_type_symbol
 _atom_site_label
 _atom_site_symmetry_multiplicity
 _atom_site_fract_x
 _atom_site_fract_y
 _atom_site_fract_z
 _atom_site_occupancy
  Na  Na0  1  0.333351  0.667253  0.500000  1
  Na  Na1  1  0.666100  0.332747  0.500000  1
  Na  Na2  1  0.000574  0.816514  0.000000  1
  Na  Na3  1  0.184061  0.183486  0.000000  1
  Tm  Tm4  1  0.825388  0.000000  0.000000  1
  Si  Si5  1  0.999235  0.629062  0.500000  1
  Si  Si6  1  0.370174  0.370938  0.500000  1
  Si  Si7  1  0.630534  0.000000  0.500000  1
  Si  Si8  1  0.517608  0.686475  0.000000  1
  Si  Si9  1  0.311737  0.830841  0.000000  1
  Si  Si10  1  0.167260  0.480439  0.000000  1
  Si  Si11  1  0.480895  0.169159  0.000000  1
  Si  Si12  1  0.686821  0.519561  0.000000  1
  Si  Si13  1  0.831133  0.313525  0.000000  1
  Si  Si14  1  0.001036  0.182388  0.500000  1
  Si  Si15  1  0.818646  0.817612  0.500000  1
  Si  Si16  1  0.184581  0.000000  0.500000  1
  Ir  Ir17  1  0.513958  0.874173  0.000000  1
  Ir  Ir18  1  0.123750  0.638500  0.000000  1
  Ir  Ir19  1  0.359149  0.485884  0.000000  1
  Ir  Ir20  1  0.485252  0.361500  0.000000  1
  Ir  Ir21  1  0.873267  0.514116  0.000000  1
  Ir  Ir22  1  0.639785  0.125827  0.000000  1
  Ir  Ir23  1  0.996611  0.443238  0.500000  1
  Ir  Ir24  1  0.553373  0.556762  0.500000  1
  Ir  Ir25  1  0.446901  0.000000  0.500000  1
  Ir  Ir26  1  0.997369  0.281299  0.000000  1
  Ir  Ir27  1  0.716070  0.718701  0.000000  1
  Ir  Ir28  1  0.283237  0.000000  0.000000  1
  Ir  Ir29  1  0.625125  0.809609  0.500000  1
  Ir  Ir30  1  0.194730  0.814991  0.500000  1
  Ir  Ir31  1  0.183350  0.378313  0.500000  1
  Ir  Ir32  1  0.379739  0.185009  0.500000  1
  Ir  Ir33  1  0.805035  0.621687  0.500000  1
  Ir  Ir34  1  0.815515  0.190391  0.500000  1
  Ir  Ir35  1  0.998654  0.000000  0.500000  1
