# generated using pymatgen
data_Tb4ErTm3(B6Os)4
_symmetry_space_group_name_H-M   'P 1'
_cell_length_a   3.64060000
_cell_length_b   9.12326802
_cell_length_c   11.51652902
_cell_angle_alpha   90.00708926
_cell_angle_beta   90.00000000
_cell_angle_gamma   90.00000000
_symmetry_Int_Tables_number   1
_chemical_formula_structural   Tb4ErTm3(B6Os)4
_chemical_formula_sum   'Tb4 Er1 Tm3 B24 Os4'
_cell_volume   382.51194457
_cell_formula_units_Z   1
loop_
 _symmetry_equiv_pos_site_id
 _symmetry_equiv_pos_as_xyz
  1  'x, y, z'
loop_
 _atom_site_type_symbol
 _atom_site_label
 _atom_site_symmetry_multiplicity
 _atom_site_fract_x
 _atom_site_fract_y
 _atom_site_fract_z
 _atom_site_occupancy
  Tb  Tb0  1  0.000000  0.322005  0.413963  1
  Tb  Tb1  1  0.000000  0.678028  0.586174  1
  Tb  Tb2  1  0.000000  0.821865  0.086003  1
  Tb  Tb3  1  0.000000  0.178145  0.913898  1
  Er  Er4  1  0.000000  0.944210  0.372977  1
  Tm  Tm5  1  0.000000  0.055882  0.627204  1
  Tm  Tm6  1  0.000000  0.444194  0.126925  1
  Tm  Tm7  1  0.000000  0.555812  0.872993  1
  B  B8  1  0.500000  0.554265  0.432665  1
  B  B9  1  0.500000  0.445555  0.567399  1
  B  B10  1  0.500000  0.054462  0.067258  1
  B  B11  1  0.500000  0.945584  0.932625  1
  B  B12  1  0.500000  0.748681  0.419462  1
  B  B13  1  0.500000  0.251012  0.580617  1
  B  B14  1  0.500000  0.249137  0.080520  1
  B  B15  1  0.500000  0.750937  0.919430  1
  B  B16  1  0.500000  0.791285  0.266348  1
  B  B17  1  0.500000  0.208410  0.733569  1
  B  B18  1  0.500000  0.291787  0.233480  1
  B  B19  1  0.500000  0.708368  0.766478  1
  B  B20  1  0.500000  0.631056  0.184868  1
  B  B21  1  0.500000  0.368849  0.815067  1
  B  B22  1  0.500000  0.131490  0.314918  1
  B  B23  1  0.500000  0.868801  0.685007  1
  B  B24  1  0.500000  0.983367  0.213379  1
  B  B25  1  0.500000  0.016815  0.786373  1
  B  B26  1  0.500000  0.483075  0.286307  1
  B  B27  1  0.500000  0.516832  0.713664  1
  B  B28  1  0.500000  0.605121  0.028997  1
  B  B29  1  0.500000  0.394873  0.970955  1
  B  B30  1  0.500000  0.105674  0.471156  1
  B  B31  1  0.500000  0.894603  0.529399  1
  Os  Os32  1  0.000000  0.637479  0.320571  1
  Os  Os33  1  0.000000  0.362123  0.679483  1
  Os  Os34  1  0.000000  0.138192  0.179206  1
  Os  Os35  1  0.000000  0.862024  0.820663  1
