# generated using pymatgen
data_Sc8Ti9Nb3(SiGe)8
_symmetry_space_group_name_H-M   'P 1'
_cell_length_a   6.77469155
_cell_length_b   6.88669406
_cell_length_c   13.19971400
_cell_angle_alpha   90.00000000
_cell_angle_beta   90.00000000
_cell_angle_gamma   90.12074238
_symmetry_Int_Tables_number   1
_chemical_formula_structural   Sc8Ti9Nb3(SiGe)8
_chemical_formula_sum   'Sc8 Ti9 Nb3 Si8 Ge8'
_cell_volume   615.83429895
_cell_formula_units_Z   1
loop_
 _symmetry_equiv_pos_site_id
 _symmetry_equiv_pos_as_xyz
  1  'x, y, z'
loop_
 _atom_site_type_symbol
 _atom_site_label
 _atom_site_symmetry_multiplicity
 _atom_site_fract_x
 _atom_site_fract_y
 _atom_site_fract_z
 _atom_site_occupancy
  Sc  Sc0  1  0.496999  0.678014  0.598794  1
  Sc  Sc1  1  0.999919  0.824797  0.901103  1
  Sc  Sc2  1  0.502118  0.322663  0.099319  1
  Sc  Sc3  1  0.001511  0.176925  0.400191  1
  Sc  Sc4  1  0.502118  0.322663  0.400681  1
  Sc  Sc5  1  0.001511  0.176925  0.099809  1
  Sc  Sc6  1  0.496999  0.678014  0.901206  1
  Sc  Sc7  1  0.999919  0.824797  0.598897  1
  Ti  Ti8  1  0.656795  0.170765  0.629870  1
  Ti  Ti9  1  0.161486  0.327216  0.870660  1
  Ti  Ti10  1  0.340618  0.827496  0.128443  1
  Ti  Ti11  1  0.839855  0.671505  0.372286  1
  Ti  Ti12  1  0.340618  0.827496  0.371557  1
  Ti  Ti13  1  0.839855  0.671505  0.127714  1
  Ti  Ti14  1  0.656795  0.170765  0.870130  1
  Ti  Ti15  1  0.161486  0.327216  0.629340  1
  Ti  Ti16  1  0.834864  0.494032  0.750000  1
  Nb  Nb17  1  0.334103  0.007496  0.750000  1
  Nb  Nb18  1  0.166108  0.506390  0.250000  1
  Nb  Nb19  1  0.666112  0.993367  0.250000  1
  Si  Si20  1  0.459536  0.386137  0.750000  1
  Si  Si21  1  0.955635  0.117640  0.750000  1
  Si  Si22  1  0.543658  0.616059  0.250000  1
  Si  Si23  1  0.043152  0.883597  0.250000  1
  Si  Si24  1  0.702837  0.861386  0.750000  1
  Si  Si25  1  0.199228  0.633976  0.750000  1
  Si  Si26  1  0.298321  0.134551  0.250000  1
  Si  Si27  1  0.797965  0.365522  0.250000  1
  Ge  Ge28  1  0.678109  0.964114  0.461343  1
  Ge  Ge29  1  0.177773  0.535682  0.038847  1
  Ge  Ge30  1  0.321858  0.037208  0.961717  1
  Ge  Ge31  1  0.822200  0.463540  0.541205  1
  Ge  Ge32  1  0.321858  0.037208  0.538283  1
  Ge  Ge33  1  0.822200  0.463540  0.958795  1
  Ge  Ge34  1  0.678109  0.964114  0.038657  1
  Ge  Ge35  1  0.177773  0.535682  0.461153  1
