# generated using pymatgen
data_Ca2Fe2NiN3
_symmetry_space_group_name_H-M   'P 1'
_cell_length_a   6.25988856
_cell_length_b   6.25988964
_cell_length_c   6.08634986
_cell_angle_alpha   88.17185760
_cell_angle_beta   88.17185419
_cell_angle_gamma   117.65046506
_symmetry_Int_Tables_number   1
_chemical_formula_structural   Ca2Fe2NiN3
_chemical_formula_sum   'Ca4 Fe4 Ni2 N6'
_cell_volume   210.86145818
_cell_formula_units_Z   2
loop_
 _symmetry_equiv_pos_site_id
 _symmetry_equiv_pos_as_xyz
  1  'x, y, z'
loop_
 _atom_site_type_symbol
 _atom_site_label
 _atom_site_symmetry_multiplicity
 _atom_site_fract_x
 _atom_site_fract_y
 _atom_site_fract_z
 _atom_site_occupancy
  Ca  Ca0  1  0.826877  0.677903  0.897696  1
  Ca  Ca1  1  0.322097  0.173123  0.602304  1
  Ca  Ca2  1  0.173123  0.322097  0.102304  1
  Ca  Ca3  1  0.677903  0.826877  0.397696  1
  Fe  Fe4  1  0.566887  0.169363  0.102799  1
  Fe  Fe5  1  0.433113  0.830637  0.897201  1
  Fe  Fe6  1  0.830637  0.433113  0.397201  1
  Fe  Fe7  1  0.169363  0.566887  0.602799  1
  Ni  Ni8  1  0.811885  0.188115  0.750000  1
  Ni  Ni9  1  0.188115  0.811885  0.250000  1
  N  N10  1  0.422284  0.577716  0.750000  1
  N  N11  1  0.577716  0.422284  0.250000  1
  N  N12  1  0.004553  0.733985  0.513527  1
  N  N13  1  0.733985  0.004553  0.013527  1
  N  N14  1  0.995447  0.266015  0.486473  1
  N  N15  1  0.266015  0.995447  0.986473  1
