# generated using pymatgen
data_SmEr5Co16(TcP6)2
_symmetry_space_group_name_H-M   'P 1'
_cell_length_a   3.70495400
_cell_length_b   10.50912800
_cell_length_c   12.20389600
_cell_angle_alpha   90.00000000
_cell_angle_beta   90.00000000
_cell_angle_gamma   90.00000000
_symmetry_Int_Tables_number   1
_chemical_formula_structural   SmEr5Co16(TcP6)2
_chemical_formula_sum   'Sm1 Er5 Co16 Tc2 P12'
_cell_volume   475.16889102
_cell_formula_units_Z   1
loop_
 _symmetry_equiv_pos_site_id
 _symmetry_equiv_pos_as_xyz
  1  'x, y, z'
loop_
 _atom_site_type_symbol
 _atom_site_label
 _atom_site_symmetry_multiplicity
 _atom_site_fract_x
 _atom_site_fract_y
 _atom_site_fract_z
 _atom_site_occupancy
  Sm  Sm0  1  0.750000  0.250000  0.475279  1
  Er  Er1  1  0.250000  0.750000  0.524447  1
  Er  Er2  1  0.250000  0.931819  0.794092  1
  Er  Er3  1  0.250000  0.568181  0.794092  1
  Er  Er4  1  0.750000  0.067418  0.205255  1
  Er  Er5  1  0.750000  0.432582  0.205255  1
  Co  Co6  1  0.250000  0.250000  0.295479  1
  Co  Co7  1  0.750000  0.750000  0.702692  1
  Co  Co8  1  0.750000  0.250000  0.012899  1
  Co  Co9  1  0.250000  0.750000  0.986788  1
  Co  Co10  1  0.250000  0.418143  0.010312  1
  Co  Co11  1  0.250000  0.081857  0.010312  1
  Co  Co12  1  0.750000  0.582421  0.989682  1
  Co  Co13  1  0.750000  0.917579  0.989682  1
  Co  Co14  1  0.250000  0.455700  0.569449  1
  Co  Co15  1  0.250000  0.044300  0.569449  1
  Co  Co16  1  0.750000  0.548510  0.430828  1
  Co  Co17  1  0.750000  0.951490  0.430828  1
  Co  Co18  1  0.250000  0.870721  0.291898  1
  Co  Co19  1  0.250000  0.629279  0.291898  1
  Co  Co20  1  0.750000  0.128242  0.708826  1
  Co  Co21  1  0.750000  0.371758  0.708826  1
  Tc  Tc22  1  0.250000  0.250000  0.844603  1
  Tc  Tc23  1  0.750000  0.750000  0.156786  1
  P  P24  1  0.250000  0.250000  0.118710  1
  P  P25  1  0.750000  0.750000  0.880431  1
  P  P26  1  0.250000  0.250000  0.653314  1
  P  P27  1  0.750000  0.750000  0.349488  1
  P  P28  1  0.250000  0.440400  0.382481  1
  P  P29  1  0.250000  0.059600  0.382481  1
  P  P30  1  0.750000  0.562627  0.616475  1
  P  P31  1  0.750000  0.937373  0.616475  1
  P  P32  1  0.250000  0.903838  0.107566  1
  P  P33  1  0.250000  0.596162  0.107566  1
  P  P34  1  0.750000  0.095441  0.892677  1
  P  P35  1  0.750000  0.404559  0.892677  1
