# generated using pymatgen
data_Lu9Mg(Ni2Bi)2
_symmetry_space_group_name_H-M   'P 1'
_cell_length_a   8.66256898
_cell_length_b   8.66256902
_cell_length_c   8.66256926
_cell_angle_alpha   129.73714247
_cell_angle_beta   129.73714341
_cell_angle_gamma   73.82733880
_symmetry_Int_Tables_number   1
_chemical_formula_structural   Lu9Mg(Ni2Bi)2
_chemical_formula_sum   'Lu9 Mg1 Ni4 Bi2'
_cell_volume   374.97093439
_cell_formula_units_Z   1
loop_
 _symmetry_equiv_pos_site_id
 _symmetry_equiv_pos_as_xyz
  1  'x, y, z'
loop_
 _atom_site_type_symbol
 _atom_site_label
 _atom_site_symmetry_multiplicity
 _atom_site_fract_x
 _atom_site_fract_y
 _atom_site_fract_z
 _atom_site_occupancy
  Lu  Lu0  1  0.500000  0.500000  0.000000  1
  Lu  Lu1  1  0.797178  0.281422  0.824071  1
  Lu  Lu2  1  0.202822  0.718578  0.175929  1
  Lu  Lu3  1  0.457349  0.973107  0.175929  1
  Lu  Lu4  1  0.281422  0.457349  0.484243  1
  Lu  Lu5  1  0.026893  0.202822  0.484243  1
  Lu  Lu6  1  0.542651  0.026893  0.824071  1
  Lu  Lu7  1  0.718578  0.542651  0.515757  1
  Lu  Lu8  1  0.973107  0.797178  0.515757  1
  Mg  Mg9  1  0.000000  0.000000  0.000000  1
  Ni  Ni10  1  0.131855  0.627015  0.758871  1
  Ni  Ni11  1  0.868145  0.372985  0.241129  1
  Ni  Ni12  1  0.627015  0.868145  0.495161  1
  Ni  Ni13  1  0.372985  0.131855  0.504839  1
  Bi  Bi14  1  0.257685  0.257685  0.000000  1
  Bi  Bi15  1  0.742315  0.742315  0.000000  1
