# generated using pymatgen
data_Dy7Ho9(LuSn4)4
_symmetry_space_group_name_H-M   'P 1'
_cell_length_a   7.97129681
_cell_length_b   8.11484746
_cell_length_c   15.37613911
_cell_angle_alpha   89.99916176
_cell_angle_beta   90.17264197
_cell_angle_gamma   89.95087829
_symmetry_Int_Tables_number   1
_chemical_formula_structural   Dy7Ho9(LuSn4)4
_chemical_formula_sum   'Dy7 Ho9 Lu4 Sn16'
_cell_volume   994.61386410
_cell_formula_units_Z   1
loop_
 _symmetry_equiv_pos_site_id
 _symmetry_equiv_pos_as_xyz
  1  'x, y, z'
loop_
 _atom_site_type_symbol
 _atom_site_label
 _atom_site_symmetry_multiplicity
 _atom_site_fract_x
 _atom_site_fract_y
 _atom_site_fract_z
 _atom_site_occupancy
  Dy  Dy0  1  0.018702  0.179056  0.596399  1
  Dy  Dy1  1  0.481486  0.678922  0.404309  1
  Dy  Dy2  1  0.980288  0.820867  0.096042  1
  Dy  Dy3  1  0.480236  0.678180  0.096035  1
  Dy  Dy4  1  0.981350  0.821306  0.404318  1
  Dy  Dy5  1  0.517831  0.321692  0.595665  1
  Dy  Dy6  1  0.019572  0.178992  0.903654  1
  Ho  Ho7  1  0.364877  0.838202  0.876851  1
  Ho  Ho8  1  0.863435  0.662286  0.623508  1
  Ho  Ho9  1  0.635854  0.162278  0.376429  1
  Ho  Ho10  1  0.134386  0.338302  0.122832  1
  Ho  Ho11  1  0.634450  0.161696  0.122937  1
  Ho  Ho12  1  0.136002  0.337981  0.376683  1
  Ho  Ho13  1  0.364129  0.838291  0.623932  1
  Ho  Ho14  1  0.865895  0.661506  0.877050  1
  Ho  Ho15  1  0.521676  0.321283  0.903236  1
  Lu  Lu16  1  0.195966  0.503859  0.750282  1
  Lu  Lu17  1  0.695897  0.996165  0.750346  1
  Lu  Lu18  1  0.803991  0.495969  0.249721  1
  Lu  Lu19  1  0.304036  0.003947  0.249812  1
  Sn  Sn20  1  0.295154  0.038189  0.041888  1
  Sn  Sn21  1  0.796877  0.460735  0.458336  1
  Sn  Sn22  1  0.702671  0.961408  0.541862  1
  Sn  Sn23  1  0.206644  0.537042  0.957716  1
  Sn  Sn24  1  0.704282  0.961444  0.957971  1
  Sn  Sn25  1  0.202595  0.540032  0.541791  1
  Sn  Sn26  1  0.297044  0.039010  0.458420  1
  Sn  Sn27  1  0.794906  0.460541  0.041379  1
  Sn  Sn28  1  0.561143  0.617908  0.750388  1
  Sn  Sn29  1  0.060889  0.881878  0.750198  1
  Sn  Sn30  1  0.438696  0.382169  0.249607  1
  Sn  Sn31  1  0.938931  0.118102  0.249758  1
  Sn  Sn32  1  0.330260  0.151575  0.750402  1
  Sn  Sn33  1  0.828954  0.349112  0.749953  1
  Sn  Sn34  1  0.670411  0.849113  0.250108  1
  Sn  Sn35  1  0.170481  0.650962  0.250179  1
