# generated using pymatgen
data_Sr5PN5
_symmetry_space_group_name_H-M   'P 1'
_cell_length_a   7.48851026
_cell_length_b   7.48849920
_cell_length_c   8.89511085
_cell_angle_alpha   77.10140603
_cell_angle_beta   77.10172657
_cell_angle_gamma   96.25629777
_symmetry_Int_Tables_number   1
_chemical_formula_structural   Sr5PN5
_chemical_formula_sum   'Sr10 P2 N10'
_cell_volume   467.29538653
_cell_formula_units_Z   2
loop_
 _symmetry_equiv_pos_site_id
 _symmetry_equiv_pos_as_xyz
  1  'x, y, z'
loop_
 _atom_site_type_symbol
 _atom_site_label
 _atom_site_symmetry_multiplicity
 _atom_site_fract_x
 _atom_site_fract_y
 _atom_site_fract_z
 _atom_site_occupancy
  Sr  Sr0  1  0.403256  0.403256  0.368810  1
  Sr  Sr1  1  0.596744  0.596744  0.631190  1
  Sr  Sr2  1  0.670081  0.670082  0.004641  1
  Sr  Sr3  1  0.329919  0.329918  0.995359  1
  Sr  Sr4  1  0.928453  0.928454  0.194694  1
  Sr  Sr5  1  0.071547  0.071546  0.805306  1
  Sr  Sr6  1  0.549246  0.088742  0.764558  1
  Sr  Sr7  1  0.911259  0.450755  0.235442  1
  Sr  Sr8  1  0.450754  0.911258  0.235442  1
  Sr  Sr9  1  0.088741  0.549245  0.764558  1
  P  P10  1  0.757200  0.242800  0.000000  1
  P  P11  1  0.242800  0.757200  0.000000  1
  N  N12  1  0.663166  0.663164  0.325573  1
  N  N13  1  0.336834  0.336836  0.674427  1
  N  N14  1  0.723207  0.022147  0.985571  1
  N  N15  1  0.977853  0.276792  0.014430  1
  N  N16  1  0.276793  0.977853  0.014429  1
  N  N17  1  0.022147  0.723208  0.985570  1
  N  N18  1  0.391431  0.728222  0.838079  1
  N  N19  1  0.271779  0.608568  0.161920  1
  N  N20  1  0.608569  0.271778  0.161920  1
  N  N21  1  0.728221  0.391432  0.838079  1
