# generated using pymatgen
data_Ba4UVO8
_symmetry_space_group_name_H-M   'P 1'
_cell_length_a   7.41223387
_cell_length_b   7.41223244
_cell_length_c   5.97839600
_cell_angle_alpha   90.00000000
_cell_angle_beta   90.00000000
_cell_angle_gamma   132.34145969
_symmetry_Int_Tables_number   1
_chemical_formula_structural   Ba4UVO8
_chemical_formula_sum   'Ba4 U1 V1 O8'
_cell_volume   242.77939325
_cell_formula_units_Z   1
loop_
 _symmetry_equiv_pos_site_id
 _symmetry_equiv_pos_as_xyz
  1  'x, y, z'
loop_
 _atom_site_type_symbol
 _atom_site_label
 _atom_site_symmetry_multiplicity
 _atom_site_fract_x
 _atom_site_fract_y
 _atom_site_fract_z
 _atom_site_occupancy
  Ba  Ba0  1  0.649038  0.350962  0.000000  1
  Ba  Ba1  1  0.143492  0.856508  0.500000  1
  Ba  Ba2  1  0.856508  0.143492  0.500000  1
  Ba  Ba3  1  0.350962  0.649038  0.000000  1
  U  U4  1  0.500000  0.500000  0.500000  1
  V  V5  1  0.000000  0.000000  0.000000  1
  O  O6  1  0.846721  0.153279  0.000000  1
  O  O7  1  0.340173  0.659827  0.500000  1
  O  O8  1  0.659827  0.340173  0.500000  1
  O  O9  1  0.153279  0.846721  0.000000  1
  O  O10  1  0.753509  0.753509  0.752045  1
  O  O11  1  0.246491  0.246491  0.247955  1
  O  O12  1  0.246491  0.246491  0.752045  1
  O  O13  1  0.753509  0.753509  0.247955  1
