# generated using pymatgen
data_Tm10In8PtRh3
_symmetry_space_group_name_H-M   'P 1'
_cell_length_a   3.57755900
_cell_length_b   8.01413981
_cell_length_c   18.10919775
_cell_angle_alpha   90.05092862
_cell_angle_beta   90.00000000
_cell_angle_gamma   90.00000000
_symmetry_Int_Tables_number   1
_chemical_formula_structural   Tm10In8PtRh3
_chemical_formula_sum   'Tm10 In8 Pt1 Rh3'
_cell_volume   519.20965391
_cell_formula_units_Z   1
loop_
 _symmetry_equiv_pos_site_id
 _symmetry_equiv_pos_as_xyz
  1  'x, y, z'
loop_
 _atom_site_type_symbol
 _atom_site_label
 _atom_site_symmetry_multiplicity
 _atom_site_fract_x
 _atom_site_fract_y
 _atom_site_fract_z
 _atom_site_occupancy
  Tm  Tm0  1  0.000000  0.115608  0.412750  1
  Tm  Tm1  1  0.000000  0.883461  0.587489  1
  Tm  Tm2  1  0.000000  0.383835  0.912399  1
  Tm  Tm3  1  0.000000  0.617196  0.085920  1
  Tm  Tm4  1  0.000000  0.240441  0.221168  1
  Tm  Tm5  1  0.000000  0.755833  0.779151  1
  Tm  Tm6  1  0.000000  0.255972  0.721068  1
  Tm  Tm7  1  0.000000  0.747730  0.279490  1
  Tm  Tm8  1  0.000000  0.999812  0.000025  1
  Tm  Tm9  1  0.000000  0.500279  0.500010  1
  In  In10  1  0.500000  0.423233  0.351777  1
  In  In11  1  0.500000  0.573604  0.650056  1
  In  In12  1  0.500000  0.074707  0.850396  1
  In  In13  1  0.500000  0.927678  0.149050  1
  In  In14  1  0.500000  0.291775  0.065595  1
  In  In15  1  0.500000  0.706992  0.932731  1
  In  In16  1  0.500000  0.206791  0.567013  1
  In  In17  1  0.500000  0.793019  0.432707  1
  Pt  Pt18  1  0.500000  0.524434  0.196319  1
  Rh  Rh19  1  0.500000  0.024255  0.304368  1
  Rh  Rh20  1  0.500000  0.976978  0.695759  1
  Rh  Rh21  1  0.500000  0.476366  0.804761  1
