# generated using pymatgen
data_I13N
_symmetry_space_group_name_H-M   'P 1'
_cell_length_a   12.08430030
_cell_length_b   11.08871351
_cell_length_c   19.29924400
_cell_angle_alpha   127.47507222
_cell_angle_beta   77.58883022
_cell_angle_gamma   121.42451281
_symmetry_Int_Tables_number   1
_chemical_formula_structural   I13N
_chemical_formula_sum   'I26 N2'
_cell_volume   1731.24779569
_cell_formula_units_Z   2
loop_
 _symmetry_equiv_pos_site_id
 _symmetry_equiv_pos_as_xyz
  1  'x, y, z'
loop_
 _atom_site_type_symbol
 _atom_site_label
 _atom_site_symmetry_multiplicity
 _atom_site_fract_x
 _atom_site_fract_y
 _atom_site_fract_z
 _atom_site_occupancy
  I  I0  1  0.314773  0.648199  0.006948  1
  I  I1  1  0.685227  0.351801  0.993052  1
  I  I2  1  0.577055  0.704679  0.342986  1
  I  I3  1  0.422945  0.295321  0.657014  1
  I  I4  1  0.738148  0.699926  0.021920  1
  I  I5  1  0.261852  0.300074  0.978080  1
  I  I6  1  0.748289  0.001548  0.185926  1
  I  I7  1  0.251711  0.998452  0.814074  1
  I  I8  1  0.472807  0.119451  0.151008  1
  I  I9  1  0.527193  0.880549  0.848992  1
  I  I10  1  0.216501  0.656455  0.637847  1
  I  I11  1  0.783499  0.343545  0.362153  1
  I  I12  1  0.164927  0.864063  0.019568  1
  I  I13  1  0.835073  0.135937  0.980432  1
  I  I14  1  0.129762  0.101359  0.215980  1
  I  I15  1  0.870238  0.898641  0.784020  1
  I  I16  1  0.281469  0.971435  0.483898  1
  I  I17  1  0.718531  0.028565  0.516102  1
  I  I18  1  0.326975  0.501871  0.660351  1
  I  I19  1  0.673025  0.498129  0.339649  1
  I  I20  1  0.871589  0.363900  0.687799  1
  I  I21  1  0.128411  0.636100  0.312201  1
  I  I22  1  0.887408  0.677120  0.606688  1
  I  I23  1  0.112592  0.322880  0.393312  1
  I  I24  1  0.227877  0.666970  0.171456  1
  I  I25  1  0.772123  0.333030  0.828544  1
  N  N26  1  0.347598  0.883608  0.029710  1
  N  N27  1  0.652402  0.116392  0.970290  1
