# generated using pymatgen
data_Ti2CrFe(BiO5)2
_symmetry_space_group_name_H-M   'P 1'
_cell_length_a   5.97730600
_cell_length_b   7.75097253
_cell_length_c   8.65547260
_cell_angle_alpha   89.86076362
_cell_angle_beta   90.00000000
_cell_angle_gamma   90.00000000
_symmetry_Int_Tables_number   1
_chemical_formula_structural   Ti2CrFe(BiO5)2
_chemical_formula_sum   'Ti4 Cr2 Fe2 Bi4 O20'
_cell_volume   401.00629581
_cell_formula_units_Z   2
loop_
 _symmetry_equiv_pos_site_id
 _symmetry_equiv_pos_as_xyz
  1  'x, y, z'
loop_
 _atom_site_type_symbol
 _atom_site_label
 _atom_site_symmetry_multiplicity
 _atom_site_fract_x
 _atom_site_fract_y
 _atom_site_fract_z
 _atom_site_occupancy
  Ti  Ti0  1  0.500000  0.877871  0.143192  1
  Ti  Ti1  1  0.500000  0.623695  0.641874  1
  Ti  Ti2  1  0.500000  0.376305  0.358126  1
  Ti  Ti3  1  0.500000  0.122129  0.856808  1
  Cr  Cr4  1  0.749088  0.000000  0.500000  1
  Cr  Cr5  1  0.250912  0.000000  0.500000  1
  Fe  Fe6  1  0.750249  0.500000  0.000000  1
  Fe  Fe7  1  0.249751  0.500000  0.000000  1
  Bi  Bi8  1  0.000000  0.837869  0.835637  1
  Bi  Bi9  1  0.000000  0.334927  0.663518  1
  Bi  Bi10  1  0.000000  0.162131  0.164363  1
  Bi  Bi11  1  0.000000  0.665073  0.336482  1
  O  O12  1  0.500000  0.656873  0.080769  1
  O  O13  1  0.000000  0.158597  0.442743  1
  O  O14  1  0.257573  0.883086  0.293042  1
  O  O15  1  0.706802  0.000000  0.000000  1
  O  O16  1  0.740773  0.619352  0.792057  1
  O  O17  1  0.742427  0.116914  0.706958  1
  O  O18  1  0.500000  0.343127  0.919231  1
  O  O19  1  0.292945  0.500000  0.500000  1
  O  O20  1  0.000000  0.841403  0.557257  1
  O  O21  1  0.257573  0.116914  0.706958  1
  O  O22  1  0.000000  0.662544  0.057194  1
  O  O23  1  0.740773  0.380648  0.207943  1
  O  O24  1  0.742427  0.883086  0.293042  1
  O  O25  1  0.259227  0.619352  0.792057  1
  O  O26  1  0.293198  0.000000  0.000000  1
  O  O27  1  0.500000  0.844499  0.576616  1
  O  O28  1  0.500000  0.155501  0.423384  1
  O  O29  1  0.707055  0.500000  0.500000  1
  O  O30  1  0.259227  0.380648  0.207943  1
  O  O31  1  0.000000  0.337456  0.942806  1
