# generated using pymatgen
data_Sc8Tc3B24Pt
_symmetry_space_group_name_H-M   'P 1'
_cell_length_a   3.51807900
_cell_length_b   8.90956429
_cell_length_c   11.22430621
_cell_angle_alpha   90.06228782
_cell_angle_beta   90.00000000
_cell_angle_gamma   90.00000000
_symmetry_Int_Tables_number   1
_chemical_formula_structural   Sc8Tc3B24Pt
_chemical_formula_sum   'Sc8 Tc3 B24 Pt1'
_cell_volume   351.82063079
_cell_formula_units_Z   1
loop_
 _symmetry_equiv_pos_site_id
 _symmetry_equiv_pos_as_xyz
  1  'x, y, z'
loop_
 _atom_site_type_symbol
 _atom_site_label
 _atom_site_symmetry_multiplicity
 _atom_site_fract_x
 _atom_site_fract_y
 _atom_site_fract_z
 _atom_site_occupancy
  Sc  Sc0  1  0.500000  0.311269  0.416150  1
  Sc  Sc1  1  0.500000  0.682204  0.594365  1
  Sc  Sc2  1  0.500000  0.179317  0.911616  1
  Sc  Sc3  1  0.500000  0.826848  0.078629  1
  Sc  Sc4  1  0.500000  0.439547  0.125677  1
  Sc  Sc5  1  0.500000  0.555952  0.871382  1
  Sc  Sc6  1  0.500000  0.055638  0.628509  1
  Sc  Sc7  1  0.500000  0.948067  0.372265  1
  Tc  Tc8  1  0.500000  0.139286  0.180778  1
  Tc  Tc9  1  0.500000  0.860965  0.820360  1
  Tc  Tc10  1  0.500000  0.361325  0.678285  1
  B  B11  1  0.000000  0.099062  0.472612  1
  B  B12  1  0.000000  0.898649  0.527506  1
  B  B13  1  0.000000  0.400439  0.972688  1
  B  B14  1  0.000000  0.600668  0.027590  1
  B  B15  1  0.000000  0.130061  0.318258  1
  B  B16  1  0.000000  0.869899  0.682646  1
  B  B17  1  0.000000  0.370553  0.817152  1
  B  B18  1  0.000000  0.630711  0.178887  1
  B  B19  1  0.000000  0.053099  0.064968  1
  B  B20  1  0.000000  0.946871  0.934596  1
  B  B21  1  0.000000  0.446367  0.564692  1
  B  B22  1  0.000000  0.553750  0.437510  1
  B  B23  1  0.000000  0.478669  0.286741  1
  B  B24  1  0.000000  0.520946  0.712519  1
  B  B25  1  0.000000  0.020856  0.787173  1
  B  B26  1  0.000000  0.979578  0.212299  1
  B  B27  1  0.000000  0.252099  0.078630  1
  B  B28  1  0.000000  0.747531  0.921071  1
  B  B29  1  0.000000  0.246839  0.578977  1
  B  B30  1  0.000000  0.753780  0.424307  1
  B  B31  1  0.000000  0.294782  0.237153  1
  B  B32  1  0.000000  0.705218  0.764237  1
  B  B33  1  0.000000  0.205810  0.735959  1
  B  B34  1  0.000000  0.795111  0.262509  1
  Pt  Pt35  1  0.500000  0.638235  0.321306  1
