# generated using pymatgen
data_SrNb2F12
_symmetry_space_group_name_H-M   'P 1'
_cell_length_a   12.25634413
_cell_length_b   6.08725825
_cell_length_c   6.11679539
_cell_angle_alpha   57.28453858
_cell_angle_beta   57.13098772
_cell_angle_gamma   57.36110204
_symmetry_Int_Tables_number   1
_chemical_formula_structural   SrNb2F12
_chemical_formula_sum   'Sr1 Nb2 F12'
_cell_volume   302.32261017
_cell_formula_units_Z   1
loop_
 _symmetry_equiv_pos_site_id
 _symmetry_equiv_pos_as_xyz
  1  'x, y, z'
loop_
 _atom_site_type_symbol
 _atom_site_label
 _atom_site_symmetry_multiplicity
 _atom_site_fract_x
 _atom_site_fract_y
 _atom_site_fract_z
 _atom_site_occupancy
  Sr  Sr0  1  0.750000  0.500000  0.500000  1
  Nb  Nb1  1  0.016370  0.985163  0.991760  1
  Nb  Nb2  1  0.483630  0.014837  0.008240  1
  F  F3  1  0.162479  0.125299  0.771705  1
  F  F4  1  0.652918  0.127735  0.787189  1
  F  F5  1  0.057153  0.786055  0.320514  1
  F  F6  1  0.564782  0.780982  0.306273  1
  F  F7  1  0.109426  0.674990  0.880080  1
  F  F8  1  0.609194  0.691297  0.874573  1
  F  F9  1  0.442847  0.213945  0.679486  1
  F  F10  1  0.935218  0.219018  0.693727  1
  F  F11  1  0.337521  0.874701  0.228295  1
  F  F12  1  0.847082  0.872265  0.212811  1
  F  F13  1  0.390574  0.325010  0.119920  1
  F  F14  1  0.890806  0.308703  0.125427  1
