# generated using pymatgen
data_Yb2Er2Al22Si2Pt9
_symmetry_space_group_name_H-M   'P 1'
_cell_length_a   7.51361123
_cell_length_b   7.51397368
_cell_length_c   13.09033849
_cell_angle_alpha   84.55449275
_cell_angle_beta   100.87996957
_cell_angle_gamma   119.96794426
_symmetry_Int_Tables_number   1
_chemical_formula_structural   Yb2Er2Al22Si2Pt9
_chemical_formula_sum   'Yb2 Er2 Al22 Si2 Pt9'
_cell_volume   628.72744073
_cell_formula_units_Z   1
loop_
 _symmetry_equiv_pos_site_id
 _symmetry_equiv_pos_as_xyz
  1  'x, y, z'
loop_
 _atom_site_type_symbol
 _atom_site_label
 _atom_site_symmetry_multiplicity
 _atom_site_fract_x
 _atom_site_fract_y
 _atom_site_fract_z
 _atom_site_occupancy
  Yb  Yb0  1  0.736885  0.998238  0.192277  1
  Yb  Yb1  1  0.263115  0.001762  0.807723  1
  Er  Er2  1  0.062627  0.673298  0.192176  1
  Er  Er3  1  0.937373  0.326702  0.807824  1
  Al  Al4  1  0.981876  0.665609  0.943646  1
  Al  Al5  1  0.018124  0.334391  0.056354  1
  Al  Al6  1  0.398450  0.666411  0.816252  1
  Al  Al7  1  0.601550  0.333589  0.183748  1
  Al  Al8  1  0.884323  0.664323  0.670448  1
  Al  Al9  1  0.115677  0.335677  0.329552  1
  Al  Al10  1  0.610177  0.461538  0.816074  1
  Al  Al11  1  0.389823  0.538462  0.183926  1
  Al  Al12  1  0.231489  0.340240  0.669560  1
  Al  Al13  1  0.768511  0.659760  0.330440  1
  Al  Al14  1  0.854179  0.333322  0.559253  1
  Al  Al15  1  0.185439  0.999370  0.558329  1
  Al  Al16  1  0.814561  0.000630  0.441671  1
  Al  Al17  1  0.353358  0.000201  0.055176  1
  Al  Al18  1  0.646642  0.999799  0.944824  1
  Al  Al19  1  0.553249  0.994165  0.670208  1
  Al  Al20  1  0.446751  0.005835  0.329792  1
  Al  Al21  1  0.520880  0.667561  0.561473  1
  Al  Al22  1  0.479120  0.332439  0.438527  1
  Al  Al23  1  0.681523  0.665258  0.049269  1
  Al  Al24  1  0.318477  0.334742  0.950731  1
  Al  Al25  1  0.145821  0.666678  0.440747  1
  Si  Si26  1  0.802842  0.867787  0.817126  1
  Si  Si27  1  0.197158  0.132213  0.182874  1
  Pt  Pt28  1  0.328320  0.670562  0.999931  1
  Pt  Pt29  1  0.547181  0.326279  0.637517  1
  Pt  Pt30  1  0.452819  0.673721  0.362483  1
  Pt  Pt31  1  0.886468  0.005574  0.642231  1
  Pt  Pt32  1  0.113532  0.994426  0.357769  1
  Pt  Pt33  1  0.671680  0.329438  0.000069  1
  Pt  Pt34  1  0.205217  0.666900  0.638582  1
  Pt  Pt35  1  0.794783  0.333100  0.361418  1
  Pt  Pt36  1  0.000000  0.000000  0.000000  1
