# generated using pymatgen
data_LaPr4Nd3(CdPt)2
_symmetry_space_group_name_H-M   'P 1'
_cell_length_a   10.08457633
_cell_length_b   10.08457615
_cell_length_c   10.08686600
_cell_angle_alpha   59.99248848
_cell_angle_beta   59.99248906
_cell_angle_gamma   60.09689983
_symmetry_Int_Tables_number   1
_chemical_formula_structural   LaPr4Nd3(CdPt)2
_chemical_formula_sum   'La2 Pr8 Nd6 Cd4 Pt4'
_cell_volume   725.81210372
_cell_formula_units_Z   2
loop_
 _symmetry_equiv_pos_site_id
 _symmetry_equiv_pos_as_xyz
  1  'x, y, z'
loop_
 _atom_site_type_symbol
 _atom_site_label
 _atom_site_symmetry_multiplicity
 _atom_site_fract_x
 _atom_site_fract_y
 _atom_site_fract_z
 _atom_site_occupancy
  La  La0  1  0.349113  0.349113  0.350505  1
  La  La1  1  0.349113  0.349113  0.951270  1
  Pr  Pr2  1  0.191014  0.191014  0.808986  1
  Pr  Pr3  1  0.809312  0.809312  0.190688  1
  Pr  Pr4  1  0.937625  0.563061  0.564909  1
  Pr  Pr5  1  0.563061  0.937625  0.934407  1
  Pr  Pr6  1  0.563061  0.937625  0.564909  1
  Pr  Pr7  1  0.937625  0.563061  0.934407  1
  Pr  Pr8  1  0.563481  0.563481  0.936519  1
  Pr  Pr9  1  0.936821  0.936821  0.563179  1
  Nd  Nd10  1  0.351864  0.944454  0.351840  1
  Nd  Nd11  1  0.944454  0.351864  0.351840  1
  Nd  Nd12  1  0.810328  0.190879  0.190764  1
  Nd  Nd13  1  0.190879  0.810328  0.808028  1
  Nd  Nd14  1  0.190879  0.810328  0.190764  1
  Nd  Nd15  1  0.810328  0.190879  0.808028  1
  Cd  Cd16  1  0.581351  0.581351  0.579523  1
  Cd  Cd17  1  0.581351  0.581351  0.257773  1
  Cd  Cd18  1  0.582268  0.258030  0.579850  1
  Cd  Cd19  1  0.258030  0.582268  0.579850  1
  Pt  Pt20  1  0.141738  0.141738  0.146969  1
  Pt  Pt21  1  0.141738  0.141738  0.569555  1
  Pt  Pt22  1  0.143513  0.571052  0.142718  1
  Pt  Pt23  1  0.571052  0.143513  0.142718  1
