# generated using pymatgen
data_Ho10CdIn7Au4
_symmetry_space_group_name_H-M   'P 1'
_cell_length_a   3.66920500
_cell_length_b   8.17828995
_cell_length_c   18.34576613
_cell_angle_alpha   89.94482604
_cell_angle_beta   90.00000000
_cell_angle_gamma   90.00000000
_symmetry_Int_Tables_number   1
_chemical_formula_structural   Ho10CdIn7Au4
_chemical_formula_sum   'Ho10 Cd1 In7 Au4'
_cell_volume   550.51623589
_cell_formula_units_Z   1
loop_
 _symmetry_equiv_pos_site_id
 _symmetry_equiv_pos_as_xyz
  1  'x, y, z'
loop_
 _atom_site_type_symbol
 _atom_site_label
 _atom_site_symmetry_multiplicity
 _atom_site_fract_x
 _atom_site_fract_y
 _atom_site_fract_z
 _atom_site_occupancy
  Ho  Ho0  1  0.000000  0.500042  0.499691  1
  Ho  Ho1  1  0.000000  0.998626  0.999259  1
  Ho  Ho2  1  0.000000  0.737070  0.281885  1
  Ho  Ho3  1  0.000000  0.263226  0.717986  1
  Ho  Ho4  1  0.000000  0.761667  0.784308  1
  Ho  Ho5  1  0.000000  0.235986  0.217467  1
  Ho  Ho6  1  0.000000  0.618554  0.080487  1
  Ho  Ho7  1  0.000000  0.386138  0.919919  1
  Ho  Ho8  1  0.000000  0.881393  0.580073  1
  Ho  Ho9  1  0.000000  0.118507  0.420021  1
  Cd  Cd10  1  0.500000  0.711688  0.933198  1
  In  In11  1  0.500000  0.289806  0.066067  1
  In  In12  1  0.500000  0.788289  0.432958  1
  In  In13  1  0.500000  0.211483  0.566848  1
  In  In14  1  0.500000  0.580782  0.646342  1
  In  In15  1  0.500000  0.418756  0.353405  1
  In  In16  1  0.500000  0.918327  0.145612  1
  In  In17  1  0.500000  0.080393  0.853838  1
  Au  Au18  1  0.500000  0.526525  0.196989  1
  Au  Au19  1  0.500000  0.473734  0.803341  1
  Au  Au20  1  0.500000  0.972185  0.696922  1
  Au  Au21  1  0.500000  0.026821  0.303381  1
