# generated using pymatgen
data_Cs4AlGaS5
_symmetry_space_group_name_H-M   'P 1'
_cell_length_a   8.30125515
_cell_length_b   8.73067713
_cell_length_c   11.05921059
_cell_angle_alpha   78.57731577
_cell_angle_beta   86.58067716
_cell_angle_gamma   80.15237675
_symmetry_Int_Tables_number   1
_chemical_formula_structural   Cs4AlGaS5
_chemical_formula_sum   'Cs8 Al2 Ga2 S10'
_cell_volume   773.79547992
_cell_formula_units_Z   2
loop_
 _symmetry_equiv_pos_site_id
 _symmetry_equiv_pos_as_xyz
  1  'x, y, z'
loop_
 _atom_site_type_symbol
 _atom_site_label
 _atom_site_symmetry_multiplicity
 _atom_site_fract_x
 _atom_site_fract_y
 _atom_site_fract_z
 _atom_site_occupancy
  Cs  Cs0  1  0.060515  0.600930  0.754459  1
  Cs  Cs1  1  0.821396  0.915888  0.127415  1
  Cs  Cs2  1  0.939081  0.399290  0.244576  1
  Cs  Cs3  1  0.563739  0.718309  0.506974  1
  Cs  Cs4  1  0.437136  0.278773  0.491213  1
  Cs  Cs5  1  0.434306  0.319696  0.096030  1
  Cs  Cs6  1  0.560934  0.683411  0.901294  1
  Cs  Cs7  1  0.175731  0.084856  0.874340  1
  Al  Al8  1  0.904840  0.088000  0.594238  1
  Al  Al9  1  0.097158  0.911515  0.406606  1
  Ga  Ga10  1  0.290437  0.729797  0.213596  1
  Ga  Ga11  1  0.709865  0.270118  0.786859  1
  S  S12  1  0.860304  0.348051  0.600753  1
  S  S13  1  0.175274  0.972041  0.584301  1
  S  S14  1  0.443335  0.381425  0.770373  1
  S  S15  1  0.172900  0.688207  0.046175  1
  S  S16  1  0.824116  0.313217  0.955146  1
  S  S17  1  0.557056  0.618374  0.227194  1
  S  S18  1  0.140347  0.651555  0.399634  1
  S  S19  1  0.239028  0.004672  0.234636  1
  S  S20  1  0.765798  0.994520  0.767637  1
  S  S21  1  0.826705  0.027355  0.416547  1
