# generated using pymatgen
data_Dy5SiTc3P11Ir16
_symmetry_space_group_name_H-M   'P 1'
_cell_length_a   12.67858246
_cell_length_b   12.66876050
_cell_length_c   3.98058800
_cell_angle_alpha   90.00000000
_cell_angle_beta   90.00000000
_cell_angle_gamma   120.08065020
_symmetry_Int_Tables_number   1
_chemical_formula_structural   Dy5SiTc3P11Ir16
_chemical_formula_sum   'Dy5 Si1 Tc3 P11 Ir16'
_cell_volume   553.25986701
_cell_formula_units_Z   1
loop_
 _symmetry_equiv_pos_site_id
 _symmetry_equiv_pos_as_xyz
  1  'x, y, z'
loop_
 _atom_site_type_symbol
 _atom_site_label
 _atom_site_symmetry_multiplicity
 _atom_site_fract_x
 _atom_site_fract_y
 _atom_site_fract_z
 _atom_site_occupancy
  Dy  Dy0  1  0.333263  0.666697  0.500000  1
  Dy  Dy1  1  0.666660  0.333617  0.500000  1
  Dy  Dy2  1  0.999908  0.816327  0.000000  1
  Dy  Dy3  1  0.183751  0.183636  0.000000  1
  Dy  Dy4  1  0.815483  0.999582  0.000000  1
  Si  Si5  1  0.516205  0.683890  0.000000  1
  Tc  Tc6  1  0.000156  0.455244  0.500000  1
  Tc  Tc7  1  0.545613  0.546405  0.500000  1
  Tc  Tc8  1  0.455242  0.001581  0.500000  1
  P  P9  1  0.000042  0.638537  0.500000  1
  P  P10  1  0.361867  0.362877  0.500000  1
  P  P11  1  0.637398  0.998667  0.500000  1
  P  P12  1  0.315208  0.830321  0.000000  1
  P  P13  1  0.169855  0.484442  0.000000  1
  P  P14  1  0.484441  0.169745  0.000000  1
  P  P15  1  0.685151  0.515852  0.000000  1
  P  P16  1  0.830300  0.314887  0.000000  1
  P  P17  1  0.999184  0.176421  0.500000  1
  P  P18  1  0.822776  0.822734  0.500000  1
  P  P19  1  0.176666  0.999789  0.500000  1
  Ir  Ir20  1  0.510687  0.871590  0.000000  1
  Ir  Ir21  1  0.131396  0.641584  0.000000  1
  Ir  Ir22  1  0.354912  0.484721  0.000000  1
  Ir  Ir23  1  0.490128  0.358072  0.000000  1
  Ir  Ir24  1  0.868410  0.509586  0.000000  1
  Ir  Ir25  1  0.641987  0.133151  0.000000  1
  Ir  Ir26  1  0.999352  0.290570  0.000000  1
  Ir  Ir27  1  0.714484  0.711315  0.000000  1
  Ir  Ir28  1  0.290344  0.999874  0.000000  1
  Ir  Ir29  1  0.627376  0.806485  0.500000  1
  Ir  Ir30  1  0.194296  0.820823  0.500000  1
  Ir  Ir31  1  0.177317  0.371953  0.500000  1
  Ir  Ir32  1  0.373177  0.179152  0.500000  1
  Ir  Ir33  1  0.806232  0.625415  0.500000  1
  Ir  Ir34  1  0.820386  0.194108  0.500000  1
  Ir  Ir35  1  0.000343  0.000350  0.500000  1
