# generated using pymatgen
data_Sr5Eu(GaP2)4
_symmetry_space_group_name_H-M   'P 1'
_cell_length_a   8.35369906
_cell_length_b   8.35369928
_cell_length_c   6.67344462
_cell_angle_alpha   90.01731077
_cell_angle_beta   90.01731097
_cell_angle_gamma   75.88366917
_symmetry_Int_Tables_number   1
_chemical_formula_structural   Sr5Eu(GaP2)4
_chemical_formula_sum   'Sr5 Eu1 Ga4 P8'
_cell_volume   451.63855507
_cell_formula_units_Z   1
loop_
 _symmetry_equiv_pos_site_id
 _symmetry_equiv_pos_as_xyz
  1  'x, y, z'
loop_
 _atom_site_type_symbol
 _atom_site_label
 _atom_site_symmetry_multiplicity
 _atom_site_fract_x
 _atom_site_fract_y
 _atom_site_fract_z
 _atom_site_occupancy
  Sr  Sr0  1  0.750816  0.494845  0.035773  1
  Sr  Sr1  1  0.505155  0.249184  0.464227  1
  Sr  Sr2  1  0.249217  0.505116  0.963759  1
  Sr  Sr3  1  0.494884  0.750783  0.536241  1
  Sr  Sr4  1  0.099651  0.900349  0.250000  1
  Eu  Eu5  1  0.900345  0.099655  0.750000  1
  Ga  Ga6  1  0.081256  0.323698  0.414154  1
  Ga  Ga7  1  0.676302  0.918744  0.085846  1
  Ga  Ga8  1  0.917894  0.675414  0.585327  1
  Ga  Ga9  1  0.324586  0.082106  0.914673  1
  P  P10  1  0.205255  0.556777  0.475939  1
  P  P11  1  0.443223  0.794745  0.024061  1
  P  P12  1  0.794426  0.440233  0.525816  1
  P  P13  1  0.559767  0.205574  0.974184  1
  P  P14  1  0.072706  0.239530  0.069095  1
  P  P15  1  0.760470  0.927294  0.430905  1
  P  P16  1  0.926587  0.762539  0.926284  1
  P  P17  1  0.237461  0.073413  0.573716  1
