# generated using pymatgen
data_CsHo5Er5(C2I9)2
_symmetry_space_group_name_H-M   'P 1'
_cell_length_a   11.45164182
_cell_length_b   11.45489158
_cell_length_c   11.45093303
_cell_angle_alpha   113.20016322
_cell_angle_beta   86.66379970
_cell_angle_gamma   120.13673720
_symmetry_Int_Tables_number   1
_chemical_formula_structural   CsHo5Er5(C2I9)2
_chemical_formula_sum   'Cs1 Ho5 Er5 C4 I18'
_cell_volume   1175.45811597
_cell_formula_units_Z   1
loop_
 _symmetry_equiv_pos_site_id
 _symmetry_equiv_pos_as_xyz
  1  'x, y, z'
loop_
 _atom_site_type_symbol
 _atom_site_label
 _atom_site_symmetry_multiplicity
 _atom_site_fract_x
 _atom_site_fract_y
 _atom_site_fract_z
 _atom_site_occupancy
  Cs  Cs0  1  0.499852  0.998843  0.499400  1
  Ho  Ho1  1  0.103335  0.945358  0.000715  1
  Ho  Ho2  1  0.036150  0.963089  0.677159  1
  Ho  Ho3  1  0.318157  0.273255  0.285961  1
  Ho  Ho4  1  0.723960  0.648748  0.985086  1
  Ho  Ho5  1  0.896675  0.054936  0.999433  1
  Er  Er6  1  0.682683  0.727113  0.714660  1
  Er  Er7  1  0.275210  0.350379  0.015199  1
  Er  Er8  1  0.093192  0.385933  0.288811  1
  Er  Er9  1  0.964155  0.037371  0.322076  1
  Er  Er10  1  0.906902  0.614204  0.711345  1
  C  C11  1  0.150840  0.218542  0.119049  1
  C  C12  1  0.848712  0.781293  0.880712  1
  C  C13  1  0.925350  0.858092  0.803957  1
  C  C14  1  0.074226  0.141761  0.195752  1
  I  I15  1  0.451498  0.530901  0.832204  1
  I  I16  1  0.381755  0.040689  0.157315  1
  I  I17  1  0.779047  0.855297  0.502267  1
  I  I18  1  0.840156  0.309056  0.153614  1
  I  I19  1  0.547624  0.469123  0.167094  1
  I  I20  1  0.219758  0.144387  0.497394  1
  I  I21  1  0.317366  0.098299  0.830032  1
  I  I22  1  0.683656  0.903347  0.171415  1
  I  I23  1  0.973521  0.757037  0.170836  1
  I  I24  1  0.934814  0.296418  0.499072  1
  I  I25  1  0.027607  0.244823  0.830774  1
  I  I26  1  0.065327  0.702257  0.500338  1
  I  I27  1  0.259500  0.617926  0.181224  1
  I  I28  1  0.740863  0.381037  0.817812  1
  I  I29  1  0.645518  0.439667  0.504535  1
  I  I30  1  0.159712  0.690959  0.846347  1
  I  I31  1  0.618480  0.958095  0.842089  1
  I  I32  1  0.354400  0.561763  0.496326  1
