# generated using pymatgen
data_Y2Tm3LuRh18
_symmetry_space_group_name_H-M   'P 1'
_cell_length_a   5.24924400
_cell_length_b   5.24924467
_cell_length_c   17.49610900
_cell_angle_alpha   90.00000000
_cell_angle_beta   90.00000000
_cell_angle_gamma   119.99998321
_symmetry_Int_Tables_number   1
_chemical_formula_structural   Y2Tm3LuRh18
_chemical_formula_sum   'Y2 Tm3 Lu1 Rh18'
_cell_volume   417.50891841
_cell_formula_units_Z   1
loop_
 _symmetry_equiv_pos_site_id
 _symmetry_equiv_pos_as_xyz
  1  'x, y, z'
loop_
 _atom_site_type_symbol
 _atom_site_label
 _atom_site_symmetry_multiplicity
 _atom_site_fract_x
 _atom_site_fract_y
 _atom_site_fract_z
 _atom_site_occupancy
  Y  Y0  1  0.333333  0.666667  0.749935  1
  Y  Y1  1  0.666667  0.333333  0.250007  1
  Tm  Tm2  1  0.333333  0.666667  0.958751  1
  Tm  Tm3  1  0.666667  0.333333  0.041249  1
  Tm  Tm4  1  0.666667  0.333333  0.458850  1
  Lu  Lu5  1  0.333333  0.666667  0.541317  1
  Rh  Rh6  1  0.167628  0.832372  0.375443  1
  Rh  Rh7  1  0.167628  0.335257  0.375443  1
  Rh  Rh8  1  0.664743  0.832372  0.375443  1
  Rh  Rh9  1  0.832403  0.167597  0.624474  1
  Rh  Rh10  1  0.832403  0.664805  0.624474  1
  Rh  Rh11  1  0.335195  0.167597  0.624474  1
  Rh  Rh12  1  0.832422  0.167578  0.875382  1
  Rh  Rh13  1  0.832422  0.664843  0.875382  1
  Rh  Rh14  1  0.335157  0.167578  0.875382  1
  Rh  Rh15  1  0.167579  0.832421  0.124616  1
  Rh  Rh16  1  0.167579  0.335158  0.124616  1
  Rh  Rh17  1  0.664842  0.832421  0.124616  1
  Rh  Rh18  1  0.333333  0.666667  0.249999  1
  Rh  Rh19  1  0.666667  0.333333  0.750009  1
  Rh  Rh20  1  0.000000  0.000000  0.250043  1
  Rh  Rh21  1  0.000000  0.000000  0.750014  1
  Rh  Rh22  1  0.000000  0.000000  0.500087  1
  Rh  Rh23  1  0.000000  0.000000  0.999997  1
