# generated using pymatgen
data_Dy3ErB16(OsRh)2
_symmetry_space_group_name_H-M   'P 1'
_cell_length_a   3.56815500
_cell_length_b   5.96091462
_cell_length_c   11.54792272
_cell_angle_alpha   89.96655570
_cell_angle_beta   90.00000000
_cell_angle_gamma   90.00000000
_symmetry_Int_Tables_number   1
_chemical_formula_structural   Dy3ErB16(OsRh)2
_chemical_formula_sum   'Dy3 Er1 B16 Os2 Rh2'
_cell_volume   245.61812276
_cell_formula_units_Z   1
loop_
 _symmetry_equiv_pos_site_id
 _symmetry_equiv_pos_as_xyz
  1  'x, y, z'
loop_
 _atom_site_type_symbol
 _atom_site_label
 _atom_site_symmetry_multiplicity
 _atom_site_fract_x
 _atom_site_fract_y
 _atom_site_fract_z
 _atom_site_occupancy
  Dy  Dy0  1  0.000000  0.370274  0.649058  1
  Dy  Dy1  1  0.000000  0.129388  0.149323  1
  Dy  Dy2  1  0.000000  0.870601  0.850742  1
  Er  Er3  1  0.000000  0.629702  0.350975  1
  B  B4  1  0.500000  0.787862  0.187769  1
  B  B5  1  0.500000  0.211987  0.812598  1
  B  B6  1  0.500000  0.289703  0.313416  1
  B  B7  1  0.500000  0.711110  0.686556  1
  B  B8  1  0.500000  0.862839  0.029728  1
  B  B9  1  0.500000  0.137083  0.970353  1
  B  B10  1  0.500000  0.363873  0.469695  1
  B  B11  1  0.500000  0.636299  0.529760  1
  B  B12  1  0.500000  0.887163  0.453150  1
  B  B13  1  0.500000  0.112093  0.546371  1
  B  B14  1  0.500000  0.387822  0.047409  1
  B  B15  1  0.500000  0.612283  0.952732  1
  B  B16  1  0.500000  0.973605  0.308276  1
  B  B17  1  0.500000  0.025764  0.691658  1
  B  B18  1  0.500000  0.478545  0.193744  1
  B  B19  1  0.500000  0.521727  0.806687  1
  Os  Os20  1  0.000000  0.142405  0.406938  1
  Os  Os21  1  0.000000  0.857798  0.592567  1
  Rh  Rh22  1  0.000000  0.641055  0.095396  1
  Rh  Rh23  1  0.000000  0.359021  0.905096  1
