# generated using pymatgen
data_Ho10Tl7InRuPt3
_symmetry_space_group_name_H-M   'P 1'
_cell_length_a   3.59319500
_cell_length_b   8.23511520
_cell_length_c   18.45565155
_cell_angle_alpha   89.97245054
_cell_angle_beta   90.00000000
_cell_angle_gamma   90.00000000
_symmetry_Int_Tables_number   1
_chemical_formula_structural   Ho10Tl7InRuPt3
_chemical_formula_sum   'Ho10 Tl7 In1 Ru1 Pt3'
_cell_volume   546.10958294
_cell_formula_units_Z   1
loop_
 _symmetry_equiv_pos_site_id
 _symmetry_equiv_pos_as_xyz
  1  'x, y, z'
loop_
 _atom_site_type_symbol
 _atom_site_label
 _atom_site_symmetry_multiplicity
 _atom_site_fract_x
 _atom_site_fract_y
 _atom_site_fract_z
 _atom_site_occupancy
  Ho  Ho0  1  0.000000  0.114619  0.411471  1
  Ho  Ho1  1  0.000000  0.884680  0.585984  1
  Ho  Ho2  1  0.000000  0.385597  0.913210  1
  Ho  Ho3  1  0.000000  0.616266  0.088757  1
  Ho  Ho4  1  0.000000  0.235180  0.222759  1
  Ho  Ho5  1  0.000000  0.757144  0.778802  1
  Ho  Ho6  1  0.000000  0.256778  0.721340  1
  Ho  Ho7  1  0.000000  0.749737  0.278471  1
  Ho  Ho8  1  0.000000  0.999805  0.000602  1
  Ho  Ho9  1  0.000000  0.502767  0.498900  1
  Tl  Tl10  1  0.500000  0.422166  0.352527  1
  Tl  Tl11  1  0.500000  0.577553  0.646808  1
  Tl  Tl12  1  0.500000  0.077291  0.853182  1
  Tl  Tl13  1  0.500000  0.928626  0.149360  1
  Tl  Tl14  1  0.500000  0.292951  0.064478  1
  Tl  Tl15  1  0.500000  0.707935  0.935638  1
  Tl  Tl16  1  0.500000  0.208418  0.564665  1
  In  In17  1  0.500000  0.796179  0.430757  1
  Ru  Ru18  1  0.500000  0.015885  0.305400  1
  Pt  Pt19  1  0.500000  0.974697  0.696429  1
  Pt  Pt20  1  0.500000  0.474665  0.803445  1
  Pt  Pt21  1  0.500000  0.521060  0.197014  1
