# generated using pymatgen
data_Er5(Si7Os2)2
_symmetry_space_group_name_H-M   'P 1'
_cell_length_a   8.02054700
_cell_length_b   7.94167831
_cell_length_c   12.64773400
_cell_angle_alpha   81.16019767
_cell_angle_beta   90.00000000
_cell_angle_gamma   90.00000000
_symmetry_Int_Tables_number   1
_chemical_formula_structural   Er5(Si7Os2)2
_chemical_formula_sum   'Er10 Si28 Os8'
_cell_volume   796.04847178
_cell_formula_units_Z   2
loop_
 _symmetry_equiv_pos_site_id
 _symmetry_equiv_pos_as_xyz
  1  'x, y, z'
loop_
 _atom_site_type_symbol
 _atom_site_label
 _atom_site_symmetry_multiplicity
 _atom_site_fract_x
 _atom_site_fract_y
 _atom_site_fract_z
 _atom_site_occupancy
  Er  Er0  1  0.000000  0.000000  0.500000  1
  Er  Er1  1  0.500000  0.500000  0.500000  1
  Er  Er2  1  0.253447  0.158607  0.864428  1
  Er  Er3  1  0.753447  0.341393  0.135572  1
  Er  Er4  1  0.746553  0.841393  0.135572  1
  Er  Er5  1  0.246553  0.658607  0.864428  1
  Er  Er6  1  0.248349  0.838673  0.133305  1
  Er  Er7  1  0.748349  0.661327  0.866695  1
  Er  Er8  1  0.751651  0.161327  0.866695  1
  Er  Er9  1  0.251651  0.338673  0.133305  1
  Si  Si10  1  0.668003  0.834006  0.499685  1
  Si  Si11  1  0.168003  0.665994  0.500315  1
  Si  Si12  1  0.331997  0.165994  0.500315  1
  Si  Si13  1  0.831997  0.334006  0.499685  1
  Si  Si14  1  0.501239  0.889596  0.944329  1
  Si  Si15  1  0.001239  0.610404  0.055671  1
  Si  Si16  1  0.498761  0.110404  0.055671  1
  Si  Si17  1  0.998761  0.389596  0.944329  1
  Si  Si18  1  0.992367  0.763654  0.319241  1
  Si  Si19  1  0.492367  0.736346  0.680759  1
  Si  Si20  1  0.007633  0.236346  0.680759  1
  Si  Si21  1  0.507633  0.263654  0.319241  1
  Si  Si22  1  0.995218  0.675941  0.680856  1
  Si  Si23  1  0.495218  0.824059  0.319144  1
  Si  Si24  1  0.004782  0.324059  0.319144  1
  Si  Si25  1  0.504782  0.175941  0.680856  1
  Si  Si26  1  0.279092  0.948821  0.680446  1
  Si  Si27  1  0.779092  0.551179  0.319554  1
  Si  Si28  1  0.720908  0.051179  0.319554  1
  Si  Si29  1  0.220908  0.448821  0.680446  1
  Si  Si30  1  0.720247  0.960278  0.680884  1
  Si  Si31  1  0.220247  0.539722  0.319116  1
  Si  Si32  1  0.279753  0.039722  0.319116  1
  Si  Si33  1  0.779753  0.460278  0.680884  1
  Si  Si34  1  0.000478  0.893135  0.942587  1
  Si  Si35  1  0.500478  0.606865  0.057413  1
  Si  Si36  1  0.999522  0.106865  0.057413  1
  Si  Si37  1  0.499522  0.393135  0.942587  1
  Os  Os38  1  0.373560  0.871029  0.498592  1
  Os  Os39  1  0.873560  0.628971  0.501408  1
  Os  Os40  1  0.626440  0.128971  0.501408  1
  Os  Os41  1  0.126440  0.371029  0.498592  1
  Os  Os42  1  0.998792  0.937334  0.754186  1
  Os  Os43  1  0.498792  0.562666  0.245814  1
  Os  Os44  1  0.001208  0.062666  0.245814  1
  Os  Os45  1  0.501208  0.437334  0.754186  1
