# generated using pymatgen
data_CaFe4(As5O11)2
_symmetry_space_group_name_H-M   'P 1'
_cell_length_a   10.57744354
_cell_length_b   10.27360494
_cell_length_c   12.38074400
_cell_angle_alpha   65.37013389
_cell_angle_beta   97.26013759
_cell_angle_gamma   99.47307339
_symmetry_Int_Tables_number   1
_chemical_formula_structural   CaFe4(As5O11)2
_chemical_formula_sum   'Ca2 Fe8 As20 O44'
_cell_volume   1203.80554223
_cell_formula_units_Z   2
loop_
 _symmetry_equiv_pos_site_id
 _symmetry_equiv_pos_as_xyz
  1  'x, y, z'
loop_
 _atom_site_type_symbol
 _atom_site_label
 _atom_site_symmetry_multiplicity
 _atom_site_fract_x
 _atom_site_fract_y
 _atom_site_fract_z
 _atom_site_occupancy
  Ca  Ca0  1  0.751806  0.981804  0.518374  1
  Ca  Ca1  1  0.248194  0.018196  0.481626  1
  Fe  Fe2  1  0.512801  0.216905  0.261889  1
  Fe  Fe3  1  0.487199  0.783095  0.738111  1
  Fe  Fe4  1  0.750225  0.664864  0.839076  1
  Fe  Fe5  1  0.249775  0.335136  0.160924  1
  Fe  Fe6  1  0.983071  0.240969  0.272280  1
  Fe  Fe7  1  0.016929  0.759031  0.727720  1
  Fe  Fe8  1  0.748232  0.397611  0.096913  1
  Fe  Fe9  1  0.251768  0.602389  0.903087  1
  As  As10  1  0.839600  0.468429  0.694645  1
  As  As11  1  0.160400  0.531571  0.305355  1
  As  As12  1  0.764831  0.352998  0.384378  1
  As  As13  1  0.235169  0.647002  0.615622  1
  As  As14  1  0.565214  0.591841  0.607039  1
  As  As15  1  0.434786  0.408159  0.392961  1
  As  As16  1  0.509147  0.595494  0.117367  1
  As  As17  1  0.490853  0.404506  0.882633  1
  As  As18  1  0.960683  0.738210  0.474639  1
  As  As19  1  0.039317  0.261790  0.525361  1
  As  As20  1  0.546389  0.124746  0.663851  1
  As  As21  1  0.453611  0.875254  0.336149  1
  As  As22  1  0.941740  0.985877  0.826126  1
  As  As23  1  0.058260  0.014123  0.173874  1
  As  As24  1  0.658339  0.922789  0.923869  1
  As  As25  1  0.341661  0.077211  0.076131  1
  As  As26  1  0.995397  0.321845  0.965727  1
  As  As27  1  0.004603  0.678155  0.034273  1
  As  As28  1  0.729084  0.031629  0.224826  1
  As  As29  1  0.270916  0.968371  0.775174  1
  O  O30  1  0.871128  0.586808  0.773087  1
  O  O31  1  0.128872  0.413192  0.226913  1
  O  O32  1  0.649776  0.195459  0.168974  1
  O  O33  1  0.350224  0.804541  0.831026  1
  O  O34  1  0.844882  0.598115  0.002641  1
  O  O35  1  0.155118  0.401885  0.997359  1
  O  O36  1  0.630130  0.778355  0.871047  1
  O  O37  1  0.369870  0.221645  0.128953  1
  O  O38  1  0.879065  0.851377  0.765236  1
  O  O39  1  0.120935  0.148623  0.234764  1
  O  O40  1  0.908407  0.301245  0.091042  1
  O  O41  1  0.091593  0.698755  0.908958  1
  O  O42  1  0.589522  0.434951  0.163229  1
  O  O43  1  0.410478  0.565049  0.836771  1
  O  O44  1  0.651768  0.466362  0.928686  1
  O  O45  1  0.348232  0.533638  0.071314  1
  O  O46  1  0.627564  0.707696  0.685298  1
  O  O47  1  0.372436  0.292304  0.314702  1
  O  O48  1  0.791644  0.040767  0.833775  1
  O  O49  1  0.208356  0.959233  0.166225  1
  O  O50  1  0.853672  0.067047  0.324352  1
  O  O51  1  0.146328  0.932953  0.675648  1
  O  O52  1  0.581762  0.977292  0.639942  1
  O  O53  1  0.418238  0.022708  0.360058  1
  O  O54  1  0.715355  0.555698  0.578898  1
  O  O55  1  0.284645  0.444302  0.421102  1
  O  O56  1  0.631519  0.915082  0.356524  1
  O  O57  1  0.368481  0.084918  0.643476  1
  O  O58  1  0.926319  0.824638  0.562581  1
  O  O59  1  0.073681  0.175362  0.437419  1
  O  O60  1  0.963119  0.549990  0.589990  1
  O  O61  1  0.036881  0.450010  0.410010  1
  O  O62  1  0.542516  0.040110  0.829512  1
  O  O63  1  0.457484  0.959890  0.170488  1
  O  O64  1  0.526009  0.423478  0.735421  1
  O  O65  1  0.473991  0.576522  0.264579  1
  O  O66  1  0.846073  0.368450  0.256396  1
  O  O67  1  0.153926  0.631550  0.743604  1
  O  O68  1  0.861706  0.220691  0.507966  1
  O  O69  1  0.138294  0.779309  0.492034  1
  O  O70  1  0.640437  0.208083  0.395851  1
  O  O71  1  0.359563  0.791917  0.604149  1
  O  O72  1  0.964336  0.861404  0.981958  1
  O  O73  1  0.035664  0.138596  0.018042  1
