# generated using pymatgen
data_K4SrTa5O15
_symmetry_space_group_name_H-M   'P 1'
_cell_length_a   9.02382735
_cell_length_b   9.02382826
_cell_length_c   6.98994600
_cell_angle_alpha   75.05029035
_cell_angle_beta   75.05029168
_cell_angle_gamma   36.91170545
_symmetry_Int_Tables_number   1
_chemical_formula_structural   K4SrTa5O15
_chemical_formula_sum   'K4 Sr1 Ta5 O15'
_cell_volume   328.96024450
_cell_formula_units_Z   1
loop_
 _symmetry_equiv_pos_site_id
 _symmetry_equiv_pos_as_xyz
  1  'x, y, z'
loop_
 _atom_site_type_symbol
 _atom_site_label
 _atom_site_symmetry_multiplicity
 _atom_site_fract_x
 _atom_site_fract_y
 _atom_site_fract_z
 _atom_site_occupancy
  K  K0  1  0.600049  0.600049  0.598869  1
  K  K1  1  0.200506  0.200506  0.200553  1
  K  K2  1  0.799494  0.799494  0.799447  1
  K  K3  1  0.399951  0.399951  0.401131  1
  Sr  Sr4  1  0.000000  0.000000  0.000000  1
  Ta  Ta5  1  0.200857  0.200857  0.697975  1
  Ta  Ta6  1  0.799143  0.799143  0.302025  1
  Ta  Ta7  1  0.398887  0.398887  0.900312  1
  Ta  Ta8  1  0.000000  0.000000  0.500000  1
  Ta  Ta9  1  0.601113  0.601113  0.099688  1
  O  O10  1  0.393611  0.901148  0.901477  1
  O  O11  1  0.000000  0.500000  0.500000  1
  O  O12  1  0.606389  0.098852  0.098523  1
  O  O13  1  0.197048  0.704766  0.704878  1
  O  O14  1  0.802952  0.295234  0.295122  1
  O  O15  1  0.299926  0.299926  0.800406  1
  O  O16  1  0.901698  0.901698  0.393761  1
  O  O17  1  0.500000  0.500000  0.000000  1
  O  O18  1  0.098302  0.098302  0.606239  1
  O  O19  1  0.700074  0.700074  0.199594  1
  O  O20  1  0.500000  0.000000  0.500000  1
  O  O21  1  0.098852  0.606389  0.098523  1
  O  O22  1  0.704766  0.197048  0.704878  1
  O  O23  1  0.295234  0.802952  0.295122  1
  O  O24  1  0.901148  0.393611  0.901477  1
