# generated using pymatgen
data_Ta8Mo3Os4Ru
_symmetry_space_group_name_H-M   'P 1'
_cell_length_a   6.42068800
_cell_length_b   4.52101600
_cell_length_c   9.03759100
_cell_angle_alpha   90.00000000
_cell_angle_beta   89.99978514
_cell_angle_gamma   90.00000000
_symmetry_Int_Tables_number   1
_chemical_formula_structural   Ta8Mo3Os4Ru
_chemical_formula_sum   'Ta8 Mo3 Os4 Ru1'
_cell_volume   262.34349141
_cell_formula_units_Z   1
loop_
 _symmetry_equiv_pos_site_id
 _symmetry_equiv_pos_as_xyz
  1  'x, y, z'
loop_
 _atom_site_type_symbol
 _atom_site_label
 _atom_site_symmetry_multiplicity
 _atom_site_fract_x
 _atom_site_fract_y
 _atom_site_fract_z
 _atom_site_occupancy
  Ta  Ta0  1  0.002944  0.750000  0.124993  1
  Ta  Ta1  1  0.497024  0.750000  0.124996  1
  Ta  Ta2  1  0.001379  0.250000  0.376110  1
  Ta  Ta3  1  0.498600  0.250000  0.376108  1
  Ta  Ta4  1  0.500238  0.750000  0.624994  1
  Ta  Ta5  1  0.999783  0.750000  0.624995  1
  Ta  Ta6  1  0.498630  0.250000  0.873885  1
  Ta  Ta7  1  0.001399  0.250000  0.873886  1
  Mo  Mo8  1  0.249989  0.750000  0.374258  1
  Mo  Mo9  1  0.750010  0.250000  0.625000  1
  Mo  Mo10  1  0.250010  0.750000  0.875746  1
  Os  Os11  1  0.249994  0.250000  0.125001  1
  Os  Os12  1  0.749988  0.750000  0.371466  1
  Os  Os13  1  0.250009  0.250000  0.625003  1
  Os  Os14  1  0.750008  0.750000  0.878551  1
  Ru  Ru15  1  0.749993  0.250000  0.125008  1
