# generated using pymatgen
data_Ho3Er2Fe3(Co4P3)4
_symmetry_space_group_name_H-M   'P 1'
_cell_length_a   11.97049115
_cell_length_b   11.97377633
_cell_length_c   3.66483400
_cell_angle_alpha   90.00000000
_cell_angle_beta   90.00000000
_cell_angle_gamma   120.00907966
_symmetry_Int_Tables_number   1
_chemical_formula_structural   Ho3Er2Fe3(Co4P3)4
_chemical_formula_sum   'Ho3 Er2 Fe3 Co16 P12'
_cell_volume   454.87106201
_cell_formula_units_Z   1
loop_
 _symmetry_equiv_pos_site_id
 _symmetry_equiv_pos_as_xyz
  1  'x, y, z'
loop_
 _atom_site_type_symbol
 _atom_site_label
 _atom_site_symmetry_multiplicity
 _atom_site_fract_x
 _atom_site_fract_y
 _atom_site_fract_z
 _atom_site_occupancy
  Ho  Ho0  1  0.666772  0.333450  0.000000  1
  Ho  Ho1  1  0.333228  0.666679  0.000000  1
  Ho  Ho2  1  0.000000  0.187358  0.500000  1
  Er  Er3  1  0.812635  0.812488  0.500000  1
  Er  Er4  1  0.187365  0.999853  0.500000  1
  Fe  Fe5  1  0.446783  0.446754  0.000000  1
  Fe  Fe6  1  0.553217  0.999971  0.000000  1
  Fe  Fe7  1  0.000000  0.553360  0.000000  1
  Co  Co8  1  0.873873  0.357136  0.500000  1
  Co  Co9  1  0.643070  0.516969  0.500000  1
  Co  Co10  1  0.483068  0.126058  0.500000  1
  Co  Co11  1  0.356930  0.873899  0.500000  1
  Co  Co12  1  0.516932  0.642991  0.500000  1
  Co  Co13  1  0.126127  0.483264  0.500000  1
  Co  Co14  1  0.800126  0.177647  0.000000  1
  Co  Co15  1  0.822358  0.622804  0.000000  1
  Co  Co16  1  0.377287  0.199526  0.000000  1
  Co  Co17  1  0.177642  0.800447  0.000000  1
  Co  Co18  1  0.622713  0.822240  0.000000  1
  Co  Co19  1  0.199874  0.377522  0.000000  1
  Co  Co20  1  0.283380  0.283249  0.500000  1
  Co  Co21  1  0.716620  0.999869  0.500000  1
  Co  Co22  1  0.000000  0.716857  0.500000  1
  Co  Co23  1  0.000000  0.999625  0.000000  1
  P  P24  1  0.684563  0.164724  0.500000  1
  P  P25  1  0.835342  0.519920  0.500000  1
  P  P26  1  0.480260  0.315497  0.500000  1
  P  P27  1  0.164658  0.684579  0.500000  1
  P  P28  1  0.519740  0.835238  0.500000  1
  P  P29  1  0.315437  0.480161  0.500000  1
  P  P30  1  0.180493  0.180157  0.000000  1
  P  P31  1  0.819507  0.999663  0.000000  1
  P  P32  1  0.000000  0.819688  0.000000  1
  P  P33  1  0.632230  0.632223  0.000000  1
  P  P34  1  0.367770  0.999994  0.000000  1
  P  P35  1  0.000000  0.368139  0.000000  1
