# generated using pymatgen
data_NdTm4Mn2O12
_symmetry_space_group_name_H-M   'P 1'
_cell_length_a   6.80992627
_cell_length_b   6.80992648
_cell_length_c   7.22894245
_cell_angle_alpha   74.63472234
_cell_angle_beta   74.63472127
_cell_angle_gamma   49.56871649
_symmetry_Int_Tables_number   1
_chemical_formula_structural   NdTm4Mn2O12
_chemical_formula_sum   'Nd1 Tm4 Mn2 O12'
_cell_volume   244.07177879
_cell_formula_units_Z   1
loop_
 _symmetry_equiv_pos_site_id
 _symmetry_equiv_pos_as_xyz
  1  'x, y, z'
loop_
 _atom_site_type_symbol
 _atom_site_label
 _atom_site_symmetry_multiplicity
 _atom_site_fract_x
 _atom_site_fract_y
 _atom_site_fract_z
 _atom_site_occupancy
  Nd  Nd0  1  0.000000  0.000000  0.500000  1
  Tm  Tm1  1  0.305448  0.305448  0.356425  1
  Tm  Tm2  1  0.694552  0.694552  0.643575  1
  Tm  Tm3  1  0.694584  0.694584  0.162940  1
  Tm  Tm4  1  0.305416  0.305416  0.837060  1
  Mn  Mn5  1  0.752329  0.247671  0.000000  1
  Mn  Mn6  1  0.247671  0.752329  0.000000  1
  O  O7  1  0.095515  0.584911  0.580613  1
  O  O8  1  0.999335  0.999335  0.174706  1
  O  O9  1  0.415089  0.904485  0.419387  1
  O  O10  1  0.500245  0.500245  0.184344  1
  O  O11  1  0.100448  0.575992  0.079655  1
  O  O12  1  0.904485  0.415089  0.419387  1
  O  O13  1  0.000665  0.000665  0.825294  1
  O  O14  1  0.584911  0.095514  0.580613  1
  O  O15  1  0.499755  0.499755  0.815656  1
  O  O16  1  0.575992  0.100448  0.079655  1
  O  O17  1  0.424008  0.899552  0.920345  1
  O  O18  1  0.899552  0.424008  0.920345  1
