# generated using pymatgen
data_Tb2LuMg3Ga2Hg
_symmetry_space_group_name_H-M   'P 1'
_cell_length_a   7.41475400
_cell_length_b   7.36344687
_cell_length_c   4.39806200
_cell_angle_alpha   90.00000000
_cell_angle_beta   90.00000000
_cell_angle_gamma   120.23076234
_symmetry_Int_Tables_number   1
_chemical_formula_structural   Tb2LuMg3Ga2Hg
_chemical_formula_sum   'Tb2 Lu1 Mg3 Ga2 Hg1'
_cell_volume   207.47000090
_cell_formula_units_Z   1
loop_
 _symmetry_equiv_pos_site_id
 _symmetry_equiv_pos_as_xyz
  1  'x, y, z'
loop_
 _atom_site_type_symbol
 _atom_site_label
 _atom_site_symmetry_multiplicity
 _atom_site_fract_x
 _atom_site_fract_y
 _atom_site_fract_z
 _atom_site_occupancy
  Tb  Tb0  1  0.000485  0.573211  0.000000  1
  Tb  Tb1  1  0.427274  0.426789  0.000000  1
  Lu  Lu2  1  0.573781  0.000000  0.000000  1
  Mg  Mg3  1  0.250777  0.000000  0.500000  1
  Mg  Mg4  1  0.999181  0.249378  0.500000  1
  Mg  Mg5  1  0.749803  0.750622  0.500000  1
  Ga  Ga6  1  0.335195  0.669186  0.500000  1
  Ga  Ga7  1  0.666010  0.330814  0.500000  1
  Hg  Hg8  1  0.997494  0.000000  0.000000  1
