# generated using pymatgen
data_DyEr3(Tm2Os)4
_symmetry_space_group_name_H-M   'P 1'
_cell_length_a   7.35899605
_cell_length_b   8.91411200
_cell_length_c   6.24434600
_cell_angle_alpha   90.00000000
_cell_angle_beta   89.99319520
_cell_angle_gamma   90.00000000
_symmetry_Int_Tables_number   1
_chemical_formula_structural   DyEr3(Tm2Os)4
_chemical_formula_sum   'Dy1 Er3 Tm8 Os4'
_cell_volume   409.62231968
_cell_formula_units_Z   1
loop_
 _symmetry_equiv_pos_site_id
 _symmetry_equiv_pos_as_xyz
  1  'x, y, z'
loop_
 _atom_site_type_symbol
 _atom_site_label
 _atom_site_symmetry_multiplicity
 _atom_site_fract_x
 _atom_site_fract_y
 _atom_site_fract_z
 _atom_site_occupancy
  Dy  Dy0  1  0.540045  0.250000  0.869900  1
  Er  Er1  1  0.039919  0.250000  0.630080  1
  Er  Er2  1  0.960049  0.750000  0.369896  1
  Er  Er3  1  0.460000  0.750000  0.129848  1
  Tm  Tm4  1  0.174509  0.062603  0.166881  1
  Tm  Tm5  1  0.825460  0.937258  0.833126  1
  Tm  Tm6  1  0.325337  0.937248  0.666741  1
  Tm  Tm7  1  0.825460  0.562742  0.833126  1
  Tm  Tm8  1  0.674613  0.062560  0.333302  1
  Tm  Tm9  1  0.174509  0.437397  0.166881  1
  Tm  Tm10  1  0.674613  0.437440  0.333302  1
  Tm  Tm11  1  0.325337  0.562752  0.666741  1
  Os  Os12  1  0.382831  0.250000  0.460205  1
  Os  Os13  1  0.617158  0.750000  0.539930  1
  Os  Os14  1  0.117184  0.750000  0.960183  1
  Os  Os15  1  0.882975  0.250000  0.039856  1
