# generated using pymatgen
data_Nd5Y13(ThSn8)2
_symmetry_space_group_name_H-M   'P 1'
_cell_length_a   8.14871614
_cell_length_b   8.27340645
_cell_length_c   15.68518900
_cell_angle_alpha   90.14303519
_cell_angle_beta   90.31241470
_cell_angle_gamma   89.85374242
_symmetry_Int_Tables_number   1
_chemical_formula_structural   Nd5Y13(ThSn8)2
_chemical_formula_sum   'Nd5 Y13 Th2 Sn16'
_cell_volume   1057.43601179
_cell_formula_units_Z   1
loop_
 _symmetry_equiv_pos_site_id
 _symmetry_equiv_pos_as_xyz
  1  'x, y, z'
loop_
 _atom_site_type_symbol
 _atom_site_label
 _atom_site_symmetry_multiplicity
 _atom_site_fract_x
 _atom_site_fract_y
 _atom_site_fract_z
 _atom_site_occupancy
  Nd  Nd0  1  0.018868  0.179506  0.598574  1
  Nd  Nd1  1  0.483642  0.678592  0.403028  1
  Nd  Nd2  1  0.981984  0.821356  0.097092  1
  Nd  Nd3  1  0.482302  0.677570  0.096641  1
  Nd  Nd4  1  0.984150  0.821523  0.403149  1
  Y  Y5  1  0.363339  0.834990  0.877133  1
  Y  Y6  1  0.861852  0.664949  0.623497  1
  Y  Y7  1  0.637519  0.163810  0.376912  1
  Y  Y8  1  0.134888  0.336562  0.122064  1
  Y  Y9  1  0.636113  0.162699  0.121842  1
  Y  Y10  1  0.138684  0.337332  0.377618  1
  Y  Y11  1  0.361329  0.837541  0.624234  1
  Y  Y12  1  0.863020  0.663080  0.877354  1
  Y  Y13  1  0.523839  0.322447  0.900854  1
  Y  Y14  1  0.194345  0.500987  0.751070  1
  Y  Y15  1  0.693765  0.998505  0.750371  1
  Y  Y16  1  0.803513  0.498318  0.250136  1
  Y  Y17  1  0.303977  0.001971  0.249269  1
  Th  Th18  1  0.515485  0.321117  0.596913  1
  Th  Th19  1  0.017458  0.179463  0.902533  1
  Sn  Sn20  1  0.296863  0.039694  0.040460  1
  Sn  Sn21  1  0.798594  0.459066  0.459793  1
  Sn  Sn22  1  0.699305  0.964295  0.543409  1
  Sn  Sn23  1  0.206196  0.531291  0.955456  1
  Sn  Sn24  1  0.701409  0.964765  0.956197  1
  Sn  Sn25  1  0.200621  0.539422  0.543035  1
  Sn  Sn26  1  0.302074  0.041465  0.459586  1
  Sn  Sn27  1  0.796344  0.456860  0.039134  1
  Sn  Sn28  1  0.560765  0.620887  0.748779  1
  Sn  Sn29  1  0.060364  0.877877  0.751961  1
  Sn  Sn30  1  0.437508  0.376872  0.249252  1
  Sn  Sn31  1  0.937582  0.123376  0.250036  1
  Sn  Sn32  1  0.328516  0.145554  0.752344  1
  Sn  Sn33  1  0.824087  0.356687  0.750215  1
  Sn  Sn34  1  0.675102  0.857229  0.250033  1
  Sn  Sn35  1  0.174599  0.642345  0.250023  1
