# generated using pymatgen
data_RbAcGeS4
_symmetry_space_group_name_H-M   'P 1'
_cell_length_a   6.96365700
_cell_length_b   6.90894599
_cell_length_c   18.55588233
_cell_angle_alpha   72.77142622
_cell_angle_beta   90.00000000
_cell_angle_gamma   90.00000000
_symmetry_Int_Tables_number   1
_chemical_formula_structural   RbAcGeS4
_chemical_formula_sum   'Rb4 Ac4 Ge4 S16'
_cell_volume   852.69480248
_cell_formula_units_Z   4
loop_
 _symmetry_equiv_pos_site_id
 _symmetry_equiv_pos_as_xyz
  1  'x, y, z'
loop_
 _atom_site_type_symbol
 _atom_site_label
 _atom_site_symmetry_multiplicity
 _atom_site_fract_x
 _atom_site_fract_y
 _atom_site_fract_z
 _atom_site_occupancy
  Rb  Rb0  1  0.751448  0.276723  0.465322  1
  Rb  Rb1  1  0.251448  0.723277  0.034678  1
  Rb  Rb2  1  0.248552  0.723277  0.534678  1
  Rb  Rb3  1  0.748552  0.276723  0.965322  1
  Ac  Ac4  1  0.769643  0.233431  0.224025  1
  Ac  Ac5  1  0.730357  0.233431  0.724025  1
  Ac  Ac6  1  0.269643  0.766569  0.275975  1
  Ac  Ac7  1  0.230357  0.766569  0.775975  1
  Ge  Ge8  1  0.239065  0.213722  0.340479  1
  Ge  Ge9  1  0.739065  0.786278  0.159521  1
  Ge  Ge10  1  0.760935  0.786278  0.659521  1
  Ge  Ge11  1  0.260935  0.213722  0.840479  1
  S  S12  1  0.498157  0.984317  0.862112  1
  S  S13  1  0.741634  0.592310  0.083975  1
  S  S14  1  0.996163  0.022059  0.854772  1
  S  S15  1  0.503837  0.022059  0.354772  1
  S  S16  1  0.003837  0.977941  0.145228  1
  S  S17  1  0.306237  0.402591  0.719805  1
  S  S18  1  0.258366  0.407690  0.916025  1
  S  S19  1  0.001843  0.984317  0.362112  1
  S  S20  1  0.241634  0.407690  0.416025  1
  S  S21  1  0.998157  0.015683  0.637888  1
  S  S22  1  0.758366  0.592310  0.583975  1
  S  S23  1  0.693763  0.597409  0.280195  1
  S  S24  1  0.496163  0.977941  0.645228  1
  S  S25  1  0.806237  0.597409  0.780195  1
  S  S26  1  0.193763  0.402591  0.219805  1
  S  S27  1  0.501843  0.015683  0.137888  1
