# generated using pymatgen
data_Li3Tm8Sc8Si16Ru
_symmetry_space_group_name_H-M   'P 1'
_cell_length_a   6.80254697
_cell_length_b   7.29574164
_cell_length_c   13.88584000
_cell_angle_alpha   90.00000000
_cell_angle_beta   90.00000000
_cell_angle_gamma   90.21960172
_symmetry_Int_Tables_number   1
_chemical_formula_structural   Li3Tm8Sc8Si16Ru
_chemical_formula_sum   'Li3 Tm8 Sc8 Si16 Ru1'
_cell_volume   689.14397298
_cell_formula_units_Z   1
loop_
 _symmetry_equiv_pos_site_id
 _symmetry_equiv_pos_as_xyz
  1  'x, y, z'
loop_
 _atom_site_type_symbol
 _atom_site_label
 _atom_site_symmetry_multiplicity
 _atom_site_fract_x
 _atom_site_fract_y
 _atom_site_fract_z
 _atom_site_occupancy
  Li  Li0  1  0.842306  0.492280  0.250000  1
  Li  Li1  1  0.341619  0.007418  0.250000  1
  Li  Li2  1  0.659318  0.989045  0.750000  1
  Tm  Tm3  1  0.013635  0.183818  0.094674  1
  Tm  Tm4  1  0.989300  0.819944  0.902055  1
  Tm  Tm5  1  0.490843  0.680635  0.902437  1
  Tm  Tm6  1  0.989300  0.819944  0.597945  1
  Tm  Tm7  1  0.514312  0.317974  0.096884  1
  Tm  Tm8  1  0.013635  0.183818  0.405326  1
  Tm  Tm9  1  0.514312  0.317974  0.403116  1
  Tm  Tm10  1  0.490843  0.680635  0.597563  1
  Sc  Sc11  1  0.330452  0.174988  0.627338  1
  Sc  Sc12  1  0.671586  0.822959  0.373868  1
  Sc  Sc13  1  0.171399  0.675450  0.375070  1
  Sc  Sc14  1  0.671586  0.822959  0.126132  1
  Sc  Sc15  1  0.822282  0.324578  0.629020  1
  Sc  Sc16  1  0.330452  0.174988  0.872662  1
  Sc  Sc17  1  0.822282  0.324578  0.870980  1
  Sc  Sc18  1  0.171399  0.675450  0.124930  1
  Si  Si19  1  0.031931  0.112816  0.750000  1
  Si  Si20  1  0.974572  0.898898  0.250000  1
  Si  Si21  1  0.473500  0.599210  0.250000  1
  Si  Si22  1  0.512516  0.410569  0.750000  1
  Si  Si23  1  0.276185  0.860153  0.750000  1
  Si  Si24  1  0.721618  0.124420  0.250000  1
  Si  Si25  1  0.216921  0.376296  0.250000  1
  Si  Si26  1  0.794038  0.624779  0.750000  1
  Si  Si27  1  0.156373  0.466191  0.546804  1
  Si  Si28  1  0.839622  0.537169  0.466855  1
  Si  Si29  1  0.340190  0.962049  0.466049  1
  Si  Si30  1  0.839622  0.537169  0.033145  1
  Si  Si31  1  0.661453  0.036550  0.535786  1
  Si  Si32  1  0.156373  0.466191  0.953196  1
  Si  Si33  1  0.661453  0.036550  0.964214  1
  Si  Si34  1  0.340190  0.962049  0.033951  1
  Ru  Ru35  1  0.152577  0.499503  0.750000  1
