# generated using pymatgen
data_Tm13Th3(AlOs)4
_symmetry_space_group_name_H-M   'P 1'
_cell_length_a   9.54791055
_cell_length_b   9.55230186
_cell_length_c   9.55230200
_cell_angle_alpha   59.99999951
_cell_angle_beta   59.98478420
_cell_angle_gamma   59.98477472
_symmetry_Int_Tables_number   1
_chemical_formula_structural   Tm13Th3(AlOs)4
_chemical_formula_sum   'Tm13 Th3 Al4 Os4'
_cell_volume   615.89896354
_cell_formula_units_Z   1
loop_
 _symmetry_equiv_pos_site_id
 _symmetry_equiv_pos_as_xyz
  1  'x, y, z'
loop_
 _atom_site_type_symbol
 _atom_site_label
 _atom_site_symmetry_multiplicity
 _atom_site_fract_x
 _atom_site_fract_y
 _atom_site_fract_z
 _atom_site_occupancy
  Tm  Tm0  1  0.189906  0.603365  0.603365  1
  Tm  Tm1  1  0.057936  0.443845  0.443845  1
  Tm  Tm2  1  0.440727  0.058401  0.058401  1
  Tm  Tm3  1  0.440727  0.058401  0.442469  1
  Tm  Tm4  1  0.057936  0.443845  0.054371  1
  Tm  Tm5  1  0.440727  0.442469  0.058401  1
  Tm  Tm6  1  0.057936  0.054371  0.443845  1
  Tm  Tm7  1  0.190026  0.809600  0.809600  1
  Tm  Tm8  1  0.812703  0.187002  0.187002  1
  Tm  Tm9  1  0.812703  0.187002  0.813293  1
  Tm  Tm10  1  0.190026  0.809600  0.190773  1
  Tm  Tm11  1  0.812703  0.813293  0.187002  1
  Tm  Tm12  1  0.190026  0.190773  0.809600  1
  Th  Th13  1  0.600032  0.600047  0.600047  1
  Th  Th14  1  0.600032  0.600047  0.199875  1
  Th  Th15  1  0.600032  0.199875  0.600047  1
  Al  Al16  1  0.831645  0.828683  0.828683  1
  Al  Al17  1  0.831645  0.828683  0.510988  1
  Al  Al18  1  0.831645  0.510988  0.828683  1
  Al  Al19  1  0.510854  0.829715  0.829715  1
  Os  Os20  1  0.390777  0.391376  0.391376  1
  Os  Os21  1  0.390777  0.391376  0.826470  1
  Os  Os22  1  0.390777  0.826470  0.391376  1
  Os  Os23  1  0.827697  0.390767  0.390767  1
