# generated using pymatgen
data_Pr(GaCu)6
_symmetry_space_group_name_H-M   'P 1'
_cell_length_a   6.68459690
_cell_length_b   6.68459706
_cell_length_c   6.68459760
_cell_angle_alpha   134.25086306
_cell_angle_beta   99.66803980
_cell_angle_gamma   97.71578534
_symmetry_Int_Tables_number   1
_chemical_formula_structural   Pr(GaCu)6
_chemical_formula_sum   'Pr1 Ga6 Cu6'
_cell_volume   197.08721159
_cell_formula_units_Z   1
loop_
 _symmetry_equiv_pos_site_id
 _symmetry_equiv_pos_as_xyz
  1  'x, y, z'
loop_
 _atom_site_type_symbol
 _atom_site_label
 _atom_site_symmetry_multiplicity
 _atom_site_fract_x
 _atom_site_fract_y
 _atom_site_fract_z
 _atom_site_occupancy
  Pr  Pr0  1  0.000000  0.000000  0.000000  1
  Ga  Ga1  1  0.650683  0.000000  0.650683  1
  Ga  Ga2  1  0.349317  0.000000  0.349317  1
  Ga  Ga3  1  0.649666  0.649666  0.000000  1
  Ga  Ga4  1  0.350334  0.350334  0.000000  1
  Ga  Ga5  1  0.200899  0.700899  0.500000  1
  Ga  Ga6  1  0.799101  0.299101  0.500000  1
  Cu  Cu7  1  0.000000  0.000000  0.500000  1
  Cu  Cu8  1  0.000000  0.500000  0.000000  1
  Cu  Cu9  1  0.500000  0.500000  0.500000  1
  Cu  Cu10  1  0.500000  0.000000  0.000000  1
  Cu  Cu11  1  0.235828  0.500000  0.735828  1
  Cu  Cu12  1  0.764172  0.500000  0.264172  1
