# generated using pymatgen
data_CaPrCo5B4
_symmetry_space_group_name_H-M   'P 1'
_cell_length_a   7.11914703
_cell_length_b   5.91695433
_cell_length_c   5.37463887
_cell_angle_alpha   78.00825553
_cell_angle_beta   54.38959635
_cell_angle_gamma   47.60213793
_symmetry_Int_Tables_number   1
_chemical_formula_structural   CaPrCo5B4
_chemical_formula_sum   'Ca1 Pr1 Co5 B4'
_cell_volume   129.32379403
_cell_formula_units_Z   1
loop_
 _symmetry_equiv_pos_site_id
 _symmetry_equiv_pos_as_xyz
  1  'x, y, z'
loop_
 _atom_site_type_symbol
 _atom_site_label
 _atom_site_symmetry_multiplicity
 _atom_site_fract_x
 _atom_site_fract_y
 _atom_site_fract_z
 _atom_site_occupancy
  Ca  Ca0  1  0.148028  0.148028  0.851972  1
  Pr  Pr1  1  0.858102  0.858102  0.141898  1
  Co  Co2  1  0.500678  0.500678  0.499322  1
  Co  Co3  1  0.500616  0.500616  0.999384  1
  Co  Co4  1  0.000616  0.000616  0.499384  1
  Co  Co5  1  0.747513  0.747513  0.752487  1
  Co  Co6  1  0.247513  0.247513  0.252487  1
  B  B7  1  0.788426  0.466682  0.533318  1
  B  B8  1  0.207502  0.534323  0.465677  1
  B  B9  1  0.534323  0.207502  0.792498  1
  B  B10  1  0.466682  0.788426  0.211574  1
