# generated using pymatgen
data_Tm2InCuNi
_symmetry_space_group_name_H-M   'P 1'
_cell_length_a   7.28030589
_cell_length_b   7.28030460
_cell_length_c   3.53214400
_cell_angle_alpha   90.00000000
_cell_angle_beta   90.00000000
_cell_angle_gamma   147.23409749
_symmetry_Int_Tables_number   1
_chemical_formula_structural   Tm2InCuNi
_chemical_formula_sum   'Tm2 In1 Cu1 Ni1'
_cell_volume   101.32151858
_cell_formula_units_Z   1
loop_
 _symmetry_equiv_pos_site_id
 _symmetry_equiv_pos_as_xyz
  1  'x, y, z'
loop_
 _atom_site_type_symbol
 _atom_site_label
 _atom_site_symmetry_multiplicity
 _atom_site_fract_x
 _atom_site_fract_y
 _atom_site_fract_z
 _atom_site_occupancy
  Tm  Tm0  1  0.364606  0.635394  0.500000  1
  Tm  Tm1  1  0.638492  0.361508  0.500000  1
  In  In2  1  0.997950  0.002050  0.000000  1
  Cu  Cu3  1  0.200983  0.799017  0.000000  1
  Ni  Ni4  1  0.797969  0.202031  0.000000  1
