# generated using pymatgen
data_Y4Er12In4RuRh3
_symmetry_space_group_name_H-M   'P 1'
_cell_length_a   9.61489897
_cell_length_b   9.60970251
_cell_length_c   9.62131979
_cell_angle_alpha   59.85846963
_cell_angle_beta   59.80447772
_cell_angle_gamma   60.01236626
_symmetry_Int_Tables_number   1
_chemical_formula_structural   Y4Er12In4RuRh3
_chemical_formula_sum   'Y4 Er12 In4 Ru1 Rh3'
_cell_volume   627.05193842
_cell_formula_units_Z   1
loop_
 _symmetry_equiv_pos_site_id
 _symmetry_equiv_pos_as_xyz
  1  'x, y, z'
loop_
 _atom_site_type_symbol
 _atom_site_label
 _atom_site_symmetry_multiplicity
 _atom_site_fract_x
 _atom_site_fract_y
 _atom_site_fract_z
 _atom_site_occupancy
  Y  Y0  1  0.188226  0.192969  0.809971  1
  Y  Y1  1  0.439486  0.059982  0.061521  1
  Y  Y2  1  0.437840  0.061892  0.437174  1
  Y  Y3  1  0.059611  0.439156  0.060641  1
  Er  Er4  1  0.650689  0.047459  0.650093  1
  Er  Er5  1  0.191672  0.808774  0.809654  1
  Er  Er6  1  0.059913  0.059534  0.440251  1
  Er  Er7  1  0.809743  0.193183  0.188662  1
  Er  Er8  1  0.810560  0.809334  0.191191  1
  Er  Er9  1  0.650926  0.649674  0.047539  1
  Er  Er10  1  0.652463  0.650541  0.650428  1
  Er  Er11  1  0.059758  0.438062  0.441219  1
  Er  Er12  1  0.045746  0.650034  0.650722  1
  Er  Er13  1  0.809610  0.193423  0.809521  1
  Er  Er14  1  0.443654  0.439032  0.058528  1
  Er  Er15  1  0.190897  0.808727  0.190990  1
  In  In16  1  0.417897  0.746336  0.418213  1
  In  In17  1  0.417517  0.416584  0.749282  1
  In  In18  1  0.749753  0.415413  0.418070  1
  In  In19  1  0.415431  0.418741  0.416744  1
  Ru  Ru20  1  0.853387  0.427458  0.858156  1
  Rh  Rh21  1  0.859448  0.858753  0.424267  1
  Rh  Rh22  1  0.426264  0.854478  0.859666  1
  Rh  Rh23  1  0.859510  0.860458  0.857500  1
