# generated using pymatgen
data_HoU(TcB4)2
_symmetry_space_group_name_H-M   'P 1'
_cell_length_a   3.60227100
_cell_length_b   5.94336858
_cell_length_c   11.49011584
_cell_angle_alpha   89.88071593
_cell_angle_beta   90.00000000
_cell_angle_gamma   90.00000000
_symmetry_Int_Tables_number   1
_chemical_formula_structural   HoU(TcB4)2
_chemical_formula_sum   'Ho2 U2 Tc4 B16'
_cell_volume   245.99852980
_cell_formula_units_Z   2
loop_
 _symmetry_equiv_pos_site_id
 _symmetry_equiv_pos_as_xyz
  1  'x, y, z'
loop_
 _atom_site_type_symbol
 _atom_site_label
 _atom_site_symmetry_multiplicity
 _atom_site_fract_x
 _atom_site_fract_y
 _atom_site_fract_z
 _atom_site_occupancy
  Ho  Ho0  1  0.000000  0.127202  0.148428  1
  Ho  Ho1  1  0.000000  0.872798  0.851572  1
  U  U2  1  0.000000  0.627484  0.348943  1
  U  U3  1  0.000000  0.372516  0.651057  1
  Tc  Tc4  1  0.000000  0.635209  0.091917  1
  Tc  Tc5  1  0.000000  0.364791  0.908083  1
  Tc  Tc6  1  0.000000  0.140718  0.408669  1
  Tc  Tc7  1  0.000000  0.859282  0.591331  1
  B  B8  1  0.500000  0.787858  0.187328  1
  B  B9  1  0.500000  0.212142  0.812672  1
  B  B10  1  0.500000  0.291130  0.313956  1
  B  B11  1  0.500000  0.708870  0.686044  1
  B  B12  1  0.500000  0.863872  0.031475  1
  B  B13  1  0.500000  0.136128  0.968525  1
  B  B14  1  0.500000  0.367761  0.468512  1
  B  B15  1  0.500000  0.632239  0.531488  1
  B  B16  1  0.500000  0.885942  0.452955  1
  B  B17  1  0.500000  0.114058  0.547045  1
  B  B18  1  0.500000  0.386519  0.046220  1
  B  B19  1  0.500000  0.613481  0.953780  1
  B  B20  1  0.500000  0.973117  0.308258  1
  B  B21  1  0.500000  0.026883  0.691742  1
  B  B22  1  0.500000  0.477604  0.192757  1
  B  B23  1  0.500000  0.522396  0.807243  1
