# generated using pymatgen
data_Ho7Tc6Sn22Hg
_symmetry_space_group_name_H-M   'P 1'
_cell_length_a   9.92152200
_cell_length_b   9.92152055
_cell_length_c   10.12128200
_cell_angle_alpha   90.00000000
_cell_angle_beta   90.00000000
_cell_angle_gamma   119.99999816
_symmetry_Int_Tables_number   1
_chemical_formula_structural   Ho7Tc6Sn22Hg
_chemical_formula_sum   'Ho7 Tc6 Sn22 Hg1'
_cell_volume   862.82496224
_cell_formula_units_Z   1
loop_
 _symmetry_equiv_pos_site_id
 _symmetry_equiv_pos_as_xyz
  1  'x, y, z'
loop_
 _atom_site_type_symbol
 _atom_site_label
 _atom_site_symmetry_multiplicity
 _atom_site_fract_x
 _atom_site_fract_y
 _atom_site_fract_z
 _atom_site_occupancy
  Ho  Ho0  1  0.000000  0.000000  0.000000  1
  Ho  Ho1  1  0.515591  0.484409  0.701699  1
  Ho  Ho2  1  0.515591  0.031181  0.701699  1
  Ho  Ho3  1  0.968819  0.484409  0.701699  1
  Ho  Ho4  1  0.031181  0.515591  0.298301  1
  Ho  Ho5  1  0.484409  0.968819  0.298301  1
  Ho  Ho6  1  0.484409  0.515591  0.298301  1
  Tc  Tc7  1  0.167210  0.832790  0.792284  1
  Tc  Tc8  1  0.167210  0.334422  0.792284  1
  Tc  Tc9  1  0.665578  0.832790  0.792284  1
  Tc  Tc10  1  0.334422  0.167210  0.207716  1
  Tc  Tc11  1  0.832790  0.665578  0.207716  1
  Tc  Tc12  1  0.832790  0.167210  0.207716  1
  Sn  Sn13  1  0.666667  0.333333  0.178859  1
  Sn  Sn14  1  0.666667  0.333333  0.873365  1
  Sn  Sn15  1  0.333333  0.666667  0.126635  1
  Sn  Sn16  1  0.347568  0.347568  0.000000  1
  Sn  Sn17  1  0.000000  0.652432  0.000000  1
  Sn  Sn18  1  0.652432  0.000000  0.000000  1
  Sn  Sn19  1  0.652432  0.652432  0.000000  1
  Sn  Sn20  1  0.333333  0.666667  0.821141  1
  Sn  Sn21  1  0.452094  0.226047  0.463112  1
  Sn  Sn22  1  0.226047  0.773953  0.536888  1
  Sn  Sn23  1  0.226047  0.452094  0.536888  1
  Sn  Sn24  1  0.547906  0.773953  0.536888  1
  Sn  Sn25  1  0.121161  0.878839  0.271707  1
  Sn  Sn26  1  0.773953  0.547906  0.463112  1
  Sn  Sn27  1  0.773953  0.226047  0.463112  1
  Sn  Sn28  1  0.347568  0.000000  0.000000  1
  Sn  Sn29  1  0.121161  0.242320  0.271707  1
  Sn  Sn30  1  0.757680  0.878839  0.271707  1
  Sn  Sn31  1  0.242320  0.121161  0.728293  1
  Sn  Sn32  1  0.878839  0.757680  0.728293  1
  Sn  Sn33  1  0.878839  0.121161  0.728293  1
  Sn  Sn34  1  0.000000  0.347568  0.000000  1
  Hg  Hg35  1  0.000000  0.000000  0.500000  1
