# generated using pymatgen
data_TbPrTm2(WO6)2
_symmetry_space_group_name_H-M   'P 1'
_cell_length_a   5.45377700
_cell_length_b   7.75923361
_cell_length_c   11.46885254
_cell_angle_alpha   75.80299369
_cell_angle_beta   90.00000000
_cell_angle_gamma   90.00000000
_symmetry_Int_Tables_number   1
_chemical_formula_structural   TbPrTm2(WO6)2
_chemical_formula_sum   'Tb2 Pr2 Tm4 W4 O24'
_cell_volume   470.50608615
_cell_formula_units_Z   2
loop_
 _symmetry_equiv_pos_site_id
 _symmetry_equiv_pos_as_xyz
  1  'x, y, z'
loop_
 _atom_site_type_symbol
 _atom_site_label
 _atom_site_symmetry_multiplicity
 _atom_site_fract_x
 _atom_site_fract_y
 _atom_site_fract_z
 _atom_site_occupancy
  Tb  Tb0  1  0.743262  0.000000  0.750000  1
  Tb  Tb1  1  0.256738  0.000000  0.250000  1
  Pr  Pr2  1  0.685120  0.500000  0.750000  1
  Pr  Pr3  1  0.314880  0.500000  0.250000  1
  Tm  Tm4  1  0.184439  0.795801  0.577714  1
  Tm  Tm5  1  0.815561  0.795801  0.077714  1
  Tm  Tm6  1  0.184439  0.204199  0.922286  1
  Tm  Tm7  1  0.815561  0.204199  0.422286  1
  W  W8  1  0.253787  0.728027  0.884955  1
  W  W9  1  0.746213  0.728027  0.384955  1
  W  W10  1  0.253787  0.271973  0.615045  1
  W  W11  1  0.746213  0.271973  0.115045  1
  O  O12  1  0.047037  0.942409  0.897859  1
  O  O13  1  0.537095  0.841284  0.932991  1
  O  O14  1  0.952963  0.942409  0.397859  1
  O  O15  1  0.451657  0.794957  0.726087  1
  O  O16  1  0.462905  0.841284  0.432991  1
  O  O17  1  0.986505  0.720880  0.768930  1
  O  O18  1  0.548343  0.794957  0.226087  1
  O  O19  1  0.858772  0.641894  0.546269  1
  O  O20  1  0.345047  0.492564  0.887950  1
  O  O21  1  0.013495  0.720880  0.268930  1
  O  O22  1  0.345047  0.507436  0.612050  1
  O  O23  1  0.858772  0.358106  0.953731  1
  O  O24  1  0.141228  0.641894  0.046269  1
  O  O25  1  0.654953  0.492564  0.387950  1
  O  O26  1  0.986505  0.279120  0.731070  1
  O  O27  1  0.654953  0.507436  0.112050  1
  O  O28  1  0.141228  0.358106  0.453731  1
  O  O29  1  0.451657  0.205043  0.773913  1
  O  O30  1  0.013495  0.279120  0.231070  1
  O  O31  1  0.537095  0.158716  0.567009  1
  O  O32  1  0.548343  0.205043  0.273913  1
  O  O33  1  0.047037  0.057591  0.602141  1
  O  O34  1  0.462905  0.158716  0.067009  1
  O  O35  1  0.952963  0.057591  0.102141  1
