# generated using pymatgen
data_Mo3WN6
_symmetry_space_group_name_H-M   'P 1'
_cell_length_a   4.99938625
_cell_length_b   4.99938658
_cell_length_c   5.37213534
_cell_angle_alpha   80.89004051
_cell_angle_beta   80.89003568
_cell_angle_gamma   119.67915694
_symmetry_Int_Tables_number   1
_chemical_formula_structural   Mo3WN6
_chemical_formula_sum   'Mo3 W1 N6'
_cell_volume   110.71183577
_cell_formula_units_Z   1
loop_
 _symmetry_equiv_pos_site_id
 _symmetry_equiv_pos_as_xyz
  1  'x, y, z'
loop_
 _atom_site_type_symbol
 _atom_site_label
 _atom_site_symmetry_multiplicity
 _atom_site_fract_x
 _atom_site_fract_y
 _atom_site_fract_z
 _atom_site_occupancy
  Mo  Mo0  1  0.330947  0.994162  0.008113  1
  Mo  Mo1  1  0.676914  0.676914  0.984407  1
  Mo  Mo2  1  0.994162  0.330947  0.008113  1
  W  W3  1  0.492033  0.492033  0.523412  1
  N  N4  1  0.093305  0.093305  0.750017  1
  N  N5  1  0.411766  0.744893  0.747314  1
  N  N6  1  0.744893  0.411766  0.747314  1
  N  N7  1  0.264901  0.580926  0.250458  1
  N  N8  1  0.902817  0.902817  0.252395  1
  N  N9  1  0.580926  0.264901  0.250458  1
