# generated using pymatgen
data_Ce2TlPdRh
_symmetry_space_group_name_H-M   'P 1'
_cell_length_a   7.77502000
_cell_length_b   7.77502045
_cell_length_c   3.76663200
_cell_angle_alpha   90.00000000
_cell_angle_beta   90.00000000
_cell_angle_gamma   89.39290553
_symmetry_Int_Tables_number   1
_chemical_formula_structural   Ce2TlPdRh
_chemical_formula_sum   'Ce4 Tl2 Pd2 Rh2'
_cell_volume   227.68366143
_cell_formula_units_Z   2
loop_
 _symmetry_equiv_pos_site_id
 _symmetry_equiv_pos_as_xyz
  1  'x, y, z'
loop_
 _atom_site_type_symbol
 _atom_site_label
 _atom_site_symmetry_multiplicity
 _atom_site_fract_x
 _atom_site_fract_y
 _atom_site_fract_z
 _atom_site_occupancy
  Ce  Ce0  1  0.664270  0.164270  0.500000  1
  Ce  Ce1  1  0.335730  0.835730  0.500000  1
  Ce  Ce2  1  0.177923  0.322077  0.500000  1
  Ce  Ce3  1  0.822077  0.677923  0.500000  1
  Tl  Tl4  1  0.000000  0.000000  0.000000  1
  Tl  Tl5  1  0.500000  0.500000  0.000000  1
  Pd  Pd6  1  0.129703  0.629703  0.000000  1
  Pd  Pd7  1  0.870297  0.370297  0.000000  1
  Rh  Rh8  1  0.634560  0.865440  0.000000  1
  Rh  Rh9  1  0.365440  0.134560  0.000000  1
