# generated using pymatgen
data_Dy2Ho3Lu(Si3Ru)8
_symmetry_space_group_name_H-M   'P 1'
_cell_length_a   10.09728615
_cell_length_b   10.09728630
_cell_length_c   8.13317802
_cell_angle_alpha   90.03377892
_cell_angle_beta   90.03377804
_cell_angle_gamma   132.53017509
_symmetry_Int_Tables_number   1
_chemical_formula_structural   Dy2Ho3Lu(Si3Ru)8
_chemical_formula_sum   'Dy2 Ho3 Lu1 Si24 Ru8'
_cell_volume   611.06911567
_cell_formula_units_Z   1
loop_
 _symmetry_equiv_pos_site_id
 _symmetry_equiv_pos_as_xyz
  1  'x, y, z'
loop_
 _atom_site_type_symbol
 _atom_site_label
 _atom_site_symmetry_multiplicity
 _atom_site_fract_x
 _atom_site_fract_y
 _atom_site_fract_z
 _atom_site_occupancy
  Dy  Dy0  1  0.497424  0.997721  0.250576  1
  Dy  Dy1  1  0.002279  0.502576  0.749424  1
  Ho  Ho2  1  0.999998  0.000002  0.000000  1
  Ho  Ho3  1  0.502591  0.002302  0.749413  1
  Ho  Ho4  1  0.997698  0.497409  0.250587  1
  Lu  Lu5  1  0.500010  0.499990  0.500000  1
  Si  Si6  1  0.794318  0.205682  0.500000  1
  Si  Si7  1  0.294910  0.705090  0.000000  1
  Si  Si8  1  0.205693  0.794307  0.500000  1
  Si  Si9  1  0.705084  0.294916  0.000000  1
  Si  Si10  1  0.331741  0.331733  0.833443  1
  Si  Si11  1  0.668267  0.668259  0.166557  1
  Si  Si12  1  0.167020  0.167032  0.332749  1
  Si  Si13  1  0.832968  0.832980  0.667251  1
  Si  Si14  1  0.121698  0.887046  0.728119  1
  Si  Si15  1  0.112954  0.878302  0.271881  1
  Si  Si16  1  0.611003  0.376871  0.228928  1
  Si  Si17  1  0.623129  0.388997  0.771072  1
  Si  Si18  1  0.878415  0.113063  0.271891  1
  Si  Si19  1  0.886937  0.121585  0.728109  1
  Si  Si20  1  0.389101  0.623237  0.771053  1
  Si  Si21  1  0.376763  0.610899  0.228947  1
  Si  Si22  1  0.345326  0.111652  0.505187  1
  Si  Si23  1  0.888348  0.654674  0.494813  1
  Si  Si24  1  0.387477  0.154247  0.005243  1
  Si  Si25  1  0.845753  0.612523  0.994757  1
  Si  Si26  1  0.654698  0.888349  0.494929  1
  Si  Si27  1  0.111651  0.345302  0.505071  1
  Si  Si28  1  0.612524  0.845780  0.994648  1
  Si  Si29  1  0.154220  0.387476  0.005352  1
  Ru  Ru30  1  0.668088  0.331912  0.500000  1
  Ru  Ru31  1  0.169243  0.830757  0.000000  1
  Ru  Ru32  1  0.331918  0.668082  0.500000  1
  Ru  Ru33  1  0.830755  0.169245  0.000000  1
  Ru  Ru34  1  0.127481  0.127494  0.625620  1
  Ru  Ru35  1  0.872506  0.872519  0.374380  1
  Ru  Ru36  1  0.374645  0.374632  0.129148  1
  Ru  Ru37  1  0.625368  0.625355  0.870852  1
