# generated using pymatgen
data_HoSc5(Be2Rh5)2
_symmetry_space_group_name_H-M   'P 1'
_cell_length_a   9.56772726
_cell_length_b   9.56772726
_cell_length_c   3.23522800
_cell_angle_alpha   90.00000000
_cell_angle_beta   90.00000000
_cell_angle_gamma   89.72150124
_symmetry_Int_Tables_number   1
_chemical_formula_structural   HoSc5(Be2Rh5)2
_chemical_formula_sum   'Ho1 Sc5 Be4 Rh10'
_cell_volume   296.15381756
_cell_formula_units_Z   1
loop_
 _symmetry_equiv_pos_site_id
 _symmetry_equiv_pos_as_xyz
  1  'x, y, z'
loop_
 _atom_site_type_symbol
 _atom_site_label
 _atom_site_symmetry_multiplicity
 _atom_site_fract_x
 _atom_site_fract_y
 _atom_site_fract_z
 _atom_site_occupancy
  Ho  Ho0  1  0.825114  0.325114  0.000000  1
  Sc  Sc1  1  0.325236  0.174686  0.000000  1
  Sc  Sc2  1  0.674686  0.825236  0.000000  1
  Sc  Sc3  1  0.175629  0.675629  0.000000  1
  Sc  Sc4  1  0.001256  0.998238  0.000000  1
  Sc  Sc5  1  0.498238  0.501256  0.000000  1
  Be  Be6  1  0.619397  0.119397  0.000000  1
  Be  Be7  1  0.125539  0.378141  0.000000  1
  Be  Be8  1  0.878141  0.625539  0.000000  1
  Be  Be9  1  0.376823  0.876823  0.000000  1
  Rh  Rh10  1  0.076467  0.214428  0.500000  1
  Rh  Rh11  1  0.215791  0.928651  0.500000  1
  Rh  Rh12  1  0.781816  0.064583  0.500000  1
  Rh  Rh13  1  0.928979  0.785926  0.500000  1
  Rh  Rh14  1  0.428651  0.715791  0.500000  1
  Rh  Rh15  1  0.564583  0.281816  0.500000  1
  Rh  Rh16  1  0.714428  0.576467  0.500000  1
  Rh  Rh17  1  0.285926  0.428979  0.500000  1
  Rh  Rh18  1  0.498451  0.998451  0.500000  1
  Rh  Rh19  1  0.004848  0.504848  0.500000  1
