# generated using pymatgen
data_EuHo2Tm(SeO4)6
_symmetry_space_group_name_H-M   'P 1'
_cell_length_a   9.98322543
_cell_length_b   9.98322615
_cell_length_c   9.98322638
_cell_angle_alpha   58.03790250
_cell_angle_beta   58.03789937
_cell_angle_gamma   58.03790678
_symmetry_Int_Tables_number   1
_chemical_formula_structural   EuHo2Tm(SeO4)6
_chemical_formula_sum   'Eu1 Ho2 Tm1 Se6 O24'
_cell_volume   671.89515370
_cell_formula_units_Z   1
loop_
 _symmetry_equiv_pos_site_id
 _symmetry_equiv_pos_as_xyz
  1  'x, y, z'
loop_
 _atom_site_type_symbol
 _atom_site_label
 _atom_site_symmetry_multiplicity
 _atom_site_fract_x
 _atom_site_fract_y
 _atom_site_fract_z
 _atom_site_occupancy
  Eu  Eu0  1  0.642445  0.642445  0.642445  1
  Ho  Ho1  1  0.143056  0.143056  0.143056  1
  Ho  Ho2  1  0.855337  0.855337  0.855337  1
  Tm  Tm3  1  0.355864  0.355864  0.355864  1
  Se  Se4  1  0.746320  0.041831  0.462914  1
  Se  Se5  1  0.971260  0.537210  0.241542  1
  Se  Se6  1  0.537210  0.241542  0.971261  1
  Se  Se7  1  0.462913  0.746320  0.041832  1
  Se  Se8  1  0.041832  0.462913  0.746320  1
  Se  Se9  1  0.241542  0.971260  0.537210  1
  O  O10  1  0.911276  0.076853  0.291308  1
  O  O11  1  0.771013  0.009939  0.631333  1
  O  O12  1  0.000478  0.371998  0.214358  1
  O  O13  1  0.708007  0.073019  0.946532  1
  O  O14  1  0.574690  0.209117  0.440308  1
  O  O15  1  0.872745  0.485564  0.730786  1
  O  O16  1  0.506999  0.270610  0.136141  1
  O  O17  1  0.798497  0.562017  0.408634  1
  O  O18  1  0.946532  0.708007  0.073019  1
  O  O19  1  0.562017  0.408634  0.798497  1
  O  O20  1  0.371998  0.214358  0.000478  1
  O  O21  1  0.270610  0.136141  0.506999  1
  O  O22  1  0.730786  0.872745  0.485564  1
  O  O23  1  0.631333  0.771013  0.009939  1
  O  O24  1  0.440308  0.574690  0.209117  1
  O  O25  1  0.076853  0.291308  0.911276  1
  O  O26  1  0.209117  0.440308  0.574690  1
  O  O27  1  0.485564  0.730786  0.872745  1
  O  O28  1  0.136141  0.506999  0.270610  1
  O  O29  1  0.408634  0.798497  0.562017  1
  O  O30  1  0.291308  0.911276  0.076853  1
  O  O31  1  0.009939  0.631333  0.771013  1
  O  O32  1  0.214358  0.000478  0.371998  1
  O  O33  1  0.073019  0.946532  0.708007  1
