# generated using pymatgen
data_Pa4Mo3WC8
_symmetry_space_group_name_H-M   'P 1'
_cell_length_a   3.32378500
_cell_length_b   5.75003665
_cell_length_c   11.04348076
_cell_angle_alpha   89.91876590
_cell_angle_beta   90.00000000
_cell_angle_gamma   90.00000000
_symmetry_Int_Tables_number   1
_chemical_formula_structural   Pa4Mo3WC8
_chemical_formula_sum   'Pa4 Mo3 W1 C8'
_cell_volume   211.06152834
_cell_formula_units_Z   1
loop_
 _symmetry_equiv_pos_site_id
 _symmetry_equiv_pos_as_xyz
  1  'x, y, z'
loop_
 _atom_site_type_symbol
 _atom_site_label
 _atom_site_symmetry_multiplicity
 _atom_site_fract_x
 _atom_site_fract_y
 _atom_site_fract_z
 _atom_site_occupancy
  Pa  Pa0  1  0.250000  0.580645  0.858063  1
  Pa  Pa1  1  0.750000  0.418855  0.141965  1
  Pa  Pa2  1  0.750000  0.919498  0.358923  1
  Pa  Pa3  1  0.250000  0.080319  0.641870  1
  Mo  Mo4  1  0.750000  0.081979  0.898936  1
  Mo  Mo5  1  0.750000  0.579690  0.600442  1
  Mo  Mo6  1  0.250000  0.419648  0.399043  1
  W  W7  1  0.250000  0.918790  0.101055  1
  C  C8  1  0.250000  0.664346  0.245025  1
  C  C9  1  0.750000  0.337736  0.753766  1
  C  C10  1  0.750000  0.837321  0.746558  1
  C  C11  1  0.250000  0.161843  0.252961  1
  C  C12  1  0.250000  0.742501  0.509215  1
  C  C13  1  0.750000  0.257105  0.490773  1
  C  C14  1  0.750000  0.757896  0.010323  1
  C  C15  1  0.250000  0.241828  0.991080  1
