# generated using pymatgen
data_Zr(Hg4Cl3)2
_symmetry_space_group_name_H-M   'P 1'
_cell_length_a   7.75008773
_cell_length_b   8.92947272
_cell_length_c   15.22500600
_cell_angle_alpha   96.01369700
_cell_angle_beta   91.20879515
_cell_angle_gamma   100.28976591
_symmetry_Int_Tables_number   1
_chemical_formula_structural   Zr(Hg4Cl3)2
_chemical_formula_sum   'Zr2 Hg16 Cl12'
_cell_volume   1030.13003566
_cell_formula_units_Z   2
loop_
 _symmetry_equiv_pos_site_id
 _symmetry_equiv_pos_as_xyz
  1  'x, y, z'
loop_
 _atom_site_type_symbol
 _atom_site_label
 _atom_site_symmetry_multiplicity
 _atom_site_fract_x
 _atom_site_fract_y
 _atom_site_fract_z
 _atom_site_occupancy
  Zr  Zr0  1  0.000000  0.000000  0.000000  1
  Zr  Zr1  1  0.000000  0.000000  0.500000  1
  Hg  Hg2  1  0.555946  0.309643  0.082539  1
  Hg  Hg3  1  0.316908  0.662059  0.082648  1
  Hg  Hg4  1  0.472262  0.287048  0.256251  1
  Hg  Hg5  1  0.156155  0.596468  0.240263  1
  Hg  Hg6  1  0.645314  0.751915  0.213637  1
  Hg  Hg7  1  0.871504  0.420517  0.329117  1
  Hg  Hg8  1  0.424190  0.689494  0.380286  1
  Hg  Hg9  1  0.501308  0.286387  0.438501  1
  Hg  Hg10  1  0.498693  0.713612  0.561499  1
  Hg  Hg11  1  0.575810  0.310506  0.619714  1
  Hg  Hg12  1  0.128495  0.579483  0.670883  1
  Hg  Hg13  1  0.354685  0.248086  0.786363  1
  Hg  Hg14  1  0.843846  0.403533  0.759737  1
  Hg  Hg15  1  0.527737  0.712951  0.743749  1
  Hg  Hg16  1  0.683092  0.337941  0.917351  1
  Hg  Hg17  1  0.444054  0.690357  0.917460  1
  Cl  Cl18  1  0.109175  0.277436  0.986489  1
  Cl  Cl19  1  0.253500  0.996818  0.104565  1
  Cl  Cl20  1  0.822316  0.071933  0.127301  1
  Cl  Cl21  1  0.126658  0.929390  0.355674  1
  Cl  Cl22  1  0.713610  0.003344  0.421763  1
  Cl  Cl23  1  0.095134  0.278490  0.482488  1
  Cl  Cl24  1  0.904865  0.721511  0.517512  1
  Cl  Cl25  1  0.286389  0.996655  0.578236  1
  Cl  Cl26  1  0.873341  0.070610  0.644326  1
  Cl  Cl27  1  0.177685  0.928067  0.872699  1
  Cl  Cl28  1  0.746501  0.003181  0.895435  1
  Cl  Cl29  1  0.890824  0.722564  0.013511  1
