# generated using pymatgen
data_LaTh2Sn3Ir2Rh
_symmetry_space_group_name_H-M   'P 1'
_cell_length_a   7.60334700
_cell_length_b   7.64302153
_cell_length_c   4.12387300
_cell_angle_alpha   90.00000000
_cell_angle_beta   90.00000000
_cell_angle_gamma   119.82843719
_symmetry_Int_Tables_number   1
_chemical_formula_structural   LaTh2Sn3Ir2Rh
_chemical_formula_sum   'La1 Th2 Sn3 Ir2 Rh1'
_cell_volume   207.89977281
_cell_formula_units_Z   1
loop_
 _symmetry_equiv_pos_site_id
 _symmetry_equiv_pos_as_xyz
  1  'x, y, z'
loop_
 _atom_site_type_symbol
 _atom_site_label
 _atom_site_symmetry_multiplicity
 _atom_site_fract_x
 _atom_site_fract_y
 _atom_site_fract_z
 _atom_site_occupancy
  La  La0  1  0.586643  0.000000  0.000000  1
  Th  Th1  1  0.999242  0.585220  0.000000  1
  Th  Th2  1  0.414023  0.414780  0.000000  1
  Sn  Sn3  1  0.751181  0.755673  0.500000  1
  Sn  Sn4  1  0.995508  0.244327  0.500000  1
  Sn  Sn5  1  0.254705  0.000000  0.500000  1
  Ir  Ir6  1  0.319192  0.650007  0.500000  1
  Ir  Ir7  1  0.669187  0.349993  0.500000  1
  Rh  Rh8  1  0.010318  0.000000  0.000000  1
