# generated using pymatgen
data_Pr3Er4Th(ReB6)4
_symmetry_space_group_name_H-M   'P 1'
_cell_length_a   3.73871700
_cell_length_b   9.23971882
_cell_length_c   11.70140642
_cell_angle_alpha   90.06016568
_cell_angle_beta   90.00000000
_cell_angle_gamma   90.00000000
_symmetry_Int_Tables_number   1
_chemical_formula_structural   Pr3Er4Th(ReB6)4
_chemical_formula_sum   'Pr3 Er4 Th1 Re4 B24'
_cell_volume   404.22127930
_cell_formula_units_Z   1
loop_
 _symmetry_equiv_pos_site_id
 _symmetry_equiv_pos_as_xyz
  1  'x, y, z'
loop_
 _atom_site_type_symbol
 _atom_site_label
 _atom_site_symmetry_multiplicity
 _atom_site_fract_x
 _atom_site_fract_y
 _atom_site_fract_z
 _atom_site_occupancy
  Pr  Pr0  1  0.000000  0.678048  0.585722  1
  Pr  Pr1  1  0.000000  0.822448  0.085180  1
  Pr  Pr2  1  0.000000  0.177098  0.914473  1
  Er  Er3  1  0.000000  0.942122  0.369042  1
  Er  Er4  1  0.000000  0.056795  0.631308  1
  Er  Er5  1  0.000000  0.442959  0.129857  1
  Er  Er6  1  0.000000  0.557261  0.868910  1
  Th  Th7  1  0.000000  0.322738  0.414832  1
  Re  Re8  1  0.000000  0.637761  0.319644  1
  Re  Re9  1  0.000000  0.360891  0.679910  1
  Re  Re10  1  0.000000  0.140688  0.182082  1
  Re  Re11  1  0.000000  0.860601  0.819118  1
  B  B12  1  0.500000  0.554863  0.429759  1
  B  B13  1  0.500000  0.444046  0.569814  1
  B  B14  1  0.500000  0.055647  0.070199  1
  B  B15  1  0.500000  0.944929  0.930234  1
  B  B16  1  0.500000  0.750464  0.415026  1
  B  B17  1  0.500000  0.249485  0.584470  1
  B  B18  1  0.500000  0.250458  0.084795  1
  B  B19  1  0.500000  0.749465  0.915385  1
  B  B20  1  0.500000  0.790896  0.265893  1
  B  B21  1  0.500000  0.208889  0.733995  1
  B  B22  1  0.500000  0.291597  0.234511  1
  B  B23  1  0.500000  0.708590  0.765740  1
  B  B24  1  0.500000  0.629123  0.185897  1
  B  B25  1  0.500000  0.370809  0.813842  1
  B  B26  1  0.500000  0.129991  0.314377  1
  B  B27  1  0.500000  0.870697  0.686019  1
  B  B28  1  0.500000  0.984709  0.213541  1
  B  B29  1  0.500000  0.015884  0.786685  1
  B  B30  1  0.500000  0.484038  0.286419  1
  B  B31  1  0.500000  0.515723  0.713693  1
  B  B32  1  0.500000  0.595194  0.026208  1
  B  B33  1  0.500000  0.404791  0.973330  1
  B  B34  1  0.500000  0.096509  0.473413  1
  B  B35  1  0.500000  0.903791  0.526680  1
