# generated using pymatgen
data_Np2CoNiAs2
_symmetry_space_group_name_H-M   'P 1'
_cell_length_a   4.07751500
_cell_length_b   4.07751302
_cell_length_c   15.05663100
_cell_angle_alpha   90.00000000
_cell_angle_beta   90.00000000
_cell_angle_gamma   120.00002417
_symmetry_Int_Tables_number   1
_chemical_formula_structural   Np2CoNiAs2
_chemical_formula_sum   'Np4 Co2 Ni2 As4'
_cell_volume   216.79499758
_cell_formula_units_Z   2
loop_
 _symmetry_equiv_pos_site_id
 _symmetry_equiv_pos_as_xyz
  1  'x, y, z'
loop_
 _atom_site_type_symbol
 _atom_site_label
 _atom_site_symmetry_multiplicity
 _atom_site_fract_x
 _atom_site_fract_y
 _atom_site_fract_z
 _atom_site_occupancy
  Np  Np0  1  0.000000  0.000000  0.244559  1
  Np  Np1  1  0.000000  0.000000  0.755441  1
  Np  Np2  1  0.000000  0.000000  0.000000  1
  Np  Np3  1  0.000000  0.000000  0.500000  1
  Co  Co4  1  0.333333  0.666667  0.144484  1
  Co  Co5  1  0.666667  0.333333  0.855516  1
  Ni  Ni6  1  0.666667  0.333333  0.645458  1
  Ni  Ni7  1  0.333333  0.666667  0.354542  1
  As  As8  1  0.333333  0.666667  0.619827  1
  As  As9  1  0.666667  0.333333  0.380173  1
  As  As10  1  0.666667  0.333333  0.116796  1
  As  As11  1  0.333333  0.666667  0.883204  1
