# generated using pymatgen
data_Ho16Er3TmPb16
_symmetry_space_group_name_H-M   'P 1'
_cell_length_a   8.19115800
_cell_length_b   8.27279600
_cell_length_c   15.63403900
_cell_angle_alpha   90.00000000
_cell_angle_beta   90.00000000
_cell_angle_gamma   89.99901654
_symmetry_Int_Tables_number   1
_chemical_formula_structural   Ho16Er3TmPb16
_chemical_formula_sum   'Ho16 Er3 Tm1 Pb16'
_cell_volume   1059.42156583
_cell_formula_units_Z   1
loop_
 _symmetry_equiv_pos_site_id
 _symmetry_equiv_pos_as_xyz
  1  'x, y, z'
loop_
 _atom_site_type_symbol
 _atom_site_label
 _atom_site_symmetry_multiplicity
 _atom_site_fract_x
 _atom_site_fract_y
 _atom_site_fract_z
 _atom_site_occupancy
  Ho  Ho0  1  0.377351  0.841065  0.879183  1
  Ho  Ho1  1  0.877566  0.658887  0.620822  1
  Ho  Ho2  1  0.622651  0.158877  0.379303  1
  Ho  Ho3  1  0.122563  0.341061  0.120732  1
  Ho  Ho4  1  0.622651  0.158877  0.120697  1
  Ho  Ho5  1  0.122563  0.341061  0.379268  1
  Ho  Ho6  1  0.377351  0.841065  0.620817  1
  Ho  Ho7  1  0.877566  0.658887  0.879178  1
  Ho  Ho8  1  0.535303  0.323586  0.899973  1
  Ho  Ho9  1  0.035412  0.176430  0.600001  1
  Ho  Ho10  1  0.464689  0.676452  0.400059  1
  Ho  Ho11  1  0.964589  0.823630  0.099911  1
  Ho  Ho12  1  0.464689  0.676452  0.099941  1
  Ho  Ho13  1  0.964589  0.823630  0.400089  1
  Ho  Ho14  1  0.535303  0.323586  0.600027  1
  Ho  Ho15  1  0.035412  0.176430  0.899999  1
  Er  Er16  1  0.708984  0.995972  0.750000  1
  Er  Er17  1  0.791008  0.495783  0.250000  1
  Er  Er18  1  0.291073  0.004167  0.250000  1
  Tm  Tm19  1  0.209067  0.504113  0.750000  1
  Pb  Pb20  1  0.280991  0.033211  0.042825  1
  Pb  Pb21  1  0.780881  0.466766  0.457177  1
  Pb  Pb22  1  0.718959  0.966843  0.543085  1
  Pb  Pb23  1  0.219053  0.533139  0.956882  1
  Pb  Pb24  1  0.718959  0.966843  0.956915  1
  Pb  Pb25  1  0.219053  0.533139  0.543118  1
  Pb  Pb26  1  0.280991  0.033211  0.457175  1
  Pb  Pb27  1  0.780881  0.466766  0.042823  1
  Pb  Pb28  1  0.572102  0.626141  0.750000  1
  Pb  Pb29  1  0.072210  0.873692  0.750000  1
  Pb  Pb30  1  0.427706  0.373938  0.250000  1
  Pb  Pb31  1  0.927843  0.126093  0.250000  1
  Pb  Pb32  1  0.347656  0.154152  0.750000  1
  Pb  Pb33  1  0.847763  0.346118  0.750000  1
  Pb  Pb34  1  0.652298  0.845948  0.250000  1
  Pb  Pb35  1  0.152266  0.653995  0.250000  1
