# generated using pymatgen
data_Ta4Fe(CoSe6)2
_symmetry_space_group_name_H-M   'P 1'
_cell_length_a   7.25970161
_cell_length_b   7.25970229
_cell_length_c   19.35522808
_cell_angle_alpha   69.07584138
_cell_angle_beta   69.07583960
_cell_angle_gamma   27.25873643
_symmetry_Int_Tables_number   1
_chemical_formula_structural   Ta4Fe(CoSe6)2
_chemical_formula_sum   'Ta4 Fe1 Co2 Se12'
_cell_volume   434.51818120
_cell_formula_units_Z   1
loop_
 _symmetry_equiv_pos_site_id
 _symmetry_equiv_pos_as_xyz
  1  'x, y, z'
loop_
 _atom_site_type_symbol
 _atom_site_label
 _atom_site_symmetry_multiplicity
 _atom_site_fract_x
 _atom_site_fract_y
 _atom_site_fract_z
 _atom_site_occupancy
  Ta  Ta0  1  0.619975  0.619975  0.853521  1
  Ta  Ta1  1  0.380025  0.380025  0.146479  1
  Ta  Ta2  1  0.745281  0.745281  0.591943  1
  Ta  Ta3  1  0.254719  0.254719  0.408057  1
  Fe  Fe4  1  0.000000  0.000000  0.000000  1
  Co  Co5  1  0.229055  0.229055  0.717664  1
  Co  Co6  1  0.770945  0.770945  0.282336  1
  Se  Se7  1  0.969607  0.969607  0.887186  1
  Se  Se8  1  0.030393  0.030393  0.112814  1
  Se  Se9  1  0.626684  0.626684  0.395000  1
  Se  Se10  1  0.373316  0.373316  0.605000  1
  Se  Se11  1  0.133450  0.133450  0.551642  1
  Se  Se12  1  0.866550  0.866550  0.448358  1
  Se  Se13  1  0.804731  0.804731  0.765596  1
  Se  Se14  1  0.195269  0.195269  0.234404  1
  Se  Se15  1  0.179596  0.179596  0.930980  1
  Se  Se16  1  0.820404  0.820404  0.069020  1
  Se  Se17  1  0.605728  0.605728  0.721510  1
  Se  Se18  1  0.394272  0.394272  0.278490  1
