# generated using pymatgen
data_La12MnGeI17
_symmetry_space_group_name_H-M   'P 1'
_cell_length_a   10.04495086
_cell_length_b   12.12818854
_cell_length_c   12.13824913
_cell_angle_alpha   73.22389699
_cell_angle_beta   74.71547992
_cell_angle_gamma   66.42064615
_symmetry_Int_Tables_number   1
_chemical_formula_structural   La12MnGeI17
_chemical_formula_sum   'La12 Mn1 Ge1 I17'
_cell_volume   1278.99023657
_cell_formula_units_Z   1
loop_
 _symmetry_equiv_pos_site_id
 _symmetry_equiv_pos_as_xyz
  1  'x, y, z'
loop_
 _atom_site_type_symbol
 _atom_site_label
 _atom_site_symmetry_multiplicity
 _atom_site_fract_x
 _atom_site_fract_y
 _atom_site_fract_z
 _atom_site_occupancy
  La  La0  1  0.451667  0.478862  0.327795  1
  La  La1  1  0.565829  0.669909  0.999373  1
  La  La2  1  0.283119  0.999948  0.089427  1
  La  La3  1  0.875206  0.286349  0.858027  1
  La  La4  1  0.386607  0.237060  0.722632  1
  La  La5  1  0.716334  0.001391  0.909597  1
  La  La6  1  0.543856  0.522018  0.669390  1
  La  La7  1  0.439740  0.330844  0.003037  1
  La  La8  1  0.587642  0.760154  0.274958  1
  La  La9  1  0.827446  0.186742  0.573163  1
  La  La10  1  0.168856  0.812100  0.422283  1
  La  La11  1  0.164992  0.716022  0.154210  1
  Mn  Mn12  1  0.353988  0.735921  0.206740  1
  Ge  Ge13  1  0.634118  0.261599  0.786376  1
  I  I14  1  0.056662  0.106432  0.319561  1
  I  I15  1  0.467178  0.944711  0.826236  1
  I  I16  1  0.425312  0.824020  0.532224  1
  I  I17  1  0.570114  0.174984  0.469211  1
  I  I18  1  0.854551  0.697878  0.047564  1
  I  I19  1  0.211894  0.417880  0.250392  1
  I  I20  1  0.691470  0.365203  0.106459  1
  I  I21  1  0.533790  0.056416  0.171773  1
  I  I22  1  0.745771  0.471833  0.413270  1
  I  I23  1  0.886583  0.784399  0.369960  1
  I  I24  1  0.942339  0.896809  0.682997  1
  I  I25  1  0.145096  0.312893  0.955856  1
  I  I26  1  0.317282  0.629893  0.893693  1
  I  I27  1  0.999241  0.999429  0.999511  1
  I  I28  1  0.111859  0.213199  0.628184  1
  I  I29  1  0.788839  0.579287  0.747464  1
  I  I30  1  0.252620  0.525812  0.588636  1
