# generated using pymatgen
data_LiYSc(Co3P2)3
_symmetry_space_group_name_H-M   'P 1'
_cell_length_a   3.63474800
_cell_length_b   10.19139100
_cell_length_c   11.75320000
_cell_angle_alpha   90.00000000
_cell_angle_beta   90.00000000
_cell_angle_gamma   90.00000000
_symmetry_Int_Tables_number   1
_chemical_formula_structural   LiYSc(Co3P2)3
_chemical_formula_sum   'Li2 Y2 Sc2 Co18 P12'
_cell_volume   435.37541018
_cell_formula_units_Z   2
loop_
 _symmetry_equiv_pos_site_id
 _symmetry_equiv_pos_as_xyz
  1  'x, y, z'
loop_
 _atom_site_type_symbol
 _atom_site_label
 _atom_site_symmetry_multiplicity
 _atom_site_fract_x
 _atom_site_fract_y
 _atom_site_fract_z
 _atom_site_occupancy
  Li  Li0  1  0.250000  0.702884  0.991738  1
  Li  Li1  1  0.250000  0.797116  0.491738  1
  Y  Y2  1  0.750000  0.421070  0.296799  1
  Y  Y3  1  0.750000  0.078930  0.796799  1
  Sc  Sc4  1  0.250000  0.578463  0.702307  1
  Sc  Sc5  1  0.250000  0.921537  0.202307  1
  Co  Co6  1  0.750000  0.288147  0.008850  1
  Co  Co7  1  0.750000  0.211853  0.508850  1
  Co  Co8  1  0.250000  0.405767  0.489226  1
  Co  Co9  1  0.250000  0.094233  0.989226  1
  Co  Co10  1  0.750000  0.592056  0.518774  1
  Co  Co11  1  0.750000  0.907944  0.018774  1
  Co  Co12  1  0.250000  0.224316  0.174837  1
  Co  Co13  1  0.250000  0.275685  0.674837  1
  Co  Co14  1  0.750000  0.778768  0.826427  1
  Co  Co15  1  0.750000  0.721232  0.326427  1
  Co  Co16  1  0.250000  0.877422  0.698552  1
  Co  Co17  1  0.250000  0.622578  0.198552  1
  Co  Co18  1  0.750000  0.119033  0.298033  1
  Co  Co19  1  0.750000  0.380967  0.798033  1
  Co  Co20  1  0.250000  0.465195  0.928878  1
  Co  Co21  1  0.250000  0.034805  0.428878  1
  Co  Co22  1  0.750000  0.537199  0.064771  1
  Co  Co23  1  0.750000  0.962801  0.564771  1
  P  P24  1  0.250000  0.424176  0.110383  1
  P  P25  1  0.250000  0.075824  0.610383  1
  P  P26  1  0.750000  0.577347  0.879943  1
  P  P27  1  0.750000  0.922653  0.379943  1
  P  P28  1  0.250000  0.267476  0.868097  1
  P  P29  1  0.250000  0.232524  0.368097  1
  P  P30  1  0.750000  0.735927  0.139424  1
  P  P31  1  0.750000  0.764073  0.639424  1
  P  P32  1  0.250000  0.602606  0.394047  1
  P  P33  1  0.250000  0.897394  0.894047  1
  P  P34  1  0.750000  0.398636  0.608917  1
  P  P35  1  0.750000  0.101364  0.108917  1
