# generated using pymatgen
data_Dy5Er5(TlBi)3
_symmetry_space_group_name_H-M   'P 1'
_cell_length_a   9.02728100
_cell_length_b   9.03414760
_cell_length_c   6.53816000
_cell_angle_alpha   90.00000000
_cell_angle_beta   90.00000000
_cell_angle_gamma   120.02516009
_symmetry_Int_Tables_number   1
_chemical_formula_structural   Dy5Er5(TlBi)3
_chemical_formula_sum   'Dy5 Er5 Tl3 Bi3'
_cell_volume   461.65777761
_cell_formula_units_Z   1
loop_
 _symmetry_equiv_pos_site_id
 _symmetry_equiv_pos_as_xyz
  1  'x, y, z'
loop_
 _atom_site_type_symbol
 _atom_site_label
 _atom_site_symmetry_multiplicity
 _atom_site_fract_x
 _atom_site_fract_y
 _atom_site_fract_z
 _atom_site_occupancy
  Dy  Dy0  1  0.763563  0.763298  0.750000  1
  Dy  Dy1  1  0.236437  0.999735  0.750000  1
  Dy  Dy2  1  0.000000  0.237232  0.750000  1
  Dy  Dy3  1  0.238012  0.237959  0.250000  1
  Dy  Dy4  1  0.761988  0.999947  0.250000  1
  Er  Er5  1  0.666734  0.333605  0.006180  1
  Er  Er6  1  0.333266  0.666871  0.006180  1
  Er  Er7  1  0.333266  0.666871  0.493820  1
  Er  Er8  1  0.666734  0.333605  0.493820  1
  Er  Er9  1  0.000000  0.761713  0.250000  1
  Tl  Tl10  1  0.607387  0.606672  0.250000  1
  Tl  Tl11  1  0.392613  0.999285  0.250000  1
  Tl  Tl12  1  0.000000  0.393541  0.250000  1
  Bi  Bi13  1  0.396758  0.396580  0.750000  1
  Bi  Bi14  1  0.603242  0.999822  0.750000  1
  Bi  Bi15  1  0.000000  0.603264  0.750000  1
