# generated using pymatgen
data_CaNdNi5C3
_symmetry_space_group_name_H-M   'P 1'
_cell_length_a   8.24188683
_cell_length_b   8.24188683
_cell_length_c   3.92084700
_cell_angle_alpha   90.00000000
_cell_angle_beta   90.00000000
_cell_angle_gamma   89.94865416
_symmetry_Int_Tables_number   1
_chemical_formula_structural   CaNdNi5C3
_chemical_formula_sum   'Ca2 Nd2 Ni10 C6'
_cell_volume   266.33792668
_cell_formula_units_Z   2
loop_
 _symmetry_equiv_pos_site_id
 _symmetry_equiv_pos_as_xyz
  1  'x, y, z'
loop_
 _atom_site_type_symbol
 _atom_site_label
 _atom_site_symmetry_multiplicity
 _atom_site_fract_x
 _atom_site_fract_y
 _atom_site_fract_z
 _atom_site_occupancy
  Ca  Ca0  1  0.155160  0.344840  0.000000  1
  Ca  Ca1  1  0.844840  0.655160  0.000000  1
  Nd  Nd2  1  0.340133  0.840133  0.000000  1
  Nd  Nd3  1  0.659867  0.159867  0.000000  1
  Ni  Ni4  1  0.576686  0.712115  0.500000  1
  Ni  Ni5  1  0.423314  0.287885  0.500000  1
  Ni  Ni6  1  0.922728  0.213080  0.500000  1
  Ni  Ni7  1  0.077272  0.786920  0.500000  1
  Ni  Ni8  1  0.713080  0.422728  0.500000  1
  Ni  Ni9  1  0.286920  0.577272  0.500000  1
  Ni  Ni10  1  0.212115  0.076686  0.500000  1
  Ni  Ni11  1  0.787885  0.923314  0.500000  1
  Ni  Ni12  1  0.500000  0.500000  0.000000  1
  Ni  Ni13  1  0.000000  0.000000  0.000000  1
  C  C14  1  0.500000  0.500000  0.500000  1
  C  C15  1  0.000000  0.000000  0.500000  1
  C  C16  1  0.057591  0.557591  0.500000  1
  C  C17  1  0.942409  0.442409  0.500000  1
  C  C18  1  0.441646  0.058354  0.500000  1
  C  C19  1  0.558354  0.941646  0.500000  1
