# generated using pymatgen
data_ErTm3TcB12Ru
_symmetry_space_group_name_H-M   'P 1'
_cell_length_a   3.63134500
_cell_length_b   9.08218218
_cell_length_c   11.45813801
_cell_angle_alpha   89.86021059
_cell_angle_beta   90.00000000
_cell_angle_gamma   90.00000000
_symmetry_Int_Tables_number   1
_chemical_formula_structural   ErTm3TcB12Ru
_chemical_formula_sum   'Er2 Tm6 Tc2 B24 Ru2'
_cell_volume   377.89441829
_cell_formula_units_Z   2
loop_
 _symmetry_equiv_pos_site_id
 _symmetry_equiv_pos_as_xyz
  1  'x, y, z'
loop_
 _atom_site_type_symbol
 _atom_site_label
 _atom_site_symmetry_multiplicity
 _atom_site_fract_x
 _atom_site_fract_y
 _atom_site_fract_z
 _atom_site_occupancy
  Er  Er0  1  0.000000  0.324474  0.415658  1
  Er  Er1  1  0.000000  0.675526  0.584342  1
  Tm  Tm2  1  0.000000  0.820601  0.087413  1
  Tm  Tm3  1  0.000000  0.179399  0.912587  1
  Tm  Tm4  1  0.000000  0.942192  0.370723  1
  Tm  Tm5  1  0.000000  0.057808  0.629277  1
  Tm  Tm6  1  0.000000  0.443231  0.129788  1
  Tm  Tm7  1  0.000000  0.556769  0.870212  1
  Tc  Tc8  1  0.000000  0.638605  0.319927  1
  Tc  Tc9  1  0.000000  0.361395  0.680073  1
  B  B10  1  0.500000  0.553084  0.433238  1
  B  B11  1  0.500000  0.446916  0.566762  1
  B  B12  1  0.500000  0.053713  0.066520  1
  B  B13  1  0.500000  0.946287  0.933480  1
  B  B14  1  0.500000  0.749192  0.419117  1
  B  B15  1  0.500000  0.250808  0.580883  1
  B  B16  1  0.500000  0.249121  0.080714  1
  B  B17  1  0.500000  0.750879  0.919286  1
  B  B18  1  0.500000  0.792129  0.264736  1
  B  B19  1  0.500000  0.207871  0.735264  1
  B  B20  1  0.500000  0.291041  0.234548  1
  B  B21  1  0.500000  0.708959  0.765452  1
  B  B22  1  0.500000  0.631050  0.184522  1
  B  B23  1  0.500000  0.368950  0.815478  1
  B  B24  1  0.500000  0.130585  0.314527  1
  B  B25  1  0.500000  0.869415  0.685473  1
  B  B26  1  0.500000  0.982275  0.211888  1
  B  B27  1  0.500000  0.017725  0.788112  1
  B  B28  1  0.500000  0.481796  0.287441  1
  B  B29  1  0.500000  0.518204  0.712559  1
  B  B30  1  0.500000  0.602945  0.028272  1
  B  B31  1  0.500000  0.397055  0.971728  1
  B  B32  1  0.500000  0.102817  0.471388  1
  B  B33  1  0.500000  0.897183  0.528612  1
  Ru  Ru34  1  0.000000  0.137642  0.178453  1
  Ru  Ru35  1  0.000000  0.862358  0.821547  1
