# generated using pymatgen
data_Tm3Lu7(Bi2Ir)2
_symmetry_space_group_name_H-M   'P 1'
_cell_length_a   7.83340563
_cell_length_b   8.94456400
_cell_length_c   12.39239900
_cell_angle_alpha   90.00000000
_cell_angle_beta   89.97710628
_cell_angle_gamma   90.00000000
_symmetry_Int_Tables_number   1
_chemical_formula_structural   Tm3Lu7(Bi2Ir)2
_chemical_formula_sum   'Tm6 Lu14 Bi8 Ir4'
_cell_volume   868.29069062
_cell_formula_units_Z   2
loop_
 _symmetry_equiv_pos_site_id
 _symmetry_equiv_pos_as_xyz
  1  'x, y, z'
loop_
 _atom_site_type_symbol
 _atom_site_label
 _atom_site_symmetry_multiplicity
 _atom_site_fract_x
 _atom_site_fract_y
 _atom_site_fract_z
 _atom_site_occupancy
  Tm  Tm0  1  0.627114  0.250000  0.688986  1
  Tm  Tm1  1  0.372886  0.750000  0.311014  1
  Tm  Tm2  1  0.557305  0.750000  0.998332  1
  Tm  Tm3  1  0.442695  0.250000  0.001668  1
  Tm  Tm4  1  0.057192  0.250000  0.501871  1
  Tm  Tm5  1  0.942808  0.750000  0.498129  1
  Lu  Lu6  1  0.660773  0.750000  0.706709  1
  Lu  Lu7  1  0.339227  0.250000  0.293291  1
  Lu  Lu8  1  0.160722  0.250000  0.793421  1
  Lu  Lu9  1  0.839278  0.750000  0.206579  1
  Lu  Lu10  1  0.126399  0.750000  0.812272  1
  Lu  Lu11  1  0.873601  0.250000  0.187728  1
  Lu  Lu12  1  0.829032  0.458615  0.932468  1
  Lu  Lu13  1  0.170968  0.541385  0.067532  1
  Lu  Lu14  1  0.328823  0.541747  0.567849  1
  Lu  Lu15  1  0.170968  0.958615  0.067532  1
  Lu  Lu16  1  0.671177  0.458253  0.432151  1
  Lu  Lu17  1  0.829032  0.041385  0.932468  1
  Lu  Lu18  1  0.671177  0.041747  0.432151  1
  Lu  Lu19  1  0.328823  0.958253  0.567849  1
  Bi  Bi20  1  0.938041  0.007352  0.673206  1
  Bi  Bi21  1  0.061959  0.992648  0.326794  1
  Bi  Bi22  1  0.437037  0.991892  0.827080  1
  Bi  Bi23  1  0.061959  0.507352  0.326794  1
  Bi  Bi24  1  0.562963  0.008108  0.172920  1
  Bi  Bi25  1  0.938041  0.492648  0.673206  1
  Bi  Bi26  1  0.562963  0.491892  0.172920  1
  Bi  Bi27  1  0.437037  0.508108  0.827080  1
  Ir  Ir28  1  0.928890  0.750000  0.992732  1
  Ir  Ir29  1  0.071110  0.250000  0.007268  1
  Ir  Ir30  1  0.428712  0.250000  0.507388  1
  Ir  Ir31  1  0.571288  0.750000  0.492612  1
