# generated using pymatgen
data_Dy4Co3Si12Ni17
_symmetry_space_group_name_H-M   'P 1'
_cell_length_a   3.78335300
_cell_length_b   6.61815475
_cell_length_c   18.73660685
_cell_angle_alpha   90.10466016
_cell_angle_beta   90.00000000
_cell_angle_gamma   90.00000000
_symmetry_Int_Tables_number   1
_chemical_formula_structural   Dy4Co3Si12Ni17
_chemical_formula_sum   'Dy4 Co3 Si12 Ni17'
_cell_volume   469.14166157
_cell_formula_units_Z   1
loop_
 _symmetry_equiv_pos_site_id
 _symmetry_equiv_pos_as_xyz
  1  'x, y, z'
loop_
 _atom_site_type_symbol
 _atom_site_label
 _atom_site_symmetry_multiplicity
 _atom_site_fract_x
 _atom_site_fract_y
 _atom_site_fract_z
 _atom_site_occupancy
  Dy  Dy0  1  0.250000  0.874624  0.355723  1
  Dy  Dy1  1  0.750000  0.125067  0.643489  1
  Dy  Dy2  1  0.750000  0.374440  0.144025  1
  Dy  Dy3  1  0.250000  0.624454  0.856193  1
  Co  Co4  1  0.250000  0.064653  0.205836  1
  Co  Co5  1  0.750000  0.936315  0.794594  1
  Co  Co6  1  0.750000  0.564423  0.294218  1
  Si  Si7  1  0.250000  0.079931  0.086634  1
  Si  Si8  1  0.750000  0.919243  0.913874  1
  Si  Si9  1  0.750000  0.580706  0.413706  1
  Si  Si10  1  0.250000  0.420889  0.585943  1
  Si  Si11  1  0.250000  0.655279  0.074541  1
  Si  Si12  1  0.750000  0.343375  0.925447  1
  Si  Si13  1  0.750000  0.156355  0.425277  1
  Si  Si14  1  0.250000  0.845145  0.574226  1
  Si  Si15  1  0.250000  0.375213  0.261429  1
  Si  Si16  1  0.750000  0.627359  0.738925  1
  Si  Si17  1  0.750000  0.875352  0.238320  1
  Si  Si18  1  0.250000  0.120755  0.762157  1
  Ni  Ni19  1  0.250000  0.431474  0.706343  1
  Ni  Ni20  1  0.250000  0.616127  0.484566  1
  Ni  Ni21  1  0.750000  0.386166  0.515321  1
  Ni  Ni22  1  0.750000  0.114878  0.015527  1
  Ni  Ni23  1  0.250000  0.884957  0.984973  1
  Ni  Ni24  1  0.250000  0.682922  0.200367  1
  Ni  Ni25  1  0.750000  0.317515  0.800159  1
  Ni  Ni26  1  0.750000  0.183218  0.299506  1
  Ni  Ni27  1  0.250000  0.815677  0.699709  1
  Ni  Ni28  1  0.250000  0.359838  0.382893  1
  Ni  Ni29  1  0.750000  0.644890  0.616318  1
  Ni  Ni30  1  0.750000  0.859310  0.117038  1
  Ni  Ni31  1  0.250000  0.139579  0.883331  1
  Ni  Ni32  1  0.250000  0.364352  0.004718  1
  Ni  Ni33  1  0.750000  0.634155  0.995355  1
  Ni  Ni34  1  0.750000  0.866436  0.494887  1
  Ni  Ni35  1  0.250000  0.134930  0.504433  1
