# generated using pymatgen
data_Sc5NbReSi6Tc5
_symmetry_space_group_name_H-M   'P 1'
_cell_length_a   7.73402058
_cell_length_b   7.72943502
_cell_length_c   7.73634161
_cell_angle_alpha   126.44057479
_cell_angle_beta   127.78767946
_cell_angle_gamma   78.05720846
_symmetry_Int_Tables_number   1
_chemical_formula_structural   Sc5NbReSi6Tc5
_chemical_formula_sum   'Sc5 Nb1 Re1 Si6 Tc5'
_cell_volume   284.91648995
_cell_formula_units_Z   1
loop_
 _symmetry_equiv_pos_site_id
 _symmetry_equiv_pos_as_xyz
  1  'x, y, z'
loop_
 _atom_site_type_symbol
 _atom_site_label
 _atom_site_symmetry_multiplicity
 _atom_site_fract_x
 _atom_site_fract_y
 _atom_site_fract_z
 _atom_site_occupancy
  Sc  Sc0  1  0.554706  0.098617  0.043826  1
  Sc  Sc1  1  0.449992  0.502579  0.552922  1
  Sc  Sc2  1  0.944770  0.489285  0.043535  1
  Sc  Sc3  1  0.050151  0.102054  0.552374  1
  Sc  Sc4  1  0.751089  0.891275  0.641691  1
  Nb  Nb5  1  0.249733  0.891204  0.142165  1
  Re  Re6  1  0.371276  0.500887  0.127767  1
  Si  Si7  1  0.751238  0.493735  0.244241  1
  Si  Si8  1  0.248850  0.499425  0.747715  1
  Si  Si9  1  0.323499  0.829743  0.484860  1
  Si  Si10  1  0.654043  0.162006  0.485299  1
  Si  Si11  1  0.845420  0.831213  0.008071  1
  Si  Si12  1  0.178131  0.164253  0.008875  1
  Tc  Tc13  1  0.492171  0.236405  0.729474  1
  Tc  Tc14  1  0.006906  0.236513  0.243385  1
  Tc  Tc15  1  0.128853  0.756988  0.629817  1
  Tc  Tc16  1  0.872200  0.499808  0.628712  1
  Tc  Tc17  1  0.626973  0.756210  0.127468  1
