# generated using pymatgen
data_Ba6TbLu(BO3)6
_symmetry_space_group_name_H-M   'P 1'
_cell_length_a   8.21753686
_cell_length_b   8.21753780
_cell_length_c   8.21753674
_cell_angle_alpha   105.70398436
_cell_angle_beta   105.70397806
_cell_angle_gamma   105.70397030
_symmetry_Int_Tables_number   1
_chemical_formula_structural   Ba6TbLu(BO3)6
_chemical_formula_sum   'Ba6 Tb1 Lu1 B6 O18'
_cell_volume   477.53464286
_cell_formula_units_Z   1
loop_
 _symmetry_equiv_pos_site_id
 _symmetry_equiv_pos_as_xyz
  1  'x, y, z'
loop_
 _atom_site_type_symbol
 _atom_site_label
 _atom_site_symmetry_multiplicity
 _atom_site_fract_x
 _atom_site_fract_y
 _atom_site_fract_z
 _atom_site_occupancy
  Ba  Ba0  1  0.349874  0.733741  0.840301  1
  Ba  Ba1  1  0.840301  0.349874  0.733741  1
  Ba  Ba2  1  0.733741  0.840301  0.349874  1
  Ba  Ba3  1  0.650126  0.266259  0.159699  1
  Ba  Ba4  1  0.159699  0.650126  0.266259  1
  Ba  Ba5  1  0.266259  0.159699  0.650126  1
  Tb  Tb6  1  0.000000  0.000000  0.000000  1
  Lu  Lu7  1  0.500000  0.500000  0.500000  1
  B  B8  1  0.708534  0.622743  0.952652  1
  B  B9  1  0.952652  0.708534  0.622743  1
  B  B10  1  0.622743  0.952652  0.708534  1
  B  B11  1  0.047348  0.291466  0.377257  1
  B  B12  1  0.377257  0.047348  0.291466  1
  B  B13  1  0.291466  0.377257  0.047348  1
  O  O14  1  0.059113  0.801450  0.548132  1
  O  O15  1  0.548132  0.059113  0.801450  1
  O  O16  1  0.426446  0.489753  0.218696  1
  O  O17  1  0.489753  0.218696  0.426446  1
  O  O18  1  0.218696  0.426446  0.489753  1
  O  O19  1  0.781304  0.573554  0.510247  1
  O  O20  1  0.573554  0.510247  0.781304  1
  O  O21  1  0.510247  0.781304  0.573554  1
  O  O22  1  0.258082  0.190634  0.984875  1
  O  O23  1  0.190634  0.984875  0.258082  1
  O  O24  1  0.984875  0.258082  0.190634  1
  O  O25  1  0.741918  0.809366  0.015125  1
  O  O26  1  0.809366  0.015125  0.741918  1
  O  O27  1  0.015125  0.741918  0.809366  1
  O  O28  1  0.198550  0.451868  0.940887  1
  O  O29  1  0.451868  0.940887  0.198550  1
  O  O30  1  0.940887  0.198550  0.451868  1
  O  O31  1  0.801450  0.548132  0.059113  1
