# generated using pymatgen
data_Pr8Ga(Si4Au)3
_symmetry_space_group_name_H-M   'P 1'
_cell_length_a   8.30018600
_cell_length_b   8.30018656
_cell_length_c   8.72643800
_cell_angle_alpha   90.00000000
_cell_angle_beta   90.00000000
_cell_angle_gamma   120.00000574
_symmetry_Int_Tables_number   1
_chemical_formula_structural   Pr8Ga(Si4Au)3
_chemical_formula_sum   'Pr8 Ga1 Si12 Au3'
_cell_volume   520.64690677
_cell_formula_units_Z   1
loop_
 _symmetry_equiv_pos_site_id
 _symmetry_equiv_pos_as_xyz
  1  'x, y, z'
loop_
 _atom_site_type_symbol
 _atom_site_label
 _atom_site_symmetry_multiplicity
 _atom_site_fract_x
 _atom_site_fract_y
 _atom_site_fract_z
 _atom_site_occupancy
  Pr  Pr0  1  0.501353  0.498647  0.746626  1
  Pr  Pr1  1  0.501694  0.498306  0.253330  1
  Pr  Pr2  1  0.997294  0.498647  0.746626  1
  Pr  Pr3  1  0.996611  0.498306  0.253330  1
  Pr  Pr4  1  0.501353  0.002706  0.746626  1
  Pr  Pr5  1  0.501694  0.003389  0.253330  1
  Pr  Pr6  1  0.000000  0.000000  0.749316  1
  Pr  Pr7  1  0.000000  0.000000  0.250857  1
  Ga  Ga8  1  0.666667  0.333333  0.500299  1
  Si  Si9  1  0.836476  0.163524  0.000870  1
  Si  Si10  1  0.164058  0.835942  0.999140  1
  Si  Si11  1  0.327048  0.163524  0.000870  1
  Si  Si12  1  0.164611  0.835389  0.499706  1
  Si  Si13  1  0.671883  0.835942  0.999140  1
  Si  Si14  1  0.835686  0.164314  0.500443  1
  Si  Si15  1  0.836476  0.672952  0.000870  1
  Si  Si16  1  0.670779  0.835389  0.499706  1
  Si  Si17  1  0.164058  0.328117  0.999140  1
  Si  Si18  1  0.328628  0.164314  0.500443  1
  Si  Si19  1  0.164611  0.329221  0.499706  1
  Si  Si20  1  0.835686  0.671372  0.500443  1
  Au  Au21  1  0.666667  0.333333  0.998797  1
  Au  Au22  1  0.333333  0.666667  0.000877  1
  Au  Au23  1  0.333333  0.666667  0.499504  1
