# generated using pymatgen
data_Er15Lu5(CoSb2)4
_symmetry_space_group_name_H-M   'P 1'
_cell_length_a   12.09212924
_cell_length_b   8.73208745
_cell_length_c   7.76509885
_cell_angle_alpha   89.97235468
_cell_angle_beta   89.95406735
_cell_angle_gamma   90.02431066
_symmetry_Int_Tables_number   1
_chemical_formula_structural   Er15Lu5(CoSb2)4
_chemical_formula_sum   'Er15 Lu5 Co4 Sb8'
_cell_volume   819.91270530
_cell_formula_units_Z   1
loop_
 _symmetry_equiv_pos_site_id
 _symmetry_equiv_pos_as_xyz
  1  'x, y, z'
loop_
 _atom_site_type_symbol
 _atom_site_label
 _atom_site_symmetry_multiplicity
 _atom_site_fract_x
 _atom_site_fract_y
 _atom_site_fract_z
 _atom_site_occupancy
  Er  Er0  1  0.502122  0.749544  0.050641  1
  Er  Er1  1  0.808579  0.249908  0.123973  1
  Er  Er2  1  0.795974  0.750002  0.156205  1
  Er  Er3  1  0.296034  0.749693  0.344126  1
  Er  Er4  1  0.309016  0.250439  0.376938  1
  Er  Er5  1  0.002131  0.749969  0.448773  1
  Er  Er6  1  0.997964  0.250023  0.546625  1
  Er  Er7  1  0.690850  0.749409  0.621896  1
  Er  Er8  1  0.703424  0.250087  0.655363  1
  Er  Er9  1  0.434537  0.964207  0.676897  1
  Er  Er10  1  0.934803  0.535848  0.823045  1
  Er  Er11  1  0.934800  0.964129  0.823086  1
  Er  Er12  1  0.203983  0.250062  0.844227  1
  Er  Er13  1  0.191410  0.750205  0.878702  1
  Er  Er14  1  0.497880  0.250696  0.951682  1
  Lu  Lu15  1  0.065888  0.036685  0.174717  1
  Lu  Lu16  1  0.065869  0.463295  0.174659  1
  Lu  Lu17  1  0.565365  0.036164  0.325290  1
  Lu  Lu18  1  0.565473  0.463372  0.325678  1
  Lu  Lu19  1  0.434624  0.536183  0.674324  1
  Co  Co20  1  0.009263  0.749983  0.068801  1
  Co  Co21  1  0.508633  0.749193  0.432991  1
  Co  Co22  1  0.491542  0.250498  0.564746  1
  Co  Co23  1  0.991692  0.250006  0.936163  1
  Sb  Sb24  1  0.327326  0.008557  0.069422  1
  Sb  Sb25  1  0.327414  0.491817  0.068191  1
  Sb  Sb26  1  0.826843  0.008243  0.430990  1
  Sb  Sb27  1  0.827006  0.491676  0.430834  1
  Sb  Sb28  1  0.172494  0.508061  0.568669  1
  Sb  Sb29  1  0.172279  0.992072  0.568385  1
  Sb  Sb30  1  0.672567  0.507899  0.932151  1
  Sb  Sb31  1  0.672215  0.992071  0.931814  1
