# generated using pymatgen
data_Tb2Nd2C2Br5
_symmetry_space_group_name_H-M   'P 1'
_cell_length_a   3.93165120
_cell_length_b   8.27218894
_cell_length_c   9.91969200
_cell_angle_alpha   104.70481445
_cell_angle_beta   78.56978600
_cell_angle_gamma   90.00000407
_symmetry_Int_Tables_number   1
_chemical_formula_structural   Tb2Nd2C2Br5
_chemical_formula_sum   'Tb2 Nd2 C2 Br5'
_cell_volume   305.43480669
_cell_formula_units_Z   1
loop_
 _symmetry_equiv_pos_site_id
 _symmetry_equiv_pos_as_xyz
  1  'x, y, z'
loop_
 _atom_site_type_symbol
 _atom_site_label
 _atom_site_symmetry_multiplicity
 _atom_site_fract_x
 _atom_site_fract_y
 _atom_site_fract_z
 _atom_site_occupancy
  Tb  Tb0  1  0.657045  0.897655  0.685909  1
  Tb  Tb1  1  0.349951  0.097694  0.300097  1
  Nd  Nd2  1  0.003487  0.199236  0.993025  1
  Nd  Nd3  1  0.003435  0.796317  0.993129  1
  C  C4  1  0.465842  0.021538  0.068317  1
  C  C5  1  0.541185  0.973822  0.917630  1
  Br  Br6  1  0.166552  0.638779  0.666897  1
  Br  Br7  1  0.840255  0.356611  0.319488  1
  Br  Br8  1  0.502919  0.498169  0.994162  1
  Br  Br9  1  0.173250  0.147607  0.653500  1
  Br  Br10  1  0.833678  0.847866  0.332644  1
