# generated using pymatgen
data_Lu8Ta4Ti5Si16W3
_symmetry_space_group_name_H-M   'P 1'
_cell_length_a   6.75319209
_cell_length_b   6.93297158
_cell_length_c   13.14379430
_cell_angle_alpha   90.00434284
_cell_angle_beta   89.97020740
_cell_angle_gamma   90.03519617
_symmetry_Int_Tables_number   1
_chemical_formula_structural   Lu8Ta4Ti5Si16W3
_chemical_formula_sum   'Lu8 Ta4 Ti5 Si16 W3'
_cell_volume   615.38815866
_cell_formula_units_Z   1
loop_
 _symmetry_equiv_pos_site_id
 _symmetry_equiv_pos_as_xyz
  1  'x, y, z'
loop_
 _atom_site_type_symbol
 _atom_site_label
 _atom_site_symmetry_multiplicity
 _atom_site_fract_x
 _atom_site_fract_y
 _atom_site_fract_z
 _atom_site_occupancy
  Lu  Lu0  1  0.502581  0.672958  0.595204  1
  Lu  Lu1  1  0.002622  0.827926  0.904783  1
  Lu  Lu2  1  0.497733  0.327842  0.096353  1
  Lu  Lu3  1  0.997929  0.171644  0.404179  1
  Lu  Lu4  1  0.498373  0.327218  0.404005  1
  Lu  Lu5  1  0.000265  0.171289  0.095803  1
  Lu  Lu6  1  0.500179  0.671993  0.905346  1
  Lu  Lu7  1  0.001345  0.828929  0.595347  1
  Ta  Ta8  1  0.665220  0.172479  0.626297  1
  Ta  Ta9  1  0.164697  0.325495  0.873803  1
  Ta  Ta10  1  0.335295  0.827350  0.127290  1
  Ta  Ta11  1  0.837989  0.490798  0.749652  1
  Ti  Ti12  1  0.835244  0.671707  0.372164  1
  Ti  Ti13  1  0.333090  0.827844  0.373418  1
  Ti  Ti14  1  0.834105  0.674448  0.127211  1
  Ti  Ti15  1  0.665855  0.173709  0.874229  1
  Ti  Ti16  1  0.167185  0.325465  0.625015  1
  Si  Si17  1  0.662278  0.959343  0.455825  1
  Si  Si18  1  0.162396  0.537083  0.043068  1
  Si  Si19  1  0.337464  0.037365  0.958173  1
  Si  Si20  1  0.838295  0.464690  0.540457  1
  Si  Si21  1  0.334986  0.037022  0.541300  1
  Si  Si22  1  0.834286  0.464255  0.959940  1
  Si  Si23  1  0.665597  0.964138  0.041924  1
  Si  Si24  1  0.163324  0.537405  0.456549  1
  Si  Si25  1  0.460456  0.380162  0.750183  1
  Si  Si26  1  0.963970  0.118697  0.749370  1
  Si  Si27  1  0.537924  0.619839  0.251772  1
  Si  Si28  1  0.035468  0.878674  0.251277  1
  Si  Si29  1  0.702159  0.869372  0.751351  1
  Si  Si30  1  0.205588  0.634092  0.748762  1
  Si  Si31  1  0.296735  0.132730  0.250981  1
  Si  Si32  1  0.797777  0.367675  0.249708  1
  W  W33  1  0.338985  0.009300  0.749278  1
  W  W34  1  0.161504  0.508895  0.250293  1
  W  W35  1  0.661095  0.990171  0.249686  1
