# generated using pymatgen
data_Tb2YZr(Co4P3)2
_symmetry_space_group_name_H-M   'P 1'
_cell_length_a   3.72794100
_cell_length_b   10.70925700
_cell_length_c   12.43696700
_cell_angle_alpha   90.00000000
_cell_angle_beta   90.00000000
_cell_angle_gamma   90.00000000
_symmetry_Int_Tables_number   1
_chemical_formula_structural   Tb2YZr(Co4P3)2
_chemical_formula_sum   'Tb4 Y2 Zr2 Co16 P12'
_cell_volume   496.52698152
_cell_formula_units_Z   2
loop_
 _symmetry_equiv_pos_site_id
 _symmetry_equiv_pos_as_xyz
  1  'x, y, z'
loop_
 _atom_site_type_symbol
 _atom_site_label
 _atom_site_symmetry_multiplicity
 _atom_site_fract_x
 _atom_site_fract_y
 _atom_site_fract_z
 _atom_site_occupancy
  Tb  Tb0  1  0.000000  0.500000  0.529319  1
  Tb  Tb1  1  0.500000  0.000000  0.470627  1
  Tb  Tb2  1  0.000000  0.678367  0.795015  1
  Tb  Tb3  1  0.000000  0.321633  0.795015  1
  Y  Y4  1  0.500000  0.821514  0.204892  1
  Y  Y5  1  0.500000  0.178486  0.204892  1
  Zr  Zr6  1  0.500000  0.500000  0.158184  1
  Zr  Zr7  1  0.000000  0.000000  0.841846  1
  Co  Co8  1  0.500000  0.500000  0.703557  1
  Co  Co9  1  0.000000  0.000000  0.296422  1
  Co  Co10  1  0.000000  0.500000  0.986095  1
  Co  Co11  1  0.500000  0.000000  0.014018  1
  Co  Co12  1  0.500000  0.332011  0.992907  1
  Co  Co13  1  0.500000  0.667989  0.992907  1
  Co  Co14  1  0.000000  0.167950  0.007207  1
  Co  Co15  1  0.000000  0.832050  0.007207  1
  Co  Co16  1  0.500000  0.295159  0.433326  1
  Co  Co17  1  0.500000  0.704841  0.433326  1
  Co  Co18  1  0.000000  0.204862  0.566552  1
  Co  Co19  1  0.000000  0.795138  0.566552  1
  Co  Co20  1  0.500000  0.877891  0.701142  1
  Co  Co21  1  0.500000  0.122109  0.701142  1
  Co  Co22  1  0.000000  0.622191  0.298805  1
  Co  Co23  1  0.000000  0.377809  0.298805  1
  P  P24  1  0.500000  0.500000  0.884085  1
  P  P25  1  0.000000  0.000000  0.116219  1
  P  P26  1  0.500000  0.500000  0.362717  1
  P  P27  1  0.000000  0.000000  0.637292  1
  P  P28  1  0.500000  0.309302  0.615226  1
  P  P29  1  0.500000  0.690698  0.615226  1
  P  P30  1  0.000000  0.190530  0.384611  1
  P  P31  1  0.000000  0.809470  0.384611  1
  P  P32  1  0.500000  0.838438  0.894667  1
  P  P33  1  0.500000  0.161562  0.894667  1
  P  P34  1  0.000000  0.661641  0.105458  1
  P  P35  1  0.000000  0.338359  0.105458  1
