# generated using pymatgen
data_Nd8Sc12Ga15Si
_symmetry_space_group_name_H-M   'P 1'
_cell_length_a   7.42308103
_cell_length_b   7.64041661
_cell_length_c   14.68092900
_cell_angle_alpha   90.00000000
_cell_angle_beta   90.00000000
_cell_angle_gamma   90.11451987
_symmetry_Int_Tables_number   1
_chemical_formula_structural   Nd8Sc12Ga15Si
_chemical_formula_sum   'Nd8 Sc12 Ga15 Si1'
_cell_volume   832.63356070
_cell_formula_units_Z   1
loop_
 _symmetry_equiv_pos_site_id
 _symmetry_equiv_pos_as_xyz
  1  'x, y, z'
loop_
 _atom_site_type_symbol
 _atom_site_label
 _atom_site_symmetry_multiplicity
 _atom_site_fract_x
 _atom_site_fract_y
 _atom_site_fract_z
 _atom_site_occupancy
  Nd  Nd0  1  0.012134  0.175147  0.095276  1
  Nd  Nd1  1  0.986455  0.822188  0.903135  1
  Nd  Nd2  1  0.488313  0.675742  0.903888  1
  Nd  Nd3  1  0.986455  0.822188  0.596865  1
  Nd  Nd4  1  0.511625  0.323986  0.094899  1
  Nd  Nd5  1  0.012134  0.175147  0.404724  1
  Nd  Nd6  1  0.511625  0.323986  0.405101  1
  Nd  Nd7  1  0.488313  0.675742  0.596112  1
  Sc  Sc8  1  0.157949  0.500097  0.750000  1
  Sc  Sc9  1  0.837815  0.500151  0.250000  1
  Sc  Sc10  1  0.338576  0.999568  0.250000  1
  Sc  Sc11  1  0.662587  0.996818  0.750000  1
  Sc  Sc12  1  0.332082  0.173890  0.624270  1
  Sc  Sc13  1  0.669466  0.827315  0.375319  1
  Sc  Sc14  1  0.169764  0.673548  0.375094  1
  Sc  Sc15  1  0.669466  0.827315  0.124681  1
  Sc  Sc16  1  0.829944  0.329915  0.624695  1
  Sc  Sc17  1  0.332082  0.173890  0.875730  1
  Sc  Sc18  1  0.829944  0.329915  0.875305  1
  Sc  Sc19  1  0.169764  0.673548  0.124906  1
  Ga  Ga20  1  0.032095  0.122445  0.750000  1
  Ga  Ga21  1  0.967882  0.878905  0.250000  1
  Ga  Ga22  1  0.467828  0.621380  0.250000  1
  Ga  Ga23  1  0.532944  0.382081  0.750000  1
  Ga  Ga24  1  0.287212  0.878377  0.750000  1
  Ga  Ga25  1  0.714145  0.123200  0.250000  1
  Ga  Ga26  1  0.214191  0.377009  0.250000  1
  Ga  Ga27  1  0.157310  0.462758  0.540804  1
  Ga  Ga28  1  0.842793  0.537195  0.459780  1
  Ga  Ga29  1  0.342430  0.961767  0.460365  1
  Ga  Ga30  1  0.842793  0.537195  0.040220  1
  Ga  Ga31  1  0.658445  0.037418  0.540923  1
  Ga  Ga32  1  0.157310  0.462758  0.959196  1
  Ga  Ga33  1  0.658445  0.037418  0.959077  1
  Ga  Ga34  1  0.342430  0.961767  0.039635  1
  Si  Si35  1  0.785253  0.618229  0.750000  1
