# generated using pymatgen
data_Y3Ho(Si2Tc)2
_symmetry_space_group_name_H-M   'P 1'
_cell_length_a   5.80197509
_cell_length_b   5.80197499
_cell_length_c   10.08711700
_cell_angle_alpha   63.56161768
_cell_angle_beta   63.56161818
_cell_angle_gamma   42.31038243
_symmetry_Int_Tables_number   1
_chemical_formula_structural   Y3Ho(Si2Tc)2
_chemical_formula_sum   'Y3 Ho1 Si4 Tc2'
_cell_volume   200.84433341
_cell_formula_units_Z   1
loop_
 _symmetry_equiv_pos_site_id
 _symmetry_equiv_pos_as_xyz
  1  'x, y, z'
loop_
 _atom_site_type_symbol
 _atom_site_label
 _atom_site_symmetry_multiplicity
 _atom_site_fract_x
 _atom_site_fract_y
 _atom_site_fract_z
 _atom_site_occupancy
  Y  Y0  1  0.187504  0.187504  0.891129  1
  Y  Y1  1  0.994255  0.994255  0.677154  1
  Y  Y2  1  0.812144  0.812144  0.109554  1
  Ho  Ho3  1  0.004759  0.004759  0.323535  1
  Si  Si4  1  0.357259  0.357259  0.559867  1
  Si  Si5  1  0.499172  0.499172  0.877812  1
  Si  Si6  1  0.642960  0.642960  0.439052  1
  Si  Si7  1  0.501451  0.501451  0.122889  1
  Tc  Tc8  1  0.727783  0.727783  0.628623  1
  Tc  Tc9  1  0.272713  0.272713  0.370385  1
