# generated using pymatgen
data_LiDy(Si7Rh3)2
_symmetry_space_group_name_H-M   'P 1'
_cell_length_a   7.94849205
_cell_length_b   7.94849244
_cell_length_c   7.94849304
_cell_angle_alpha   57.16726019
_cell_angle_beta   57.16725658
_cell_angle_gamma   57.16725353
_symmetry_Int_Tables_number   1
_chemical_formula_structural   LiDy(Si7Rh3)2
_chemical_formula_sum   'Li1 Dy1 Si14 Rh6'
_cell_volume   331.91673626
_cell_formula_units_Z   1
loop_
 _symmetry_equiv_pos_site_id
 _symmetry_equiv_pos_as_xyz
  1  'x, y, z'
loop_
 _atom_site_type_symbol
 _atom_site_label
 _atom_site_symmetry_multiplicity
 _atom_site_fract_x
 _atom_site_fract_y
 _atom_site_fract_z
 _atom_site_occupancy
  Li  Li0  1  0.000000  0.000000  0.000000  1
  Dy  Dy1  1  0.500000  0.500000  0.500000  1
  Si  Si2  1  0.749501  0.749501  0.749501  1
  Si  Si3  1  0.250499  0.250499  0.250499  1
  Si  Si4  1  0.852768  0.065486  0.675359  1
  Si  Si5  1  0.675359  0.852768  0.065486  1
  Si  Si6  1  0.065486  0.675359  0.852768  1
  Si  Si7  1  0.651536  0.830037  0.430266  1
  Si  Si8  1  0.430266  0.651536  0.830037  1
  Si  Si9  1  0.830037  0.430266  0.651536  1
  Si  Si10  1  0.169963  0.569734  0.348464  1
  Si  Si11  1  0.569734  0.348464  0.169963  1
  Si  Si12  1  0.348464  0.169963  0.569734  1
  Si  Si13  1  0.934514  0.324641  0.147232  1
  Si  Si14  1  0.324641  0.147232  0.934514  1
  Si  Si15  1  0.147232  0.934514  0.324641  1
  Rh  Rh16  1  0.072195  0.430462  0.748736  1
  Rh  Rh17  1  0.251264  0.927805  0.569538  1
  Rh  Rh18  1  0.569538  0.251264  0.927805  1
  Rh  Rh19  1  0.927805  0.569538  0.251264  1
  Rh  Rh20  1  0.430462  0.748736  0.072195  1
  Rh  Rh21  1  0.748736  0.072195  0.430462  1
