# generated using pymatgen
data_Tm16InCo4Ag3
_symmetry_space_group_name_H-M   'P 1'
_cell_length_a   9.30686319
_cell_length_b   9.31417255
_cell_length_c   9.31414900
_cell_angle_alpha   59.99804800
_cell_angle_beta   59.97203959
_cell_angle_gamma   59.97211112
_symmetry_Int_Tables_number   1
_chemical_formula_structural   Tm16InCo4Ag3
_chemical_formula_sum   'Tm16 In1 Co4 Ag3'
_cell_volume   570.67119839
_cell_formula_units_Z   1
loop_
 _symmetry_equiv_pos_site_id
 _symmetry_equiv_pos_as_xyz
  1  'x, y, z'
loop_
 _atom_site_type_symbol
 _atom_site_label
 _atom_site_symmetry_multiplicity
 _atom_site_fract_x
 _atom_site_fract_y
 _atom_site_fract_z
 _atom_site_occupancy
  Tm  Tm0  1  0.345774  0.347437  0.347481  1
  Tm  Tm1  1  0.345792  0.347455  0.959294  1
  Tm  Tm2  1  0.345771  0.959309  0.347480  1
  Tm  Tm3  1  0.955673  0.348098  0.348138  1
  Tm  Tm4  1  0.811083  0.188885  0.188887  1
  Tm  Tm5  1  0.187779  0.811352  0.811292  1
  Tm  Tm6  1  0.187782  0.811327  0.189581  1
  Tm  Tm7  1  0.811110  0.188881  0.811125  1
  Tm  Tm8  1  0.187778  0.189576  0.811302  1
  Tm  Tm9  1  0.811074  0.811156  0.188884  1
  Tm  Tm10  1  0.935439  0.562845  0.562865  1
  Tm  Tm11  1  0.561761  0.937804  0.937799  1
  Tm  Tm12  1  0.561764  0.937803  0.562632  1
  Tm  Tm13  1  0.935439  0.562841  0.938854  1
  Tm  Tm14  1  0.561783  0.562634  0.937791  1
  Tm  Tm15  1  0.935449  0.938861  0.562843  1
  In  In16  1  0.268107  0.577299  0.577297  1
  Co  Co17  1  0.139181  0.142009  0.142014  1
  Co  Co18  1  0.139181  0.142011  0.576788  1
  Co  Co19  1  0.139177  0.576787  0.142018  1
  Co  Co20  1  0.575670  0.141440  0.141446  1
  Ag  Ag21  1  0.585811  0.582193  0.582194  1
  Ag  Ag22  1  0.585812  0.582194  0.249801  1
  Ag  Ag23  1  0.585811  0.249802  0.582193  1
