# generated using pymatgen
data_NaU8O18
_symmetry_space_group_name_H-M   'P 1'
_cell_length_a   6.60464506
_cell_length_b   6.60214908
_cell_length_c   8.52087606
_cell_angle_alpha   82.57008823
_cell_angle_beta   75.05239814
_cell_angle_gamma   80.43495124
_symmetry_Int_Tables_number   1
_chemical_formula_structural   NaU8O18
_chemical_formula_sum   'Na1 U8 O18'
_cell_volume   352.52793189
_cell_formula_units_Z   1
loop_
 _symmetry_equiv_pos_site_id
 _symmetry_equiv_pos_as_xyz
  1  'x, y, z'
loop_
 _atom_site_type_symbol
 _atom_site_label
 _atom_site_symmetry_multiplicity
 _atom_site_fract_x
 _atom_site_fract_y
 _atom_site_fract_z
 _atom_site_occupancy
  Na  Na0  1  0.000000  0.000000  0.500000  1
  U  U1  1  0.332297  0.670388  0.169305  1
  U  U2  1  0.781865  0.554574  0.390519  1
  U  U3  1  0.110250  0.220732  0.060612  1
  U  U4  1  0.667703  0.329612  0.830695  1
  U  U5  1  0.218135  0.445426  0.609481  1
  U  U6  1  0.555895  0.109857  0.281999  1
  U  U7  1  0.889750  0.779268  0.939388  1
  U  U8  1  0.444105  0.890143  0.718001  1
  O  O9  1  0.581446  0.662969  0.914391  1
  O  O10  1  0.032366  0.559749  0.133078  1
  O  O11  1  0.418554  0.337031  0.085609  1
  O  O12  1  0.090631  0.648247  0.407945  1
  O  O13  1  0.806546  0.107885  0.028772  1
  O  O14  1  0.474153  0.451269  0.360787  1
  O  O15  1  0.853483  0.236847  0.295281  1
  O  O16  1  0.525847  0.548731  0.639213  1
  O  O17  1  0.268376  0.000377  0.236430  1
  O  O18  1  0.909369  0.351753  0.592055  1
  O  O19  1  0.193454  0.892115  0.971228  1
  O  O20  1  0.731624  0.999623  0.763570  1
  O  O21  1  0.677492  0.875728  0.469512  1
  O  O22  1  0.353672  0.226318  0.811000  1
  O  O23  1  0.646328  0.773682  0.189000  1
  O  O24  1  0.322508  0.124272  0.530488  1
  O  O25  1  0.967634  0.440251  0.866922  1
  O  O26  1  0.146517  0.763153  0.704719  1
