# generated using pymatgen
data_ErU3(SnIr2)2
_symmetry_space_group_name_H-M   'P 1'
_cell_length_a   7.67291859
_cell_length_b   7.67291859
_cell_length_c   3.54591900
_cell_angle_alpha   90.00000000
_cell_angle_beta   90.00000000
_cell_angle_gamma   91.33998791
_symmetry_Int_Tables_number   1
_chemical_formula_structural   ErU3(SnIr2)2
_chemical_formula_sum   'Er1 U3 Sn2 Ir4'
_cell_volume   208.70420999
_cell_formula_units_Z   1
loop_
 _symmetry_equiv_pos_site_id
 _symmetry_equiv_pos_as_xyz
  1  'x, y, z'
loop_
 _atom_site_type_symbol
 _atom_site_label
 _atom_site_symmetry_multiplicity
 _atom_site_fract_x
 _atom_site_fract_y
 _atom_site_fract_z
 _atom_site_occupancy
  Er  Er0  1  0.170724  0.329276  0.000000  1
  U  U1  1  0.832501  0.667499  0.000000  1
  U  U2  1  0.668948  0.172579  0.000000  1
  U  U3  1  0.327421  0.831052  0.000000  1
  Sn  Sn4  1  0.003054  0.009955  0.500000  1
  Sn  Sn5  1  0.490045  0.496946  0.500000  1
  Ir  Ir6  1  0.387162  0.112838  0.500000  1
  Ir  Ir7  1  0.642966  0.857034  0.500000  1
  Ir  Ir8  1  0.851645  0.374466  0.500000  1
  Ir  Ir9  1  0.125534  0.648355  0.500000  1
