# generated using pymatgen
data_TaTi10NbAl8(IrC)4
_symmetry_space_group_name_H-M   'P 1'
_cell_length_a   8.21780190
_cell_length_b   8.24669147
_cell_length_c   8.21780100
_cell_angle_alpha   59.88363472
_cell_angle_beta   60.23272412
_cell_angle_gamma   59.88362839
_symmetry_Int_Tables_number   1
_chemical_formula_structural   TaTi10NbAl8(IrC)4
_chemical_formula_sum   'Ta1 Ti10 Nb1 Al8 Ir4 C4'
_cell_volume   393.79048817
_cell_formula_units_Z   1
loop_
 _symmetry_equiv_pos_site_id
 _symmetry_equiv_pos_as_xyz
  1  'x, y, z'
loop_
 _atom_site_type_symbol
 _atom_site_label
 _atom_site_symmetry_multiplicity
 _atom_site_fract_x
 _atom_site_fract_y
 _atom_site_fract_z
 _atom_site_occupancy
  Ta  Ta0  1  0.936222  0.563791  0.936216  1
  Ti  Ti1  1  0.562600  0.937403  0.562597  1
  Ti  Ti2  1  0.313588  0.686412  0.686967  1
  Ti  Ti3  1  0.686958  0.313038  0.313595  1
  Ti  Ti4  1  0.312923  0.687071  0.312927  1
  Ti  Ti5  1  0.686952  0.686392  0.313601  1
  Ti  Ti6  1  0.313601  0.313054  0.686946  1
  Ti  Ti7  1  0.563948  0.563087  0.936589  1
  Ti  Ti8  1  0.936603  0.563078  0.563934  1
  Ti  Ti9  1  0.563934  0.936388  0.936605  1
  Ti  Ti10  1  0.936591  0.936375  0.563948  1
  Nb  Nb11  1  0.686131  0.313869  0.686127  1
  Al  Al12  1  0.913860  0.917584  0.913865  1
  Al  Al13  1  0.995214  0.335773  0.333230  1
  Al  Al14  1  0.335899  0.993676  0.335908  1
  Al  Al15  1  0.333228  0.335782  0.995217  1
  Al  Al16  1  0.913864  0.254692  0.913861  1
  Al  Al17  1  0.915799  0.913910  0.256381  1
  Al  Al18  1  0.256376  0.913913  0.915801  1
  Al  Al19  1  0.335906  0.334519  0.335899  1
  Ir  Ir20  1  0.124527  0.125583  0.124525  1
  Ir  Ir21  1  0.624658  0.124620  0.126087  1
  Ir  Ir22  1  0.124521  0.625374  0.124517  1
  Ir  Ir23  1  0.126088  0.124621  0.624661  1
  C  C24  1  0.624747  0.629975  0.624752  1
  C  C25  1  0.128396  0.624748  0.622104  1
  C  C26  1  0.624759  0.120522  0.624744  1
  C  C27  1  0.622106  0.624749  0.128395  1
