# generated using pymatgen
data_LaZn3Ru2
_symmetry_space_group_name_H-M   'P 1'
_cell_length_a   5.30473100
_cell_length_b   5.48963803
_cell_length_c   4.34002600
_cell_angle_alpha   90.00000000
_cell_angle_beta   90.00000000
_cell_angle_gamma   121.15992108
_symmetry_Int_Tables_number   1
_chemical_formula_structural   LaZn3Ru2
_chemical_formula_sum   'La1 Zn3 Ru2'
_cell_volume   108.15194774
_cell_formula_units_Z   1
loop_
 _symmetry_equiv_pos_site_id
 _symmetry_equiv_pos_as_xyz
  1  'x, y, z'
loop_
 _atom_site_type_symbol
 _atom_site_label
 _atom_site_symmetry_multiplicity
 _atom_site_fract_x
 _atom_site_fract_y
 _atom_site_fract_z
 _atom_site_occupancy
  La  La0  1  0.994409  0.997204  0.000000  1
  Zn  Zn1  1  0.676407  0.338203  0.000000  1
  Zn  Zn2  1  0.517731  0.002320  0.500000  1
  Zn  Zn3  1  0.517731  0.515411  0.500000  1
  Ru  Ru4  1  0.008639  0.504320  0.500000  1
  Ru  Ru5  1  0.285083  0.642542  0.000000  1
