# generated using pymatgen
data_Sr6PaTcO12
_symmetry_space_group_name_H-M   'P 1'
_cell_length_a   6.24337827
_cell_length_b   5.97676484
_cell_length_c   10.53475373
_cell_angle_alpha   55.33558882
_cell_angle_beta   90.61350900
_cell_angle_gamma   90.04690071
_symmetry_Int_Tables_number   1
_chemical_formula_structural   Sr6PaTcO12
_chemical_formula_sum   'Sr6 Pa1 Tc1 O12'
_cell_volume   323.30391553
_cell_formula_units_Z   1
loop_
 _symmetry_equiv_pos_site_id
 _symmetry_equiv_pos_as_xyz
  1  'x, y, z'
loop_
 _atom_site_type_symbol
 _atom_site_label
 _atom_site_symmetry_multiplicity
 _atom_site_fract_x
 _atom_site_fract_y
 _atom_site_fract_z
 _atom_site_occupancy
  Sr  Sr0  1  0.500000  0.500000  0.500000  1
  Sr  Sr1  1  0.946479  0.733279  0.249499  1
  Sr  Sr2  1  0.445693  0.282430  0.239954  1
  Sr  Sr3  1  0.000000  0.500000  0.000000  1
  Sr  Sr4  1  0.554307  0.717570  0.760046  1
  Sr  Sr5  1  0.053521  0.266721  0.750501  1
  Pa  Pa6  1  0.000000  0.000000  0.500000  1
  Tc  Tc7  1  0.500000  0.000000  0.000000  1
  O  O8  1  0.455592  0.106304  0.793472  1
  O  O9  1  0.245251  0.776780  0.059215  1
  O  O10  1  0.184314  0.352688  0.435526  1
  O  O11  1  0.670379  0.695541  0.043619  1
  O  O12  1  0.718284  0.271087  0.410160  1
  O  O13  1  0.935328  0.892392  0.735967  1
  O  O14  1  0.064672  0.107608  0.264033  1
  O  O15  1  0.281716  0.728913  0.589840  1
  O  O16  1  0.329621  0.304459  0.956381  1
  O  O17  1  0.815686  0.647312  0.564474  1
  O  O18  1  0.754749  0.223220  0.940785  1
  O  O19  1  0.544408  0.893696  0.206528  1
