# generated using pymatgen
data_Tb8CoNiHg2
_symmetry_space_group_name_H-M   'P 1'
_cell_length_a   9.49852610
_cell_length_b   9.50543668
_cell_length_c   9.50570061
_cell_angle_alpha   60.24577367
_cell_angle_beta   60.14862168
_cell_angle_gamma   60.14117824
_symmetry_Int_Tables_number   1
_chemical_formula_structural   Tb8CoNiHg2
_chemical_formula_sum   'Tb16 Co2 Ni2 Hg4'
_cell_volume   609.32479532
_cell_formula_units_Z   2
loop_
 _symmetry_equiv_pos_site_id
 _symmetry_equiv_pos_as_xyz
  1  'x, y, z'
loop_
 _atom_site_type_symbol
 _atom_site_label
 _atom_site_symmetry_multiplicity
 _atom_site_fract_x
 _atom_site_fract_y
 _atom_site_fract_z
 _atom_site_occupancy
  Tb  Tb0  1  0.438568  0.439960  0.057800  1
  Tb  Tb1  1  0.594995  0.597798  0.597574  1
  Tb  Tb2  1  0.187996  0.812693  0.812783  1
  Tb  Tb3  1  0.064780  0.057462  0.437193  1
  Tb  Tb4  1  0.435870  0.061846  0.062006  1
  Tb  Tb5  1  0.811019  0.189308  0.813882  1
  Tb  Tb6  1  0.438529  0.057690  0.439981  1
  Tb  Tb7  1  0.600757  0.197894  0.605243  1
  Tb  Tb8  1  0.811137  0.813912  0.189236  1
  Tb  Tb9  1  0.202225  0.601510  0.601404  1
  Tb  Tb10  1  0.808855  0.189550  0.189543  1
  Tb  Tb11  1  0.061263  0.439556  0.439604  1
  Tb  Tb12  1  0.188051  0.811650  0.188747  1
  Tb  Tb13  1  0.600712  0.605334  0.197949  1
  Tb  Tb14  1  0.188059  0.188756  0.811657  1
  Tb  Tb15  1  0.064684  0.437162  0.057558  1
  Co  Co16  1  0.392528  0.824478  0.391132  1
  Co  Co17  1  0.392531  0.391189  0.824520  1
  Ni  Ni18  1  0.395886  0.392890  0.392755  1
  Ni  Ni19  1  0.823925  0.390892  0.390933  1
  Hg  Hg20  1  0.834671  0.833866  0.496028  1
  Hg  Hg21  1  0.833261  0.833965  0.833983  1
  Hg  Hg22  1  0.495015  0.834603  0.834611  1
  Hg  Hg23  1  0.834682  0.496035  0.833874  1
