# generated using pymatgen
data_Dy6Pa(Ga3Co8)2
_symmetry_space_group_name_H-M   'P 1'
_cell_length_a   8.49313601
_cell_length_b   8.49845598
_cell_length_c   8.50401500
_cell_angle_alpha   120.02164442
_cell_angle_beta   90.00000000
_cell_angle_gamma   119.98784878
_symmetry_Int_Tables_number   1
_chemical_formula_structural   Dy6Pa(Ga3Co8)2
_chemical_formula_sum   'Dy6 Pa1 Ga6 Co16'
_cell_volume   433.96505694
_cell_formula_units_Z   1
loop_
 _symmetry_equiv_pos_site_id
 _symmetry_equiv_pos_as_xyz
  1  'x, y, z'
loop_
 _atom_site_type_symbol
 _atom_site_label
 _atom_site_symmetry_multiplicity
 _atom_site_fract_x
 _atom_site_fract_y
 _atom_site_fract_z
 _atom_site_occupancy
  Dy  Dy0  1  0.290632  0.999931  0.290550  1
  Dy  Dy1  1  0.290591  0.581280  0.290640  1
  Dy  Dy2  1  0.709369  0.000069  0.290619  1
  Dy  Dy3  1  0.709368  0.000069  0.709450  1
  Dy  Dy4  1  0.290632  0.999931  0.709382  1
  Dy  Dy5  1  0.709410  0.418721  0.709361  1
  Pa  Pa6  1  0.000000  0.000000  0.000000  1
  Ga  Ga7  1  0.500000  0.000000  0.000000  1
  Ga  Ga8  1  0.000000  0.500000  0.000000  1
  Ga  Ga9  1  0.500000  0.500000  0.000000  1
  Ga  Ga10  1  0.000000  0.000000  0.500000  1
  Ga  Ga11  1  0.000000  0.500000  0.500000  1
  Ga  Ga12  1  0.500000  0.500000  0.500000  1
  Co  Co13  1  0.678218  0.356369  0.034681  1
  Co  Co14  1  0.374262  0.249561  0.124781  1
  Co  Co15  1  0.875414  0.249209  0.124605  1
  Co  Co16  1  0.875183  0.750361  0.124862  1
  Co  Co17  1  0.678218  0.356369  0.321689  1
  Co  Co18  1  0.678389  0.643326  0.321664  1
  Co  Co19  1  0.965203  0.643411  0.321706  1
  Co  Co20  1  0.124817  0.249638  0.374500  1
  Co  Co21  1  0.875183  0.750361  0.625499  1
  Co  Co22  1  0.034798  0.356588  0.678294  1
  Co  Co23  1  0.321611  0.356673  0.678336  1
  Co  Co24  1  0.321782  0.643630  0.678311  1
  Co  Co25  1  0.124817  0.249638  0.875138  1
  Co  Co26  1  0.124586  0.750790  0.875395  1
  Co  Co27  1  0.625737  0.750438  0.875219  1
  Co  Co28  1  0.321782  0.643630  0.965320  1
