# generated using pymatgen
data_Cs3HPbF8
_symmetry_space_group_name_H-M   'P 1'
_cell_length_a   9.31663890
_cell_length_b   9.31663986
_cell_length_c   7.65549717
_cell_angle_alpha   88.46384534
_cell_angle_beta   88.46384285
_cell_angle_gamma   115.13386781
_symmetry_Int_Tables_number   1
_chemical_formula_structural   Cs3HPbF8
_chemical_formula_sum   'Cs6 H2 Pb2 F16'
_cell_volume   600.82756683
_cell_formula_units_Z   2
loop_
 _symmetry_equiv_pos_site_id
 _symmetry_equiv_pos_as_xyz
  1  'x, y, z'
loop_
 _atom_site_type_symbol
 _atom_site_label
 _atom_site_symmetry_multiplicity
 _atom_site_fract_x
 _atom_site_fract_y
 _atom_site_fract_z
 _atom_site_occupancy
  Cs  Cs0  1  0.655722  0.344278  0.750000  1
  Cs  Cs1  1  0.344278  0.655722  0.250000  1
  Cs  Cs2  1  0.678000  0.875718  0.719813  1
  Cs  Cs3  1  0.124282  0.322000  0.780187  1
  Cs  Cs4  1  0.322000  0.124282  0.280187  1
  Cs  Cs5  1  0.875718  0.678000  0.219813  1
  H  H6  1  0.500000  0.500000  0.500000  1
  H  H7  1  0.500000  0.500000  0.000000  1
  Pb  Pb8  1  0.822304  0.177696  0.250000  1
  Pb  Pb9  1  0.177696  0.822304  0.750000  1
  F  F10  1  0.610885  0.972549  0.311613  1
  F  F11  1  0.027451  0.389115  0.188387  1
  F  F12  1  0.389115  0.027451  0.688387  1
  F  F13  1  0.972549  0.610885  0.811613  1
  F  F14  1  0.594174  0.627771  0.011972  1
  F  F15  1  0.372229  0.405826  0.488028  1
  F  F16  1  0.405826  0.372229  0.988028  1
  F  F17  1  0.627771  0.594174  0.511972  1
  F  F18  1  0.956200  0.043800  0.250000  1
  F  F19  1  0.043800  0.956200  0.750000  1
  F  F20  1  0.687836  0.312164  0.250000  1
  F  F21  1  0.312164  0.687836  0.750000  1
  F  F22  1  0.786955  0.146475  0.977898  1
  F  F23  1  0.853525  0.213045  0.522102  1
  F  F24  1  0.213045  0.853525  0.022102  1
  F  F25  1  0.146475  0.786955  0.477898  1
