# generated using pymatgen
data_Sc5NbCr2(Co4P3)4
_symmetry_space_group_name_H-M   'P 1'
_cell_length_a   11.88623334
_cell_length_b   11.88623326
_cell_length_c   3.60554200
_cell_angle_alpha   90.00000000
_cell_angle_beta   90.00000000
_cell_angle_gamma   119.91415994
_symmetry_Int_Tables_number   1
_chemical_formula_structural   Sc5NbCr2(Co4P3)4
_chemical_formula_sum   'Sc5 Nb1 Cr2 Co16 P12'
_cell_volume   441.53455550
_cell_formula_units_Z   1
loop_
 _symmetry_equiv_pos_site_id
 _symmetry_equiv_pos_as_xyz
  1  'x, y, z'
loop_
 _atom_site_type_symbol
 _atom_site_label
 _atom_site_symmetry_multiplicity
 _atom_site_fract_x
 _atom_site_fract_y
 _atom_site_fract_z
 _atom_site_occupancy
  Sc  Sc0  1  0.815404  0.000214  0.500000  1
  Sc  Sc1  1  0.000214  0.815404  0.500000  1
  Sc  Sc2  1  0.180732  0.180732  0.500000  1
  Sc  Sc3  1  0.332422  0.666579  0.000000  1
  Sc  Sc4  1  0.666579  0.332422  0.000000  1
  Nb  Nb5  1  0.553692  0.553692  0.000000  1
  Cr  Cr6  1  0.448316  0.000459  0.000000  1
  Cr  Cr7  1  0.000459  0.448316  0.000000  1
  Co  Co8  1  0.281710  0.998754  0.500000  1
  Co  Co9  1  0.998754  0.281710  0.500000  1
  Co  Co10  1  0.722135  0.722135  0.500000  1
  Co  Co11  1  0.627026  0.807154  0.000000  1
  Co  Co12  1  0.199687  0.823525  0.000000  1
  Co  Co13  1  0.173615  0.373397  0.000000  1
  Co  Co14  1  0.373397  0.173615  0.000000  1
  Co  Co15  1  0.807154  0.627026  0.000000  1
  Co  Co16  1  0.823525  0.199687  0.000000  1
  Co  Co17  1  0.518224  0.875289  0.500000  1
  Co  Co18  1  0.128725  0.646669  0.500000  1
  Co  Co19  1  0.349777  0.480696  0.500000  1
  Co  Co20  1  0.480696  0.349777  0.500000  1
  Co  Co21  1  0.875289  0.518224  0.500000  1
  Co  Co22  1  0.646669  0.128725  0.500000  1
  Co  Co23  1  0.001088  0.001088  0.000000  1
  P  P24  1  0.175923  0.998293  0.000000  1
  P  P25  1  0.998293  0.175923  0.000000  1
  P  P26  1  0.825245  0.825245  0.000000  1
  P  P27  1  0.515600  0.688258  0.500000  1
  P  P28  1  0.318361  0.835040  0.500000  1
  P  P29  1  0.162745  0.482461  0.500000  1
  P  P30  1  0.482461  0.162745  0.500000  1
  P  P31  1  0.688258  0.515600  0.500000  1
  P  P32  1  0.835040  0.318361  0.500000  1
  P  P33  1  0.640379  0.003172  0.000000  1
  P  P34  1  0.003172  0.640379  0.000000  1
  P  P35  1  0.349235  0.349235  0.000000  1
