# generated using pymatgen
data_CaPr3(Pd2Pb)2
_symmetry_space_group_name_H-M   'P 1'
_cell_length_a   8.02728956
_cell_length_b   8.02728956
_cell_length_c   3.84700900
_cell_angle_alpha   90.00000000
_cell_angle_beta   90.00000000
_cell_angle_gamma   89.55122784
_symmetry_Int_Tables_number   1
_chemical_formula_structural   CaPr3(Pd2Pb)2
_chemical_formula_sum   'Ca1 Pr3 Pd4 Pb2'
_cell_volume   247.88356787
_cell_formula_units_Z   1
loop_
 _symmetry_equiv_pos_site_id
 _symmetry_equiv_pos_as_xyz
  1  'x, y, z'
loop_
 _atom_site_type_symbol
 _atom_site_label
 _atom_site_symmetry_multiplicity
 _atom_site_fract_x
 _atom_site_fract_y
 _atom_site_fract_z
 _atom_site_occupancy
  Ca  Ca0  1  0.325276  0.825276  0.500000  1
  Pr  Pr1  1  0.673507  0.173507  0.500000  1
  Pr  Pr2  1  0.825676  0.676959  0.500000  1
  Pr  Pr3  1  0.176959  0.325676  0.500000  1
  Pd  Pd4  1  0.876010  0.376010  0.000000  1
  Pd  Pd5  1  0.624034  0.876512  0.000000  1
  Pd  Pd6  1  0.376512  0.124034  0.000000  1
  Pd  Pd7  1  0.122306  0.622306  0.000000  1
  Pb  Pb8  1  0.497416  0.502305  0.000000  1
  Pb  Pb9  1  0.002305  0.997416  0.000000  1
