# generated using pymatgen
data_DyHo15(C2Cl3)4
_symmetry_space_group_name_H-M   'P 1'
_cell_length_a   3.63711700
_cell_length_b   10.44223614
_cell_length_c   19.64705493
_cell_angle_alpha   90.01608530
_cell_angle_beta   90.00000000
_cell_angle_gamma   90.00000000
_symmetry_Int_Tables_number   1
_chemical_formula_structural   DyHo15(C2Cl3)4
_chemical_formula_sum   'Dy1 Ho15 C8 Cl12'
_cell_volume   746.18793719
_cell_formula_units_Z   1
loop_
 _symmetry_equiv_pos_site_id
 _symmetry_equiv_pos_as_xyz
  1  'x, y, z'
loop_
 _atom_site_type_symbol
 _atom_site_label
 _atom_site_symmetry_multiplicity
 _atom_site_fract_x
 _atom_site_fract_y
 _atom_site_fract_z
 _atom_site_occupancy
  Dy  Dy0  1  0.250000  0.863877  0.574158  1
  Ho  Ho1  1  0.750000  0.136229  0.425374  1
  Ho  Ho2  1  0.750000  0.636139  0.074746  1
  Ho  Ho3  1  0.250000  0.363722  0.925338  1
  Ho  Ho4  1  0.250000  0.866505  0.744351  1
  Ho  Ho5  1  0.750000  0.133453  0.255716  1
  Ho  Ho6  1  0.750000  0.633594  0.244359  1
  Ho  Ho7  1  0.250000  0.366506  0.755637  1
  Ho  Ho8  1  0.250000  0.871588  0.165744  1
  Ho  Ho9  1  0.750000  0.128380  0.834218  1
  Ho  Ho10  1  0.750000  0.628386  0.665772  1
  Ho  Ho11  1  0.250000  0.371564  0.334303  1
  Ho  Ho12  1  0.250000  0.896242  0.332108  1
  Ho  Ho13  1  0.750000  0.103778  0.667855  1
  Ho  Ho14  1  0.750000  0.603795  0.832127  1
  Ho  Ho15  1  0.250000  0.396306  0.167929  1
  C  C16  1  0.250000  0.615279  0.750783  1
  C  C17  1  0.750000  0.384244  0.249364  1
  C  C18  1  0.750000  0.884445  0.250646  1
  C  C19  1  0.250000  0.116055  0.749326  1
  C  C20  1  0.250000  0.632895  0.152990  1
  C  C21  1  0.750000  0.366997  0.847107  1
  C  C22  1  0.750000  0.867029  0.653290  1
  C  C23  1  0.250000  0.133004  0.347108  1
  Cl  Cl24  1  0.250000  0.614105  0.556344  1
  Cl  Cl25  1  0.750000  0.384729  0.443779  1
  Cl  Cl26  1  0.750000  0.884581  0.056282  1
  Cl  Cl27  1  0.250000  0.115332  0.943861  1
  Cl  Cl28  1  0.250000  0.623497  0.953307  1
  Cl  Cl29  1  0.750000  0.376516  0.046723  1
  Cl  Cl30  1  0.750000  0.876361  0.452542  1
  Cl  Cl31  1  0.250000  0.124857  0.546685  1
  Cl  Cl32  1  0.250000  0.635575  0.354332  1
  Cl  Cl33  1  0.750000  0.364404  0.645552  1
  Cl  Cl34  1  0.750000  0.864421  0.854563  1
  Cl  Cl35  1  0.250000  0.135608  0.145681  1
