# generated using pymatgen
data_Th2FeN3
_symmetry_space_group_name_H-M   'P 1'
_cell_length_a   3.57862211
_cell_length_b   3.72965346
_cell_length_c   6.89260141
_cell_angle_alpha   105.69729609
_cell_angle_beta   105.04627169
_cell_angle_gamma   90.00000243
_symmetry_Int_Tables_number   1
_chemical_formula_structural   Th2FeN3
_chemical_formula_sum   'Th2 Fe1 N3'
_cell_volume   85.28394152
_cell_formula_units_Z   1
loop_
 _symmetry_equiv_pos_site_id
 _symmetry_equiv_pos_as_xyz
  1  'x, y, z'
loop_
 _atom_site_type_symbol
 _atom_site_label
 _atom_site_symmetry_multiplicity
 _atom_site_fract_x
 _atom_site_fract_y
 _atom_site_fract_z
 _atom_site_occupancy
  Th  Th0  1  0.643259  0.643256  0.286517  1
  Th  Th1  1  0.356743  0.356742  0.713484  1
  Fe  Fe2  1  0.000000  0.000000  0.000000  1
  N  N3  1  0.000000  0.499998  0.000000  1
  N  N4  1  0.165739  0.165739  0.331477  1
  N  N5  1  0.834261  0.834259  0.668523  1
