# generated using pymatgen
data_Eu8Dy12Si15As
_symmetry_space_group_name_H-M   'P 1'
_cell_length_a   7.55317600
_cell_length_b   7.83685745
_cell_length_c   14.86863500
_cell_angle_alpha   90.00000000
_cell_angle_beta   90.00000000
_cell_angle_gamma   90.38338783
_symmetry_Int_Tables_number   1
_chemical_formula_structural   Eu8Dy12Si15As
_chemical_formula_sum   'Eu8 Dy12 Si15 As1'
_cell_volume   880.10184018
_cell_formula_units_Z   1
loop_
 _symmetry_equiv_pos_site_id
 _symmetry_equiv_pos_as_xyz
  1  'x, y, z'
loop_
 _atom_site_type_symbol
 _atom_site_label
 _atom_site_symmetry_multiplicity
 _atom_site_fract_x
 _atom_site_fract_y
 _atom_site_fract_z
 _atom_site_occupancy
  Eu  Eu0  1  0.022042  0.177969  0.404717  1
  Eu  Eu1  1  0.521143  0.322858  0.404622  1
  Eu  Eu2  1  0.481583  0.673922  0.904932  1
  Eu  Eu3  1  0.481583  0.673922  0.595068  1
  Eu  Eu4  1  0.979835  0.823745  0.598640  1
  Eu  Eu5  1  0.979835  0.823745  0.901360  1
  Eu  Eu6  1  0.521143  0.322858  0.095378  1
  Eu  Eu7  1  0.022042  0.177969  0.095283  1
  Dy  Dy8  1  0.315408  0.173675  0.624017  1
  Dy  Dy9  1  0.680896  0.822821  0.378225  1
  Dy  Dy10  1  0.658181  0.986017  0.750000  1
  Dy  Dy11  1  0.180082  0.678517  0.377946  1
  Dy  Dy12  1  0.814968  0.325137  0.878437  1
  Dy  Dy13  1  0.814968  0.325137  0.621563  1
  Dy  Dy14  1  0.844623  0.481233  0.250000  1
  Dy  Dy15  1  0.347725  0.020558  0.250000  1
  Dy  Dy16  1  0.315408  0.173675  0.875983  1
  Dy  Dy17  1  0.180082  0.678517  0.122054  1
  Dy  Dy18  1  0.680896  0.822821  0.121775  1
  Dy  Dy19  1  0.151271  0.509307  0.750000  1
  Si  Si20  1  0.471783  0.614275  0.250000  1
  Si  Si21  1  0.013990  0.134360  0.750000  1
  Si  Si22  1  0.523522  0.386211  0.750000  1
  Si  Si23  1  0.142465  0.468590  0.540459  1
  Si  Si24  1  0.973257  0.885816  0.250000  1
  Si  Si25  1  0.735442  0.112930  0.250000  1
  Si  Si26  1  0.858761  0.534165  0.040328  1
  Si  Si27  1  0.357555  0.968076  0.039315  1
  Si  Si28  1  0.142465  0.468590  0.959541  1
  Si  Si29  1  0.640192  0.031158  0.540640  1
  Si  Si30  1  0.357555  0.968076  0.460685  1
  Si  Si31  1  0.858761  0.534165  0.459672  1
  Si  Si32  1  0.767902  0.614811  0.750000  1
  Si  Si33  1  0.233300  0.388446  0.250000  1
  Si  Si34  1  0.640192  0.031158  0.959360  1
  As  As35  1  0.289143  0.864773  0.750000  1
