# generated using pymatgen
data_LuTcF7
_symmetry_space_group_name_H-M   'P 1'
_cell_length_a   5.45712600
_cell_length_b   8.75873774
_cell_length_c   11.83526126
_cell_angle_alpha   62.61333462
_cell_angle_beta   90.00000000
_cell_angle_gamma   90.00000000
_symmetry_Int_Tables_number   1
_chemical_formula_structural   LuTcF7
_chemical_formula_sum   'Lu4 Tc4 F28'
_cell_volume   502.29447022
_cell_formula_units_Z   4
loop_
 _symmetry_equiv_pos_site_id
 _symmetry_equiv_pos_as_xyz
  1  'x, y, z'
loop_
 _atom_site_type_symbol
 _atom_site_label
 _atom_site_symmetry_multiplicity
 _atom_site_fract_x
 _atom_site_fract_y
 _atom_site_fract_z
 _atom_site_occupancy
  Lu  Lu0  1  0.260466  0.815936  0.263088  1
  Lu  Lu1  1  0.739534  0.184064  0.736912  1
  Lu  Lu2  1  0.760466  0.184064  0.236912  1
  Lu  Lu3  1  0.239534  0.815936  0.763088  1
  Tc  Tc4  1  0.758360  0.726177  0.042534  1
  Tc  Tc5  1  0.241640  0.273823  0.957466  1
  Tc  Tc6  1  0.258360  0.273823  0.457466  1
  Tc  Tc7  1  0.741640  0.726177  0.542534  1
  F  F8  1  0.942209  0.708857  0.412087  1
  F  F9  1  0.057791  0.291143  0.587913  1
  F  F10  1  0.442209  0.291143  0.087913  1
  F  F11  1  0.557791  0.708857  0.912087  1
  F  F12  1  0.463913  0.729236  0.136973  1
  F  F13  1  0.536087  0.270764  0.863027  1
  F  F14  1  0.963913  0.270764  0.363027  1
  F  F15  1  0.036087  0.729236  0.636973  1
  F  F16  1  0.955158  0.743057  0.176126  1
  F  F17  1  0.044842  0.256943  0.823874  1
  F  F18  1  0.455158  0.256943  0.323874  1
  F  F19  1  0.544842  0.743057  0.676126  1
  F  F20  1  0.769952  0.475130  0.141448  1
  F  F21  1  0.230048  0.524870  0.858552  1
  F  F22  1  0.269952  0.524870  0.358552  1
  F  F23  1  0.730048  0.475130  0.641448  1
  F  F24  1  0.937919  0.278730  0.046615  1
  F  F25  1  0.062081  0.721270  0.953385  1
  F  F26  1  0.437919  0.721270  0.453385  1
  F  F27  1  0.562081  0.278730  0.546615  1
  F  F28  1  0.738722  0.977430  0.446289  1
  F  F29  1  0.261278  0.022570  0.553711  1
  F  F30  1  0.238722  0.022570  0.053711  1
  F  F31  1  0.761278  0.977430  0.946289  1
  F  F32  1  0.588022  0.969220  0.231803  1
  F  F33  1  0.411978  0.030780  0.768197  1
  F  F34  1  0.088022  0.030780  0.268197  1
  F  F35  1  0.911978  0.969220  0.731803  1
