# generated using pymatgen
data_Ca3(ZnPt)2
_symmetry_space_group_name_H-M   'P 1'
_cell_length_a   5.74343300
_cell_length_b   7.81667600
_cell_length_c   14.26051000
_cell_angle_alpha   90.00000000
_cell_angle_beta   90.00000000
_cell_angle_gamma   90.00000000
_symmetry_Int_Tables_number   1
_chemical_formula_structural   Ca3(ZnPt)2
_chemical_formula_sum   'Ca12 Zn8 Pt8'
_cell_volume   640.21924894
_cell_formula_units_Z   4
loop_
 _symmetry_equiv_pos_site_id
 _symmetry_equiv_pos_as_xyz
  1  'x, y, z'
loop_
 _atom_site_type_symbol
 _atom_site_label
 _atom_site_symmetry_multiplicity
 _atom_site_fract_x
 _atom_site_fract_y
 _atom_site_fract_z
 _atom_site_occupancy
  Ca  Ca0  1  0.144433  0.605408  0.095790  1
  Ca  Ca1  1  0.144433  0.894592  0.904210  1
  Ca  Ca2  1  0.855567  0.105408  0.404210  1
  Ca  Ca3  1  0.855567  0.394592  0.595790  1
  Ca  Ca4  1  0.855567  0.394592  0.904210  1
  Ca  Ca5  1  0.855567  0.105408  0.095790  1
  Ca  Ca6  1  0.144433  0.894592  0.595790  1
  Ca  Ca7  1  0.144433  0.605408  0.404210  1
  Ca  Ca8  1  0.378984  0.251370  0.250000  1
  Ca  Ca9  1  0.378984  0.248630  0.750000  1
  Ca  Ca10  1  0.621016  0.751370  0.250000  1
  Ca  Ca11  1  0.621016  0.748630  0.750000  1
  Zn  Zn12  1  0.376864  0.250000  0.000000  1
  Zn  Zn13  1  0.623136  0.750000  0.500000  1
  Zn  Zn14  1  0.623136  0.750000  0.000000  1
  Zn  Zn15  1  0.376864  0.250000  0.500000  1
  Zn  Zn16  1  0.862060  0.405591  0.250000  1
  Zn  Zn17  1  0.862060  0.094409  0.750000  1
  Zn  Zn18  1  0.137940  0.905591  0.250000  1
  Zn  Zn19  1  0.137940  0.594409  0.750000  1
  Pt  Pt20  1  0.642523  0.468721  0.096640  1
  Pt  Pt21  1  0.642523  0.031279  0.903360  1
  Pt  Pt22  1  0.357477  0.968721  0.403360  1
  Pt  Pt23  1  0.357477  0.531279  0.596640  1
  Pt  Pt24  1  0.357477  0.531279  0.903360  1
  Pt  Pt25  1  0.357477  0.968721  0.096640  1
  Pt  Pt26  1  0.642523  0.031279  0.596640  1
  Pt  Pt27  1  0.642523  0.468721  0.403360  1
