# generated using pymatgen
data_Ho4TmIr3
_symmetry_space_group_name_H-M   'P 1'
_cell_length_a   10.82030200
_cell_length_b   10.82030200
_cell_length_c   6.32851200
_cell_angle_alpha   90.00000000
_cell_angle_beta   90.00000000
_cell_angle_gamma   90.00000000
_symmetry_Int_Tables_number   1
_chemical_formula_structural   Ho4TmIr3
_chemical_formula_sum   'Ho16 Tm4 Ir12'
_cell_volume   740.93544744
_cell_formula_units_Z   4
loop_
 _symmetry_equiv_pos_site_id
 _symmetry_equiv_pos_as_xyz
  1  'x, y, z'
loop_
 _atom_site_type_symbol
 _atom_site_label
 _atom_site_symmetry_multiplicity
 _atom_site_fract_x
 _atom_site_fract_y
 _atom_site_fract_z
 _atom_site_occupancy
  Ho  Ho0  1  0.290913  0.087595  0.377221  1
  Ho  Ho1  1  0.290913  0.912405  0.877221  1
  Ho  Ho2  1  0.709087  0.087595  0.877221  1
  Ho  Ho3  1  0.709087  0.912405  0.377221  1
  Ho  Ho4  1  0.587595  0.790913  0.877221  1
  Ho  Ho5  1  0.587595  0.209087  0.377221  1
  Ho  Ho6  1  0.412405  0.790913  0.377221  1
  Ho  Ho7  1  0.412405  0.209087  0.877221  1
  Ho  Ho8  1  0.209087  0.412405  0.622779  1
  Ho  Ho9  1  0.209087  0.587595  0.122779  1
  Ho  Ho10  1  0.790913  0.412405  0.122779  1
  Ho  Ho11  1  0.790913  0.587595  0.622779  1
  Ho  Ho12  1  0.912405  0.709087  0.122779  1
  Ho  Ho13  1  0.912405  0.290913  0.622779  1
  Ho  Ho14  1  0.087595  0.709087  0.622779  1
  Ho  Ho15  1  0.087595  0.290913  0.122779  1
  Tm  Tm16  1  0.000000  0.000000  0.500000  1
  Tm  Tm17  1  0.000000  0.000000  0.000000  1
  Tm  Tm18  1  0.500000  0.500000  0.000000  1
  Tm  Tm19  1  0.500000  0.500000  0.500000  1
  Ir  Ir20  1  0.847336  0.152664  0.250000  1
  Ir  Ir21  1  0.847336  0.847336  0.750000  1
  Ir  Ir22  1  0.152664  0.152664  0.750000  1
  Ir  Ir23  1  0.152664  0.847336  0.250000  1
  Ir  Ir24  1  0.652664  0.347336  0.750000  1
  Ir  Ir25  1  0.652664  0.652664  0.250000  1
  Ir  Ir26  1  0.347336  0.347336  0.250000  1
  Ir  Ir27  1  0.347336  0.652664  0.750000  1
  Ir  Ir28  1  0.500000  0.000000  0.121947  1
  Ir  Ir29  1  0.500000  0.000000  0.621947  1
  Ir  Ir30  1  0.000000  0.500000  0.878053  1
  Ir  Ir31  1  0.000000  0.500000  0.378053  1
