# generated using pymatgen
data_Dy4FeCo9B4
_symmetry_space_group_name_H-M   'P 1'
_cell_length_a   5.12899600
_cell_length_b   5.12899615
_cell_length_c   19.68352600
_cell_angle_alpha   90.00000000
_cell_angle_beta   90.00000000
_cell_angle_gamma   119.99999906
_symmetry_Int_Tables_number   1
_chemical_formula_structural   Dy4FeCo9B4
_chemical_formula_sum   'Dy8 Fe2 Co18 B8'
_cell_volume   448.43372531
_cell_formula_units_Z   2
loop_
 _symmetry_equiv_pos_site_id
 _symmetry_equiv_pos_as_xyz
  1  'x, y, z'
loop_
 _atom_site_type_symbol
 _atom_site_label
 _atom_site_symmetry_multiplicity
 _atom_site_fract_x
 _atom_site_fract_y
 _atom_site_fract_z
 _atom_site_occupancy
  Dy  Dy0  1  0.666667  0.333333  0.825120  1
  Dy  Dy1  1  0.666667  0.333333  0.977130  1
  Dy  Dy2  1  0.333333  0.666667  0.477130  1
  Dy  Dy3  1  0.333333  0.666667  0.022870  1
  Dy  Dy4  1  0.333333  0.666667  0.174880  1
  Dy  Dy5  1  0.666667  0.333333  0.522870  1
  Dy  Dy6  1  0.666667  0.333333  0.674880  1
  Dy  Dy7  1  0.333333  0.666667  0.325120  1
  Fe  Fe8  1  0.000000  0.000000  0.000000  1
  Fe  Fe9  1  0.000000  0.000000  0.500000  1
  Co  Co10  1  0.165122  0.330241  0.895443  1
  Co  Co11  1  0.165122  0.834878  0.604557  1
  Co  Co12  1  0.834878  0.165122  0.395443  1
  Co  Co13  1  0.334009  0.167005  0.250000  1
  Co  Co14  1  0.330241  0.165122  0.395443  1
  Co  Co15  1  0.834878  0.669759  0.104557  1
  Co  Co16  1  0.834878  0.669759  0.395443  1
  Co  Co17  1  0.832995  0.665991  0.250000  1
  Co  Co18  1  0.669759  0.834878  0.604557  1
  Co  Co19  1  0.665991  0.832995  0.750000  1
  Co  Co20  1  0.834878  0.165122  0.104557  1
  Co  Co21  1  0.669759  0.834878  0.895443  1
  Co  Co22  1  0.167005  0.334009  0.750000  1
  Co  Co23  1  0.167005  0.832995  0.750000  1
  Co  Co24  1  0.832995  0.167005  0.250000  1
  Co  Co25  1  0.330241  0.165122  0.104557  1
  Co  Co26  1  0.165122  0.834878  0.895443  1
  Co  Co27  1  0.165122  0.330241  0.604557  1
  B  B28  1  0.333333  0.666667  0.825170  1
  B  B29  1  0.333333  0.666667  0.674830  1
  B  B30  1  0.666667  0.333333  0.325170  1
  B  B31  1  0.000000  0.000000  0.824012  1
  B  B32  1  0.666667  0.333333  0.174830  1
  B  B33  1  0.000000  0.000000  0.675988  1
  B  B34  1  0.000000  0.000000  0.324012  1
  B  B35  1  0.000000  0.000000  0.175988  1
