# generated using pymatgen
data_Pr2GaIrBr
_symmetry_space_group_name_H-M   'P 1'
_cell_length_a   4.35354100
_cell_length_b   4.35354116
_cell_length_c   16.71701100
_cell_angle_alpha   90.00000000
_cell_angle_beta   90.00000000
_cell_angle_gamma   120.00000637
_symmetry_Int_Tables_number   1
_chemical_formula_structural   Pr2GaIrBr
_chemical_formula_sum   'Pr4 Ga2 Ir2 Br2'
_cell_volume   274.39394636
_cell_formula_units_Z   2
loop_
 _symmetry_equiv_pos_site_id
 _symmetry_equiv_pos_as_xyz
  1  'x, y, z'
loop_
 _atom_site_type_symbol
 _atom_site_label
 _atom_site_symmetry_multiplicity
 _atom_site_fract_x
 _atom_site_fract_y
 _atom_site_fract_z
 _atom_site_occupancy
  Pr  Pr0  1  0.000000  0.000000  0.607945  1
  Pr  Pr1  1  0.000000  0.000000  0.389372  1
  Pr  Pr2  1  0.000000  0.000000  0.107945  1
  Pr  Pr3  1  0.000000  0.000000  0.889372  1
  Ga  Ga4  1  0.666667  0.333333  0.997456  1
  Ga  Ga5  1  0.333333  0.666667  0.497456  1
  Ir  Ir6  1  0.666667  0.333333  0.502986  1
  Ir  Ir7  1  0.333333  0.666667  0.002986  1
  Br  Br8  1  0.666667  0.333333  0.252241  1
  Br  Br9  1  0.333333  0.666667  0.752241  1
