# generated using pymatgen
data_Rb2LaGd5(CBr6)2
_symmetry_space_group_name_H-M   'P 1'
_cell_length_a   8.92038541
_cell_length_b   8.96578772
_cell_length_c   9.53801000
_cell_angle_alpha   70.97733623
_cell_angle_beta   84.95768216
_cell_angle_gamma   89.26671055
_symmetry_Int_Tables_number   1
_chemical_formula_structural   Rb2LaGd5(CBr6)2
_chemical_formula_sum   'Rb2 La1 Gd5 C2 Br12'
_cell_volume   718.28243500
_cell_formula_units_Z   1
loop_
 _symmetry_equiv_pos_site_id
 _symmetry_equiv_pos_as_xyz
  1  'x, y, z'
loop_
 _atom_site_type_symbol
 _atom_site_label
 _atom_site_symmetry_multiplicity
 _atom_site_fract_x
 _atom_site_fract_y
 _atom_site_fract_z
 _atom_site_occupancy
  Rb  Rb0  1  0.468392  0.360846  0.332384  1
  Rb  Rb1  1  0.532936  0.638279  0.667372  1
  La  La2  1  0.913958  0.730581  0.005148  1
  Gd  Gd3  1  0.086264  0.260397  0.995225  1
  Gd  Gd4  1  0.741952  0.084613  0.000683  1
  Gd  Gd5  1  0.256915  0.913882  0.997952  1
  Gd  Gd6  1  0.973116  0.887565  0.325534  1
  Gd  Gd7  1  0.026083  0.116576  0.673102  1
  C  C8  1  0.006053  0.029221  0.921001  1
  C  C9  1  0.994165  0.975647  0.078399  1
  Br  Br10  1  0.078582  0.200330  0.327200  1
  Br  Br11  1  0.923159  0.805765  0.665832  1
  Br  Br12  1  0.221080  0.585141  0.000251  1
  Br  Br13  1  0.790064  0.405992  0.998867  1
  Br  Br14  1  0.406283  0.201648  0.002885  1
  Br  Br15  1  0.586845  0.802049  0.996877  1
  Br  Br16  1  0.665091  0.004156  0.325644  1
  Br  Br17  1  0.333281  0.000002  0.671032  1
  Br  Br18  1  0.280049  0.773007  0.324203  1
  Br  Br19  1  0.718249  0.226087  0.677107  1
  Br  Br20  1  0.846479  0.586190  0.339916  1
  Br  Br21  1  0.150998  0.412026  0.673386  1
