# generated using pymatgen
data_Dy2HoAl12Ru3Rh
_symmetry_space_group_name_H-M   'P 1'
_cell_length_a   8.80216383
_cell_length_b   8.80216377
_cell_length_c   9.55833100
_cell_angle_alpha   90.00000000
_cell_angle_beta   90.00000000
_cell_angle_gamma   119.56141689
_symmetry_Int_Tables_number   1
_chemical_formula_structural   Dy2HoAl12Ru3Rh
_chemical_formula_sum   'Dy4 Ho2 Al24 Ru6 Rh2'
_cell_volume   644.16039473
_cell_formula_units_Z   2
loop_
 _symmetry_equiv_pos_site_id
 _symmetry_equiv_pos_as_xyz
  1  'x, y, z'
loop_
 _atom_site_type_symbol
 _atom_site_label
 _atom_site_symmetry_multiplicity
 _atom_site_fract_x
 _atom_site_fract_y
 _atom_site_fract_z
 _atom_site_occupancy
  Dy  Dy0  1  0.189303  0.386298  0.250000  1
  Dy  Dy1  1  0.810697  0.613702  0.750000  1
  Dy  Dy2  1  0.613702  0.810697  0.250000  1
  Dy  Dy3  1  0.386298  0.189303  0.750000  1
  Ho  Ho4  1  0.194691  0.805309  0.250000  1
  Ho  Ho5  1  0.805309  0.194691  0.750000  1
  Al  Al6  1  0.332116  0.667884  0.018914  1
  Al  Al7  1  0.667884  0.332116  0.981086  1
  Al  Al8  1  0.667884  0.332116  0.518914  1
  Al  Al9  1  0.332116  0.667884  0.481086  1
  Al  Al10  1  0.161203  0.323601  0.578348  1
  Al  Al11  1  0.838797  0.676399  0.421652  1
  Al  Al12  1  0.676399  0.838797  0.578348  1
  Al  Al13  1  0.838797  0.676399  0.078348  1
  Al  Al14  1  0.323601  0.161203  0.421652  1
  Al  Al15  1  0.161203  0.323601  0.921652  1
  Al  Al16  1  0.163119  0.836881  0.577700  1
  Al  Al17  1  0.323601  0.161203  0.078348  1
  Al  Al18  1  0.836881  0.163119  0.422300  1
  Al  Al19  1  0.676399  0.838797  0.921652  1
  Al  Al20  1  0.836881  0.163119  0.077700  1
  Al  Al21  1  0.163119  0.836881  0.922300  1
  Al  Al22  1  0.560087  0.122951  0.250000  1
  Al  Al23  1  0.439913  0.877049  0.750000  1
  Al  Al24  1  0.877049  0.439913  0.250000  1
  Al  Al25  1  0.122951  0.560087  0.750000  1
  Al  Al26  1  0.560846  0.439154  0.250000  1
  Al  Al27  1  0.439154  0.560846  0.750000  1
  Al  Al28  1  0.999473  0.000527  0.250000  1
  Al  Al29  1  0.000527  0.999473  0.750000  1
  Ru  Ru30  1  0.500000  0.000000  0.000000  1
  Ru  Ru31  1  0.000000  0.500000  0.000000  1
  Ru  Ru32  1  0.500000  0.000000  0.500000  1
  Ru  Ru33  1  0.000000  0.500000  0.500000  1
  Ru  Ru34  1  0.000000  0.000000  0.000000  1
  Ru  Ru35  1  0.000000  0.000000  0.500000  1
  Rh  Rh36  1  0.500000  0.500000  0.000000  1
  Rh  Rh37  1  0.500000  0.500000  0.500000  1
