# generated using pymatgen
data_Na8Hf3SbBr24
_symmetry_space_group_name_H-M   'P 1'
_cell_length_a   7.17417700
_cell_length_b   7.17417715
_cell_length_c   26.66783500
_cell_angle_alpha   90.00000000
_cell_angle_beta   90.00000000
_cell_angle_gamma   119.99999468
_symmetry_Int_Tables_number   1
_chemical_formula_structural   Na8Hf3SbBr24
_chemical_formula_sum   'Na8 Hf3 Sb1 Br24'
_cell_volume   1188.67354807
_cell_formula_units_Z   1
loop_
 _symmetry_equiv_pos_site_id
 _symmetry_equiv_pos_as_xyz
  1  'x, y, z'
loop_
 _atom_site_type_symbol
 _atom_site_label
 _atom_site_symmetry_multiplicity
 _atom_site_fract_x
 _atom_site_fract_y
 _atom_site_fract_z
 _atom_site_occupancy
  Na  Na0  1  0.000000  0.000000  0.250214  1
  Na  Na1  1  0.000000  0.000000  0.749786  1
  Na  Na2  1  0.333333  0.666667  0.000366  1
  Na  Na3  1  0.333333  0.666667  0.499583  1
  Na  Na4  1  0.333333  0.666667  0.250090  1
  Na  Na5  1  0.666667  0.333333  0.749910  1
  Na  Na6  1  0.666667  0.333333  0.999634  1
  Na  Na7  1  0.666667  0.333333  0.500417  1
  Hf  Hf8  1  0.000000  0.000000  0.500000  1
  Hf  Hf9  1  0.333333  0.666667  0.749762  1
  Hf  Hf10  1  0.666667  0.333333  0.250238  1
  Sb  Sb11  1  0.000000  0.000000  0.000000  1
  Br  Br12  1  0.369720  0.035871  0.308027  1
  Br  Br13  1  0.333595  0.963774  0.807570  1
  Br  Br14  1  0.999560  0.307853  0.059548  1
  Br  Br15  1  0.000739  0.297390  0.557810  1
  Br  Br16  1  0.964129  0.333850  0.308027  1
  Br  Br17  1  0.036226  0.369820  0.807570  1
  Br  Br18  1  0.369820  0.333595  0.192430  1
  Br  Br19  1  0.333850  0.369720  0.691973  1
  Br  Br20  1  0.297390  0.296651  0.442190  1
  Br  Br21  1  0.307853  0.308293  0.940452  1
  Br  Br22  1  0.703349  0.000739  0.442190  1
  Br  Br23  1  0.308293  0.000440  0.059548  1
  Br  Br24  1  0.296651  0.999261  0.557810  1
  Br  Br25  1  0.692147  0.691707  0.059548  1
  Br  Br26  1  0.702610  0.703349  0.557810  1
  Br  Br27  1  0.666150  0.630280  0.308027  1
  Br  Br28  1  0.630180  0.666405  0.807570  1
  Br  Br29  1  0.963774  0.630180  0.192430  1
  Br  Br30  1  0.035871  0.666150  0.691973  1
  Br  Br31  1  0.999261  0.702610  0.442190  1
  Br  Br32  1  0.000440  0.692147  0.940452  1
  Br  Br33  1  0.691707  0.999560  0.940452  1
  Br  Br34  1  0.666405  0.036226  0.192430  1
  Br  Br35  1  0.630280  0.964129  0.691973  1
