# generated using pymatgen
data_Ce3NdHo4(B6Os)4
_symmetry_space_group_name_H-M   'P 1'
_cell_length_a   3.69500300
_cell_length_b   9.20965604
_cell_length_c   11.59527808
_cell_angle_alpha   90.03158331
_cell_angle_beta   90.00000000
_cell_angle_gamma   90.00000000
_symmetry_Int_Tables_number   1
_chemical_formula_structural   Ce3NdHo4(B6Os)4
_chemical_formula_sum   'Ce3 Nd1 Ho4 B24 Os4'
_cell_volume   394.58385228
_cell_formula_units_Z   1
loop_
 _symmetry_equiv_pos_site_id
 _symmetry_equiv_pos_as_xyz
  1  'x, y, z'
loop_
 _atom_site_type_symbol
 _atom_site_label
 _atom_site_symmetry_multiplicity
 _atom_site_fract_x
 _atom_site_fract_y
 _atom_site_fract_z
 _atom_site_occupancy
  Ce  Ce0  1  0.000000  0.322843  0.413528  1
  Ce  Ce1  1  0.000000  0.676692  0.586647  1
  Ce  Ce2  1  0.000000  0.823297  0.086258  1
  Nd  Nd3  1  0.000000  0.177656  0.913262  1
  Ho  Ho4  1  0.000000  0.944732  0.374157  1
  Ho  Ho5  1  0.000000  0.055364  0.625914  1
  Ho  Ho6  1  0.000000  0.444549  0.125933  1
  Ho  Ho7  1  0.000000  0.555265  0.873940  1
  B  B8  1  0.500000  0.554720  0.431609  1
  B  B9  1  0.500000  0.445465  0.567835  1
  B  B10  1  0.500000  0.054411  0.069726  1
  B  B11  1  0.500000  0.943692  0.931643  1
  B  B12  1  0.500000  0.749080  0.419137  1
  B  B13  1  0.500000  0.251053  0.580706  1
  B  B14  1  0.500000  0.249530  0.082165  1
  B  B15  1  0.500000  0.751037  0.919233  1
  B  B16  1  0.500000  0.791522  0.266768  1
  B  B17  1  0.500000  0.209043  0.732213  1
  B  B18  1  0.500000  0.291837  0.233421  1
  B  B19  1  0.500000  0.707984  0.766676  1
  B  B20  1  0.500000  0.632563  0.185031  1
  B  B21  1  0.500000  0.368803  0.814084  1
  B  B22  1  0.500000  0.132288  0.315028  1
  B  B23  1  0.500000  0.867080  0.685159  1
  B  B24  1  0.500000  0.984518  0.213986  1
  B  B25  1  0.500000  0.014065  0.785516  1
  B  B26  1  0.500000  0.485043  0.286070  1
  B  B27  1  0.500000  0.515284  0.713861  1
  B  B28  1  0.500000  0.607669  0.029706  1
  B  B29  1  0.500000  0.393971  0.970859  1
  B  B30  1  0.500000  0.107913  0.470409  1
  B  B31  1  0.500000  0.891694  0.529577  1
  Os  Os32  1  0.000000  0.639097  0.320698  1
  Os  Os33  1  0.000000  0.361950  0.677762  1
  Os  Os34  1  0.000000  0.138912  0.181561  1
  Os  Os35  1  0.000000  0.859380  0.819925  1
