# generated using pymatgen
data_Cs2Li2CoO4
_symmetry_space_group_name_H-M   'P 1'
_cell_length_a   9.76415182
_cell_length_b   5.91760995
_cell_length_c   5.76977267
_cell_angle_alpha   93.38362800
_cell_angle_beta   109.88602892
_cell_angle_gamma   93.57266849
_symmetry_Int_Tables_number   1
_chemical_formula_structural   Cs2Li2CoO4
_chemical_formula_sum   'Cs4 Li4 Co2 O8'
_cell_volume   311.74671028
_cell_formula_units_Z   2
loop_
 _symmetry_equiv_pos_site_id
 _symmetry_equiv_pos_as_xyz
  1  'x, y, z'
loop_
 _atom_site_type_symbol
 _atom_site_label
 _atom_site_symmetry_multiplicity
 _atom_site_fract_x
 _atom_site_fract_y
 _atom_site_fract_z
 _atom_site_occupancy
  Cs  Cs0  1  0.708934  0.145731  0.198580  1
  Cs  Cs1  1  0.982565  0.727359  0.199491  1
  Cs  Cs2  1  0.017449  0.272651  0.800527  1
  Cs  Cs3  1  0.291069  0.854264  0.801408  1
  Li  Li4  1  0.421188  0.411760  0.121865  1
  Li  Li5  1  0.447493  0.811027  0.369905  1
  Li  Li6  1  0.552498  0.188974  0.630091  1
  Li  Li7  1  0.578807  0.588241  0.878130  1
  Co  Co8  1  0.292341  0.317830  0.429407  1
  Co  Co9  1  0.707660  0.682172  0.570595  1
  O  O10  1  0.598752  0.641397  0.237467  1
  O  O11  1  0.288852  0.571773  0.266544  1
  O  O12  1  0.402419  0.136085  0.301000  1
  O  O13  1  0.109646  0.203793  0.369580  1
  O  O14  1  0.890355  0.796207  0.630423  1
  O  O15  1  0.597575  0.863907  0.698997  1
  O  O16  1  0.711150  0.428227  0.733453  1
  O  O17  1  0.401248  0.358604  0.762533  1
