# generated using pymatgen
data_Th4AlGa17Ir6
_symmetry_space_group_name_H-M   'P 1'
_cell_length_a   7.72062760
_cell_length_b   7.72062626
_cell_length_c   9.48698700
_cell_angle_alpha   89.99156247
_cell_angle_beta   89.99154866
_cell_angle_gamma   119.76877990
_symmetry_Int_Tables_number   1
_chemical_formula_structural   Th4AlGa17Ir6
_chemical_formula_sum   'Th4 Al1 Ga17 Ir6'
_cell_volume   490.87534576
_cell_formula_units_Z   1
loop_
 _symmetry_equiv_pos_site_id
 _symmetry_equiv_pos_as_xyz
  1  'x, y, z'
loop_
 _atom_site_type_symbol
 _atom_site_label
 _atom_site_symmetry_multiplicity
 _atom_site_fract_x
 _atom_site_fract_y
 _atom_site_fract_z
 _atom_site_occupancy
  Th  Th0  1  0.997263  0.669227  0.249797  1
  Th  Th1  1  0.002682  0.330199  0.749068  1
  Th  Th2  1  0.669227  0.997263  0.249797  1
  Th  Th3  1  0.330199  0.002682  0.749068  1
  Al  Al4  1  0.338046  0.338046  0.952404  1
  Ga  Ga5  1  0.131906  0.131906  0.249383  1
  Ga  Ga6  1  0.867384  0.867384  0.749200  1
  Ga  Ga7  1  0.002656  0.334922  0.077456  1
  Ga  Ga8  1  0.996420  0.664725  0.920810  1
  Ga  Ga9  1  0.995762  0.664648  0.578565  1
  Ga  Ga10  1  0.334959  0.004196  0.420852  1
  Ga  Ga11  1  0.004196  0.334959  0.420852  1
  Ga  Ga12  1  0.664648  0.995762  0.578565  1
  Ga  Ga13  1  0.664725  0.996420  0.920810  1
  Ga  Ga14  1  0.334922  0.002656  0.077456  1
  Ga  Ga15  1  0.335483  0.335483  0.561687  1
  Ga  Ga16  1  0.663807  0.663807  0.439423  1
  Ga  Ga17  1  0.667785  0.667785  0.060656  1
  Ga  Ga18  1  0.341047  0.544788  0.249969  1
  Ga  Ga19  1  0.654977  0.453802  0.750117  1
  Ga  Ga20  1  0.544788  0.341047  0.249969  1
  Ga  Ga21  1  0.453802  0.654977  0.750117  1
  Ir  Ir22  1  0.669841  0.328045  0.999237  1
  Ir  Ir23  1  0.328045  0.669841  0.999237  1
  Ir  Ir24  1  0.327879  0.673214  0.499567  1
  Ir  Ir25  1  0.673214  0.327879  0.499567  1
  Ir  Ir26  1  0.004880  0.004880  0.997258  1
  Ir  Ir27  1  0.999457  0.999457  0.499115  1
