# generated using pymatgen
data_Np(IBr)2
_symmetry_space_group_name_H-M   'P 1'
_cell_length_a   8.56104803
_cell_length_b   8.56104691
_cell_length_c   8.56104791
_cell_angle_alpha   117.22120030
_cell_angle_beta   112.12653062
_cell_angle_gamma   99.55067444
_symmetry_Int_Tables_number   1
_chemical_formula_structural   Np(IBr)2
_chemical_formula_sum   'Np2 I4 Br4'
_cell_volume   471.29580236
_cell_formula_units_Z   2
loop_
 _symmetry_equiv_pos_site_id
 _symmetry_equiv_pos_as_xyz
  1  'x, y, z'
loop_
 _atom_site_type_symbol
 _atom_site_label
 _atom_site_symmetry_multiplicity
 _atom_site_fract_x
 _atom_site_fract_y
 _atom_site_fract_z
 _atom_site_occupancy
  Np  Np0  1  0.000000  0.250598  0.250598  1
  Np  Np1  1  0.000000  0.749402  0.749402  1
  I  I2  1  0.192797  0.192797  0.000000  1
  I  I3  1  0.807203  0.807203  0.000000  1
  I  I4  1  0.806499  0.306499  0.500000  1
  I  I5  1  0.193501  0.693501  0.500000  1
  Br  Br6  1  0.278989  0.743955  0.022944  1
  Br  Br7  1  0.721011  0.743955  0.464966  1
  Br  Br8  1  0.278989  0.256046  0.535035  1
  Br  Br9  1  0.721011  0.256045  0.977056  1
