# generated using pymatgen
data_Ta3Cr(Si4Pt3)4
_symmetry_space_group_name_H-M   'P 1'
_cell_length_a   3.58801100
_cell_length_b   5.53456021
_cell_length_c   24.57245040
_cell_angle_alpha   89.94858563
_cell_angle_beta   90.00000000
_cell_angle_gamma   90.00000000
_symmetry_Int_Tables_number   1
_chemical_formula_structural   Ta3Cr(Si4Pt3)4
_chemical_formula_sum   'Ta3 Cr1 Si16 Pt12'
_cell_volume   487.96106980
_cell_formula_units_Z   1
loop_
 _symmetry_equiv_pos_site_id
 _symmetry_equiv_pos_as_xyz
  1  'x, y, z'
loop_
 _atom_site_type_symbol
 _atom_site_label
 _atom_site_symmetry_multiplicity
 _atom_site_fract_x
 _atom_site_fract_y
 _atom_site_fract_z
 _atom_site_occupancy
  Ta  Ta0  1  0.250000  0.502827  0.709801  1
  Ta  Ta1  1  0.750000  0.994060  0.213910  1
  Ta  Ta2  1  0.250000  0.003606  0.789176  1
  Cr  Cr3  1  0.750000  0.497880  0.290400  1
  Si  Si4  1  0.250000  0.178985  0.517147  1
  Si  Si5  1  0.750000  0.317730  0.022752  1
  Si  Si6  1  0.250000  0.678894  0.981671  1
  Si  Si7  1  0.750000  0.819007  0.476716  1
  Si  Si8  1  0.750000  0.317454  0.643108  1
  Si  Si9  1  0.250000  0.175916  0.147675  1
  Si  Si10  1  0.750000  0.817413  0.855989  1
  Si  Si11  1  0.250000  0.679841  0.348117  1
  Si  Si12  1  0.250000  0.656412  0.606524  1
  Si  Si13  1  0.750000  0.839840  0.111703  1
  Si  Si14  1  0.250000  0.156317  0.892383  1
  Si  Si15  1  0.750000  0.351056  0.386379  1
  Si  Si16  1  0.750000  0.837049  0.723467  1
  Si  Si17  1  0.250000  0.653534  0.231621  1
  Si  Si18  1  0.750000  0.337786  0.775947  1
  Si  Si19  1  0.250000  0.195441  0.276829  1
  Pt  Pt20  1  0.750000  0.001262  0.570789  1
  Pt  Pt21  1  0.250000  0.496103  0.076376  1
  Pt  Pt22  1  0.750000  0.501247  0.928858  1
  Pt  Pt23  1  0.250000  0.993265  0.423974  1
  Pt  Pt24  1  0.250000  0.005099  0.666396  1
  Pt  Pt25  1  0.750000  0.494158  0.172967  1
  Pt  Pt26  1  0.250000  0.505801  0.832873  1
  Pt  Pt27  1  0.750000  0.998631  0.330496  1
  Pt  Pt28  1  0.750000  0.502690  0.544649  1
  Pt  Pt29  1  0.250000  0.994495  0.049855  1
  Pt  Pt30  1  0.750000  0.003184  0.953795  1
  Pt  Pt31  1  0.250000  0.493017  0.447658  1
