# generated using pymatgen
data_Ho16MgZn2InRh4
_symmetry_space_group_name_H-M   'P 1'
_cell_length_a   9.56631833
_cell_length_b   9.58799060
_cell_length_c   9.56631826
_cell_angle_alpha   59.64584136
_cell_angle_beta   59.67824412
_cell_angle_gamma   59.64584633
_symmetry_Int_Tables_number   1
_chemical_formula_structural   Ho16MgZn2InRh4
_chemical_formula_sum   'Ho16 Mg1 Zn2 In1 Rh4'
_cell_volume   615.60307745
_cell_formula_units_Z   1
loop_
 _symmetry_equiv_pos_site_id
 _symmetry_equiv_pos_as_xyz
  1  'x, y, z'
loop_
 _atom_site_type_symbol
 _atom_site_label
 _atom_site_symmetry_multiplicity
 _atom_site_fract_x
 _atom_site_fract_y
 _atom_site_fract_z
 _atom_site_occupancy
  Ho  Ho0  1  0.192891  0.180057  0.814343  1
  Ho  Ho1  1  0.600115  0.600667  0.199018  1
  Ho  Ho2  1  0.441944  0.057908  0.441944  1
  Ho  Ho3  1  0.441941  0.441869  0.057372  1
  Ho  Ho4  1  0.815152  0.186421  0.815152  1
  Ho  Ho5  1  0.187232  0.812139  0.187232  1
  Ho  Ho6  1  0.437379  0.061828  0.061401  1
  Ho  Ho7  1  0.190476  0.813868  0.815623  1
  Ho  Ho8  1  0.060390  0.438739  0.060390  1
  Ho  Ho9  1  0.815623  0.813868  0.190476  1
  Ho  Ho10  1  0.199018  0.600667  0.600115  1
  Ho  Ho11  1  0.057372  0.441869  0.441941  1
  Ho  Ho12  1  0.061401  0.061828  0.437379  1
  Ho  Ho13  1  0.814343  0.180057  0.192891  1
  Ho  Ho14  1  0.600995  0.197148  0.600995  1
  Ho  Ho15  1  0.601175  0.603247  0.601175  1
  Mg  Mg16  1  0.822476  0.828287  0.822476  1
  Zn  Zn17  1  0.829699  0.833780  0.501446  1
  Zn  Zn18  1  0.501446  0.833780  0.829699  1
  In  In19  1  0.827635  0.510207  0.827635  1
  Rh  Rh20  1  0.393595  0.821757  0.393595  1
  Rh  Rh21  1  0.392842  0.392316  0.392842  1
  Rh  Rh22  1  0.820748  0.393846  0.394112  1
  Rh  Rh23  1  0.394112  0.393846  0.820748  1
