# generated using pymatgen
data_Tb2Er(Cd2Ga)2
_symmetry_space_group_name_H-M   'P 1'
_cell_length_a   7.44013748
_cell_length_b   7.45471252
_cell_length_c   4.35377300
_cell_angle_alpha   90.00000000
_cell_angle_beta   90.00000000
_cell_angle_gamma   120.06483593
_symmetry_Int_Tables_number   1
_chemical_formula_structural   Tb2Er(Cd2Ga)2
_chemical_formula_sum   'Tb2 Er1 Cd4 Ga2'
_cell_volume   208.98935499
_cell_formula_units_Z   1
loop_
 _symmetry_equiv_pos_site_id
 _symmetry_equiv_pos_as_xyz
  1  'x, y, z'
loop_
 _atom_site_type_symbol
 _atom_site_label
 _atom_site_symmetry_multiplicity
 _atom_site_fract_x
 _atom_site_fract_y
 _atom_site_fract_z
 _atom_site_occupancy
  Tb  Tb0  1  0.425635  0.426301  0.500000  1
  Tb  Tb1  1  0.574365  0.000665  0.500000  1
  Er  Er2  1  0.000000  0.574153  0.500000  1
  Cd  Cd3  1  0.742017  0.741825  0.000000  1
  Cd  Cd4  1  0.257983  0.999807  0.000000  1
  Cd  Cd5  1  0.000000  0.258131  0.000000  1
  Cd  Cd6  1  0.000000  0.998601  0.500000  1
  Ga  Ga7  1  0.668090  0.334303  0.000000  1
  Ga  Ga8  1  0.331910  0.666215  0.000000  1
