# generated using pymatgen
data_Pr16Hg4PtRh3
_symmetry_space_group_name_H-M   'P 1'
_cell_length_a   10.01567015
_cell_length_b   10.04068611
_cell_length_c   10.04068600
_cell_angle_alpha   60.00000037
_cell_angle_beta   59.91734325
_cell_angle_gamma   59.91734382
_symmetry_Int_Tables_number   1
_chemical_formula_structural   Pr16Hg4PtRh3
_chemical_formula_sum   'Pr16 Hg4 Pt1 Rh3'
_cell_volume   713.09612223
_cell_formula_units_Z   1
loop_
 _symmetry_equiv_pos_site_id
 _symmetry_equiv_pos_as_xyz
  1  'x, y, z'
loop_
 _atom_site_type_symbol
 _atom_site_label
 _atom_site_symmetry_multiplicity
 _atom_site_fract_x
 _atom_site_fract_y
 _atom_site_fract_z
 _atom_site_occupancy
  Pr  Pr0  1  0.347723  0.351971  0.351971  1
  Pr  Pr1  1  0.347723  0.351971  0.948335  1
  Pr  Pr2  1  0.347723  0.948335  0.351971  1
  Pr  Pr3  1  0.952557  0.349147  0.349147  1
  Pr  Pr4  1  0.812905  0.190567  0.190567  1
  Pr  Pr5  1  0.190926  0.809686  0.809686  1
  Pr  Pr6  1  0.190926  0.809686  0.189703  1
  Pr  Pr7  1  0.812905  0.190567  0.805960  1
  Pr  Pr8  1  0.190926  0.189703  0.809686  1
  Pr  Pr9  1  0.812905  0.805960  0.190567  1
  Pr  Pr10  1  0.935138  0.563324  0.563324  1
  Pr  Pr11  1  0.561358  0.937985  0.937985  1
  Pr  Pr12  1  0.561358  0.937985  0.562671  1
  Pr  Pr13  1  0.935138  0.563324  0.938214  1
  Pr  Pr14  1  0.561358  0.562671  0.937985  1
  Pr  Pr15  1  0.935138  0.938214  0.563324  1
  Hg  Hg16  1  0.583780  0.583032  0.583032  1
  Hg  Hg17  1  0.583780  0.583032  0.250155  1
  Hg  Hg18  1  0.583780  0.250155  0.583032  1
  Hg  Hg19  1  0.249604  0.583465  0.583465  1
  Pt  Pt20  1  0.570593  0.143136  0.143136  1
  Rh  Rh21  1  0.143920  0.142101  0.142101  1
  Rh  Rh22  1  0.143920  0.142101  0.571878  1
  Rh  Rh23  1  0.143920  0.571878  0.142101  1
