# generated using pymatgen
data_Ti2Mn2Be7Si
_symmetry_space_group_name_H-M   'P 1'
_cell_length_a   4.34542800
_cell_length_b   4.34542710
_cell_length_c   7.22252800
_cell_angle_alpha   90.00000000
_cell_angle_beta   90.00000000
_cell_angle_gamma   120.00000685
_symmetry_Int_Tables_number   1
_chemical_formula_structural   Ti2Mn2Be7Si
_chemical_formula_sum   'Ti2 Mn2 Be7 Si1'
_cell_volume   118.10950868
_cell_formula_units_Z   1
loop_
 _symmetry_equiv_pos_site_id
 _symmetry_equiv_pos_as_xyz
  1  'x, y, z'
loop_
 _atom_site_type_symbol
 _atom_site_label
 _atom_site_symmetry_multiplicity
 _atom_site_fract_x
 _atom_site_fract_y
 _atom_site_fract_z
 _atom_site_occupancy
  Ti  Ti0  1  0.333333  0.666667  0.066791  1
  Ti  Ti1  1  0.666667  0.333333  0.562359  1
  Mn  Mn2  1  0.666667  0.333333  0.935043  1
  Mn  Mn3  1  0.333333  0.666667  0.433797  1
  Be  Be4  1  0.000000  0.000000  0.500316  1
  Be  Be5  1  0.829967  0.659932  0.260435  1
  Be  Be6  1  0.171962  0.828038  0.741428  1
  Be  Be7  1  0.656074  0.828038  0.741428  1
  Be  Be8  1  0.340068  0.170033  0.260435  1
  Be  Be9  1  0.829967  0.170033  0.260435  1
  Be  Be10  1  0.171962  0.343926  0.741428  1
  Si  Si11  1  0.000000  0.000000  0.996104  1
