# generated using pymatgen
data_Dy7Er(LuGa5)4
_symmetry_space_group_name_H-M   'P 1'
_cell_length_a   6.04829130
_cell_length_b   9.55738211
_cell_length_c   11.53836646
_cell_angle_alpha   90.00467474
_cell_angle_beta   90.03214254
_cell_angle_gamma   90.01629985
_symmetry_Int_Tables_number   1
_chemical_formula_structural   Dy7Er(LuGa5)4
_chemical_formula_sum   'Dy7 Er1 Lu4 Ga20'
_cell_volume   666.98472794
_cell_formula_units_Z   1
loop_
 _symmetry_equiv_pos_site_id
 _symmetry_equiv_pos_as_xyz
  1  'x, y, z'
loop_
 _atom_site_type_symbol
 _atom_site_label
 _atom_site_symmetry_multiplicity
 _atom_site_fract_x
 _atom_site_fract_y
 _atom_site_fract_z
 _atom_site_occupancy
  Dy  Dy0  1  0.609592  0.993360  0.851154  1
  Dy  Dy1  1  0.109451  0.006780  0.648762  1
  Dy  Dy2  1  0.390529  0.493301  0.149093  1
  Dy  Dy3  1  0.109466  0.493247  0.648504  1
  Dy  Dy4  1  0.390452  0.006719  0.148946  1
  Dy  Dy5  1  0.890453  0.993177  0.351118  1
  Dy  Dy6  1  0.609630  0.506726  0.851144  1
  Er  Er7  1  0.890565  0.506811  0.351048  1
  Lu  Lu8  1  0.849765  0.749975  0.074260  1
  Lu  Lu9  1  0.650288  0.749872  0.574005  1
  Lu  Lu10  1  0.150254  0.250028  0.925957  1
  Lu  Lu11  1  0.349379  0.249957  0.425762  1
  Ga  Ga12  1  0.876179  0.052935  0.089632  1
  Ga  Ga13  1  0.623918  0.447120  0.589456  1
  Ga  Ga14  1  0.123883  0.552895  0.910346  1
  Ga  Ga15  1  0.376143  0.946928  0.410338  1
  Ga  Ga16  1  0.123892  0.947096  0.910355  1
  Ga  Ga17  1  0.375543  0.552724  0.410219  1
  Ga  Ga18  1  0.876172  0.447266  0.090163  1
  Ga  Ga19  1  0.623915  0.052999  0.589602  1
  Ga  Ga20  1  0.166751  0.749600  0.254073  1
  Ga  Ga21  1  0.332988  0.749982  0.753810  1
  Ga  Ga22  1  0.832977  0.250043  0.746038  1
  Ga  Ga23  1  0.667532  0.250485  0.246576  1
  Ga  Ga24  1  0.378497  0.750000  0.001664  1
  Ga  Ga25  1  0.121082  0.749830  0.501553  1
  Ga  Ga26  1  0.621561  0.250076  0.998428  1
  Ga  Ga27  1  0.878470  0.250541  0.497748  1
  Ga  Ga28  1  0.605190  0.749411  0.298782  1
  Ga  Ga29  1  0.895460  0.750006  0.798630  1
  Ga  Ga30  1  0.395524  0.250016  0.701372  1
  Ga  Ga31  1  0.104499  0.250093  0.201461  1
