# generated using pymatgen
data_Li4Ca2YbDySi8
_symmetry_space_group_name_H-M   'P 1'
_cell_length_a   3.80337300
_cell_length_b   7.85041831
_cell_length_c   10.50260657
_cell_angle_alpha   89.75628872
_cell_angle_beta   90.00000000
_cell_angle_gamma   90.00000000
_symmetry_Int_Tables_number   1
_chemical_formula_structural   Li4Ca2YbDySi8
_chemical_formula_sum   'Li4 Ca2 Yb1 Dy1 Si8'
_cell_volume   313.58471502
_cell_formula_units_Z   1
loop_
 _symmetry_equiv_pos_site_id
 _symmetry_equiv_pos_as_xyz
  1  'x, y, z'
loop_
 _atom_site_type_symbol
 _atom_site_label
 _atom_site_symmetry_multiplicity
 _atom_site_fract_x
 _atom_site_fract_y
 _atom_site_fract_z
 _atom_site_occupancy
  Li  Li0  1  0.250000  0.997676  0.388177  1
  Li  Li1  1  0.750000  0.000640  0.610651  1
  Li  Li2  1  0.250000  0.497045  0.109540  1
  Li  Li3  1  0.750000  0.508046  0.888787  1
  Ca  Ca4  1  0.250000  0.635819  0.637298  1
  Ca  Ca5  1  0.750000  0.363761  0.364582  1
  Yb  Yb6  1  0.750000  0.866267  0.134694  1
  Dy  Dy7  1  0.250000  0.128692  0.865989  1
  Si  Si8  1  0.750000  0.266535  0.061004  1
  Si  Si9  1  0.250000  0.739939  0.934257  1
  Si  Si10  1  0.750000  0.767784  0.431594  1
  Si  Si11  1  0.250000  0.226516  0.573337  1
  Si  Si12  1  0.750000  0.843647  0.824720  1
  Si  Si13  1  0.250000  0.161300  0.169664  1
  Si  Si14  1  0.750000  0.330741  0.682597  1
  Si  Si15  1  0.250000  0.665594  0.323107  1
