# generated using pymatgen
data_Rb4TmLu3(Bi2Se5)4
_symmetry_space_group_name_H-M   'P 1'
_cell_length_a   4.13939200
_cell_length_b   12.32668601
_cell_length_c   22.41436401
_cell_angle_alpha   90.00401182
_cell_angle_beta   90.00000000
_cell_angle_gamma   90.00000000
_symmetry_Int_Tables_number   1
_chemical_formula_structural   Rb4TmLu3(Bi2Se5)4
_chemical_formula_sum   'Rb4 Tm1 Lu3 Bi8 Se20'
_cell_volume   1143.69259478
_cell_formula_units_Z   1
loop_
 _symmetry_equiv_pos_site_id
 _symmetry_equiv_pos_as_xyz
  1  'x, y, z'
loop_
 _atom_site_type_symbol
 _atom_site_label
 _atom_site_symmetry_multiplicity
 _atom_site_fract_x
 _atom_site_fract_y
 _atom_site_fract_z
 _atom_site_occupancy
  Rb  Rb0  1  0.250000  0.489194  0.210144  1
  Rb  Rb1  1  0.750000  0.510824  0.789853  1
  Rb  Rb2  1  0.750000  0.989151  0.289817  1
  Rb  Rb3  1  0.250000  0.010733  0.710218  1
  Tm  Tm4  1  0.250000  0.135097  0.523412  1
  Lu  Lu5  1  0.250000  0.364980  0.023275  1
  Lu  Lu6  1  0.750000  0.634975  0.976721  1
  Lu  Lu7  1  0.750000  0.864555  0.476575  1
  Bi  Bi8  1  0.250000  0.801305  0.125554  1
  Bi  Bi9  1  0.750000  0.198666  0.874454  1
  Bi  Bi10  1  0.750000  0.301573  0.374310  1
  Bi  Bi11  1  0.250000  0.698644  0.625555  1
  Bi  Bi12  1  0.250000  0.596958  0.424059  1
  Bi  Bi13  1  0.750000  0.403424  0.576094  1
  Bi  Bi14  1  0.750000  0.097038  0.075938  1
  Bi  Bi15  1  0.250000  0.902932  0.924064  1
  Se  Se16  1  0.250000  0.815543  0.392922  1
  Se  Se17  1  0.750000  0.185160  0.607929  1
  Se  Se18  1  0.750000  0.315528  0.107056  1
  Se  Se19  1  0.250000  0.684426  0.892948  1
  Se  Se20  1  0.250000  0.246292  0.295666  1
  Se  Se21  1  0.750000  0.753814  0.704191  1
  Se  Se22  1  0.750000  0.746140  0.204217  1
  Se  Se23  1  0.250000  0.253824  0.795794  1
  Se  Se24  1  0.250000  0.353284  0.481207  1
  Se  Se25  1  0.750000  0.647721  0.518510  1
  Se  Se26  1  0.750000  0.852056  0.018497  1
  Se  Se27  1  0.250000  0.147904  0.981504  1
  Se  Se28  1  0.250000  0.027044  0.158862  1
  Se  Se29  1  0.750000  0.972902  0.841135  1
  Se  Se30  1  0.750000  0.527111  0.341061  1
  Se  Se31  1  0.250000  0.472805  0.658960  1
  Se  Se32  1  0.250000  0.582633  0.057783  1
  Se  Se33  1  0.750000  0.417323  0.942211  1
  Se  Se34  1  0.750000  0.081905  0.441638  1
  Se  Se35  1  0.250000  0.916537  0.557865  1
