# generated using pymatgen
data_YHoMn6P7Ir6
_symmetry_space_group_name_H-M   'P 1'
_cell_length_a   9.40816700
_cell_length_b   9.40816807
_cell_length_c   3.84817300
_cell_angle_alpha   90.00000000
_cell_angle_beta   90.00000000
_cell_angle_gamma   120.00000677
_symmetry_Int_Tables_number   1
_chemical_formula_structural   YHoMn6P7Ir6
_chemical_formula_sum   'Y1 Ho1 Mn6 P7 Ir6'
_cell_volume   294.98183663
_cell_formula_units_Z   1
loop_
 _symmetry_equiv_pos_site_id
 _symmetry_equiv_pos_as_xyz
  1  'x, y, z'
loop_
 _atom_site_type_symbol
 _atom_site_label
 _atom_site_symmetry_multiplicity
 _atom_site_fract_x
 _atom_site_fract_y
 _atom_site_fract_z
 _atom_site_occupancy
  Y  Y0  1  0.666667  0.333333  0.000000  1
  Ho  Ho1  1  0.333333  0.666667  0.500000  1
  Mn  Mn2  1  0.269897  0.158567  0.000000  1
  Mn  Mn3  1  0.841433  0.111331  0.000000  1
  Mn  Mn4  1  0.888669  0.730103  0.000000  1
  Mn  Mn5  1  0.096148  0.215886  0.500000  1
  Mn  Mn6  1  0.784114  0.880262  0.500000  1
  Mn  Mn7  1  0.119738  0.903852  0.500000  1
  P  P8  1  0.298387  0.409569  0.000000  1
  P  P9  1  0.590431  0.888819  0.000000  1
  P  P10  1  0.111181  0.701613  0.000000  1
  P  P11  1  0.396927  0.117803  0.500000  1
  P  P12  1  0.882197  0.279123  0.500000  1
  P  P13  1  0.720877  0.603073  0.500000  1
  P  P14  1  0.000000  0.000000  0.000000  1
  Ir  Ir15  1  0.064584  0.427383  0.000000  1
  Ir  Ir16  1  0.572617  0.637200  0.000000  1
  Ir  Ir17  1  0.362800  0.935416  0.000000  1
  Ir  Ir18  1  0.441190  0.385935  0.500000  1
  Ir  Ir19  1  0.614065  0.055255  0.500000  1
  Ir  Ir20  1  0.944745  0.558810  0.500000  1
