# generated using pymatgen
data_SrLi4Ac3Pb4
_symmetry_space_group_name_H-M   'P 1'
_cell_length_a   5.03102600
_cell_length_b   8.28525223
_cell_length_c   8.68838047
_cell_angle_alpha   89.82020912
_cell_angle_beta   90.00000000
_cell_angle_gamma   90.00000000
_symmetry_Int_Tables_number   1
_chemical_formula_structural   SrLi4Ac3Pb4
_chemical_formula_sum   'Sr1 Li4 Ac3 Pb4'
_cell_volume   362.15875521
_cell_formula_units_Z   1
loop_
 _symmetry_equiv_pos_site_id
 _symmetry_equiv_pos_as_xyz
  1  'x, y, z'
loop_
 _atom_site_type_symbol
 _atom_site_label
 _atom_site_symmetry_multiplicity
 _atom_site_fract_x
 _atom_site_fract_y
 _atom_site_fract_z
 _atom_site_occupancy
  Sr  Sr0  1  0.250000  0.001982  0.786568  1
  Li  Li1  1  0.250000  0.680878  0.079181  1
  Li  Li2  1  0.250000  0.172624  0.423672  1
  Li  Li3  1  0.750000  0.829210  0.583030  1
  Li  Li4  1  0.750000  0.319742  0.919506  1
  Ac  Ac5  1  0.750000  0.997194  0.207793  1
  Ac  Ac6  1  0.750000  0.498452  0.283340  1
  Ac  Ac7  1  0.250000  0.501658  0.715910  1
  Pb  Pb8  1  0.250000  0.281937  0.091693  1
  Pb  Pb9  1  0.250000  0.782226  0.409913  1
  Pb  Pb10  1  0.750000  0.223490  0.587784  1
  Pb  Pb11  1  0.750000  0.710607  0.911612  1
