# generated using pymatgen
data_Dy8Ho2Sn5Sb
_symmetry_space_group_name_H-M   'P 1'
_cell_length_a   8.97587300
_cell_length_b   8.96728658
_cell_length_c   6.49494300
_cell_angle_alpha   90.00286704
_cell_angle_beta   90.00000000
_cell_angle_gamma   120.03167610
_symmetry_Int_Tables_number   1
_chemical_formula_structural   Dy8Ho2Sn5Sb
_chemical_formula_sum   'Dy8 Ho2 Sn5 Sb1'
_cell_volume   452.59006149
_cell_formula_units_Z   1
loop_
 _symmetry_equiv_pos_site_id
 _symmetry_equiv_pos_as_xyz
  1  'x, y, z'
loop_
 _atom_site_type_symbol
 _atom_site_label
 _atom_site_symmetry_multiplicity
 _atom_site_fract_x
 _atom_site_fract_y
 _atom_site_fract_z
 _atom_site_occupancy
  Dy  Dy0  1  0.998035  0.760082  0.750003  1
  Dy  Dy1  1  0.000677  0.238954  0.250006  1
  Dy  Dy2  1  0.761724  0.761046  0.249994  1
  Dy  Dy3  1  0.761912  0.000000  0.750000  1
  Dy  Dy4  1  0.237952  0.239918  0.749997  1
  Dy  Dy5  1  0.239004  0.000000  0.250000  1
  Dy  Dy6  1  0.333150  0.665704  0.499819  1
  Dy  Dy7  1  0.667447  0.334296  0.000181  1
  Ho  Ho8  1  0.667446  0.334293  0.499821  1
  Ho  Ho9  1  0.333152  0.665707  0.000179  1
  Sn  Sn10  1  0.395642  0.394872  0.250000  1
  Sn  Sn11  1  0.000770  0.605128  0.250000  1
  Sn  Sn12  1  0.999833  0.395558  0.749999  1
  Sn  Sn13  1  0.604275  0.604442  0.750001  1
  Sn  Sn14  1  0.605314  0.000000  0.250000  1
  Sb  Sb15  1  0.393665  0.000000  0.750000  1
