# generated using pymatgen
data_Tb4Y4Hf12Si15Sn
_symmetry_space_group_name_H-M   'P 1'
_cell_length_a   7.31134508
_cell_length_b   7.33815551
_cell_length_c   13.44432909
_cell_angle_alpha   89.75769035
_cell_angle_beta   90.01049886
_cell_angle_gamma   89.86068977
_symmetry_Int_Tables_number   1
_chemical_formula_structural   Tb4Y4Hf12Si15Sn
_chemical_formula_sum   'Tb4 Y4 Hf12 Si15 Sn1'
_cell_volume   721.30368730
_cell_formula_units_Z   1
loop_
 _symmetry_equiv_pos_site_id
 _symmetry_equiv_pos_as_xyz
  1  'x, y, z'
loop_
 _atom_site_type_symbol
 _atom_site_label
 _atom_site_symmetry_multiplicity
 _atom_site_fract_x
 _atom_site_fract_y
 _atom_site_fract_z
 _atom_site_occupancy
  Tb  Tb0  1  0.844522  0.503929  0.964104  1
  Tb  Tb1  1  0.498015  0.153774  0.538856  1
  Tb  Tb2  1  0.343797  0.995856  0.784960  1
  Tb  Tb3  1  0.661887  0.997657  0.283446  1
  Y  Y4  1  0.988853  0.344926  0.212579  1
  Y  Y5  1  0.004405  0.655910  0.716161  1
  Y  Y6  1  0.148928  0.504943  0.470458  1
  Y  Y7  1  0.505544  0.842531  0.032873  1
  Hf  Hf8  1  0.174217  0.174974  0.999093  1
  Hf  Hf9  1  0.825605  0.826720  0.501100  1
  Hf  Hf10  1  0.326257  0.681246  0.248157  1
  Hf  Hf11  1  0.674928  0.325106  0.750275  1
  Hf  Hf12  1  0.142583  0.987450  0.374018  1
  Hf  Hf13  1  0.851819  0.003987  0.873864  1
  Hf  Hf14  1  0.503902  0.650122  0.624694  1
  Hf  Hf15  1  0.350837  0.495118  0.875788  1
  Hf  Hf16  1  0.496283  0.351563  0.118583  1
  Hf  Hf17  1  0.660180  0.514759  0.379611  1
  Hf  Hf18  1  0.994630  0.149201  0.626729  1
  Hf  Hf19  1  0.002961  0.849226  0.124024  1
  Si  Si20  1  0.637057  0.704911  0.816760  1
  Si  Si21  1  0.204620  0.864469  0.567996  1
  Si  Si22  1  0.137519  0.794826  0.932482  1
  Si  Si23  1  0.795559  0.136440  0.065413  1
  Si  Si24  1  0.862295  0.204439  0.433491  1
  Si  Si25  1  0.295346  0.363342  0.683642  1
  Si  Si26  1  0.702971  0.636577  0.182626  1
  Si  Si27  1  0.294436  0.042198  0.180803  1
  Si  Si28  1  0.705885  0.949739  0.686411  1
  Si  Si29  1  0.450319  0.796563  0.435584  1
  Si  Si30  1  0.204568  0.549075  0.064391  1
  Si  Si31  1  0.549029  0.204013  0.933845  1
  Si  Si32  1  0.793382  0.450568  0.566654  1
  Si  Si33  1  0.049176  0.294606  0.814528  1
  Si  Si34  1  0.952985  0.702777  0.313071  1
  Sn  Sn35  1  0.364700  0.296457  0.322931  1
