# generated using pymatgen
data_HoLu4(Sn3Os)6
_symmetry_space_group_name_H-M   'P 1'
_cell_length_a   9.84437899
_cell_length_b   9.84437929
_cell_length_c   9.84437900
_cell_angle_alpha   59.99999762
_cell_angle_beta   59.99999661
_cell_angle_gamma   60.00000069
_symmetry_Int_Tables_number   1
_chemical_formula_structural   HoLu4(Sn3Os)6
_chemical_formula_sum   'Ho1 Lu4 Sn18 Os6'
_cell_volume   674.60564966
_cell_formula_units_Z   1
loop_
 _symmetry_equiv_pos_site_id
 _symmetry_equiv_pos_as_xyz
  1  'x, y, z'
loop_
 _atom_site_type_symbol
 _atom_site_label
 _atom_site_symmetry_multiplicity
 _atom_site_fract_x
 _atom_site_fract_y
 _atom_site_fract_z
 _atom_site_occupancy
  Ho  Ho0  1  0.000000  0.000000  0.000000  1
  Lu  Lu1  1  0.372832  0.372833  0.881504  1
  Lu  Lu2  1  0.372833  0.881503  0.372832  1
  Lu  Lu3  1  0.881503  0.372833  0.372832  1
  Lu  Lu4  1  0.372833  0.372832  0.372832  1
  Sn  Sn5  1  0.593509  0.593509  0.219476  1
  Sn  Sn6  1  0.593509  0.219476  0.593509  1
  Sn  Sn7  1  0.219476  0.593509  0.593509  1
  Sn  Sn8  1  0.593509  0.593509  0.593509  1
  Sn  Sn9  1  0.750000  0.750000  0.750000  1
  Sn  Sn10  1  0.998331  0.351824  0.651516  1
  Sn  Sn11  1  0.998331  0.998331  0.651516  1
  Sn  Sn12  1  0.351824  0.998331  0.651516  1
  Sn  Sn13  1  0.998331  0.651516  0.351824  1
  Sn  Sn14  1  0.351824  0.651516  0.998331  1
  Sn  Sn15  1  0.998331  0.651516  0.998331  1
  Sn  Sn16  1  0.651516  0.998331  0.998331  1
  Sn  Sn17  1  0.651516  0.351824  0.998331  1
  Sn  Sn18  1  0.651516  0.998331  0.351824  1
  Sn  Sn19  1  0.351824  0.998331  0.998331  1
  Sn  Sn20  1  0.998331  0.998331  0.351824  1
  Sn  Sn21  1  0.998331  0.351824  0.998331  1
  Sn  Sn22  1  0.250000  0.250000  0.250000  1
  Os  Os23  1  0.256745  0.256745  0.743255  1
  Os  Os24  1  0.743255  0.256745  0.743255  1
  Os  Os25  1  0.256745  0.743255  0.743255  1
  Os  Os26  1  0.743255  0.743255  0.256745  1
  Os  Os27  1  0.256745  0.743255  0.256745  1
  Os  Os28  1  0.743255  0.256745  0.256745  1
