# generated using pymatgen
data_Ta2Nb4Re5Si6Mo
_symmetry_space_group_name_H-M   'P 1'
_cell_length_a   7.59311418
_cell_length_b   7.59908210
_cell_length_c   7.59908106
_cell_angle_alpha   126.86988104
_cell_angle_beta   125.74221679
_cell_angle_gamma   79.40738087
_symmetry_Int_Tables_number   1
_chemical_formula_structural   Ta2Nb4Re5Si6Mo
_chemical_formula_sum   'Ta2 Nb4 Re5 Si6 Mo1'
_cell_volume   275.17235061
_cell_formula_units_Z   1
loop_
 _symmetry_equiv_pos_site_id
 _symmetry_equiv_pos_as_xyz
  1  'x, y, z'
loop_
 _atom_site_type_symbol
 _atom_site_label
 _atom_site_symmetry_multiplicity
 _atom_site_fract_x
 _atom_site_fract_y
 _atom_site_fract_z
 _atom_site_occupancy
  Ta  Ta0  1  0.556437  0.097657  0.040647  1
  Ta  Ta1  1  0.443563  0.484210  0.541220  1
  Nb  Nb2  1  0.958178  0.497279  0.037190  1
  Nb  Nb3  1  0.041822  0.079011  0.539101  1
  Nb  Nb4  1  0.753430  0.911777  0.656914  1
  Nb  Nb5  1  0.246570  0.903483  0.158347  1
  Re  Re6  1  0.000000  0.245622  0.245622  1
  Re  Re7  1  0.159153  0.750728  0.654553  1
  Re  Re8  1  0.840847  0.495399  0.591574  1
  Re  Re9  1  0.595288  0.751988  0.090818  1
  Re  Re10  1  0.404712  0.495529  0.156699  1
  Si  Si11  1  0.772429  0.531058  0.258223  1
  Si  Si12  1  0.227571  0.485794  0.758628  1
  Si  Si13  1  0.335514  0.822249  0.495608  1
  Si  Si14  1  0.664486  0.160094  0.486735  1
  Si  Si15  1  0.828144  0.825124  0.989167  1
  Si  Si16  1  0.171856  0.161023  0.996980  1
  Mo  Mo17  1  0.500000  0.244173  0.744173  1
