# generated using pymatgen
data_LaNdGaSi
_symmetry_space_group_name_H-M   'P 1'
_cell_length_a   6.10176526
_cell_length_b   6.10176458
_cell_length_c   4.08290500
_cell_angle_alpha   90.00000000
_cell_angle_beta   90.00000000
_cell_angle_gamma   136.61205760
_symmetry_Int_Tables_number   1
_chemical_formula_structural   LaNdGaSi
_chemical_formula_sum   'La1 Nd1 Ga1 Si1'
_cell_volume   104.42286518
_cell_formula_units_Z   1
loop_
 _symmetry_equiv_pos_site_id
 _symmetry_equiv_pos_as_xyz
  1  'x, y, z'
loop_
 _atom_site_type_symbol
 _atom_site_label
 _atom_site_symmetry_multiplicity
 _atom_site_fract_x
 _atom_site_fract_y
 _atom_site_fract_z
 _atom_site_occupancy
  La  La0  1  0.357056  0.642944  0.000000  1
  Nd  Nd1  1  0.642038  0.357962  0.500000  1
  Ga  Ga2  1  0.069424  0.930576  0.000000  1
  Si  Si3  1  0.931483  0.068517  0.500000  1
