# generated using pymatgen
data_Er7Pa(Si3Pt)4
_symmetry_space_group_name_H-M   'P 1'
_cell_length_a   8.10535400
_cell_length_b   8.10535446
_cell_length_c   8.00361700
_cell_angle_alpha   90.00000000
_cell_angle_beta   90.00000000
_cell_angle_gamma   119.99999813
_symmetry_Int_Tables_number   1
_chemical_formula_structural   Er7Pa(Si3Pt)4
_chemical_formula_sum   'Er7 Pa1 Si12 Pt4'
_cell_volume   455.36635265
_cell_formula_units_Z   1
loop_
 _symmetry_equiv_pos_site_id
 _symmetry_equiv_pos_as_xyz
  1  'x, y, z'
loop_
 _atom_site_type_symbol
 _atom_site_label
 _atom_site_symmetry_multiplicity
 _atom_site_fract_x
 _atom_site_fract_y
 _atom_site_fract_z
 _atom_site_occupancy
  Er  Er0  1  0.000000  0.000000  0.750000  1
  Er  Er1  1  0.498461  0.501539  0.250000  1
  Er  Er2  1  0.498461  0.996924  0.250000  1
  Er  Er3  1  0.003076  0.501539  0.250000  1
  Er  Er4  1  0.501469  0.498531  0.750000  1
  Er  Er5  1  0.997060  0.498531  0.750000  1
  Er  Er6  1  0.501469  0.002940  0.750000  1
  Pa  Pa7  1  0.000000  0.000000  0.250000  1
  Si  Si8  1  0.834859  0.165141  0.498681  1
  Si  Si9  1  0.834859  0.669721  0.498681  1
  Si  Si10  1  0.330279  0.165141  0.498681  1
  Si  Si11  1  0.834859  0.165141  0.001319  1
  Si  Si12  1  0.834859  0.669721  0.001319  1
  Si  Si13  1  0.330279  0.165141  0.001319  1
  Si  Si14  1  0.165041  0.834959  0.999611  1
  Si  Si15  1  0.669918  0.834959  0.999611  1
  Si  Si16  1  0.165041  0.330082  0.999611  1
  Si  Si17  1  0.165041  0.834959  0.500389  1
  Si  Si18  1  0.669918  0.834959  0.500389  1
  Si  Si19  1  0.165041  0.330082  0.500389  1
  Pt  Pt20  1  0.666667  0.333333  0.498256  1
  Pt  Pt21  1  0.666667  0.333333  0.001744  1
  Pt  Pt22  1  0.333333  0.666667  0.994894  1
  Pt  Pt23  1  0.333333  0.666667  0.505106  1
