# generated using pymatgen
data_ThCuNi3Pt
_symmetry_space_group_name_H-M   'P 1'
_cell_length_a   5.15834851
_cell_length_b   4.88906288
_cell_length_c   4.09238600
_cell_angle_alpha   90.00000000
_cell_angle_beta   90.00000000
_cell_angle_gamma   118.51131415
_symmetry_Int_Tables_number   1
_chemical_formula_structural   ThCuNi3Pt
_chemical_formula_sum   'Th1 Cu1 Ni3 Pt1'
_cell_volume   90.69113233
_cell_formula_units_Z   1
loop_
 _symmetry_equiv_pos_site_id
 _symmetry_equiv_pos_as_xyz
  1  'x, y, z'
loop_
 _atom_site_type_symbol
 _atom_site_label
 _atom_site_symmetry_multiplicity
 _atom_site_fract_x
 _atom_site_fract_y
 _atom_site_fract_z
 _atom_site_occupancy
  Th  Th0  1  0.000000  0.000000  0.000000  1
  Cu  Cu1  1  0.500000  0.000000  0.500000  1
  Ni  Ni2  1  0.635224  0.326017  0.000000  1
  Ni  Ni3  1  0.364776  0.673983  0.000000  1
  Ni  Ni4  1  0.500000  0.500000  0.500000  1
  Pt  Pt5  1  0.000000  0.500000  0.500000  1
