# generated using pymatgen
data_Tb5Y3(ErIr2)2
_symmetry_space_group_name_H-M   'P 1'
_cell_length_a   6.51486937
_cell_length_b   7.22332814
_cell_length_c   8.57676500
_cell_angle_alpha   96.45966998
_cell_angle_beta   112.31768796
_cell_angle_gamma   89.92636447
_symmetry_Int_Tables_number   1
_chemical_formula_structural   Tb5Y3(ErIr2)2
_chemical_formula_sum   'Tb5 Y3 Er2 Ir4'
_cell_volume   370.63295493
_cell_formula_units_Z   1
loop_
 _symmetry_equiv_pos_site_id
 _symmetry_equiv_pos_as_xyz
  1  'x, y, z'
loop_
 _atom_site_type_symbol
 _atom_site_label
 _atom_site_symmetry_multiplicity
 _atom_site_fract_x
 _atom_site_fract_y
 _atom_site_fract_z
 _atom_site_occupancy
  Tb  Tb0  1  0.971560  0.917355  0.181605  1
  Tb  Tb1  1  0.789445  0.582848  0.818032  1
  Tb  Tb2  1  0.028595  0.082904  0.818223  1
  Tb  Tb3  1  0.210200  0.416864  0.181807  1
  Tb  Tb4  1  0.653194  0.817567  0.440242  1
  Y  Y5  1  0.213062  0.682485  0.558980  1
  Y  Y6  1  0.345773  0.183107  0.558973  1
  Y  Y7  1  0.787306  0.317284  0.441400  1
  Er  Er8  1  0.428317  0.750075  0.999839  1
  Er  Er9  1  0.571864  0.249705  0.000060  1
  Ir  Ir10  1  0.822202  0.572795  0.217380  1
  Ir  Ir11  1  0.604977  0.927405  0.782761  1
  Ir  Ir12  1  0.177676  0.427315  0.783000  1
  Ir  Ir13  1  0.395830  0.072290  0.217700  1
