# generated using pymatgen
data_KTc2Mo4Se7
_symmetry_space_group_name_H-M   'P 1'
_cell_length_a   9.92464047
_cell_length_b   9.91868405
_cell_length_c   9.92765164
_cell_angle_alpha   60.36465611
_cell_angle_beta   60.34880476
_cell_angle_gamma   60.48014315
_symmetry_Int_Tables_number   1
_chemical_formula_structural   KTc2Mo4Se7
_chemical_formula_sum   'K2 Tc4 Mo8 Se14'
_cell_volume   697.25112700
_cell_formula_units_Z   2
loop_
 _symmetry_equiv_pos_site_id
 _symmetry_equiv_pos_as_xyz
  1  'x, y, z'
loop_
 _atom_site_type_symbol
 _atom_site_label
 _atom_site_symmetry_multiplicity
 _atom_site_fract_x
 _atom_site_fract_y
 _atom_site_fract_z
 _atom_site_occupancy
  K  K0  1  0.126138  0.128586  0.130134  1
  K  K1  1  0.873319  0.875272  0.873348  1
  Tc  Tc2  1  0.613447  0.305447  0.439972  1
  Tc  Tc3  1  0.306266  0.439778  0.612565  1
  Tc  Tc4  1  0.440241  0.612512  0.306548  1
  Tc  Tc5  1  0.386011  0.695995  0.560091  1
  Mo  Mo6  1  0.696144  0.560410  0.385890  1
  Mo  Mo7  1  0.559715  0.385788  0.696015  1
  Mo  Mo8  1  0.377455  0.202028  0.504169  1
  Mo  Mo9  1  0.203271  0.504438  0.376901  1
  Mo  Mo10  1  0.505364  0.376568  0.202586  1
  Mo  Mo11  1  0.623414  0.797572  0.495571  1
  Mo  Mo12  1  0.798382  0.495670  0.622528  1
  Mo  Mo13  1  0.495889  0.622330  0.797744  1
  Se  Se14  1  0.670614  0.312582  0.917602  1
  Se  Se15  1  0.085728  0.327599  0.688039  1
  Se  Se16  1  0.276832  0.277935  0.276629  1
  Se  Se17  1  0.723011  0.723956  0.723108  1
  Se  Se18  1  0.857351  0.254488  0.519104  1
  Se  Se19  1  0.254211  0.524458  0.852944  1
  Se  Se20  1  0.513756  0.857519  0.260246  1
  Se  Se21  1  0.147412  0.736878  0.480989  1
  Se  Se22  1  0.736516  0.479460  0.144596  1
  Se  Se23  1  0.478029  0.144363  0.736411  1
  Se  Se24  1  0.331239  0.687352  0.084602  1
  Se  Se25  1  0.688727  0.083961  0.329102  1
  Se  Se26  1  0.918300  0.672050  0.312176  1
  Se  Se27  1  0.313219  0.915002  0.670388  1
