# generated using pymatgen
data_Rb3Lu(AsO4)2
_symmetry_space_group_name_H-M   'P 1'
_cell_length_a   5.95744900
_cell_length_b   5.95744810
_cell_length_c   8.19845500
_cell_angle_alpha   90.00000000
_cell_angle_beta   90.00000000
_cell_angle_gamma   119.99998835
_symmetry_Int_Tables_number   1
_chemical_formula_structural   Rb3Lu(AsO4)2
_chemical_formula_sum   'Rb3 Lu1 As2 O8'
_cell_volume   251.98999648
_cell_formula_units_Z   1
loop_
 _symmetry_equiv_pos_site_id
 _symmetry_equiv_pos_as_xyz
  1  'x, y, z'
loop_
 _atom_site_type_symbol
 _atom_site_label
 _atom_site_symmetry_multiplicity
 _atom_site_fract_x
 _atom_site_fract_y
 _atom_site_fract_z
 _atom_site_occupancy
  Rb  Rb0  1  0.333333  0.666667  0.733384  1
  Rb  Rb1  1  0.666667  0.333333  0.266616  1
  Rb  Rb2  1  0.000000  0.000000  0.000000  1
  Lu  Lu3  1  0.000000  0.000000  0.500000  1
  As  As4  1  0.333333  0.666667  0.272814  1
  As  As5  1  0.666667  0.333333  0.727186  1
  O  O6  1  0.333333  0.666667  0.067199  1
  O  O7  1  0.666667  0.333333  0.932801  1
  O  O8  1  0.175007  0.824993  0.344883  1
  O  O9  1  0.824993  0.175007  0.655117  1
  O  O10  1  0.175007  0.350014  0.344883  1
  O  O11  1  0.824993  0.649986  0.655117  1
  O  O12  1  0.649986  0.824993  0.344883  1
  O  O13  1  0.350014  0.175007  0.655117  1
