# generated using pymatgen
data_Li3AsPt2
_symmetry_space_group_name_H-M   'P 1'
_cell_length_a   4.06149021
_cell_length_b   4.06148919
_cell_length_c   10.47534600
_cell_angle_alpha   101.17810266
_cell_angle_beta   101.17809983
_cell_angle_gamma   90.00000893
_symmetry_Int_Tables_number   1
_chemical_formula_structural   Li3AsPt2
_chemical_formula_sum   'Li6 As2 Pt4'
_cell_volume   166.17729990
_cell_formula_units_Z   2
loop_
 _symmetry_equiv_pos_site_id
 _symmetry_equiv_pos_as_xyz
  1  'x, y, z'
loop_
 _atom_site_type_symbol
 _atom_site_label
 _atom_site_symmetry_multiplicity
 _atom_site_fract_x
 _atom_site_fract_y
 _atom_site_fract_z
 _atom_site_occupancy
  Li  Li0  1  0.041142  0.291142  0.082281  1
  Li  Li1  1  0.125000  0.874999  0.250000  1
  Li  Li2  1  0.708858  0.958858  0.417718  1
  Li  Li3  1  0.291142  0.041142  0.582282  1
  Li  Li4  1  0.875000  0.125000  0.750000  1
  Li  Li5  1  0.958858  0.708858  0.917718  1
  As  As6  1  0.625000  0.375000  0.250000  1
  As  As7  1  0.375000  0.625000  0.750000  1
  Pt  Pt8  1  0.546394  0.796394  0.092789  1
  Pt  Pt9  1  0.203605  0.453605  0.407211  1
  Pt  Pt10  1  0.796394  0.546394  0.592789  1
  Pt  Pt11  1  0.453605  0.203606  0.907211  1
