# generated using pymatgen
data_AlCu15Si3Pt
_symmetry_space_group_name_H-M   'P 1'
_cell_length_a   6.31663788
_cell_length_b   6.29071014
_cell_length_c   6.26059130
_cell_angle_alpha   90.11232875
_cell_angle_beta   90.18738146
_cell_angle_gamma   89.95730998
_symmetry_Int_Tables_number   1
_chemical_formula_structural   AlCu15Si3Pt
_chemical_formula_sum   'Al1 Cu15 Si3 Pt1'
_cell_volume   248.76984323
_cell_formula_units_Z   1
loop_
 _symmetry_equiv_pos_site_id
 _symmetry_equiv_pos_as_xyz
  1  'x, y, z'
loop_
 _atom_site_type_symbol
 _atom_site_label
 _atom_site_symmetry_multiplicity
 _atom_site_fract_x
 _atom_site_fract_y
 _atom_site_fract_z
 _atom_site_occupancy
  Al  Al0  1  0.061151  0.060412  0.059149  1
  Cu  Cu1  1  0.317662  0.188526  0.810780  1
  Cu  Cu2  1  0.186985  0.808737  0.317906  1
  Cu  Cu3  1  0.686824  0.683460  0.685757  1
  Cu  Cu4  1  0.051455  0.874062  0.704759  1
  Cu  Cu5  1  0.293564  0.548646  0.621388  1
  Cu  Cu6  1  0.377219  0.793943  0.948550  1
  Cu  Cu7  1  0.541406  0.635767  0.298158  1
  Cu  Cu8  1  0.797355  0.947962  0.389961  1
  Cu  Cu9  1  0.879482  0.710843  0.045636  1
  Cu  Cu10  1  0.954541  0.379102  0.786385  1
  Cu  Cu11  1  0.701838  0.041630  0.866778  1
  Cu  Cu12  1  0.609420  0.296316  0.553970  1
  Cu  Cu13  1  0.448102  0.108556  0.205198  1
  Cu  Cu14  1  0.213533  0.454453  0.116296  1
  Cu  Cu15  1  0.131589  0.202036  0.455698  1
  Si  Si16  1  0.440708  0.939163  0.562123  1
  Si  Si17  1  0.945110  0.561492  0.444754  1
  Si  Si18  1  0.554501  0.444524  0.938463  1
  Pt  Pt19  1  0.807551  0.320366  0.188288  1
