# generated using pymatgen
data_Sc6Ti4Al12Ru2Rh5
_symmetry_space_group_name_H-M   'P 1'
_cell_length_a   8.81459012
_cell_length_b   8.82288580
_cell_length_c   8.82288656
_cell_angle_alpha   59.82639285
_cell_angle_beta   60.03110170
_cell_angle_gamma   60.03109914
_symmetry_Int_Tables_number   1
_chemical_formula_structural   Sc6Ti4Al12Ru2Rh5
_chemical_formula_sum   'Sc6 Ti4 Al12 Ru2 Rh5'
_cell_volume   484.77351864
_cell_formula_units_Z   1
loop_
 _symmetry_equiv_pos_site_id
 _symmetry_equiv_pos_as_xyz
  1  'x, y, z'
loop_
 _atom_site_type_symbol
 _atom_site_label
 _atom_site_symmetry_multiplicity
 _atom_site_fract_x
 _atom_site_fract_y
 _atom_site_fract_z
 _atom_site_occupancy
  Sc  Sc0  1  0.707231  0.292769  0.292769  1
  Sc  Sc1  1  0.704764  0.292539  0.707540  1
  Sc  Sc2  1  0.704764  0.707540  0.292539  1
  Sc  Sc3  1  0.293265  0.706735  0.706735  1
  Sc  Sc4  1  0.295157  0.707540  0.292539  1
  Sc  Sc5  1  0.295157  0.292539  0.707540  1
  Ti  Ti6  1  0.642795  0.117942  0.117942  1
  Ti  Ti7  1  0.118893  0.643173  0.119040  1
  Ti  Ti8  1  0.118893  0.119040  0.643173  1
  Ti  Ti9  1  0.121321  0.117942  0.117942  1
  Al  Al10  1  0.357049  0.881619  0.881619  1
  Al  Al11  1  0.880784  0.357088  0.881344  1
  Al  Al12  1  0.880784  0.881344  0.357088  1
  Al  Al13  1  0.879714  0.881619  0.881619  1
  Al  Al14  1  0.999773  0.333425  0.333425  1
  Al  Al15  1  0.333087  0.000678  0.333149  1
  Al  Al16  1  0.333087  0.333149  0.000678  1
  Al  Al17  1  0.333378  0.333425  0.333425  1
  Al  Al18  1  0.000748  0.666301  0.666301  1
  Al  Al19  1  0.666776  0.999353  0.667096  1
  Al  Al20  1  0.666776  0.667096  0.999353  1
  Al  Al21  1  0.666652  0.666301  0.666301  1
  Ru  Ru22  1  0.000151  0.999849  0.999849  1
  Ru  Ru23  1  0.498467  0.001533  0.001533  1
  Rh  Rh24  1  0.498618  0.000848  0.499395  1
  Rh  Rh25  1  0.498618  0.499395  0.000848  1
  Rh  Rh26  1  0.001022  0.498978  0.498978  1
  Rh  Rh27  1  0.001138  0.499395  0.000848  1
  Rh  Rh28  1  0.001138  0.000848  0.499395  1
