# generated using pymatgen
data_Pr2Nd3TmTa2O14
_symmetry_space_group_name_H-M   'P 1'
_cell_length_a   6.66317834
_cell_length_b   6.63299005
_cell_length_c   7.70480600
_cell_angle_alpha   90.00000000
_cell_angle_beta   90.00000000
_cell_angle_gamma   108.91369697
_symmetry_Int_Tables_number   1
_chemical_formula_structural   Pr2Nd3TmTa2O14
_chemical_formula_sum   'Pr2 Nd3 Tm1 Ta2 O14'
_cell_volume   322.14192777
_cell_formula_units_Z   1
loop_
 _symmetry_equiv_pos_site_id
 _symmetry_equiv_pos_as_xyz
  1  'x, y, z'
loop_
 _atom_site_type_symbol
 _atom_site_label
 _atom_site_symmetry_multiplicity
 _atom_site_fract_x
 _atom_site_fract_y
 _atom_site_fract_z
 _atom_site_occupancy
  Pr  Pr0  1  0.529760  0.522863  0.498325  1
  Pr  Pr1  1  0.529760  0.522863  0.001675  1
  Nd  Nd2  1  0.006032  0.463583  0.750000  1
  Nd  Nd3  1  0.533187  0.003024  0.750000  1
  Nd  Nd4  1  0.462764  0.002414  0.250000  1
  Tm  Tm5  1  0.002641  0.529102  0.250000  1
  Ta  Ta6  1  0.001306  0.001673  0.497106  1
  Ta  Ta7  1  0.001306  0.001673  0.002894  1
  O  O8  1  0.946342  0.057785  0.750000  1
  O  O9  1  0.060031  0.935811  0.250000  1
  O  O10  1  0.348453  0.633556  0.250000  1
  O  O11  1  0.642912  0.368805  0.750000  1
  O  O12  1  0.370513  0.631895  0.750000  1
  O  O13  1  0.648511  0.377230  0.250000  1
  O  O14  1  0.310611  0.074152  0.969863  1
  O  O15  1  0.678918  0.918484  0.472907  1
  O  O16  1  0.310611  0.074152  0.530137  1
  O  O17  1  0.678918  0.918484  0.027093  1
  O  O18  1  0.035293  0.300912  0.455465  1
  O  O19  1  0.933420  0.680314  0.978587  1
  O  O20  1  0.933420  0.680314  0.521413  1
  O  O21  1  0.035293  0.300912  0.044535  1
