# generated using pymatgen
data_Mg2ScNbRh4
_symmetry_space_group_name_H-M   'P 1'
_cell_length_a   4.49481300
_cell_length_b   6.32481100
_cell_length_c   13.41886900
_cell_angle_alpha   90.00023305
_cell_angle_beta   90.00025130
_cell_angle_gamma   89.99964942
_symmetry_Int_Tables_number   1
_chemical_formula_structural   Mg2ScNbRh4
_chemical_formula_sum   'Mg6 Sc3 Nb3 Rh12'
_cell_volume   381.48291608
_cell_formula_units_Z   3
loop_
 _symmetry_equiv_pos_site_id
 _symmetry_equiv_pos_as_xyz
  1  'x, y, z'
loop_
 _atom_site_type_symbol
 _atom_site_label
 _atom_site_symmetry_multiplicity
 _atom_site_fract_x
 _atom_site_fract_y
 _atom_site_fract_z
 _atom_site_occupancy
  Mg  Mg0  1  0.999989  0.999998  0.000995  1
  Mg  Mg1  1  0.500095  0.500000  0.166644  1
  Mg  Mg2  1  0.000067  0.000000  0.332343  1
  Mg  Mg3  1  0.499994  0.500002  0.499717  1
  Mg  Mg4  1  0.999926  0.000001  0.666644  1
  Mg  Mg5  1  0.499903  0.499994  0.833666  1
  Sc  Sc6  1  0.000006  0.500001  0.001437  1
  Sc  Sc7  1  0.500109  0.000001  0.166676  1
  Sc  Sc8  1  0.000128  0.500004  0.331879  1
  Nb  Nb9  1  0.499996  0.000001  0.497549  1
  Nb  Nb10  1  0.999865  0.500001  0.666687  1
  Nb  Nb11  1  0.499890  0.999998  0.835783  1
  Rh  Rh12  1  0.499991  0.246911  0.995721  1
  Rh  Rh13  1  0.499991  0.753096  0.995721  1
  Rh  Rh14  1  0.000144  0.251082  0.166654  1
  Rh  Rh15  1  0.000142  0.748917  0.166654  1
  Rh  Rh16  1  0.500104  0.246904  0.337590  1
  Rh  Rh17  1  0.500102  0.753096  0.337588  1
  Rh  Rh18  1  0.999993  0.244853  0.504582  1
  Rh  Rh19  1  0.999986  0.755145  0.504583  1
  Rh  Rh20  1  0.499886  0.250091  0.666680  1
  Rh  Rh21  1  0.499887  0.749911  0.666680  1
  Rh  Rh22  1  0.999899  0.244789  0.828764  1
  Rh  Rh23  1  0.999901  0.755214  0.828764  1
