# generated using pymatgen
data_Ac2Er2MgSn4
_symmetry_space_group_name_H-M   'P 1'
_cell_length_a   8.04062200
_cell_length_b   8.55149500
_cell_length_c   15.77149400
_cell_angle_alpha   90.00000000
_cell_angle_beta   90.00000000
_cell_angle_gamma   90.00000000
_symmetry_Int_Tables_number   1
_chemical_formula_structural   Ac2Er2MgSn4
_chemical_formula_sum   'Ac8 Er8 Mg4 Sn16'
_cell_volume   1084.43749980
_cell_formula_units_Z   4
loop_
 _symmetry_equiv_pos_site_id
 _symmetry_equiv_pos_as_xyz
  1  'x, y, z'
loop_
 _atom_site_type_symbol
 _atom_site_label
 _atom_site_symmetry_multiplicity
 _atom_site_fract_x
 _atom_site_fract_y
 _atom_site_fract_z
 _atom_site_occupancy
  Ac  Ac0  1  0.000304  0.179005  0.095703  1
  Ac  Ac1  1  0.999696  0.820995  0.904297  1
  Ac  Ac2  1  0.499696  0.679005  0.904297  1
  Ac  Ac3  1  0.999696  0.820995  0.595703  1
  Ac  Ac4  1  0.500304  0.320995  0.095703  1
  Ac  Ac5  1  0.000304  0.179005  0.404297  1
  Ac  Ac6  1  0.500304  0.320995  0.404297  1
  Ac  Ac7  1  0.499696  0.679005  0.595703  1
  Er  Er8  1  0.334267  0.168897  0.627971  1
  Er  Er9  1  0.665733  0.831103  0.372029  1
  Er  Er10  1  0.165733  0.668897  0.372029  1
  Er  Er11  1  0.665733  0.831103  0.127971  1
  Er  Er12  1  0.834267  0.331103  0.627971  1
  Er  Er13  1  0.334267  0.168897  0.872029  1
  Er  Er14  1  0.834267  0.331103  0.872029  1
  Er  Er15  1  0.165733  0.668897  0.127971  1
  Mg  Mg16  1  0.161043  0.500092  0.750000  1
  Mg  Mg17  1  0.838957  0.499908  0.250000  1
  Mg  Mg18  1  0.338957  0.000092  0.250000  1
  Mg  Mg19  1  0.661043  0.999908  0.750000  1
  Sn  Sn20  1  0.024321  0.115790  0.750000  1
  Sn  Sn21  1  0.975679  0.884210  0.250000  1
  Sn  Sn22  1  0.475679  0.615790  0.250000  1
  Sn  Sn23  1  0.524321  0.384210  0.750000  1
  Sn  Sn24  1  0.170729  0.457757  0.540057  1
  Sn  Sn25  1  0.829271  0.542243  0.459943  1
  Sn  Sn26  1  0.329271  0.957757  0.459943  1
  Sn  Sn27  1  0.829271  0.542243  0.040057  1
  Sn  Sn28  1  0.670729  0.042243  0.540057  1
  Sn  Sn29  1  0.170729  0.457757  0.959943  1
  Sn  Sn30  1  0.670729  0.042243  0.959943  1
  Sn  Sn31  1  0.329271  0.957757  0.040057  1
  Sn  Sn32  1  0.302450  0.870554  0.750000  1
  Sn  Sn33  1  0.697550  0.129446  0.250000  1
  Sn  Sn34  1  0.197550  0.370554  0.250000  1
  Sn  Sn35  1  0.802450  0.629446  0.750000  1
