# generated using pymatgen
data_Sr(FeBr4)2
_symmetry_space_group_name_H-M   'P 1'
_cell_length_a   7.51566500
_cell_length_b   8.03081487
_cell_length_c   13.75060380
_cell_angle_alpha   85.19075806
_cell_angle_beta   90.00000000
_cell_angle_gamma   90.00000000
_symmetry_Int_Tables_number   1
_chemical_formula_structural   Sr(FeBr4)2
_chemical_formula_sum   'Sr2 Fe4 Br16'
_cell_volume   827.02207031
_cell_formula_units_Z   2
loop_
 _symmetry_equiv_pos_site_id
 _symmetry_equiv_pos_as_xyz
  1  'x, y, z'
loop_
 _atom_site_type_symbol
 _atom_site_label
 _atom_site_symmetry_multiplicity
 _atom_site_fract_x
 _atom_site_fract_y
 _atom_site_fract_z
 _atom_site_occupancy
  Sr  Sr0  1  0.151543  0.500000  0.250000  1
  Sr  Sr1  1  0.848457  0.500000  0.750000  1
  Fe  Fe2  1  0.260854  0.679495  0.579318  1
  Fe  Fe3  1  0.739146  0.679495  0.079318  1
  Fe  Fe4  1  0.739146  0.320505  0.420682  1
  Fe  Fe5  1  0.260854  0.320505  0.920682  1
  Br  Br6  1  0.530100  0.744263  0.656554  1
  Br  Br7  1  0.302784  0.741342  0.409531  1
  Br  Br8  1  0.822284  0.398782  0.115566  1
  Br  Br9  1  0.177716  0.601218  0.884434  1
  Br  Br10  1  0.469900  0.255737  0.343446  1
  Br  Br11  1  0.302784  0.258658  0.090469  1
  Br  Br12  1  0.697216  0.258658  0.590469  1
  Br  Br13  1  0.469900  0.744263  0.156554  1
  Br  Br14  1  0.177716  0.398782  0.615566  1
  Br  Br15  1  0.530100  0.255737  0.843446  1
  Br  Br16  1  0.822284  0.601218  0.384434  1
  Br  Br17  1  0.976092  0.835373  0.139157  1
  Br  Br18  1  0.697216  0.741342  0.909531  1
  Br  Br19  1  0.023908  0.164627  0.860843  1
  Br  Br20  1  0.976092  0.164627  0.360843  1
  Br  Br21  1  0.023908  0.835373  0.639157  1
