# generated using pymatgen
data_Nd3Dy(UTc3)2
_symmetry_space_group_name_H-M   'P 1'
_cell_length_a   5.88651800
_cell_length_b   5.88651776
_cell_length_c   8.25330000
_cell_angle_alpha   90.00000000
_cell_angle_beta   90.00000000
_cell_angle_gamma   119.99997890
_symmetry_Int_Tables_number   1
_chemical_formula_structural   Nd3Dy(UTc3)2
_chemical_formula_sum   'Nd3 Dy1 U2 Tc6'
_cell_volume   247.67107565
_cell_formula_units_Z   1
loop_
 _symmetry_equiv_pos_site_id
 _symmetry_equiv_pos_as_xyz
  1  'x, y, z'
loop_
 _atom_site_type_symbol
 _atom_site_label
 _atom_site_symmetry_multiplicity
 _atom_site_fract_x
 _atom_site_fract_y
 _atom_site_fract_z
 _atom_site_occupancy
  Nd  Nd0  1  0.333333  0.666667  0.439390  1
  Nd  Nd1  1  0.666667  0.333333  0.561827  1
  Nd  Nd2  1  0.666667  0.333333  0.939096  1
  Dy  Dy3  1  0.333333  0.666667  0.058529  1
  U  U4  1  0.000000  0.000000  0.500281  1
  U  U5  1  0.000000  0.000000  0.999789  1
  Tc  Tc6  1  0.838416  0.161584  0.249011  1
  Tc  Tc7  1  0.838416  0.676833  0.249011  1
  Tc  Tc8  1  0.323167  0.161584  0.249011  1
  Tc  Tc9  1  0.161930  0.838070  0.751352  1
  Tc  Tc10  1  0.161930  0.323858  0.751352  1
  Tc  Tc11  1  0.676142  0.838070  0.751352  1
