# generated using pymatgen
data_Li2AcLuSi4
_symmetry_space_group_name_H-M   'P 1'
_cell_length_a   3.88242500
_cell_length_b   7.85742797
_cell_length_c   10.50063001
_cell_angle_alpha   89.62404891
_cell_angle_beta   90.00000000
_cell_angle_gamma   90.00000000
_symmetry_Int_Tables_number   1
_chemical_formula_structural   Li2AcLuSi4
_chemical_formula_sum   'Li4 Ac2 Lu2 Si8'
_cell_volume   320.32400823
_cell_formula_units_Z   2
loop_
 _symmetry_equiv_pos_site_id
 _symmetry_equiv_pos_as_xyz
  1  'x, y, z'
loop_
 _atom_site_type_symbol
 _atom_site_label
 _atom_site_symmetry_multiplicity
 _atom_site_fract_x
 _atom_site_fract_y
 _atom_site_fract_z
 _atom_site_occupancy
  Li  Li0  1  0.250000  0.996540  0.386749  1
  Li  Li1  1  0.750000  0.003460  0.613251  1
  Li  Li2  1  0.250000  0.488334  0.102942  1
  Li  Li3  1  0.750000  0.511666  0.897058  1
  Ac  Ac4  1  0.250000  0.643868  0.637865  1
  Ac  Ac5  1  0.750000  0.356132  0.362135  1
  Lu  Lu6  1  0.250000  0.127450  0.866784  1
  Lu  Lu7  1  0.750000  0.872550  0.133216  1
  Si  Si8  1  0.750000  0.254521  0.056353  1
  Si  Si9  1  0.250000  0.745479  0.943647  1
  Si  Si10  1  0.750000  0.788278  0.413815  1
  Si  Si11  1  0.250000  0.211722  0.586185  1
  Si  Si12  1  0.750000  0.850158  0.833425  1
  Si  Si13  1  0.250000  0.149842  0.166575  1
  Si  Si14  1  0.750000  0.325244  0.691058  1
  Si  Si15  1  0.250000  0.674756  0.308942  1
