# generated using pymatgen
data_Th2Fe7Co3P7W2
_symmetry_space_group_name_H-M   'P 1'
_cell_length_a   9.15122863
_cell_length_b   9.13432385
_cell_length_c   3.74036500
_cell_angle_alpha   90.00000000
_cell_angle_beta   90.00000000
_cell_angle_gamma   120.19233181
_symmetry_Int_Tables_number   1
_chemical_formula_structural   Th2Fe7Co3P7W2
_chemical_formula_sum   'Th2 Fe7 Co3 P7 W2'
_cell_volume   270.24363295
_cell_formula_units_Z   1
loop_
 _symmetry_equiv_pos_site_id
 _symmetry_equiv_pos_as_xyz
  1  'x, y, z'
loop_
 _atom_site_type_symbol
 _atom_site_label
 _atom_site_symmetry_multiplicity
 _atom_site_fract_x
 _atom_site_fract_y
 _atom_site_fract_z
 _atom_site_occupancy
  Th  Th0  1  0.332074  0.664789  0.000000  1
  Th  Th1  1  0.998086  0.998844  0.500000  1
  Fe  Fe2  1  0.548323  0.060908  0.000000  1
  Fe  Fe3  1  0.937709  0.481108  0.000000  1
  Fe  Fe4  1  0.512209  0.454980  0.000000  1
  Fe  Fe5  1  0.618693  0.900562  0.500000  1
  Fe  Fe6  1  0.103907  0.716266  0.500000  1
  Fe  Fe7  1  0.276100  0.383852  0.500000  1
  Fe  Fe8  1  0.789055  0.236006  0.500000  1
  Co  Co9  1  0.029011  0.269018  0.000000  1
  Co  Co10  1  0.734655  0.765147  0.000000  1
  Co  Co11  1  0.236793  0.968104  0.000000  1
  P  P12  1  0.766305  0.029608  0.000000  1
  P  P13  1  0.977554  0.740494  0.000000  1
  P  P14  1  0.258754  0.233266  0.000000  1
  P  P15  1  0.380015  0.931310  0.500000  1
  P  P16  1  0.061078  0.441631  0.500000  1
  P  P17  1  0.554259  0.624678  0.500000  1
  P  P18  1  0.666570  0.330395  0.000000  1
  W  W19  1  0.770244  0.549057  0.500000  1
  W  W20  1  0.448609  0.219975  0.500000  1
