# generated using pymatgen
data_Tm12Fe4BiOs
_symmetry_space_group_name_H-M   'P 1'
_cell_length_a   8.21485033
_cell_length_b   8.21485499
_cell_length_c   8.21484913
_cell_angle_alpha   111.05565595
_cell_angle_beta   111.39259560
_cell_angle_gamma   106.01974591
_symmetry_Int_Tables_number   1
_chemical_formula_structural   Tm12Fe4BiOs
_chemical_formula_sum   'Tm12 Fe4 Bi1 Os1'
_cell_volume   425.59736087
_cell_formula_units_Z   1
loop_
 _symmetry_equiv_pos_site_id
 _symmetry_equiv_pos_as_xyz
  1  'x, y, z'
loop_
 _atom_site_type_symbol
 _atom_site_label
 _atom_site_symmetry_multiplicity
 _atom_site_fract_x
 _atom_site_fract_y
 _atom_site_fract_z
 _atom_site_occupancy
  Tm  Tm0  1  0.274588  0.181564  0.456150  1
  Tm  Tm1  1  0.725412  0.818436  0.543850  1
  Tm  Tm2  1  0.274587  0.818436  0.093022  1
  Tm  Tm3  1  0.725413  0.181564  0.906978  1
  Tm  Tm4  1  0.617357  0.310701  0.306656  1
  Tm  Tm5  1  0.382643  0.689299  0.693344  1
  Tm  Tm6  1  0.004045  0.310701  0.693344  1
  Tm  Tm7  1  0.995955  0.689299  0.306656  1
  Tm  Tm8  1  0.218201  0.415978  0.197780  1
  Tm  Tm9  1  0.781799  0.584022  0.802220  1
  Tm  Tm10  1  0.218201  0.020422  0.802221  1
  Tm  Tm11  1  0.781799  0.979578  0.197779  1
  Fe  Fe12  1  0.000000  0.381798  0.381798  1
  Fe  Fe13  1  0.000000  0.618202  0.618202  1
  Fe  Fe14  1  0.393320  0.893319  0.500000  1
  Fe  Fe15  1  0.606680  0.106681  0.500000  1
  Bi  Bi16  1  0.500000  0.500000  0.000000  1
  Os  Os17  1  0.000000  0.000000  0.000000  1
