# generated using pymatgen
data_TbDy3Al12(GaIr)6
_symmetry_space_group_name_H-M   'P 1'
_cell_length_a   7.53697102
_cell_length_b   7.53718749
_cell_length_c   9.58797000
_cell_angle_alpha   90.00000000
_cell_angle_beta   90.00000000
_cell_angle_gamma   119.63964347
_symmetry_Int_Tables_number   1
_chemical_formula_structural   TbDy3Al12(GaIr)6
_chemical_formula_sum   'Tb1 Dy3 Al12 Ga6 Ir6'
_cell_volume   473.40086086
_cell_formula_units_Z   1
loop_
 _symmetry_equiv_pos_site_id
 _symmetry_equiv_pos_as_xyz
  1  'x, y, z'
loop_
 _atom_site_type_symbol
 _atom_site_label
 _atom_site_symmetry_multiplicity
 _atom_site_fract_x
 _atom_site_fract_y
 _atom_site_fract_z
 _atom_site_occupancy
  Tb  Tb0  1  0.995982  0.669603  0.750000  1
  Dy  Dy1  1  0.004019  0.330392  0.250000  1
  Dy  Dy2  1  0.669602  0.995989  0.750000  1
  Dy  Dy3  1  0.330394  0.004021  0.250000  1
  Al  Al4  1  0.001545  0.334486  0.572813  1
  Al  Al5  1  0.998449  0.665447  0.427109  1
  Al  Al6  1  0.998449  0.665447  0.072891  1
  Al  Al7  1  0.334618  0.001612  0.927185  1
  Al  Al8  1  0.001545  0.334486  0.927187  1
  Al  Al9  1  0.665450  0.998455  0.072842  1
  Al  Al10  1  0.665450  0.998455  0.427158  1
  Al  Al11  1  0.334618  0.001612  0.572815  1
  Al  Al12  1  0.333867  0.333866  0.054458  1
  Al  Al13  1  0.666076  0.666133  0.945573  1
  Al  Al14  1  0.666076  0.666133  0.554427  1
  Al  Al15  1  0.333867  0.333866  0.445542  1
  Ga  Ga16  1  0.127893  0.127932  0.750000  1
  Ga  Ga17  1  0.872144  0.872146  0.250000  1
  Ga  Ga18  1  0.338609  0.546849  0.750000  1
  Ga  Ga19  1  0.661425  0.453120  0.250000  1
  Ga  Ga20  1  0.546791  0.338515  0.750000  1
  Ga  Ga21  1  0.453126  0.661431  0.250000  1
  Ir  Ir22  1  0.671694  0.328243  0.499972  1
  Ir  Ir23  1  0.328303  0.671719  0.499971  1
  Ir  Ir24  1  0.328303  0.671719  0.000029  1
  Ir  Ir25  1  0.671694  0.328243  0.000028  1
  Ir  Ir26  1  0.000005  0.000040  0.499970  1
  Ir  Ir27  1  0.000005  0.000040  0.000030  1
