# generated using pymatgen
data_Tb4DyTa2P12Ru8Rh9
_symmetry_space_group_name_H-M   'P 1'
_cell_length_a   12.63583000
_cell_length_b   12.59043619
_cell_length_c   3.92997800
_cell_angle_alpha   90.00000000
_cell_angle_beta   90.00000000
_cell_angle_gamma   119.94526019
_symmetry_Int_Tables_number   1
_chemical_formula_structural   Tb4DyTa2P12Ru8Rh9
_chemical_formula_sum   'Tb4 Dy1 Ta2 P12 Ru8 Rh9'
_cell_volume   541.75707551
_cell_formula_units_Z   1
loop_
 _symmetry_equiv_pos_site_id
 _symmetry_equiv_pos_as_xyz
  1  'x, y, z'
loop_
 _atom_site_type_symbol
 _atom_site_label
 _atom_site_symmetry_multiplicity
 _atom_site_fract_x
 _atom_site_fract_y
 _atom_site_fract_z
 _atom_site_occupancy
  Tb  Tb0  1  0.666466  0.333318  0.000000  1
  Tb  Tb1  1  0.333975  0.667501  0.000000  1
  Tb  Tb2  1  0.812593  0.000340  0.500000  1
  Tb  Tb3  1  0.184937  0.186990  0.500000  1
  Dy  Dy4  1  0.000329  0.812062  0.500000  1
  Ta  Ta5  1  0.441559  0.999676  0.000000  1
  Ta  Ta6  1  0.559161  0.555914  0.000000  1
  P  P7  1  0.638820  0.000627  0.000000  1
  P  P8  1  0.357690  0.366114  0.000000  1
  P  P9  1  0.005631  0.633420  0.000000  1
  P  P10  1  0.687776  0.518289  0.500000  1
  P  P11  1  0.831786  0.308981  0.500000  1
  P  P12  1  0.316055  0.831651  0.500000  1
  P  P13  1  0.518593  0.683220  0.500000  1
  P  P14  1  0.177446  0.999777  0.000000  1
  P  P15  1  0.822668  0.820253  0.000000  1
  P  P16  1  0.996430  0.182530  0.000000  1
  P  P17  1  0.478084  0.165262  0.500000  1
  P  P18  1  0.166961  0.483234  0.500000  1
  Ru  Ru19  1  0.126108  0.640665  0.500000  1
  Ru  Ru20  1  0.356190  0.482562  0.500000  1
  Ru  Ru21  1  0.516457  0.871540  0.500000  1
  Ru  Ru22  1  0.721758  0.717351  0.500000  1
  Ru  Ru23  1  0.000882  0.286046  0.500000  1
  Ru  Ru24  1  0.000197  0.449523  0.000000  1
  Ru  Ru25  1  0.819679  0.197444  0.000000  1
  Ru  Ru26  1  0.279436  0.999287  0.500000  1
  Rh  Rh27  1  0.627663  0.804793  0.000000  1
  Rh  Rh28  1  0.177939  0.376954  0.000000  1
  Rh  Rh29  1  0.371500  0.182522  0.000000  1
  Rh  Rh30  1  0.193754  0.819710  0.000000  1
  Rh  Rh31  1  0.811638  0.625080  0.000000  1
  Rh  Rh32  1  0.871343  0.508088  0.500000  1
  Rh  Rh33  1  0.489884  0.358345  0.500000  1
  Rh  Rh34  1  0.639354  0.128080  0.500000  1
  Rh  Rh35  1  0.999261  0.002850  0.000000  1
