# generated using pymatgen
data_Na20Si4(As3P)3
_symmetry_space_group_name_H-M   'P 1'
_cell_length_a   7.50553723
_cell_length_b   8.19591480
_cell_length_c   15.67595335
_cell_angle_alpha   59.36907139
_cell_angle_beta   90.02229974
_cell_angle_gamma   89.99635029
_symmetry_Int_Tables_number   1
_chemical_formula_structural   Na20Si4(As3P)3
_chemical_formula_sum   'Na20 Si4 As9 P3'
_cell_volume   829.75027778
_cell_formula_units_Z   1
loop_
 _symmetry_equiv_pos_site_id
 _symmetry_equiv_pos_as_xyz
  1  'x, y, z'
loop_
 _atom_site_type_symbol
 _atom_site_label
 _atom_site_symmetry_multiplicity
 _atom_site_fract_x
 _atom_site_fract_y
 _atom_site_fract_z
 _atom_site_occupancy
  Na  Na0  1  0.508036  0.556656  0.256853  1
  Na  Na1  1  0.007703  0.443392  0.243617  1
  Na  Na2  1  0.492068  0.443418  0.743403  1
  Na  Na3  1  0.992586  0.556806  0.756381  1
  Na  Na4  1  0.981955  0.912726  0.413261  1
  Na  Na5  1  0.482187  0.086151  0.087224  1
  Na  Na6  1  0.018238  0.087206  0.586835  1
  Na  Na7  1  0.517867  0.912745  0.913127  1
  Na  Na8  1  0.530032  0.257400  0.581655  1
  Na  Na9  1  0.028533  0.744969  0.918066  1
  Na  Na10  1  0.469835  0.742990  0.418247  1
  Na  Na11  1  0.970056  0.256603  0.082045  1
  Na  Na12  1  0.154836  0.834033  0.242965  1
  Na  Na13  1  0.654934  0.165747  0.257337  1
  Na  Na14  1  0.845422  0.166271  0.756968  1
  Na  Na15  1  0.345289  0.836846  0.741282  1
  Na  Na16  1  0.335845  0.161259  0.418715  1
  Na  Na17  1  0.835932  0.838501  0.081631  1
  Na  Na18  1  0.664129  0.838573  0.581354  1
  Na  Na19  1  0.162624  0.158331  0.918352  1
  Si  Si20  1  0.639279  0.512117  0.919472  1
  Si  Si21  1  0.132568  0.488644  0.579674  1
  Si  Si22  1  0.367413  0.488416  0.082923  1
  Si  Si23  1  0.867765  0.511495  0.420358  1
  As  As24  1  0.740283  0.238926  0.421024  1
  As  As25  1  0.240844  0.762411  0.079770  1
  As  As26  1  0.259781  0.761503  0.578675  1
  As  As27  1  0.761254  0.237411  0.921114  1
  As  As28  1  0.768485  0.801256  0.278241  1
  As  As29  1  0.268771  0.197444  0.223320  1
  As  As30  1  0.231771  0.198861  0.721414  1
  As  As31  1  0.732997  0.803002  0.777631  1
  As  As32  1  0.313835  0.478338  0.932840  1
  P  P33  1  0.823582  0.519288  0.564133  1
  P  P34  1  0.676860  0.519486  0.064187  1
  P  P35  1  0.176405  0.480780  0.435908  1
