# generated using pymatgen
data_Yb5Os3RuO18
_symmetry_space_group_name_H-M   'P 1'
_cell_length_a   8.83871565
_cell_length_b   8.83871562
_cell_length_c   5.20717490
_cell_angle_alpha   92.31560183
_cell_angle_beta   87.68439869
_cell_angle_gamma   119.88481880
_symmetry_Int_Tables_number   1
_chemical_formula_structural   Yb5Os3RuO18
_chemical_formula_sum   'Yb5 Os3 Ru1 O18'
_cell_volume   352.32243262
_cell_formula_units_Z   1
loop_
 _symmetry_equiv_pos_site_id
 _symmetry_equiv_pos_as_xyz
  1  'x, y, z'
loop_
 _atom_site_type_symbol
 _atom_site_label
 _atom_site_symmetry_multiplicity
 _atom_site_fract_x
 _atom_site_fract_y
 _atom_site_fract_z
 _atom_site_occupancy
  Yb  Yb0  1  0.011138  0.268790  0.488418  1
  Yb  Yb1  1  0.268790  0.011138  0.511582  1
  Yb  Yb2  1  0.387744  0.387744  0.000000  1
  Yb  Yb3  1  0.979708  0.605495  0.012914  1
  Yb  Yb4  1  0.605495  0.979708  0.987086  1
  Os  Os5  1  0.672007  0.326699  0.507284  1
  Os  Os6  1  0.326699  0.672007  0.492716  1
  Os  Os7  1  0.998764  0.998764  0.000000  1
  Ru  Ru8  1  0.700420  0.700420  0.500000  1
  O  O9  1  0.768146  0.241259  0.730977  1
  O  O10  1  0.775250  0.555865  0.685233  1
  O  O11  1  0.476285  0.244325  0.725689  1
  O  O12  1  0.555865  0.775250  0.314767  1
  O  O13  1  0.244325  0.476285  0.274311  1
  O  O14  1  0.241259  0.768146  0.269023  1
  O  O15  1  0.606039  0.472121  0.310416  1
  O  O16  1  0.540980  0.144005  0.284755  1
  O  O17  1  0.870731  0.395158  0.301058  1
  O  O18  1  0.079953  0.865708  0.834082  1
  O  O19  1  0.132321  0.182925  0.775603  1
  O  O20  1  0.802111  0.896053  0.757205  1
  O  O21  1  0.182925  0.132321  0.224397  1
  O  O22  1  0.896053  0.802111  0.242795  1
  O  O23  1  0.865708  0.079953  0.165918  1
  O  O24  1  0.472121  0.606039  0.689584  1
  O  O25  1  0.395158  0.870731  0.698942  1
  O  O26  1  0.144005  0.540980  0.715245  1
