# generated using pymatgen
data_La9Tm11Sn16
_symmetry_space_group_name_H-M   'P 1'
_cell_length_a   8.18023378
_cell_length_b   8.34432243
_cell_length_c   15.71722600
_cell_angle_alpha   90.25529504
_cell_angle_beta   90.10128041
_cell_angle_gamma   90.31139595
_symmetry_Int_Tables_number   1
_chemical_formula_structural   La9Tm11Sn16
_chemical_formula_sum   'La9 Tm11 Sn16'
_cell_volume   1072.80618313
_cell_formula_units_Z   1
loop_
 _symmetry_equiv_pos_site_id
 _symmetry_equiv_pos_as_xyz
  1  'x, y, z'
loop_
 _atom_site_type_symbol
 _atom_site_label
 _atom_site_symmetry_multiplicity
 _atom_site_fract_x
 _atom_site_fract_y
 _atom_site_fract_z
 _atom_site_occupancy
  La  La0  1  0.852042  0.665312  0.880085  1
  La  La1  1  0.513339  0.325325  0.902342  1
  La  La2  1  0.012816  0.174338  0.592612  1
  La  La3  1  0.488907  0.674859  0.404386  1
  La  La4  1  0.988674  0.823235  0.099075  1
  La  La5  1  0.488998  0.673211  0.098900  1
  La  La6  1  0.988161  0.826001  0.403549  1
  La  La7  1  0.510460  0.322845  0.593985  1
  La  La8  1  0.011489  0.176875  0.903913  1
  Tm  Tm9  1  0.349972  0.835378  0.872951  1
  Tm  Tm10  1  0.850260  0.662779  0.623899  1
  Tm  Tm11  1  0.649533  0.161718  0.375326  1
  Tm  Tm12  1  0.148533  0.338729  0.125218  1
  Tm  Tm13  1  0.647004  0.162305  0.130100  1
  Tm  Tm14  1  0.149671  0.336706  0.374947  1
  Tm  Tm15  1  0.350878  0.839773  0.621078  1
  Tm  Tm16  1  0.185700  0.503129  0.748955  1
  Tm  Tm17  1  0.683845  0.997954  0.747025  1
  Tm  Tm18  1  0.814434  0.496169  0.251906  1
  Tm  Tm19  1  0.314149  0.002984  0.250551  1
  Sn  Sn20  1  0.315708  0.042642  0.042454  1
  Sn  Sn21  1  0.816446  0.457424  0.457292  1
  Sn  Sn22  1  0.688107  0.956156  0.541720  1
  Sn  Sn23  1  0.201743  0.540545  0.958672  1
  Sn  Sn24  1  0.672746  0.966657  0.960561  1
  Sn  Sn25  1  0.183091  0.542807  0.541797  1
  Sn  Sn26  1  0.314071  0.043556  0.455258  1
  Sn  Sn27  1  0.811330  0.450364  0.049661  1
  Sn  Sn28  1  0.544701  0.629917  0.744205  1
  Sn  Sn29  1  0.051771  0.876315  0.746779  1
  Sn  Sn30  1  0.450350  0.371842  0.252611  1
  Sn  Sn31  1  0.952823  0.128333  0.250515  1
  Sn  Sn32  1  0.319296  0.142782  0.748126  1
  Sn  Sn33  1  0.820190  0.352360  0.746441  1
  Sn  Sn34  1  0.679650  0.856449  0.252038  1
  Sn  Sn35  1  0.179112  0.642221  0.251071  1
