# generated using pymatgen
data_U6Pa2TiS17
_symmetry_space_group_name_H-M   'P 1'
_cell_length_a   7.81390953
_cell_length_b   7.81390869
_cell_length_c   10.39214500
_cell_angle_alpha   80.80103251
_cell_angle_beta   80.80103351
_cell_angle_gamma   65.22314783
_symmetry_Int_Tables_number   1
_chemical_formula_structural   U6Pa2TiS17
_chemical_formula_sum   'U6 Pa2 Ti1 S17'
_cell_volume   565.63569099
_cell_formula_units_Z   1
loop_
 _symmetry_equiv_pos_site_id
 _symmetry_equiv_pos_as_xyz
  1  'x, y, z'
loop_
 _atom_site_type_symbol
 _atom_site_label
 _atom_site_symmetry_multiplicity
 _atom_site_fract_x
 _atom_site_fract_y
 _atom_site_fract_z
 _atom_site_occupancy
  U  U0  1  0.182938  0.699728  0.702410  1
  U  U1  1  0.699728  0.182938  0.702410  1
  U  U2  1  0.204684  0.204684  0.542466  1
  U  U3  1  0.795093  0.795093  0.460003  1
  U  U4  1  0.685176  0.685176  0.980877  1
  U  U5  1  0.315793  0.315793  0.015393  1
  Pa  Pa6  1  0.815806  0.301384  0.299073  1
  Pa  Pa7  1  0.301384  0.815806  0.299073  1
  Ti  Ti8  1  0.997904  0.997904  0.997733  1
  S  S9  1  0.821338  0.432711  0.533559  1
  S  S10  1  0.432711  0.821338  0.533559  1
  S  S11  1  0.179960  0.568374  0.463677  1
  S  S12  1  0.568374  0.179960  0.463677  1
  S  S13  1  0.938847  0.323636  0.031879  1
  S  S14  1  0.323636  0.938847  0.031879  1
  S  S15  1  0.061133  0.674450  0.970985  1
  S  S16  1  0.674450  0.061133  0.970985  1
  S  S17  1  0.210017  0.210017  0.276762  1
  S  S18  1  0.788669  0.788669  0.722489  1
  S  S19  1  0.062185  0.062185  0.769884  1
  S  S20  1  0.938365  0.938365  0.230232  1
  S  S21  1  0.303822  0.303822  0.753218  1
  S  S22  1  0.696979  0.696979  0.246682  1
  S  S23  1  0.521410  0.521410  0.831289  1
  S  S24  1  0.478966  0.478966  0.170396  1
  S  S25  1  0.000634  0.000634  0.499409  1
