# generated using pymatgen
data_Y3Mn6Co2TcP6
_symmetry_space_group_name_H-M   'P 1'
_cell_length_a   3.72204100
_cell_length_b   10.79412300
_cell_length_c   12.48819400
_cell_angle_alpha   90.00000000
_cell_angle_beta   90.00000000
_cell_angle_gamma   90.00000000
_symmetry_Int_Tables_number   1
_chemical_formula_structural   Y3Mn6Co2TcP6
_chemical_formula_sum   'Y6 Mn12 Co4 Tc2 P12'
_cell_volume   501.72778472
_cell_formula_units_Z   2
loop_
 _symmetry_equiv_pos_site_id
 _symmetry_equiv_pos_as_xyz
  1  'x, y, z'
loop_
 _atom_site_type_symbol
 _atom_site_label
 _atom_site_symmetry_multiplicity
 _atom_site_fract_x
 _atom_site_fract_y
 _atom_site_fract_z
 _atom_site_occupancy
  Y  Y0  1  0.000000  0.500000  0.531331  1
  Y  Y1  1  0.500000  0.000000  0.468669  1
  Y  Y2  1  0.500000  0.821685  0.204472  1
  Y  Y3  1  0.500000  0.178315  0.204472  1
  Y  Y4  1  0.000000  0.678315  0.795528  1
  Y  Y5  1  0.000000  0.321685  0.795528  1
  Mn  Mn6  1  0.500000  0.328764  0.995205  1
  Mn  Mn7  1  0.500000  0.671236  0.995205  1
  Mn  Mn8  1  0.000000  0.171236  0.004795  1
  Mn  Mn9  1  0.000000  0.828764  0.004795  1
  Mn  Mn10  1  0.500000  0.297312  0.431424  1
  Mn  Mn11  1  0.500000  0.702688  0.431424  1
  Mn  Mn12  1  0.000000  0.202688  0.568576  1
  Mn  Mn13  1  0.000000  0.797312  0.568576  1
  Mn  Mn14  1  0.500000  0.880717  0.701397  1
  Mn  Mn15  1  0.500000  0.119283  0.701397  1
  Mn  Mn16  1  0.000000  0.619283  0.298603  1
  Mn  Mn17  1  0.000000  0.380717  0.298603  1
  Co  Co18  1  0.500000  0.500000  0.706234  1
  Co  Co19  1  0.000000  0.000000  0.293766  1
  Co  Co20  1  0.000000  0.500000  0.990644  1
  Co  Co21  1  0.500000  0.000000  0.009356  1
  Tc  Tc22  1  0.500000  0.500000  0.157720  1
  Tc  Tc23  1  0.000000  0.000000  0.842280  1
  P  P24  1  0.500000  0.500000  0.884289  1
  P  P25  1  0.000000  0.000000  0.115711  1
  P  P26  1  0.500000  0.500000  0.353972  1
  P  P27  1  0.000000  0.000000  0.646028  1
  P  P28  1  0.500000  0.317704  0.618346  1
  P  P29  1  0.500000  0.682296  0.618346  1
  P  P30  1  0.000000  0.182296  0.381654  1
  P  P31  1  0.000000  0.817704  0.381654  1
  P  P32  1  0.500000  0.847864  0.888458  1
  P  P33  1  0.500000  0.152136  0.888458  1
  P  P34  1  0.000000  0.652136  0.111542  1
  P  P35  1  0.000000  0.347864  0.111542  1
