# generated using pymatgen
data_Yb2Y3Lu3(B6Ru)4
_symmetry_space_group_name_H-M   'P 1'
_cell_length_a   3.62578800
_cell_length_b   9.09495731
_cell_length_c   11.49496700
_cell_angle_alpha   89.87535773
_cell_angle_beta   90.00000000
_cell_angle_gamma   90.00000000
_symmetry_Int_Tables_number   1
_chemical_formula_structural   Yb2Y3Lu3(B6Ru)4
_chemical_formula_sum   'Yb2 Y3 Lu3 B24 Ru4'
_cell_volume   379.06158426
_cell_formula_units_Z   1
loop_
 _symmetry_equiv_pos_site_id
 _symmetry_equiv_pos_as_xyz
  1  'x, y, z'
loop_
 _atom_site_type_symbol
 _atom_site_label
 _atom_site_symmetry_multiplicity
 _atom_site_fract_x
 _atom_site_fract_y
 _atom_site_fract_z
 _atom_site_occupancy
  Yb  Yb0  1  0.000000  0.324955  0.415043  1
  Yb  Yb1  1  0.000000  0.674901  0.585429  1
  Y  Y2  1  0.000000  0.821543  0.085626  1
  Y  Y3  1  0.000000  0.178521  0.913813  1
  Y  Y4  1  0.000000  0.942297  0.370816  1
  Lu  Lu5  1  0.000000  0.058508  0.631093  1
  Lu  Lu6  1  0.000000  0.442924  0.130309  1
  Lu  Lu7  1  0.000000  0.557135  0.869103  1
  B  B8  1  0.500000  0.553279  0.432289  1
  B  B9  1  0.500000  0.445391  0.568004  1
  B  B10  1  0.500000  0.054680  0.066681  1
  B  B11  1  0.500000  0.945676  0.932582  1
  B  B12  1  0.500000  0.746835  0.417823  1
  B  B13  1  0.500000  0.251136  0.582531  1
  B  B14  1  0.500000  0.250366  0.081389  1
  B  B15  1  0.500000  0.750075  0.918123  1
  B  B16  1  0.500000  0.789971  0.264178  1
  B  B17  1  0.500000  0.208590  0.735445  1
  B  B18  1  0.500000  0.291823  0.234305  1
  B  B19  1  0.500000  0.708855  0.765281  1
  B  B20  1  0.500000  0.629679  0.184373  1
  B  B21  1  0.500000  0.369847  0.815253  1
  B  B22  1  0.500000  0.132025  0.313950  1
  B  B23  1  0.500000  0.869572  0.685529  1
  B  B24  1  0.500000  0.983956  0.211200  1
  B  B25  1  0.500000  0.016901  0.787695  1
  B  B26  1  0.500000  0.482671  0.287436  1
  B  B27  1  0.500000  0.516780  0.712347  1
  B  B28  1  0.500000  0.600509  0.027330  1
  B  B29  1  0.500000  0.399491  0.972146  1
  B  B30  1  0.500000  0.100293  0.474491  1
  B  B31  1  0.500000  0.901439  0.529064  1
  Ru  Ru32  1  0.000000  0.638358  0.318221  1
  Ru  Ru33  1  0.000000  0.359905  0.681930  1
  Ru  Ru34  1  0.000000  0.139244  0.178246  1
  Ru  Ru35  1  0.000000  0.861870  0.820927  1
