# generated using pymatgen
data_La(BeAs)3
_symmetry_space_group_name_H-M   'P 1'
_cell_length_a   3.87430000
_cell_length_b   10.95863000
_cell_length_c   11.90220300
_cell_angle_alpha   90.00000000
_cell_angle_beta   90.00000000
_cell_angle_gamma   90.00000000
_symmetry_Int_Tables_number   1
_chemical_formula_structural   La(BeAs)3
_chemical_formula_sum   'La4 Be12 As12'
_cell_volume   505.33207330
_cell_formula_units_Z   4
loop_
 _symmetry_equiv_pos_site_id
 _symmetry_equiv_pos_as_xyz
  1  'x, y, z'
loop_
 _atom_site_type_symbol
 _atom_site_label
 _atom_site_symmetry_multiplicity
 _atom_site_fract_x
 _atom_site_fract_y
 _atom_site_fract_z
 _atom_site_occupancy
  La  La0  1  0.750000  0.944517  0.337028  1
  La  La1  1  0.250000  0.444517  0.162972  1
  La  La2  1  0.750000  0.555483  0.837028  1
  La  La3  1  0.250000  0.055483  0.662972  1
  Be  Be4  1  0.750000  0.243116  0.455624  1
  Be  Be5  1  0.250000  0.743116  0.044376  1
  Be  Be6  1  0.750000  0.256884  0.955624  1
  Be  Be7  1  0.250000  0.756884  0.544376  1
  Be  Be8  1  0.750000  0.645024  0.286196  1
  Be  Be9  1  0.250000  0.145024  0.213804  1
  Be  Be10  1  0.750000  0.854976  0.786196  1
  Be  Be11  1  0.250000  0.354976  0.713804  1
  Be  Be12  1  0.750000  0.036259  0.063097  1
  Be  Be13  1  0.250000  0.536259  0.436903  1
  Be  Be14  1  0.750000  0.463741  0.563097  1
  Be  Be15  1  0.250000  0.963741  0.936903  1
  As  As16  1  0.750000  0.438764  0.371279  1
  As  As17  1  0.250000  0.938764  0.128721  1
  As  As18  1  0.750000  0.061236  0.871279  1
  As  As19  1  0.250000  0.561236  0.628721  1
  As  As20  1  0.750000  0.225469  0.146030  1
  As  As21  1  0.250000  0.725469  0.353970  1
  As  As22  1  0.750000  0.274531  0.646030  1
  As  As23  1  0.250000  0.774531  0.853970  1
  As  As24  1  0.750000  0.642349  0.091625  1
  As  As25  1  0.250000  0.142349  0.408375  1
  As  As26  1  0.750000  0.857651  0.591625  1
  As  As27  1  0.250000  0.357651  0.908375  1
