# generated using pymatgen
data_Zr2Sc(CuSi)4
_symmetry_space_group_name_H-M   'P 1'
_cell_length_a   7.56784396
_cell_length_b   7.56784443
_cell_length_c   7.56784383
_cell_angle_alpha   149.74014052
_cell_angle_beta   129.88504913
_cell_angle_gamma   59.66875957
_symmetry_Int_Tables_number   1
_chemical_formula_structural   Zr2Sc(CuSi)4
_chemical_formula_sum   'Zr2 Sc1 Cu4 Si4'
_cell_volume   166.25166279
_cell_formula_units_Z   1
loop_
 _symmetry_equiv_pos_site_id
 _symmetry_equiv_pos_as_xyz
  1  'x, y, z'
loop_
 _atom_site_type_symbol
 _atom_site_label
 _atom_site_symmetry_multiplicity
 _atom_site_fract_x
 _atom_site_fract_y
 _atom_site_fract_z
 _atom_site_occupancy
  Zr  Zr0  1  0.124390  0.124390  0.000000  1
  Zr  Zr1  1  0.499972  0.999972  0.500000  1
  Sc  Sc2  1  0.874343  0.874343  0.000000  1
  Cu  Cu3  1  0.524571  0.329908  0.194664  1
  Cu  Cu4  1  0.862300  0.670470  0.191829  1
  Cu  Cu5  1  0.135243  0.329907  0.805336  1
  Cu  Cu6  1  0.478641  0.670470  0.808171  1
  Si  Si7  1  0.809348  0.499813  0.309536  1
  Si  Si8  1  0.190277  0.499813  0.690464  1
  Si  Si9  1  0.284047  0.784047  0.500000  1
  Si  Si10  1  0.716867  0.216867  0.500000  1
