# generated using pymatgen
data_Ho4Er4Ti7Si16Tc5
_symmetry_space_group_name_H-M   'P 1'
_cell_length_a   6.90761339
_cell_length_b   6.91657204
_cell_length_c   12.72772907
_cell_angle_alpha   89.79649115
_cell_angle_beta   89.91711761
_cell_angle_gamma   89.91984364
_symmetry_Int_Tables_number   1
_chemical_formula_structural   Ho4Er4Ti7Si16Tc5
_chemical_formula_sum   'Ho4 Er4 Ti7 Si16 Tc5'
_cell_volume   608.08772018
_cell_formula_units_Z   1
loop_
 _symmetry_equiv_pos_site_id
 _symmetry_equiv_pos_as_xyz
  1  'x, y, z'
loop_
 _atom_site_type_symbol
 _atom_site_label
 _atom_site_symmetry_multiplicity
 _atom_site_fract_x
 _atom_site_fract_y
 _atom_site_fract_z
 _atom_site_occupancy
  Ho  Ho0  1  0.159773  0.499194  0.781948  1
  Ho  Ho1  1  0.658917  0.999589  0.968340  1
  Ho  Ho2  1  0.000778  0.340765  0.531174  1
  Ho  Ho3  1  0.997411  0.658303  0.029061  1
  Er  Er4  1  0.340554  0.000144  0.469908  1
  Er  Er5  1  0.498649  0.840521  0.719756  1
  Er  Er6  1  0.499389  0.159041  0.218712  1
  Er  Er7  1  0.839599  0.498559  0.279910  1
  Ti  Ti8  1  0.493635  0.657816  0.126989  1
  Ti  Ti9  1  0.501705  0.346065  0.628617  1
  Ti  Ti10  1  0.655917  0.496750  0.873325  1
  Ti  Ti11  1  0.346269  0.504886  0.373433  1
  Ti  Ti12  1  0.846123  0.996806  0.376571  1
  Ti  Ti13  1  0.003959  0.155752  0.126090  1
  Ti  Ti14  1  0.995966  0.846805  0.622748  1
  Si  Si15  1  0.196947  0.127600  0.687129  1
  Si  Si16  1  0.375508  0.702281  0.933797  1
  Si  Si17  1  0.628061  0.299787  0.434039  1
  Si  Si18  1  0.700228  0.371306  0.065988  1
  Si  Si19  1  0.300357  0.629714  0.566360  1
  Si  Si20  1  0.800135  0.870887  0.183485  1
  Si  Si21  1  0.129636  0.200561  0.317362  1
  Si  Si22  1  0.875107  0.806116  0.815760  1
  Si  Si23  1  0.289950  0.958968  0.062243  1
  Si  Si24  1  0.546950  0.791178  0.317633  1
  Si  Si25  1  0.446461  0.210311  0.819165  1
  Si  Si26  1  0.790130  0.548639  0.682872  1
  Si  Si27  1  0.209133  0.453456  0.182870  1
  Si  Si28  1  0.708902  0.046496  0.567331  1
  Si  Si29  1  0.961864  0.279530  0.931872  1
  Si  Si30  1  0.046311  0.710076  0.431652  1
  Tc  Tc31  1  0.328816  0.332085  0.001222  1
  Tc  Tc32  1  0.169922  0.830753  0.247561  1
  Tc  Tc33  1  0.825927  0.169848  0.748291  1
  Tc  Tc34  1  0.670082  0.670015  0.500435  1
  Tc  Tc35  1  0.160929  0.989398  0.876353  1
