# generated using pymatgen
data_AuF10
_symmetry_space_group_name_H-M   'P 1'
_cell_length_a   13.15284400
_cell_length_b   5.20181265
_cell_length_c   7.74887465
_cell_angle_alpha   42.58700456
_cell_angle_beta   90.00000000
_cell_angle_gamma   90.00000000
_symmetry_Int_Tables_number   1
_chemical_formula_structural   AuF10
_chemical_formula_sum   'Au2 F20'
_cell_volume   358.76904240
_cell_formula_units_Z   2
loop_
 _symmetry_equiv_pos_site_id
 _symmetry_equiv_pos_as_xyz
  1  'x, y, z'
loop_
 _atom_site_type_symbol
 _atom_site_label
 _atom_site_symmetry_multiplicity
 _atom_site_fract_x
 _atom_site_fract_y
 _atom_site_fract_z
 _atom_site_occupancy
  Au  Au0  1  0.500000  0.500000  0.500000  1
  Au  Au1  1  0.000000  0.500000  0.000000  1
  F  F2  1  0.687698  0.367302  0.919591  1
  F  F3  1  0.187698  0.632698  0.580409  1
  F  F4  1  0.812302  0.367302  0.419591  1
  F  F5  1  0.312302  0.632698  0.080409  1
  F  F6  1  0.238199  0.436105  0.276346  1
  F  F7  1  0.738199  0.563895  0.223654  1
  F  F8  1  0.761801  0.563895  0.723654  1
  F  F9  1  0.261801  0.436105  0.776346  1
  F  F10  1  0.108178  0.870439  0.809855  1
  F  F11  1  0.608178  0.129561  0.690145  1
  F  F12  1  0.097378  0.102660  0.146015  1
  F  F13  1  0.597378  0.897340  0.353985  1
  F  F14  1  0.902622  0.897340  0.853985  1
  F  F15  1  0.402622  0.102660  0.646015  1
  F  F16  1  0.976472  0.569135  0.721567  1
  F  F17  1  0.476472  0.430865  0.778433  1
  F  F18  1  0.023528  0.430865  0.278433  1
  F  F19  1  0.523528  0.569135  0.221567  1
  F  F20  1  0.391822  0.870439  0.309855  1
  F  F21  1  0.891822  0.129561  0.190145  1
