# generated using pymatgen
data_Dy4Y2Al24Ir5Ru3
_symmetry_space_group_name_H-M   'P 1'
_cell_length_a   8.82195192
_cell_length_b   8.78320434
_cell_length_c   9.53469501
_cell_angle_alpha   90.00000166
_cell_angle_beta   90.10275121
_cell_angle_gamma   119.85481548
_symmetry_Int_Tables_number   1
_chemical_formula_structural   Dy4Y2Al24Ir5Ru3
_chemical_formula_sum   'Dy4 Y2 Al24 Ir5 Ru3'
_cell_volume   640.74863126
_cell_formula_units_Z   1
loop_
 _symmetry_equiv_pos_site_id
 _symmetry_equiv_pos_as_xyz
  1  'x, y, z'
loop_
 _atom_site_type_symbol
 _atom_site_label
 _atom_site_symmetry_multiplicity
 _atom_site_fract_x
 _atom_site_fract_y
 _atom_site_fract_z
 _atom_site_occupancy
  Dy  Dy0  1  0.614735  0.807367  0.249920  1
  Dy  Dy1  1  0.808602  0.194266  0.750276  1
  Dy  Dy2  1  0.808602  0.614336  0.750276  1
  Dy  Dy3  1  0.385414  0.192708  0.750085  1
  Y  Y4  1  0.191312  0.806173  0.249802  1
  Y  Y5  1  0.191312  0.385139  0.249802  1
  Al  Al6  1  0.561862  0.436902  0.250232  1
  Al  Al7  1  0.561862  0.124960  0.250232  1
  Al  Al8  1  0.875783  0.437891  0.248691  1
  Al  Al9  1  0.438293  0.563190  0.749735  1
  Al  Al10  1  0.438293  0.875103  0.749735  1
  Al  Al11  1  0.124304  0.562153  0.751291  1
  Al  Al12  1  0.325950  0.162975  0.423759  1
  Al  Al13  1  0.835373  0.162535  0.423435  1
  Al  Al14  1  0.835373  0.672838  0.423435  1
  Al  Al15  1  0.674360  0.837180  0.576642  1
  Al  Al16  1  0.164504  0.837460  0.576970  1
  Al  Al17  1  0.164504  0.327045  0.576970  1
  Al  Al18  1  0.673535  0.836768  0.924218  1
  Al  Al19  1  0.162457  0.835338  0.923132  1
  Al  Al20  1  0.162457  0.327119  0.923132  1
  Al  Al21  1  0.326770  0.163385  0.075380  1
  Al  Al22  1  0.837422  0.164663  0.076467  1
  Al  Al23  1  0.837422  0.672760  0.076467  1
  Al  Al24  1  0.667252  0.333625  0.528707  1
  Al  Al25  1  0.332715  0.666358  0.471638  1
  Al  Al26  1  0.330522  0.665262  0.027635  1
  Al  Al27  1  0.669477  0.334738  0.972078  1
  Al  Al28  1  0.997531  0.998765  0.250039  1
  Al  Al29  1  0.001752  0.000876  0.749968  1
  Ir  Ir30  1  0.500077  0.500042  0.500070  1
  Ir  Ir31  1  0.500077  0.000034  0.500070  1
  Ir  Ir32  1  0.999856  0.499928  0.500216  1
  Ir  Ir33  1  0.500099  0.500052  0.999888  1
  Ir  Ir34  1  0.500099  0.000047  0.999888  1
  Ru  Ru35  1  0.000085  0.000043  0.499934  1
  Ru  Ru36  1  0.000103  0.000051  0.000068  1
  Ru  Ru37  1  0.999852  0.499926  0.999722  1
