# generated using pymatgen
data_Li(CuSe)2
_symmetry_space_group_name_H-M   'P 1'
_cell_length_a   6.55455000
_cell_length_b   7.71210188
_cell_length_c   8.03829020
_cell_angle_alpha   61.33670925
_cell_angle_beta   90.00000000
_cell_angle_gamma   90.00000000
_symmetry_Int_Tables_number   1
_chemical_formula_structural   Li(CuSe)2
_chemical_formula_sum   'Li4 Cu8 Se8'
_cell_volume   356.53610056
_cell_formula_units_Z   4
loop_
 _symmetry_equiv_pos_site_id
 _symmetry_equiv_pos_as_xyz
  1  'x, y, z'
loop_
 _atom_site_type_symbol
 _atom_site_label
 _atom_site_symmetry_multiplicity
 _atom_site_fract_x
 _atom_site_fract_y
 _atom_site_fract_z
 _atom_site_occupancy
  Li  Li0  1  0.503285  0.742947  0.000414  1
  Li  Li1  1  0.996715  0.742947  0.500414  1
  Li  Li2  1  0.003285  0.257053  0.499586  1
  Li  Li3  1  0.496715  0.257053  0.999586  1
  Cu  Cu4  1  0.363739  0.931487  0.641449  1
  Cu  Cu5  1  0.136261  0.931487  0.141449  1
  Cu  Cu6  1  0.861773  0.569703  0.859418  1
  Cu  Cu7  1  0.638227  0.569703  0.359418  1
  Cu  Cu8  1  0.361773  0.430297  0.640582  1
  Cu  Cu9  1  0.138227  0.430297  0.140582  1
  Cu  Cu10  1  0.863739  0.068513  0.858551  1
  Cu  Cu11  1  0.636261  0.068513  0.358551  1
  Se  Se12  1  0.738725  0.905520  0.686874  1
  Se  Se13  1  0.761275  0.905520  0.186874  1
  Se  Se14  1  0.238127  0.595357  0.811425  1
  Se  Se15  1  0.261873  0.595357  0.311425  1
  Se  Se16  1  0.738127  0.404643  0.688575  1
  Se  Se17  1  0.761873  0.404643  0.188575  1
  Se  Se18  1  0.238725  0.094480  0.813126  1
  Se  Se19  1  0.261275  0.094480  0.313126  1
