# generated using pymatgen
data_Zr4Sc2Zn23C
_symmetry_space_group_name_H-M   'P 1'
_cell_length_a   8.68394614
_cell_length_b   8.72402226
_cell_length_c   8.72402163
_cell_angle_alpha   59.69630861
_cell_angle_beta   60.15184474
_cell_angle_gamma   60.15183825
_symmetry_Int_Tables_number   1
_chemical_formula_structural   Zr4Sc2Zn23C
_chemical_formula_sum   'Zr4 Sc2 Zn23 C1'
_cell_volume   467.32320666
_cell_formula_units_Z   1
loop_
 _symmetry_equiv_pos_site_id
 _symmetry_equiv_pos_as_xyz
  1  'x, y, z'
loop_
 _atom_site_type_symbol
 _atom_site_label
 _atom_site_symmetry_multiplicity
 _atom_site_fract_x
 _atom_site_fract_y
 _atom_site_fract_z
 _atom_site_occupancy
  Zr  Zr0  1  0.312717  0.687283  0.312717  1
  Zr  Zr1  1  0.687283  0.312717  0.687283  1
  Zr  Zr2  1  0.312717  0.312717  0.687283  1
  Zr  Zr3  1  0.687283  0.687283  0.312717  1
  Sc  Sc4  1  0.691123  0.308877  0.308877  1
  Sc  Sc5  1  0.308877  0.691123  0.691123  1
  Zn  Zn6  1  0.120536  0.120634  0.120634  1
  Zn  Zn7  1  0.879464  0.879366  0.879366  1
  Zn  Zn8  1  0.120634  0.120536  0.638198  1
  Zn  Zn9  1  0.120634  0.638198  0.120536  1
  Zn  Zn10  1  0.879366  0.879464  0.361802  1
  Zn  Zn11  1  0.879366  0.361802  0.879464  1
  Zn  Zn12  1  0.638198  0.120634  0.120634  1
  Zn  Zn13  1  0.361802  0.879366  0.879366  1
  Zn  Zn14  1  0.500000  0.000000  0.000000  1
  Zn  Zn15  1  0.000000  0.500000  0.500000  1
  Zn  Zn16  1  0.000000  0.500000  0.000000  1
  Zn  Zn17  1  0.500000  0.000000  0.500000  1
  Zn  Zn18  1  0.000000  0.000000  0.500000  1
  Zn  Zn19  1  0.500000  0.500000  0.000000  1
  Zn  Zn20  1  0.331315  0.331421  0.331421  1
  Zn  Zn21  1  0.668685  0.668579  0.668579  1
  Zn  Zn22  1  0.331421  0.331315  0.005843  1
  Zn  Zn23  1  0.331421  0.005843  0.331315  1
  Zn  Zn24  1  0.668579  0.668685  0.994157  1
  Zn  Zn25  1  0.668579  0.994157  0.668685  1
  Zn  Zn26  1  0.005843  0.331421  0.331421  1
  Zn  Zn27  1  0.994157  0.668579  0.668579  1
  Zn  Zn28  1  0.000000  0.000000  0.000000  1
  C  C29  1  0.500000  0.500000  0.500000  1
