# generated using pymatgen
data_Hf8In4FeCoCu6
_symmetry_space_group_name_H-M   'P 1'
_cell_length_a   7.21104609
_cell_length_b   7.21104608
_cell_length_c   6.74724931
_cell_angle_alpha   90.06597206
_cell_angle_beta   90.06597221
_cell_angle_gamma   90.65105847
_symmetry_Int_Tables_number   1
_chemical_formula_structural   Hf8In4FeCoCu6
_chemical_formula_sum   'Hf8 In4 Fe1 Co1 Cu6'
_cell_volume   350.82834790
_cell_formula_units_Z   1
loop_
 _symmetry_equiv_pos_site_id
 _symmetry_equiv_pos_as_xyz
  1  'x, y, z'
loop_
 _atom_site_type_symbol
 _atom_site_label
 _atom_site_symmetry_multiplicity
 _atom_site_fract_x
 _atom_site_fract_y
 _atom_site_fract_z
 _atom_site_occupancy
  Hf  Hf0  1  0.158263  0.158263  0.011402  1
  Hf  Hf1  1  0.845213  0.845213  0.989183  1
  Hf  Hf2  1  0.646516  0.350721  0.497393  1
  Hf  Hf3  1  0.350721  0.646516  0.497393  1
  Hf  Hf4  1  0.674384  0.323420  0.000793  1
  Hf  Hf5  1  0.323420  0.674384  0.000793  1
  Hf  Hf6  1  0.804477  0.804477  0.510186  1
  Hf  Hf7  1  0.195246  0.195246  0.489856  1
  In  In8  1  0.502162  0.003077  0.247779  1
  In  In9  1  0.497455  0.995873  0.752190  1
  In  In10  1  0.003077  0.502162  0.247779  1
  In  In11  1  0.995873  0.497455  0.752190  1
  Fe  Fe12  1  0.377505  0.377505  0.231666  1
  Co  Co13  1  0.624106  0.624106  0.774776  1
  Cu  Cu14  1  0.630553  0.630553  0.207202  1
  Cu  Cu15  1  0.878543  0.125231  0.709132  1
  Cu  Cu16  1  0.874912  0.120646  0.290187  1
  Cu  Cu17  1  0.371697  0.371697  0.790781  1
  Cu  Cu18  1  0.120646  0.874912  0.290187  1
  Cu  Cu19  1  0.125231  0.878543  0.709132  1
