# generated using pymatgen
data_Pa2Co17H3
_symmetry_space_group_name_H-M   'P 1'
_cell_length_a   6.28124165
_cell_length_b   6.28124181
_cell_length_c   6.28124208
_cell_angle_alpha   83.53470998
_cell_angle_beta   83.53470562
_cell_angle_gamma   83.53470304
_symmetry_Int_Tables_number   1
_chemical_formula_structural   Pa2Co17H3
_chemical_formula_sum   'Pa2 Co17 H3'
_cell_volume   243.42169516
_cell_formula_units_Z   1
loop_
 _symmetry_equiv_pos_site_id
 _symmetry_equiv_pos_as_xyz
  1  'x, y, z'
loop_
 _atom_site_type_symbol
 _atom_site_label
 _atom_site_symmetry_multiplicity
 _atom_site_fract_x
 _atom_site_fract_y
 _atom_site_fract_z
 _atom_site_occupancy
  Pa  Pa0  1  0.659500  0.659500  0.659500  1
  Pa  Pa1  1  0.340500  0.340500  0.340500  1
  Co  Co2  1  0.000000  0.000000  0.500000  1
  Co  Co3  1  0.000000  0.500000  0.000000  1
  Co  Co4  1  0.500000  0.000000  0.000000  1
  Co  Co5  1  0.285661  0.714339  0.000000  1
  Co  Co6  1  0.714339  0.000000  0.285661  1
  Co  Co7  1  0.000000  0.285661  0.714339  1
  Co  Co8  1  0.285661  0.000000  0.714339  1
  Co  Co9  1  0.000000  0.714339  0.285661  1
  Co  Co10  1  0.714339  0.285661  0.000000  1
  Co  Co11  1  0.347715  0.347715  0.848288  1
  Co  Co12  1  0.347715  0.848288  0.347715  1
  Co  Co13  1  0.848288  0.347715  0.347715  1
  Co  Co14  1  0.652285  0.652285  0.151712  1
  Co  Co15  1  0.652285  0.151712  0.652285  1
  Co  Co16  1  0.151712  0.652285  0.652285  1
  Co  Co17  1  0.899034  0.899034  0.899034  1
  Co  Co18  1  0.100966  0.100966  0.100966  1
  H  H19  1  0.500000  0.500000  0.000000  1
  H  H20  1  0.500000  0.000000  0.500000  1
  H  H21  1  0.000000  0.500000  0.500000  1
