# generated using pymatgen
data_Nb6TlInS12
_symmetry_space_group_name_H-M   'P 1'
_cell_length_a   5.79613800
_cell_length_b   5.79613735
_cell_length_c   15.67286500
_cell_angle_alpha   90.00000000
_cell_angle_beta   90.00000000
_cell_angle_gamma   120.00000372
_symmetry_Int_Tables_number   1
_chemical_formula_structural   Nb6TlInS12
_chemical_formula_sum   'Nb6 Tl1 In1 S12'
_cell_volume   455.99112859
_cell_formula_units_Z   1
loop_
 _symmetry_equiv_pos_site_id
 _symmetry_equiv_pos_as_xyz
  1  'x, y, z'
loop_
 _atom_site_type_symbol
 _atom_site_label
 _atom_site_symmetry_multiplicity
 _atom_site_fract_x
 _atom_site_fract_y
 _atom_site_fract_z
 _atom_site_occupancy
  Nb  Nb0  1  0.333333  0.666667  0.498616  1
  Nb  Nb1  1  0.666667  0.333333  0.001915  1
  Nb  Nb2  1  0.666667  0.333333  0.498085  1
  Nb  Nb3  1  0.333333  0.666667  0.001384  1
  Nb  Nb4  1  0.000000  0.000000  0.497386  1
  Nb  Nb5  1  0.000000  0.000000  0.002614  1
  Tl  Tl6  1  0.666667  0.333333  0.750000  1
  In  In7  1  0.333333  0.666667  0.250000  1
  S  S8  1  0.334606  0.333684  0.101847  1
  S  S9  1  0.666316  0.000922  0.101847  1
  S  S10  1  0.999078  0.665394  0.101847  1
  S  S11  1  0.002831  0.332909  0.597892  1
  S  S12  1  0.667091  0.997169  0.902108  1
  S  S13  1  0.667091  0.669923  0.597892  1
  S  S14  1  0.330077  0.997169  0.597892  1
  S  S15  1  0.666316  0.665394  0.398153  1
  S  S16  1  0.334606  0.000922  0.398153  1
  S  S17  1  0.330077  0.332909  0.902108  1
  S  S18  1  0.002831  0.669923  0.902108  1
  S  S19  1  0.999078  0.333684  0.398153  1
