# generated using pymatgen
data_Tb6Mn5Fe11(CoP6)2
_symmetry_space_group_name_H-M   'P 1'
_cell_length_a   3.71104800
_cell_length_b   10.70036514
_cell_length_c   12.22756311
_cell_angle_alpha   89.64494151
_cell_angle_beta   90.00000000
_cell_angle_gamma   90.00000000
_symmetry_Int_Tables_number   1
_chemical_formula_structural   Tb6Mn5Fe11(CoP6)2
_chemical_formula_sum   'Tb6 Mn5 Fe11 Co2 P12'
_cell_volume   485.54193377
_cell_formula_units_Z   1
loop_
 _symmetry_equiv_pos_site_id
 _symmetry_equiv_pos_as_xyz
  1  'x, y, z'
loop_
 _atom_site_type_symbol
 _atom_site_label
 _atom_site_symmetry_multiplicity
 _atom_site_fract_x
 _atom_site_fract_y
 _atom_site_fract_z
 _atom_site_occupancy
  Tb  Tb0  1  0.000000  0.500946  0.531537  1
  Tb  Tb1  1  0.500000  0.997922  0.471018  1
  Tb  Tb2  1  0.500000  0.823400  0.202634  1
  Tb  Tb3  1  0.500000  0.175694  0.202762  1
  Tb  Tb4  1  0.000000  0.680492  0.795040  1
  Tb  Tb5  1  0.000000  0.324994  0.797292  1
  Mn  Mn6  1  0.500000  0.501260  0.156577  1
  Mn  Mn7  1  0.000000  0.002205  0.845849  1
  Mn  Mn8  1  0.500000  0.115198  0.708466  1
  Mn  Mn9  1  0.000000  0.614049  0.292435  1
  Mn  Mn10  1  0.000000  0.384626  0.292089  1
  Fe  Fe11  1  0.000000  0.502051  0.991014  1
  Fe  Fe12  1  0.500000  0.999019  0.008046  1
  Fe  Fe13  1  0.500000  0.334045  0.998058  1
  Fe  Fe14  1  0.500000  0.671014  0.997387  1
  Fe  Fe15  1  0.000000  0.168133  0.002188  1
  Fe  Fe16  1  0.000000  0.831202  0.000266  1
  Fe  Fe17  1  0.500000  0.296348  0.429686  1
  Fe  Fe18  1  0.500000  0.700722  0.427738  1
  Fe  Fe19  1  0.000000  0.199516  0.573277  1
  Fe  Fe20  1  0.000000  0.795272  0.568678  1
  Fe  Fe21  1  0.500000  0.883821  0.707429  1
  Co  Co22  1  0.500000  0.501565  0.704175  1
  Co  Co23  1  0.000000  0.999297  0.295905  1
  P  P24  1  0.500000  0.502304  0.888967  1
  P  P25  1  0.000000  0.999427  0.110148  1
  P  P26  1  0.500000  0.498943  0.354590  1
  P  P27  1  0.000000  0.989016  0.650027  1
  P  P28  1  0.500000  0.311497  0.614779  1
  P  P29  1  0.500000  0.693468  0.614709  1
  P  P30  1  0.000000  0.188670  0.385780  1
  P  P31  1  0.000000  0.808985  0.384751  1
  P  P32  1  0.500000  0.846566  0.891165  1
  P  P33  1  0.500000  0.157917  0.897117  1
  P  P34  1  0.000000  0.656381  0.104885  1
  P  P35  1  0.000000  0.344039  0.103536  1
