# generated using pymatgen
data_NdSm3In2(CuRh)2
_symmetry_space_group_name_H-M   'P 1'
_cell_length_a   7.73772915
_cell_length_b   7.69546515
_cell_length_c   3.83129900
_cell_angle_alpha   90.00000000
_cell_angle_beta   90.00000000
_cell_angle_gamma   90.02227506
_symmetry_Int_Tables_number   1
_chemical_formula_structural   NdSm3In2(CuRh)2
_chemical_formula_sum   'Nd1 Sm3 In2 Cu2 Rh2'
_cell_volume   228.13630982
_cell_formula_units_Z   1
loop_
 _symmetry_equiv_pos_site_id
 _symmetry_equiv_pos_as_xyz
  1  'x, y, z'
loop_
 _atom_site_type_symbol
 _atom_site_label
 _atom_site_symmetry_multiplicity
 _atom_site_fract_x
 _atom_site_fract_y
 _atom_site_fract_z
 _atom_site_occupancy
  Nd  Nd0  1  0.162748  0.321873  0.500000  1
  Sm  Sm1  1  0.688346  0.172993  0.500000  1
  Sm  Sm2  1  0.338851  0.822344  0.500000  1
  Sm  Sm3  1  0.811135  0.673145  0.500000  1
  In  In4  1  0.498052  0.497653  0.000000  1
  In  In5  1  0.002370  0.994858  0.000000  1
  Cu  Cu6  1  0.385394  0.125370  0.000000  1
  Cu  Cu7  1  0.115006  0.628840  0.000000  1
  Rh  Rh8  1  0.880112  0.382181  0.000000  1
  Rh  Rh9  1  0.617985  0.880743  0.000000  1
