# generated using pymatgen
data_Tm2Th2CdTc
_symmetry_space_group_name_H-M   'P 1'
_cell_length_a   9.71781085
_cell_length_b   9.71781069
_cell_length_c   9.79347600
_cell_angle_alpha   59.74209008
_cell_angle_beta   59.74209063
_cell_angle_gamma   60.51582091
_symmetry_Int_Tables_number   1
_chemical_formula_structural   Tm2Th2CdTc
_chemical_formula_sum   'Tm8 Th8 Cd4 Tc4'
_cell_volume   653.89146357
_cell_formula_units_Z   4
loop_
 _symmetry_equiv_pos_site_id
 _symmetry_equiv_pos_as_xyz
  1  'x, y, z'
loop_
 _atom_site_type_symbol
 _atom_site_label
 _atom_site_symmetry_multiplicity
 _atom_site_fract_x
 _atom_site_fract_y
 _atom_site_fract_z
 _atom_site_occupancy
  Tm  Tm0  1  0.195498  0.195498  0.804502  1
  Tm  Tm1  1  0.804502  0.804502  0.195498  1
  Tm  Tm2  1  0.933902  0.566098  0.566098  1
  Tm  Tm3  1  0.566098  0.933902  0.933902  1
  Tm  Tm4  1  0.566098  0.933902  0.566098  1
  Tm  Tm5  1  0.933902  0.566098  0.933902  1
  Tm  Tm6  1  0.561633  0.561633  0.938367  1
  Tm  Tm7  1  0.938367  0.938367  0.561633  1
  Th  Th8  1  0.346176  0.346176  0.352565  1
  Th  Th9  1  0.346176  0.346176  0.955082  1
  Th  Th10  1  0.352565  0.955082  0.346176  1
  Th  Th11  1  0.955082  0.352565  0.346176  1
  Th  Th12  1  0.812417  0.187583  0.187583  1
  Th  Th13  1  0.187583  0.812417  0.812417  1
  Th  Th14  1  0.187583  0.812417  0.187583  1
  Th  Th15  1  0.812417  0.187583  0.812417  1
  Cd  Cd16  1  0.584319  0.584319  0.580317  1
  Cd  Cd17  1  0.584319  0.584319  0.251047  1
  Cd  Cd18  1  0.580317  0.251047  0.584319  1
  Cd  Cd19  1  0.251047  0.580317  0.584319  1
  Tc  Tc20  1  0.131967  0.131967  0.151648  1
  Tc  Tc21  1  0.131967  0.131967  0.584418  1
  Tc  Tc22  1  0.151648  0.584418  0.131967  1
  Tc  Tc23  1  0.584418  0.151648  0.131967  1
