# generated using pymatgen
data_PmGaPt4
_symmetry_space_group_name_H-M   'P 1'
_cell_length_a   5.58214516
_cell_length_b   5.24743507
_cell_length_c   4.45583800
_cell_angle_alpha   90.00000000
_cell_angle_beta   90.00000000
_cell_angle_gamma   57.83527795
_symmetry_Int_Tables_number   1
_chemical_formula_structural   PmGaPt4
_chemical_formula_sum   'Pm1 Ga1 Pt4'
_cell_volume   110.48806901
_cell_formula_units_Z   1
loop_
 _symmetry_equiv_pos_site_id
 _symmetry_equiv_pos_as_xyz
  1  'x, y, z'
loop_
 _atom_site_type_symbol
 _atom_site_label
 _atom_site_symmetry_multiplicity
 _atom_site_fract_x
 _atom_site_fract_y
 _atom_site_fract_z
 _atom_site_occupancy
  Pm  Pm0  1  0.000076  0.000000  0.000000  1
  Ga  Ga1  1  0.500289  0.000001  0.499999  1
  Pt  Pt2  1  0.337349  0.325499  0.000000  1
  Pt  Pt3  1  0.662658  0.674501  0.000000  1
  Pt  Pt4  1  0.000015  0.499586  0.499999  1
  Pt  Pt5  1  0.499606  0.500417  0.499999  1
