# generated using pymatgen
data_DyLu7(CdRh)2
_symmetry_space_group_name_H-M   'P 1'
_cell_length_a   9.51542271
_cell_length_b   9.47595442
_cell_length_c   9.44661979
_cell_angle_alpha   59.66520333
_cell_angle_beta   59.75877566
_cell_angle_gamma   59.86212376
_symmetry_Int_Tables_number   1
_chemical_formula_structural   DyLu7(CdRh)2
_chemical_formula_sum   'Dy2 Lu14 Cd4 Rh4'
_cell_volume   599.04150874
_cell_formula_units_Z   2
loop_
 _symmetry_equiv_pos_site_id
 _symmetry_equiv_pos_as_xyz
  1  'x, y, z'
loop_
 _atom_site_type_symbol
 _atom_site_label
 _atom_site_symmetry_multiplicity
 _atom_site_fract_x
 _atom_site_fract_y
 _atom_site_fract_z
 _atom_site_occupancy
  Dy  Dy0  1  0.936395  0.935500  0.564250  1
  Dy  Dy1  1  0.563856  0.935500  0.564250  1
  Lu  Lu2  1  0.564955  0.562760  0.936381  1
  Lu  Lu3  1  0.151282  0.548661  0.148777  1
  Lu  Lu4  1  0.688256  0.312637  0.310851  1
  Lu  Lu5  1  0.936867  0.562232  0.564034  1
  Lu  Lu6  1  0.935904  0.562760  0.936381  1
  Lu  Lu7  1  0.687747  0.688878  0.311327  1
  Lu  Lu8  1  0.563629  0.935397  0.937345  1
  Lu  Lu9  1  0.151978  0.150675  0.149979  1
  Lu  Lu10  1  0.312049  0.688878  0.311327  1
  Lu  Lu11  1  0.547368  0.150675  0.149979  1
  Lu  Lu12  1  0.311307  0.312553  0.689300  1
  Lu  Lu13  1  0.312031  0.687290  0.688649  1
  Lu  Lu14  1  0.151349  0.149888  0.547414  1
  Lu  Lu15  1  0.686841  0.312553  0.689300  1
  Cd  Cd16  1  0.918284  0.919233  0.920066  1
  Cd  Cd17  1  0.242416  0.919233  0.920066  1
  Cd  Cd18  1  0.919263  0.919166  0.242308  1
  Cd  Cd19  1  0.918273  0.244478  0.918974  1
  Rh  Rh20  1  0.357152  0.357552  0.928144  1
  Rh  Rh21  1  0.357279  0.358004  0.356952  1
  Rh  Rh22  1  0.927763  0.358004  0.356952  1
  Rh  Rh23  1  0.357755  0.927494  0.356995  1
