# generated using pymatgen
data_Tb5Dy4Ho3Co5Sn
_symmetry_space_group_name_H-M   'P 1'
_cell_length_a   8.28597045
_cell_length_b   8.28880733
_cell_length_c   8.28593344
_cell_angle_alpha   107.07532891
_cell_angle_beta   110.64579378
_cell_angle_gamma   110.70531889
_symmetry_Int_Tables_number   1
_chemical_formula_structural   Tb5Dy4Ho3Co5Sn
_chemical_formula_sum   'Tb5 Dy4 Ho3 Co5 Sn1'
_cell_volume   437.58427704
_cell_formula_units_Z   1
loop_
 _symmetry_equiv_pos_site_id
 _symmetry_equiv_pos_as_xyz
  1  'x, y, z'
loop_
 _atom_site_type_symbol
 _atom_site_label
 _atom_site_symmetry_multiplicity
 _atom_site_fract_x
 _atom_site_fract_y
 _atom_site_fract_z
 _atom_site_occupancy
  Tb  Tb0  1  0.478886  0.291870  0.186198  1
  Tb  Tb1  1  0.105671  0.291862  0.812982  1
  Tb  Tb2  1  0.893450  0.707886  0.186309  1
  Tb  Tb3  1  0.521580  0.707890  0.814432  1
  Tb  Tb4  1  0.306380  0.620284  0.313931  1
  Dy  Dy5  1  0.192469  0.207450  0.400512  1
  Dy  Dy6  1  0.808159  0.792503  0.600045  1
  Dy  Dy7  1  0.192451  0.792516  0.984363  1
  Dy  Dy8  1  0.806936  0.207467  0.014988  1
  Ho  Ho9  1  0.307010  0.992871  0.685864  1
  Ho  Ho10  1  0.692958  0.378524  0.685567  1
  Ho  Ho11  1  0.693281  0.007854  0.314561  1
  Co  Co12  1  0.500406  0.612375  0.111974  1
  Co  Co13  1  0.499659  0.386780  0.887122  1
  Co  Co14  1  0.377977  0.000981  0.377802  1
  Co  Co15  1  0.623186  0.000978  0.623010  1
  Co  Co16  1  0.000062  0.000115  0.000037  1
  Sn  Sn17  1  0.999479  0.499796  0.500301  1
