# generated using pymatgen
data_La2Pr3Ga2Ru3
_symmetry_space_group_name_H-M   'P 1'
_cell_length_a   8.55316679
_cell_length_b   8.58526153
_cell_length_c   8.58409671
_cell_angle_alpha   109.20374442
_cell_angle_beta   109.29675912
_cell_angle_gamma   109.20719497
_symmetry_Int_Tables_number   1
_chemical_formula_structural   La2Pr3Ga2Ru3
_chemical_formula_sum   'La4 Pr6 Ga4 Ru6'
_cell_volume   489.41785796
_cell_formula_units_Z   2
loop_
 _symmetry_equiv_pos_site_id
 _symmetry_equiv_pos_as_xyz
  1  'x, y, z'
loop_
 _atom_site_type_symbol
 _atom_site_label
 _atom_site_symmetry_multiplicity
 _atom_site_fract_x
 _atom_site_fract_y
 _atom_site_fract_z
 _atom_site_occupancy
  La  La0  1  0.251703  0.691847  0.442875  1
  La  La1  1  0.751189  0.810795  0.058603  1
  La  La2  1  0.442160  0.251830  0.691531  1
  La  La3  1  0.691663  0.442767  0.252142  1
  Pr  Pr4  1  0.062803  0.751215  0.815000  1
  Pr  Pr5  1  0.814441  0.062609  0.750434  1
  Pr  Pr6  1  0.219494  0.219903  0.219592  1
  Pr  Pr7  1  0.501098  0.997557  0.281504  1
  Pr  Pr8  1  0.281118  0.501418  0.998467  1
  Pr  Pr9  1  0.998363  0.281879  0.501257  1
  Ga  Ga10  1  0.590804  0.590314  0.587996  1
  Ga  Ga11  1  0.499145  0.000950  0.914195  1
  Ga  Ga12  1  0.914391  0.497490  0.999555  1
  Ga  Ga13  1  0.001476  0.915585  0.503010  1
  Ru  Ru14  1  0.251048  0.124825  0.865353  1
  Ru  Ru15  1  0.739496  0.372267  0.629801  1
  Ru  Ru16  1  0.863357  0.250516  0.123521  1
  Ru  Ru17  1  0.117502  0.863069  0.248168  1
  Ru  Ru18  1  0.630738  0.740172  0.372352  1
  Ru  Ru19  1  0.378005  0.632990  0.744640  1
