# generated using pymatgen
data_Tb8Ti(Pd7Pt)3
_symmetry_space_group_name_H-M   'P 1'
_cell_length_a   8.45217600
_cell_length_b   8.45254300
_cell_length_c   8.45558500
_cell_angle_alpha   90.00000000
_cell_angle_beta   90.00000000
_cell_angle_gamma   90.00000000
_symmetry_Int_Tables_number   1
_chemical_formula_structural   Tb8Ti(Pd7Pt)3
_chemical_formula_sum   'Tb8 Ti1 Pd21 Pt3'
_cell_volume   604.08712585
_cell_formula_units_Z   1
loop_
 _symmetry_equiv_pos_site_id
 _symmetry_equiv_pos_as_xyz
  1  'x, y, z'
loop_
 _atom_site_type_symbol
 _atom_site_label
 _atom_site_symmetry_multiplicity
 _atom_site_fract_x
 _atom_site_fract_y
 _atom_site_fract_z
 _atom_site_occupancy
  Tb  Tb0  1  0.251083  0.251429  0.251092  1
  Tb  Tb1  1  0.747500  0.747955  0.747456  1
  Tb  Tb2  1  0.747500  0.747955  0.252544  1
  Tb  Tb3  1  0.748917  0.251429  0.748908  1
  Tb  Tb4  1  0.251083  0.251429  0.748908  1
  Tb  Tb5  1  0.252500  0.747955  0.252544  1
  Tb  Tb6  1  0.252500  0.747955  0.747456  1
  Tb  Tb7  1  0.748917  0.251429  0.251092  1
  Ti  Ti8  1  0.000000  0.007426  0.000000  1
  Pd  Pd9  1  0.263195  0.500071  0.000000  1
  Pd  Pd10  1  0.736805  0.500071  0.000000  1
  Pd  Pd11  1  0.000000  0.262428  0.500000  1
  Pd  Pd12  1  0.500000  0.261678  0.000000  1
  Pd  Pd13  1  0.000000  0.736035  0.500000  1
  Pd  Pd14  1  0.500000  0.736170  0.000000  1
  Pd  Pd15  1  0.500000  0.000064  0.262780  1
  Pd  Pd16  1  0.263179  0.000130  0.500000  1
  Pd  Pd17  1  0.500000  0.000064  0.737220  1
  Pd  Pd18  1  0.736821  0.000130  0.500000  1
  Pd  Pd19  1  0.000000  0.500244  0.263210  1
  Pd  Pd20  1  0.000000  0.500244  0.736790  1
  Pd  Pd21  1  0.253875  0.499586  0.500000  1
  Pd  Pd22  1  0.746125  0.499586  0.500000  1
  Pd  Pd23  1  0.500000  0.253866  0.500000  1
  Pd  Pd24  1  0.500000  0.746002  0.500000  1
  Pd  Pd25  1  0.500000  0.499545  0.254118  1
  Pd  Pd26  1  0.500000  0.499545  0.745882  1
  Pd  Pd27  1  0.000000  0.705747  0.000000  1
  Pd  Pd28  1  0.000000  0.998382  0.298808  1
  Pd  Pd29  1  0.000000  0.998382  0.701192  1
  Pt  Pt30  1  0.295755  0.997944  0.000000  1
  Pt  Pt31  1  0.704245  0.997944  0.000000  1
  Pt  Pt32  1  0.000000  0.301179  0.000000  1
