# generated using pymatgen
data_Y2HoTlIn3PtRh
_symmetry_space_group_name_H-M   'P 1'
_cell_length_a   7.83941400
_cell_length_b   7.83328508
_cell_length_c   3.89688200
_cell_angle_alpha   90.00000000
_cell_angle_beta   90.00000000
_cell_angle_gamma   120.08782991
_symmetry_Int_Tables_number   1
_chemical_formula_structural   Y2HoTlIn3PtRh
_chemical_formula_sum   'Y2 Ho1 Tl1 In3 Pt1 Rh1'
_cell_volume   207.05721766
_cell_formula_units_Z   1
loop_
 _symmetry_equiv_pos_site_id
 _symmetry_equiv_pos_as_xyz
  1  'x, y, z'
loop_
 _atom_site_type_symbol
 _atom_site_label
 _atom_site_symmetry_multiplicity
 _atom_site_fract_x
 _atom_site_fract_y
 _atom_site_fract_z
 _atom_site_occupancy
  Y  Y0  1  0.413212  0.389551  0.500000  1
  Y  Y1  1  0.610687  0.023443  0.500000  1
  Ho  Ho2  1  0.974130  0.587480  0.500000  1
  Tl  Tl3  1  0.331775  0.666169  0.000000  1
  In  In4  1  0.994300  0.247194  0.000000  1
  In  In5  1  0.254396  0.005785  0.000000  1
  In  In6  1  0.751148  0.746441  0.000000  1
  Pt  Pt7  1  0.670063  0.336017  0.000000  1
  Rh  Rh8  1  0.000289  0.997923  0.500000  1
