# generated using pymatgen
data_Sm8HfPd24
_symmetry_space_group_name_H-M   'P 1'
_cell_length_a   8.48332400
_cell_length_b   8.48332400
_cell_length_c   8.48332400
_cell_angle_alpha   90.00000000
_cell_angle_beta   90.00000000
_cell_angle_gamma   90.00000000
_symmetry_Int_Tables_number   1
_chemical_formula_structural   Sm8HfPd24
_chemical_formula_sum   'Sm8 Hf1 Pd24'
_cell_volume   610.51756363
_cell_formula_units_Z   1
loop_
 _symmetry_equiv_pos_site_id
 _symmetry_equiv_pos_as_xyz
  1  'x, y, z'
loop_
 _atom_site_type_symbol
 _atom_site_label
 _atom_site_symmetry_multiplicity
 _atom_site_fract_x
 _atom_site_fract_y
 _atom_site_fract_z
 _atom_site_occupancy
  Sm  Sm0  1  0.253265  0.253265  0.253265  1
  Sm  Sm1  1  0.746735  0.746735  0.746735  1
  Sm  Sm2  1  0.746735  0.746735  0.253265  1
  Sm  Sm3  1  0.746735  0.253265  0.746735  1
  Sm  Sm4  1  0.253265  0.253265  0.746735  1
  Sm  Sm5  1  0.253265  0.746735  0.253265  1
  Sm  Sm6  1  0.253265  0.746735  0.746735  1
  Sm  Sm7  1  0.746735  0.253265  0.253265  1
  Hf  Hf8  1  0.000000  0.000000  0.000000  1
  Pd  Pd9  1  0.264326  0.500000  0.000000  1
  Pd  Pd10  1  0.735674  0.500000  0.000000  1
  Pd  Pd11  1  0.000000  0.264326  0.500000  1
  Pd  Pd12  1  0.500000  0.264326  0.000000  1
  Pd  Pd13  1  0.000000  0.735674  0.500000  1
  Pd  Pd14  1  0.500000  0.735674  0.000000  1
  Pd  Pd15  1  0.500000  0.000000  0.264326  1
  Pd  Pd16  1  0.264326  0.000000  0.500000  1
  Pd  Pd17  1  0.500000  0.000000  0.735674  1
  Pd  Pd18  1  0.735674  0.000000  0.500000  1
  Pd  Pd19  1  0.000000  0.500000  0.264326  1
  Pd  Pd20  1  0.000000  0.500000  0.735674  1
  Pd  Pd21  1  0.253214  0.500000  0.500000  1
  Pd  Pd22  1  0.746786  0.500000  0.500000  1
  Pd  Pd23  1  0.500000  0.253214  0.500000  1
  Pd  Pd24  1  0.500000  0.746786  0.500000  1
  Pd  Pd25  1  0.500000  0.500000  0.253214  1
  Pd  Pd26  1  0.500000  0.500000  0.746786  1
  Pd  Pd27  1  0.306523  0.000000  0.000000  1
  Pd  Pd28  1  0.693477  0.000000  0.000000  1
  Pd  Pd29  1  0.000000  0.306523  0.000000  1
  Pd  Pd30  1  0.000000  0.693477  0.000000  1
  Pd  Pd31  1  0.000000  0.000000  0.306523  1
  Pd  Pd32  1  0.000000  0.000000  0.693477  1
