# generated using pymatgen
data_Nd6Zn(SiS7)2
_symmetry_space_group_name_H-M   'P 1'
_cell_length_a   10.19824000
_cell_length_b   10.19824144
_cell_length_c   5.74658000
_cell_angle_alpha   90.00000000
_cell_angle_beta   90.00000000
_cell_angle_gamma   120.00000181
_symmetry_Int_Tables_number   1
_chemical_formula_structural   Nd6Zn(SiS7)2
_chemical_formula_sum   'Nd6 Zn1 Si2 S14'
_cell_volume   517.59562711
_cell_formula_units_Z   1
loop_
 _symmetry_equiv_pos_site_id
 _symmetry_equiv_pos_as_xyz
  1  'x, y, z'
loop_
 _atom_site_type_symbol
 _atom_site_label
 _atom_site_symmetry_multiplicity
 _atom_site_fract_x
 _atom_site_fract_y
 _atom_site_fract_z
 _atom_site_occupancy
  Nd  Nd0  1  0.310369  0.102651  0.750810  1
  Nd  Nd1  1  0.792283  0.689631  0.750810  1
  Nd  Nd2  1  0.897349  0.207717  0.750810  1
  Nd  Nd3  1  0.023711  0.563866  0.247980  1
  Nd  Nd4  1  0.540154  0.976289  0.247980  1
  Nd  Nd5  1  0.436134  0.459846  0.247980  1
  Zn  Zn6  1  0.666667  0.333333  0.509227  1
  Si  Si7  1  0.000000  0.000000  0.166031  1
  Si  Si8  1  0.333333  0.666667  0.659928  1
  S  S9  1  0.143333  0.221315  0.022137  1
  S  S10  1  0.077982  0.856667  0.022137  1
  S  S11  1  0.778685  0.922018  0.022137  1
  S  S12  1  0.190572  0.445108  0.517273  1
  S  S13  1  0.254537  0.809428  0.517273  1
  S  S14  1  0.554892  0.745463  0.517273  1
  S  S15  1  0.000000  0.000000  0.532580  1
  S  S16  1  0.333333  0.666667  0.027227  1
  S  S17  1  0.421257  0.175602  0.279820  1
  S  S18  1  0.754345  0.578743  0.279820  1
  S  S19  1  0.824398  0.245655  0.279820  1
  S  S20  1  0.913829  0.494578  0.757665  1
  S  S21  1  0.580749  0.086171  0.757665  1
  S  S22  1  0.505422  0.419251  0.757665  1
