# generated using pymatgen
data_Tm2Nb3Sn(B2Ru5)2
_symmetry_space_group_name_H-M   'P 1'
_cell_length_a   9.51041746
_cell_length_b   9.60253652
_cell_length_c   3.09781800
_cell_angle_alpha   90.00000000
_cell_angle_beta   90.00000000
_cell_angle_gamma   90.94569754
_symmetry_Int_Tables_number   1
_chemical_formula_structural   Tm2Nb3Sn(B2Ru5)2
_chemical_formula_sum   'Tm2 Nb3 Sn1 B4 Ru10'
_cell_volume   282.86700148
_cell_formula_units_Z   1
loop_
 _symmetry_equiv_pos_site_id
 _symmetry_equiv_pos_as_xyz
  1  'x, y, z'
loop_
 _atom_site_type_symbol
 _atom_site_label
 _atom_site_symmetry_multiplicity
 _atom_site_fract_x
 _atom_site_fract_y
 _atom_site_fract_z
 _atom_site_occupancy
  Tm  Tm0  1  0.820591  0.673068  0.000000  1
  Tm  Tm1  1  0.179409  0.326932  0.000000  1
  Nb  Nb2  1  0.321699  0.827558  0.000000  1
  Nb  Nb3  1  0.678301  0.172442  0.000000  1
  Nb  Nb4  1  0.000000  0.000000  0.000000  1
  Sn  Sn5  1  0.500000  0.500000  0.000000  1
  B  B6  1  0.619440  0.878862  0.000000  1
  B  B7  1  0.380560  0.121138  0.000000  1
  B  B8  1  0.120123  0.622526  0.000000  1
  B  B9  1  0.879877  0.377474  0.000000  1
  Ru  Ru10  1  0.557021  0.728415  0.500000  1
  Ru  Ru11  1  0.442979  0.271585  0.500000  1
  Ru  Ru12  1  0.076759  0.785652  0.500000  1
  Ru  Ru13  1  0.923241  0.214348  0.500000  1
  Ru  Ru14  1  0.281736  0.590295  0.500000  1
  Ru  Ru15  1  0.718264  0.409705  0.500000  1
  Ru  Ru16  1  0.222378  0.061388  0.500000  1
  Ru  Ru17  1  0.777622  0.938612  0.500000  1
  Ru  Ru18  1  0.500000  0.000000  0.500000  1
  Ru  Ru19  1  0.000000  0.500000  0.500000  1
