# generated using pymatgen
data_CePr5UO12
_symmetry_space_group_name_H-M   'P 1'
_cell_length_a   6.80807802
_cell_length_b   6.85354784
_cell_length_c   6.87803720
_cell_angle_alpha   98.79392006
_cell_angle_beta   99.38508680
_cell_angle_gamma   98.59740021
_symmetry_Int_Tables_number   1
_chemical_formula_structural   CePr5UO12
_chemical_formula_sum   'Ce1 Pr5 U1 O12'
_cell_volume   307.86039406
_cell_formula_units_Z   1
loop_
 _symmetry_equiv_pos_site_id
 _symmetry_equiv_pos_as_xyz
  1  'x, y, z'
loop_
 _atom_site_type_symbol
 _atom_site_label
 _atom_site_symmetry_multiplicity
 _atom_site_fract_x
 _atom_site_fract_y
 _atom_site_fract_z
 _atom_site_occupancy
  Ce  Ce0  1  0.143951  0.312825  0.604369  1
  Pr  Pr1  1  0.307790  0.608025  0.142741  1
  Pr  Pr2  1  0.609865  0.141893  0.306239  1
  Pr  Pr3  1  0.390689  0.857256  0.692305  1
  Pr  Pr4  1  0.692255  0.391876  0.860487  1
  Pr  Pr5  1  0.857398  0.693084  0.391026  1
  U  U6  1  0.001867  0.001621  0.999347  1
  O  O7  1  0.423814  0.185727  0.585687  1
  O  O8  1  0.930527  0.699012  0.050439  1
  O  O9  1  0.177791  0.574609  0.437181  1
  O  O10  1  0.835392  0.405790  0.568637  1
  O  O11  1  0.562002  0.825098  0.415468  1
  O  O12  1  0.591919  0.438954  0.179433  1
  O  O13  1  0.399578  0.556605  0.817949  1
  O  O14  1  0.957112  0.075152  0.307211  1
  O  O15  1  0.048931  0.929441  0.696206  1
  O  O16  1  0.694778  0.050451  0.931839  1
  O  O17  1  0.068935  0.302032  0.945750  1
  O  O18  1  0.305406  0.950546  0.067688  1
