# generated using pymatgen
data_Tb4Tm2Si3Ag
_symmetry_space_group_name_H-M   'P 1'
_cell_length_a   7.54239869
_cell_length_b   7.54239869
_cell_length_c   4.26811900
_cell_angle_alpha   90.00000000
_cell_angle_beta   90.00000000
_cell_angle_gamma   88.38538793
_symmetry_Int_Tables_number   1
_chemical_formula_structural   Tb4Tm2Si3Ag
_chemical_formula_sum   'Tb4 Tm2 Si3 Ag1'
_cell_volume   242.70740389
_cell_formula_units_Z   1
loop_
 _symmetry_equiv_pos_site_id
 _symmetry_equiv_pos_as_xyz
  1  'x, y, z'
loop_
 _atom_site_type_symbol
 _atom_site_label
 _atom_site_symmetry_multiplicity
 _atom_site_fract_x
 _atom_site_fract_y
 _atom_site_fract_z
 _atom_site_occupancy
  Tb  Tb0  1  0.674636  0.174636  0.500000  1
  Tb  Tb1  1  0.340017  0.840017  0.500000  1
  Tb  Tb2  1  0.172678  0.312868  0.500000  1
  Tb  Tb3  1  0.812868  0.672678  0.500000  1
  Tm  Tm4  1  0.007354  0.000781  0.000000  1
  Tm  Tm5  1  0.500781  0.507354  0.000000  1
  Si  Si6  1  0.868755  0.368755  0.000000  1
  Si  Si7  1  0.622562  0.884343  0.000000  1
  Si  Si8  1  0.384343  0.122562  0.000000  1
  Ag  Ag9  1  0.116007  0.616007  0.000000  1
