# generated using pymatgen
data_LaAl10OsRh
_symmetry_space_group_name_H-M   'P 1'
_cell_length_a   6.91861300
_cell_length_b   6.92190770
_cell_length_c   9.21367400
_cell_angle_alpha   90.00000000
_cell_angle_beta   90.00000000
_cell_angle_gamma   97.14040604
_symmetry_Int_Tables_number   1
_chemical_formula_structural   LaAl10OsRh
_chemical_formula_sum   'La2 Al20 Os2 Rh2'
_cell_volume   437.82080530
_cell_formula_units_Z   2
loop_
 _symmetry_equiv_pos_site_id
 _symmetry_equiv_pos_as_xyz
  1  'x, y, z'
loop_
 _atom_site_type_symbol
 _atom_site_label
 _atom_site_symmetry_multiplicity
 _atom_site_fract_x
 _atom_site_fract_y
 _atom_site_fract_z
 _atom_site_occupancy
  La  La0  1  0.872246  0.121689  0.750000  1
  La  La1  1  0.127754  0.878311  0.250000  1
  Al  Al2  1  0.619707  0.377118  0.549840  1
  Al  Al3  1  0.380293  0.622882  0.450160  1
  Al  Al4  1  0.380293  0.622882  0.049840  1
  Al  Al5  1  0.619707  0.377118  0.950160  1
  Al  Al6  1  0.226887  0.226027  0.498835  1
  Al  Al7  1  0.773113  0.773973  0.501165  1
  Al  Al8  1  0.773113  0.773973  0.998835  1
  Al  Al9  1  0.226887  0.226027  0.001165  1
  Al  Al10  1  0.839374  0.159848  0.103444  1
  Al  Al11  1  0.160626  0.840152  0.896556  1
  Al  Al12  1  0.160626  0.840152  0.603444  1
  Al  Al13  1  0.839374  0.159848  0.396556  1
  Al  Al14  1  0.856163  0.588604  0.750000  1
  Al  Al15  1  0.143837  0.411396  0.250000  1
  Al  Al16  1  0.409070  0.141939  0.750000  1
  Al  Al17  1  0.590930  0.858061  0.250000  1
  Al  Al18  1  0.225136  0.482455  0.750000  1
  Al  Al19  1  0.774864  0.517545  0.250000  1
  Al  Al20  1  0.516552  0.779129  0.750000  1
  Al  Al21  1  0.483448  0.220871  0.250000  1
  Os  Os22  1  0.500000  0.000000  0.000000  1
  Os  Os23  1  0.500000  0.000000  0.500000  1
  Rh  Rh24  1  0.000000  0.500000  0.500000  1
  Rh  Rh25  1  0.000000  0.500000  0.000000  1
