# generated using pymatgen
data_Lu16MgHg3Pd4
_symmetry_space_group_name_H-M   'P 1'
_cell_length_a   9.47486608
_cell_length_b   9.45012847
_cell_length_c   9.45012900
_cell_angle_alpha   59.99999465
_cell_angle_beta   60.08632392
_cell_angle_gamma   60.08631163
_symmetry_Int_Tables_number   1
_chemical_formula_structural   Lu16MgHg3Pd4
_chemical_formula_sum   'Lu16 Mg1 Hg3 Pd4'
_cell_volume   599.09942816
_cell_formula_units_Z   1
loop_
 _symmetry_equiv_pos_site_id
 _symmetry_equiv_pos_as_xyz
  1  'x, y, z'
loop_
 _atom_site_type_symbol
 _atom_site_label
 _atom_site_symmetry_multiplicity
 _atom_site_fract_x
 _atom_site_fract_y
 _atom_site_fract_z
 _atom_site_occupancy
  Lu  Lu0  1  0.607358  0.603104  0.603104  1
  Lu  Lu1  1  0.607393  0.603090  0.186407  1
  Lu  Lu2  1  0.607393  0.186407  0.603090  1
  Lu  Lu3  1  0.168721  0.610422  0.610422  1
  Lu  Lu4  1  0.059964  0.439503  0.439503  1
  Lu  Lu5  1  0.436053  0.063144  0.063144  1
  Lu  Lu6  1  0.436043  0.063140  0.437666  1
  Lu  Lu7  1  0.059955  0.439510  0.061044  1
  Lu  Lu8  1  0.436043  0.437666  0.063140  1
  Lu  Lu9  1  0.059955  0.061044  0.439510  1
  Lu  Lu10  1  0.183838  0.815950  0.815950  1
  Lu  Lu11  1  0.816484  0.183922  0.183922  1
  Lu  Lu12  1  0.816481  0.183932  0.815672  1
  Lu  Lu13  1  0.183853  0.815943  0.184269  1
  Lu  Lu14  1  0.816481  0.815672  0.183932  1
  Lu  Lu15  1  0.183853  0.184269  0.815943  1
  Mg  Mg16  1  0.529965  0.823334  0.823334  1
  Hg  Hg17  1  0.833724  0.839697  0.839697  1
  Hg  Hg18  1  0.833716  0.839736  0.486874  1
  Hg  Hg19  1  0.833716  0.486874  0.839736  1
  Pd  Pd20  1  0.390949  0.398197  0.398197  1
  Pd  Pd21  1  0.390927  0.398197  0.812646  1
  Pd  Pd22  1  0.390927  0.812646  0.398197  1
  Pd  Pd23  1  0.816221  0.394600  0.394600  1
