# generated using pymatgen
data_Er5Al2PbC4
_symmetry_space_group_name_H-M   'P 1'
_cell_length_a   10.93398600
_cell_length_b   10.93398600
_cell_length_c   3.50583300
_cell_angle_alpha   90.00000000
_cell_angle_beta   90.00000000
_cell_angle_gamma   90.00000000
_symmetry_Int_Tables_number   1
_chemical_formula_structural   Er5Al2PbC4
_chemical_formula_sum   'Er10 Al4 Pb2 C8'
_cell_volume   419.12952158
_cell_formula_units_Z   2
loop_
 _symmetry_equiv_pos_site_id
 _symmetry_equiv_pos_as_xyz
  1  'x, y, z'
loop_
 _atom_site_type_symbol
 _atom_site_label
 _atom_site_symmetry_multiplicity
 _atom_site_fract_x
 _atom_site_fract_y
 _atom_site_fract_z
 _atom_site_occupancy
  Er  Er0  1  0.550170  0.736819  0.500000  1
  Er  Er1  1  0.449830  0.263181  0.500000  1
  Er  Er2  1  0.050170  0.763181  0.500000  1
  Er  Er3  1  0.949830  0.236819  0.500000  1
  Er  Er4  1  0.263181  0.550170  0.500000  1
  Er  Er5  1  0.736819  0.449830  0.500000  1
  Er  Er6  1  0.236819  0.050170  0.500000  1
  Er  Er7  1  0.763181  0.949830  0.500000  1
  Er  Er8  1  0.500000  0.000000  0.000000  1
  Er  Er9  1  0.000000  0.500000  0.000000  1
  Al  Al10  1  0.703352  0.203352  0.000000  1
  Al  Al11  1  0.296648  0.796648  0.000000  1
  Al  Al12  1  0.203352  0.296648  0.000000  1
  Al  Al13  1  0.796648  0.703352  0.000000  1
  Pb  Pb14  1  0.500000  0.500000  0.000000  1
  Pb  Pb15  1  0.000000  0.000000  0.000000  1
  C  C16  1  0.630900  0.130900  0.500000  1
  C  C17  1  0.369100  0.869100  0.500000  1
  C  C18  1  0.130900  0.369100  0.500000  1
  C  C19  1  0.869100  0.630900  0.500000  1
  C  C20  1  0.162305  0.662305  0.000000  1
  C  C21  1  0.837695  0.337695  0.000000  1
  C  C22  1  0.662305  0.837695  0.000000  1
  C  C23  1  0.337695  0.162305  0.000000  1
