# generated using pymatgen
data_DyY17(ScPb8)2
_symmetry_space_group_name_H-M   'P 1'
_cell_length_a   8.20594600
_cell_length_b   8.27662534
_cell_length_c   15.65759900
_cell_angle_alpha   90.00000000
_cell_angle_beta   90.00000000
_cell_angle_gamma   89.79430138
_symmetry_Int_Tables_number   1
_chemical_formula_structural   DyY17(ScPb8)2
_chemical_formula_sum   'Dy1 Y17 Sc2 Pb16'
_cell_volume   1063.41876240
_cell_formula_units_Z   1
loop_
 _symmetry_equiv_pos_site_id
 _symmetry_equiv_pos_as_xyz
  1  'x, y, z'
loop_
 _atom_site_type_symbol
 _atom_site_label
 _atom_site_symmetry_multiplicity
 _atom_site_fract_x
 _atom_site_fract_y
 _atom_site_fract_z
 _atom_site_occupancy
  Dy  Dy0  1  0.292411  0.496311  0.250000  1
  Y  Y1  1  0.465212  0.825158  0.400059  1
  Y  Y2  1  0.034719  0.325222  0.900204  1
  Y  Y3  1  0.034719  0.325222  0.599796  1
  Y  Y4  1  0.874725  0.841629  0.878963  1
  Y  Y5  1  0.465212  0.825158  0.099941  1
  Y  Y6  1  0.376962  0.656728  0.878377  1
  Y  Y7  1  0.625168  0.341845  0.121235  1
  Y  Y8  1  0.625168  0.341845  0.378765  1
  Y  Y9  1  0.207545  0.996260  0.750000  1
  Y  Y10  1  0.535516  0.176484  0.599083  1
  Y  Y11  1  0.376962  0.656728  0.621623  1
  Y  Y12  1  0.535516  0.176484  0.900917  1
  Y  Y13  1  0.964480  0.676541  0.400706  1
  Y  Y14  1  0.964480  0.676541  0.099294  1
  Y  Y15  1  0.123122  0.157002  0.121852  1
  Y  Y16  1  0.874725  0.841629  0.621037  1
  Y  Y17  1  0.123122  0.157002  0.378148  1
  Sc  Sc18  1  0.791492  0.004571  0.250000  1
  Sc  Sc19  1  0.708341  0.504734  0.750000  1
  Pb  Pb20  1  0.844659  0.158694  0.750000  1
  Pb  Pb21  1  0.717654  0.532661  0.545039  1
  Pb  Pb22  1  0.927706  0.372632  0.250000  1
  Pb  Pb23  1  0.217533  0.965853  0.957165  1
  Pb  Pb24  1  0.282380  0.465781  0.043036  1
  Pb  Pb25  1  0.572406  0.871877  0.750000  1
  Pb  Pb26  1  0.350857  0.347237  0.750000  1
  Pb  Pb27  1  0.066793  0.623152  0.750000  1
  Pb  Pb28  1  0.782398  0.032713  0.454824  1
  Pb  Pb29  1  0.282380  0.465781  0.456964  1
  Pb  Pb30  1  0.149549  0.847061  0.250000  1
  Pb  Pb31  1  0.217533  0.965853  0.542835  1
  Pb  Pb32  1  0.782398  0.032713  0.045176  1
  Pb  Pb33  1  0.655118  0.658535  0.250000  1
  Pb  Pb34  1  0.717654  0.532661  0.954961  1
  Pb  Pb35  1  0.433383  0.123698  0.250000  1
