# generated using pymatgen
data_TbNd6DySb20
_symmetry_space_group_name_H-M   'P 1'
_cell_length_a   4.25852300
_cell_length_b   13.48677684
_cell_length_c   15.12884633
_cell_angle_alpha   77.98193661
_cell_angle_beta   90.00000000
_cell_angle_gamma   90.00000000
_symmetry_Int_Tables_number   1
_chemical_formula_structural   TbNd6DySb20
_chemical_formula_sum   'Tb1 Nd6 Dy1 Sb20'
_cell_volume   849.86168322
_cell_formula_units_Z   1
loop_
 _symmetry_equiv_pos_site_id
 _symmetry_equiv_pos_as_xyz
  1  'x, y, z'
loop_
 _atom_site_type_symbol
 _atom_site_label
 _atom_site_symmetry_multiplicity
 _atom_site_fract_x
 _atom_site_fract_y
 _atom_site_fract_z
 _atom_site_occupancy
  Tb  Tb0  1  0.750000  0.604026  0.227274  1
  Nd  Nd1  1  0.750000  0.335739  0.142713  1
  Nd  Nd2  1  0.250000  0.949817  0.361015  1
  Nd  Nd3  1  0.250000  0.664203  0.857165  1
  Nd  Nd4  1  0.250000  0.668086  0.576448  1
  Nd  Nd5  1  0.750000  0.050230  0.639008  1
  Nd  Nd6  1  0.750000  0.331859  0.423685  1
  Dy  Dy7  1  0.250000  0.396142  0.772722  1
  Sb  Sb8  1  0.750000  0.850823  0.820368  1
  Sb  Sb9  1  0.250000  0.861765  0.675447  1
  Sb  Sb10  1  0.250000  0.142592  0.477983  1
  Sb  Sb11  1  0.750000  0.284753  0.934800  1
  Sb  Sb12  1  0.250000  0.146793  0.781055  1
  Sb  Sb13  1  0.750000  0.574078  0.441693  1
  Sb  Sb14  1  0.750000  0.138255  0.324559  1
  Sb  Sb15  1  0.250000  0.706744  0.350448  1
  Sb  Sb16  1  0.750000  0.293327  0.649756  1
  Sb  Sb17  1  0.750000  0.853467  0.218970  1
  Sb  Sb18  1  0.250000  0.420698  0.972794  1
  Sb  Sb19  1  0.250000  0.425931  0.558571  1
  Sb  Sb20  1  0.750000  0.572102  0.736500  1
  Sb  Sb21  1  0.250000  0.427342  0.263631  1
  Sb  Sb22  1  0.750000  0.857419  0.522016  1
  Sb  Sb23  1  0.750000  0.030762  0.891485  1
  Sb  Sb24  1  0.250000  0.715292  0.064891  1
  Sb  Sb25  1  0.250000  0.969292  0.108487  1
  Sb  Sb26  1  0.250000  0.149160  0.179627  1
  Sb  Sb27  1  0.750000  0.579303  0.026889  1
