# generated using pymatgen
data_Pr20Ir2Ru3Pt7
_symmetry_space_group_name_H-M   'P 1'
_cell_length_a   11.44516431
_cell_length_b   11.44367593
_cell_length_c   6.65975328
_cell_angle_alpha   90.06616230
_cell_angle_beta   90.03954365
_cell_angle_gamma   90.09310773
_symmetry_Int_Tables_number   1
_chemical_formula_structural   Pr20Ir2Ru3Pt7
_chemical_formula_sum   'Pr20 Ir2 Ru3 Pt7'
_cell_volume   872.25758736
_cell_formula_units_Z   1
loop_
 _symmetry_equiv_pos_site_id
 _symmetry_equiv_pos_as_xyz
  1  'x, y, z'
loop_
 _atom_site_type_symbol
 _atom_site_label
 _atom_site_symmetry_multiplicity
 _atom_site_fract_x
 _atom_site_fract_y
 _atom_site_fract_z
 _atom_site_occupancy
  Pr  Pr0  1  0.297064  0.086975  0.375149  1
  Pr  Pr1  1  0.297167  0.907442  0.875883  1
  Pr  Pr2  1  0.702671  0.087652  0.875509  1
  Pr  Pr3  1  0.702151  0.911463  0.374110  1
  Pr  Pr4  1  0.585160  0.795396  0.875182  1
  Pr  Pr5  1  0.588136  0.204048  0.375783  1
  Pr  Pr6  1  0.409540  0.793762  0.381200  1
  Pr  Pr7  1  0.411126  0.202035  0.875174  1
  Pr  Pr8  1  0.205973  0.413875  0.626048  1
  Pr  Pr9  1  0.207012  0.591097  0.117837  1
  Pr  Pr10  1  0.795066  0.411163  0.122946  1
  Pr  Pr11  1  0.796658  0.589770  0.625682  1
  Pr  Pr12  1  0.912128  0.703990  0.124124  1
  Pr  Pr13  1  0.911525  0.296118  0.625747  1
  Pr  Pr14  1  0.093419  0.703973  0.625162  1
  Pr  Pr15  1  0.089252  0.296868  0.124832  1
  Pr  Pr16  1  0.999254  0.999396  0.500144  1
  Pr  Pr17  1  0.000698  0.000585  0.999250  1
  Pr  Pr18  1  0.498146  0.501150  0.999516  1
  Pr  Pr19  1  0.498876  0.501876  0.499858  1
  Ir  Ir20  1  0.347390  0.652219  0.749847  1
  Ir  Ir21  1  0.999530  0.499579  0.383023  1
  Ru  Ru22  1  0.500641  0.000680  0.117376  1
  Ru  Ru23  1  0.500366  0.001344  0.616549  1
  Ru  Ru24  1  0.998746  0.499708  0.884213  1
  Pt  Pt25  1  0.846637  0.153491  0.250106  1
  Pt  Pt26  1  0.845694  0.846593  0.750576  1
  Pt  Pt27  1  0.153173  0.154518  0.748987  1
  Pt  Pt28  1  0.152946  0.846960  0.250170  1
  Pt  Pt29  1  0.653421  0.346790  0.749859  1
  Pt  Pt30  1  0.655056  0.654385  0.249950  1
  Pt  Pt31  1  0.345379  0.345094  0.250207  1
