# generated using pymatgen
data_Tb3Tm5Re(B8Ir)3
_symmetry_space_group_name_H-M   'P 1'
_cell_length_a   3.64458600
_cell_length_b   9.14415184
_cell_length_c   11.48840400
_cell_angle_alpha   90.13814408
_cell_angle_beta   90.00000000
_cell_angle_gamma   90.00000000
_symmetry_Int_Tables_number   1
_chemical_formula_structural   Tb3Tm5Re(B8Ir)3
_chemical_formula_sum   'Tb3 Tm5 Re1 B24 Ir3'
_cell_volume   382.86888098
_cell_formula_units_Z   1
loop_
 _symmetry_equiv_pos_site_id
 _symmetry_equiv_pos_as_xyz
  1  'x, y, z'
loop_
 _atom_site_type_symbol
 _atom_site_label
 _atom_site_symmetry_multiplicity
 _atom_site_fract_x
 _atom_site_fract_y
 _atom_site_fract_z
 _atom_site_occupancy
  Tb  Tb0  1  0.000000  0.320672  0.413808  1
  Tb  Tb1  1  0.000000  0.682895  0.590317  1
  Tb  Tb2  1  0.000000  0.820614  0.082954  1
  Tm  Tm3  1  0.000000  0.176163  0.912253  1
  Tm  Tm4  1  0.000000  0.943900  0.373174  1
  Tm  Tm5  1  0.000000  0.053673  0.626579  1
  Tm  Tm6  1  0.000000  0.443376  0.125800  1
  Tm  Tm7  1  0.000000  0.557076  0.874856  1
  Re  Re8  1  0.000000  0.863044  0.821293  1
  B  B9  1  0.500000  0.554050  0.433772  1
  B  B10  1  0.500000  0.447053  0.567207  1
  B  B11  1  0.500000  0.054332  0.066017  1
  B  B12  1  0.500000  0.947208  0.932912  1
  B  B13  1  0.500000  0.751070  0.420048  1
  B  B14  1  0.500000  0.249615  0.579865  1
  B  B15  1  0.500000  0.249417  0.078529  1
  B  B16  1  0.500000  0.751369  0.919381  1
  B  B17  1  0.500000  0.792325  0.265140  1
  B  B18  1  0.500000  0.207200  0.734096  1
  B  B19  1  0.500000  0.293036  0.234457  1
  B  B20  1  0.500000  0.707992  0.766386  1
  B  B21  1  0.500000  0.630355  0.184107  1
  B  B22  1  0.500000  0.368126  0.816384  1
  B  B23  1  0.500000  0.131374  0.315596  1
  B  B24  1  0.500000  0.869721  0.685590  1
  B  B25  1  0.500000  0.982215  0.213389  1
  B  B26  1  0.500000  0.018199  0.786544  1
  B  B27  1  0.500000  0.481468  0.286690  1
  B  B28  1  0.500000  0.517598  0.714747  1
  B  B29  1  0.500000  0.605985  0.030339  1
  B  B30  1  0.500000  0.390219  0.970402  1
  B  B31  1  0.500000  0.107198  0.470156  1
  B  B32  1  0.500000  0.893790  0.528068  1
  Ir  Ir33  1  0.000000  0.637940  0.321490  1
  Ir  Ir34  1  0.000000  0.361736  0.679187  1
  Ir  Ir35  1  0.000000  0.137998  0.178463  1
