# generated using pymatgen
data_Tb6TiMn2VC12
_symmetry_space_group_name_H-M   'P 1'
_cell_length_a   8.21307500
_cell_length_b   8.21307374
_cell_length_c   5.01475000
_cell_angle_alpha   90.00000000
_cell_angle_beta   90.00000000
_cell_angle_gamma   119.99999998
_symmetry_Int_Tables_number   1
_chemical_formula_structural   Tb6TiMn2VC12
_chemical_formula_sum   'Tb6 Ti1 Mn2 V1 C12'
_cell_volume   292.94860174
_cell_formula_units_Z   1
loop_
 _symmetry_equiv_pos_site_id
 _symmetry_equiv_pos_as_xyz
  1  'x, y, z'
loop_
 _atom_site_type_symbol
 _atom_site_label
 _atom_site_symmetry_multiplicity
 _atom_site_fract_x
 _atom_site_fract_y
 _atom_site_fract_z
 _atom_site_occupancy
  Tb  Tb0  1  0.619794  0.679802  0.750275  1
  Tb  Tb1  1  0.939994  0.619794  0.249725  1
  Tb  Tb2  1  0.679802  0.060006  0.249725  1
  Tb  Tb3  1  0.320198  0.939994  0.750275  1
  Tb  Tb4  1  0.060006  0.380206  0.750275  1
  Tb  Tb5  1  0.380206  0.320198  0.249725  1
  Ti  Ti6  1  0.000000  0.000000  0.000000  1
  Mn  Mn7  1  0.666667  0.333333  0.749528  1
  Mn  Mn8  1  0.333333  0.666667  0.250472  1
  V  V9  1  0.000000  0.000000  0.500000  1
  C  C10  1  0.962226  0.763880  0.745558  1
  C  C11  1  0.198347  0.962226  0.254442  1
  C  C12  1  0.763880  0.801653  0.254442  1
  C  C13  1  0.236120  0.198347  0.745558  1
  C  C14  1  0.801653  0.037774  0.745558  1
  C  C15  1  0.037774  0.236120  0.254442  1
  C  C16  1  0.863090  0.571346  0.747231  1
  C  C17  1  0.291744  0.863090  0.252769  1
  C  C18  1  0.571346  0.708256  0.252769  1
  C  C19  1  0.428654  0.291744  0.747231  1
  C  C20  1  0.136910  0.428654  0.252769  1
  C  C21  1  0.708256  0.136910  0.747231  1
