# generated using pymatgen
data_Dy2Ho10Ni5Bi
_symmetry_space_group_name_H-M   'P 1'
_cell_length_a   8.33465117
_cell_length_b   8.33780911
_cell_length_c   8.33874164
_cell_angle_alpha   111.68812630
_cell_angle_beta   109.42799735
_cell_angle_gamma   107.30871621
_symmetry_Int_Tables_number   1
_chemical_formula_structural   Dy2Ho10Ni5Bi
_chemical_formula_sum   'Dy2 Ho10 Ni5 Bi1'
_cell_volume   445.53479533
_cell_formula_units_Z   1
loop_
 _symmetry_equiv_pos_site_id
 _symmetry_equiv_pos_as_xyz
  1  'x, y, z'
loop_
 _atom_site_type_symbol
 _atom_site_label
 _atom_site_symmetry_multiplicity
 _atom_site_fract_x
 _atom_site_fract_y
 _atom_site_fract_z
 _atom_site_occupancy
  Dy  Dy0  1  0.821242  0.704974  0.526520  1
  Dy  Dy1  1  0.178758  0.295026  0.473480  1
  Ho  Ho2  1  0.178544  0.705017  0.883843  1
  Ho  Ho3  1  0.821456  0.294983  0.116157  1
  Ho  Ho4  1  0.679634  0.370605  0.691354  1
  Ho  Ho5  1  0.320366  0.629395  0.308646  1
  Ho  Ho6  1  0.678932  0.987733  0.308347  1
  Ho  Ho7  1  0.321068  0.012267  0.691653  1
  Ho  Ho8  1  0.601388  0.793988  0.808082  1
  Ho  Ho9  1  0.398612  0.206012  0.191918  1
  Ho  Ho10  1  0.985922  0.793533  0.192175  1
  Ho  Ho11  1  0.014078  0.206467  0.807825  1
  Ni  Ni12  1  0.633055  0.000180  0.633258  1
  Ni  Ni13  1  0.366945  0.999820  0.366742  1
  Ni  Ni14  1  0.124633  0.624971  0.500320  1
  Ni  Ni15  1  0.875367  0.375029  0.499680  1
  Ni  Ni16  1  0.000000  0.000000  0.000000  1
  Bi  Bi17  1  0.500000  0.500000  0.000000  1
