# generated using pymatgen
data_DyEr13(Tm3Pt8)2
_symmetry_space_group_name_H-M   'P 1'
_cell_length_a   7.41512964
_cell_length_b   7.50005689
_cell_length_c   14.62776400
_cell_angle_alpha   89.87851850
_cell_angle_beta   89.97622441
_cell_angle_gamma   90.00518256
_symmetry_Int_Tables_number   1
_chemical_formula_structural   DyEr13(Tm3Pt8)2
_chemical_formula_sum   'Dy1 Er13 Tm6 Pt16'
_cell_volume   813.50501648
_cell_formula_units_Z   1
loop_
 _symmetry_equiv_pos_site_id
 _symmetry_equiv_pos_as_xyz
  1  'x, y, z'
loop_
 _atom_site_type_symbol
 _atom_site_label
 _atom_site_symmetry_multiplicity
 _atom_site_fract_x
 _atom_site_fract_y
 _atom_site_fract_z
 _atom_site_occupancy
  Dy  Dy0  1  0.999936  0.821476  0.092305  1
  Er  Er1  1  0.844760  0.331986  0.378189  1
  Er  Er2  1  0.345451  0.168137  0.122445  1
  Er  Er3  1  0.345395  0.167576  0.378054  1
  Er  Er4  1  0.845075  0.332524  0.122271  1
  Er  Er5  1  0.155031  0.667794  0.622217  1
  Er  Er6  1  0.655172  0.832102  0.877620  1
  Er  Er7  1  0.999452  0.820929  0.406708  1
  Er  Er8  1  0.498985  0.679172  0.092998  1
  Er  Er9  1  0.500676  0.320351  0.593271  1
  Er  Er10  1  0.001332  0.180643  0.906638  1
  Er  Er11  1  0.000303  0.178698  0.593546  1
  Er  Er12  1  0.500359  0.321281  0.906820  1
  Er  Er13  1  0.499418  0.679345  0.407552  1
  Tm  Tm14  1  0.682314  0.989018  0.250200  1
  Tm  Tm15  1  0.181806  0.510891  0.250513  1
  Tm  Tm16  1  0.817920  0.489605  0.749761  1
  Tm  Tm17  1  0.317986  0.010360  0.750097  1
  Tm  Tm18  1  0.654856  0.832590  0.622829  1
  Tm  Tm19  1  0.155511  0.667288  0.877028  1
  Pt  Pt20  1  0.819015  0.643961  0.251103  1
  Pt  Pt21  1  0.321254  0.854935  0.250482  1
  Pt  Pt22  1  0.679777  0.144539  0.749622  1
  Pt  Pt23  1  0.179816  0.355370  0.749871  1
  Pt  Pt24  1  0.547406  0.387914  0.250099  1
  Pt  Pt25  1  0.048220  0.112723  0.250548  1
  Pt  Pt26  1  0.951987  0.887684  0.749877  1
  Pt  Pt27  1  0.451979  0.612222  0.749989  1
  Pt  Pt28  1  0.814370  0.532908  0.542169  1
  Pt  Pt29  1  0.314869  0.968032  0.957310  1
  Pt  Pt30  1  0.684985  0.030883  0.458578  1
  Pt  Pt31  1  0.185849  0.466351  0.040203  1
  Pt  Pt32  1  0.184599  0.467663  0.458374  1
  Pt  Pt33  1  0.682093  0.033995  0.041071  1
  Pt  Pt34  1  0.316124  0.968376  0.542649  1
  Pt  Pt35  1  0.815922  0.530680  0.956994  1
