# generated using pymatgen
data_PrNd5(Os2O9)2
_symmetry_space_group_name_H-M   'P 1'
_cell_length_a   5.65383240
_cell_length_b   6.83732867
_cell_length_c   11.11117766
_cell_angle_alpha   77.02357099
_cell_angle_beta   75.22077460
_cell_angle_gamma   69.39298959
_symmetry_Int_Tables_number   1
_chemical_formula_structural   PrNd5(Os2O9)2
_chemical_formula_sum   'Pr1 Nd5 Os4 O18'
_cell_volume   384.40822030
_cell_formula_units_Z   1
loop_
 _symmetry_equiv_pos_site_id
 _symmetry_equiv_pos_as_xyz
  1  'x, y, z'
loop_
 _atom_site_type_symbol
 _atom_site_label
 _atom_site_symmetry_multiplicity
 _atom_site_fract_x
 _atom_site_fract_y
 _atom_site_fract_z
 _atom_site_occupancy
  Pr  Pr0  1  0.720454  0.404035  0.622476  1
  Nd  Nd1  1  0.007815  0.218957  0.269696  1
  Nd  Nd2  1  0.992423  0.780884  0.730009  1
  Nd  Nd3  1  0.232082  0.155356  0.883088  1
  Nd  Nd4  1  0.767737  0.844230  0.117242  1
  Nd  Nd5  1  0.279950  0.596538  0.377102  1
  Os  Os6  1  0.512514  0.389934  0.090021  1
  Os  Os7  1  0.486973  0.610348  0.910574  1
  Os  Os8  1  0.358335  0.126982  0.569495  1
  Os  Os9  1  0.642158  0.872825  0.429862  1
  O  O10  1  0.302198  0.417723  0.588909  1
  O  O11  1  0.695372  0.583009  0.409864  1
  O  O12  1  0.588950  0.058527  0.690504  1
  O  O13  1  0.410318  0.940916  0.309439  1
  O  O14  1  0.858319  0.187940  0.062114  1
  O  O15  1  0.141073  0.812310  0.938576  1
  O  O16  1  0.387289  0.168567  0.071999  1
  O  O17  1  0.612036  0.831837  0.928359  1
  O  O18  1  0.066621  0.117618  0.713885  1
  O  O19  1  0.935183  0.880902  0.286152  1
  O  O20  1  0.180299  0.505350  0.193849  1
  O  O21  1  0.820222  0.494625  0.807584  1
  O  O22  1  0.106190  0.250988  0.460186  1
  O  O23  1  0.895949  0.749202  0.538463  1
  O  O24  1  0.643662  0.523174  0.184490  1
  O  O25  1  0.355131  0.477257  0.816355  1
  O  O26  1  0.625814  0.181846  0.417620  1
  O  O27  1  0.374933  0.818117  0.582086  1
