# generated using pymatgen
data_Tm4LuIr2Ru
_symmetry_space_group_name_H-M   'P 1'
_cell_length_a   10.67074400
_cell_length_b   10.67074400
_cell_length_c   6.34808400
_cell_angle_alpha   90.00000000
_cell_angle_beta   90.00000000
_cell_angle_gamma   90.00000000
_symmetry_Int_Tables_number   1
_chemical_formula_structural   Tm4LuIr2Ru
_chemical_formula_sum   'Tm16 Lu4 Ir8 Ru4'
_cell_volume   722.82317230
_cell_formula_units_Z   4
loop_
 _symmetry_equiv_pos_site_id
 _symmetry_equiv_pos_as_xyz
  1  'x, y, z'
loop_
 _atom_site_type_symbol
 _atom_site_label
 _atom_site_symmetry_multiplicity
 _atom_site_fract_x
 _atom_site_fract_y
 _atom_site_fract_z
 _atom_site_occupancy
  Tm  Tm0  1  0.293216  0.086398  0.376629  1
  Tm  Tm1  1  0.293216  0.913602  0.876629  1
  Tm  Tm2  1  0.706784  0.086398  0.876629  1
  Tm  Tm3  1  0.706784  0.913602  0.376629  1
  Tm  Tm4  1  0.586398  0.793216  0.876629  1
  Tm  Tm5  1  0.586398  0.206784  0.376629  1
  Tm  Tm6  1  0.413602  0.793216  0.376629  1
  Tm  Tm7  1  0.413602  0.206784  0.876629  1
  Tm  Tm8  1  0.206784  0.413602  0.623371  1
  Tm  Tm9  1  0.206784  0.586398  0.123371  1
  Tm  Tm10  1  0.793216  0.413602  0.123371  1
  Tm  Tm11  1  0.793216  0.586398  0.623371  1
  Tm  Tm12  1  0.913602  0.706784  0.123371  1
  Tm  Tm13  1  0.913602  0.293216  0.623371  1
  Tm  Tm14  1  0.086398  0.706784  0.623371  1
  Tm  Tm15  1  0.086398  0.293216  0.123371  1
  Lu  Lu16  1  0.000000  0.000000  0.500000  1
  Lu  Lu17  1  0.000000  0.000000  0.000000  1
  Lu  Lu18  1  0.500000  0.500000  0.000000  1
  Lu  Lu19  1  0.500000  0.500000  0.500000  1
  Ir  Ir20  1  0.847798  0.152202  0.250000  1
  Ir  Ir21  1  0.847798  0.847798  0.750000  1
  Ir  Ir22  1  0.152202  0.152202  0.750000  1
  Ir  Ir23  1  0.152202  0.847798  0.250000  1
  Ir  Ir24  1  0.652202  0.347798  0.750000  1
  Ir  Ir25  1  0.652202  0.652202  0.250000  1
  Ir  Ir26  1  0.347798  0.347798  0.250000  1
  Ir  Ir27  1  0.347798  0.652202  0.750000  1
  Ru  Ru28  1  0.500000  0.000000  0.122425  1
  Ru  Ru29  1  0.500000  0.000000  0.622425  1
  Ru  Ru30  1  0.000000  0.500000  0.877575  1
  Ru  Ru31  1  0.000000  0.500000  0.377575  1
