# generated using pymatgen
data_DyHo3(AlPt3)6
_symmetry_space_group_name_H-M   'P 1'
_cell_length_a   7.69905119
_cell_length_b   7.69895205
_cell_length_c   10.22475800
_cell_angle_alpha   67.97931541
_cell_angle_beta   67.97601521
_cell_angle_gamma   59.83082621
_symmetry_Int_Tables_number   1
_chemical_formula_structural   DyHo3(AlPt3)6
_chemical_formula_sum   'Dy1 Ho3 Al6 Pt18'
_cell_volume   472.40559080
_cell_formula_units_Z   1
loop_
 _symmetry_equiv_pos_site_id
 _symmetry_equiv_pos_as_xyz
  1  'x, y, z'
loop_
 _atom_site_type_symbol
 _atom_site_label
 _atom_site_symmetry_multiplicity
 _atom_site_fract_x
 _atom_site_fract_y
 _atom_site_fract_z
 _atom_site_occupancy
  Dy  Dy0  1  0.414308  0.246578  0.750378  1
  Ho  Ho1  1  0.585716  0.753435  0.249621  1
  Ho  Ho2  1  0.753430  0.585715  0.749622  1
  Ho  Ho3  1  0.246557  0.414295  0.250375  1
  Al  Al4  1  0.646989  0.176985  0.999614  1
  Al  Al5  1  0.823024  0.353032  0.500394  1
  Al  Al6  1  0.353025  0.822977  0.000434  1
  Al  Al7  1  0.999981  0.500004  0.000027  1
  Al  Al8  1  0.176970  0.647016  0.499551  1
  Al  Al9  1  0.500009  0.999990  0.499979  1
  Pt  Pt10  1  0.472829  0.644083  0.576087  1
  Pt  Pt11  1  0.356059  0.527320  0.923923  1
  Pt  Pt12  1  0.858717  0.694420  0.424629  1
  Pt  Pt13  1  0.864130  0.135988  0.749991  1
  Pt  Pt14  1  0.527245  0.356178  0.423631  1
  Pt  Pt15  1  0.694553  0.858529  0.924737  1
  Pt  Pt16  1  0.917032  0.297443  0.252232  1
  Pt  Pt17  1  0.977006  0.808233  0.073272  1
  Pt  Pt18  1  0.297355  0.916917  0.752231  1
  Pt  Pt19  1  0.141154  0.305604  0.575254  1
  Pt  Pt20  1  0.808437  0.976887  0.573178  1
  Pt  Pt21  1  0.305518  0.141218  0.075572  1
  Pt  Pt22  1  0.136049  0.863956  0.249991  1
  Pt  Pt23  1  0.022807  0.191720  0.926823  1
  Pt  Pt24  1  0.082865  0.702719  0.747773  1
  Pt  Pt25  1  0.643908  0.472814  0.076161  1
  Pt  Pt26  1  0.191770  0.022985  0.426742  1
  Pt  Pt27  1  0.702556  0.082960  0.247779  1
