# generated using pymatgen
data_Dy3YGa3SiNi4
_symmetry_space_group_name_H-M   'P 1'
_cell_length_a   4.26619700
_cell_length_b   6.88350788
_cell_length_c   7.26737354
_cell_angle_alpha   91.04241291
_cell_angle_beta   90.00000000
_cell_angle_gamma   90.00000000
_symmetry_Int_Tables_number   1
_chemical_formula_structural   Dy3YGa3SiNi4
_chemical_formula_sum   'Dy3 Y1 Ga3 Si1 Ni4'
_cell_volume   213.38128313
_cell_formula_units_Z   1
loop_
 _symmetry_equiv_pos_site_id
 _symmetry_equiv_pos_as_xyz
  1  'x, y, z'
loop_
 _atom_site_type_symbol
 _atom_site_label
 _atom_site_symmetry_multiplicity
 _atom_site_fract_x
 _atom_site_fract_y
 _atom_site_fract_z
 _atom_site_occupancy
  Dy  Dy0  1  0.250000  0.485999  0.201948  1
  Dy  Dy1  1  0.750000  0.515234  0.797042  1
  Dy  Dy2  1  0.250000  0.981908  0.298713  1
  Y  Y3  1  0.750000  0.009638  0.697865  1
  Ga  Ga4  1  0.250000  0.811697  0.917375  1
  Ga  Ga5  1  0.750000  0.184652  0.083157  1
  Ga  Ga6  1  0.250000  0.308223  0.584612  1
  Si  Si7  1  0.750000  0.683366  0.416515  1
  Ni  Ni8  1  0.750000  0.791566  0.098067  1
  Ni  Ni9  1  0.250000  0.204022  0.912933  1
  Ni  Ni10  1  0.750000  0.319147  0.414408  1
  Ni  Ni11  1  0.250000  0.704547  0.577365  1
