# generated using pymatgen
data_CaTb2(PrPb2)2
_symmetry_space_group_name_H-M   'P 1'
_cell_length_a   8.24686500
_cell_length_b   8.64059000
_cell_length_c   16.24301200
_cell_angle_alpha   90.00000000
_cell_angle_beta   90.00000000
_cell_angle_gamma   90.00000000
_symmetry_Int_Tables_number   1
_chemical_formula_structural   CaTb2(PrPb2)2
_chemical_formula_sum   'Ca4 Tb8 Pr8 Pb16'
_cell_volume   1157.44096346
_cell_formula_units_Z   4
loop_
 _symmetry_equiv_pos_site_id
 _symmetry_equiv_pos_as_xyz
  1  'x, y, z'
loop_
 _atom_site_type_symbol
 _atom_site_label
 _atom_site_symmetry_multiplicity
 _atom_site_fract_x
 _atom_site_fract_y
 _atom_site_fract_z
 _atom_site_occupancy
  Ca  Ca0  1  0.167669  0.496379  0.750000  1
  Ca  Ca1  1  0.667669  0.003621  0.750000  1
  Ca  Ca2  1  0.832331  0.503621  0.250000  1
  Ca  Ca3  1  0.332331  0.996379  0.250000  1
  Tb  Tb4  1  0.335877  0.830239  0.876108  1
  Tb  Tb5  1  0.835877  0.669761  0.623892  1
  Tb  Tb6  1  0.664123  0.169761  0.376108  1
  Tb  Tb7  1  0.164123  0.330239  0.123892  1
  Tb  Tb8  1  0.664123  0.169761  0.123892  1
  Tb  Tb9  1  0.164123  0.330239  0.376108  1
  Tb  Tb10  1  0.335877  0.830239  0.623892  1
  Tb  Tb11  1  0.835877  0.669761  0.876108  1
  Pr  Pr12  1  0.495537  0.319824  0.904061  1
  Pr  Pr13  1  0.995537  0.180176  0.595939  1
  Pr  Pr14  1  0.504463  0.680176  0.404061  1
  Pr  Pr15  1  0.004463  0.819824  0.095939  1
  Pr  Pr16  1  0.504463  0.680176  0.095939  1
  Pr  Pr17  1  0.004463  0.819824  0.404061  1
  Pr  Pr18  1  0.495537  0.319824  0.595939  1
  Pr  Pr19  1  0.995537  0.180176  0.904061  1
  Pb  Pb20  1  0.319550  0.040404  0.038309  1
  Pb  Pb21  1  0.819550  0.459596  0.461691  1
  Pb  Pb22  1  0.680450  0.959596  0.538309  1
  Pb  Pb23  1  0.180450  0.540404  0.961691  1
  Pb  Pb24  1  0.680450  0.959596  0.961691  1
  Pb  Pb25  1  0.180450  0.540404  0.538309  1
  Pb  Pb26  1  0.319550  0.040404  0.461691  1
  Pb  Pb27  1  0.819550  0.459596  0.038309  1
  Pb  Pb28  1  0.532282  0.619610  0.750000  1
  Pb  Pb29  1  0.032282  0.880390  0.750000  1
  Pb  Pb30  1  0.467718  0.380390  0.250000  1
  Pb  Pb31  1  0.967718  0.119610  0.250000  1
  Pb  Pb32  1  0.301099  0.141036  0.750000  1
  Pb  Pb33  1  0.801099  0.358964  0.750000  1
  Pb  Pb34  1  0.698901  0.858964  0.250000  1
  Pb  Pb35  1  0.198901  0.641036  0.250000  1
