# generated using pymatgen
data_Er10Tl7In(PdPt)2
_symmetry_space_group_name_H-M   'P 1'
_cell_length_a   3.60122000
_cell_length_b   8.19017653
_cell_length_c   18.31580814
_cell_angle_alpha   90.12039941
_cell_angle_beta   90.00000000
_cell_angle_gamma   90.00000000
_symmetry_Int_Tables_number   1
_chemical_formula_structural   Er10Tl7In(PdPt)2
_chemical_formula_sum   'Er10 Tl7 In1 Pd2 Pt2'
_cell_volume   540.21674589
_cell_formula_units_Z   1
loop_
 _symmetry_equiv_pos_site_id
 _symmetry_equiv_pos_as_xyz
  1  'x, y, z'
loop_
 _atom_site_type_symbol
 _atom_site_label
 _atom_site_symmetry_multiplicity
 _atom_site_fract_x
 _atom_site_fract_y
 _atom_site_fract_z
 _atom_site_occupancy
  Er  Er0  1  0.000000  0.116429  0.414847  1
  Er  Er1  1  0.000000  0.882487  0.584747  1
  Er  Er2  1  0.000000  0.383612  0.913639  1
  Er  Er3  1  0.000000  0.616252  0.086180  1
  Er  Er4  1  0.000000  0.248717  0.220188  1
  Er  Er5  1  0.000000  0.751500  0.779825  1
  Er  Er6  1  0.000000  0.261400  0.720885  1
  Er  Er7  1  0.000000  0.738717  0.279338  1
  Er  Er8  1  0.000000  0.000003  0.999941  1
  Er  Er9  1  0.000000  0.500870  0.499924  1
  Tl  Tl10  1  0.500000  0.421137  0.352951  1
  Tl  Tl11  1  0.500000  0.580521  0.647281  1
  Tl  Tl12  1  0.500000  0.075801  0.851164  1
  Tl  Tl13  1  0.500000  0.924257  0.148909  1
  Tl  Tl14  1  0.500000  0.291648  0.065286  1
  Tl  Tl15  1  0.500000  0.708241  0.934736  1
  Tl  Tl16  1  0.500000  0.206207  0.566316  1
  In  In17  1  0.500000  0.794095  0.433189  1
  Pd  Pd18  1  0.500000  0.024243  0.304640  1
  Pd  Pd19  1  0.500000  0.974078  0.696137  1
  Pt  Pt20  1  0.500000  0.472888  0.803788  1
  Pt  Pt21  1  0.500000  0.526896  0.196089  1
