# generated using pymatgen
data_Hf4ZrZnBiPb2
_symmetry_space_group_name_H-M   'P 1'
_cell_length_a   8.75887301
_cell_length_b   8.75694673
_cell_length_c   5.94233500
_cell_angle_alpha   90.00000000
_cell_angle_beta   90.00000000
_cell_angle_gamma   119.99273293
_symmetry_Int_Tables_number   1
_chemical_formula_structural   Hf4ZrZnBiPb2
_chemical_formula_sum   'Hf8 Zr2 Zn2 Bi2 Pb4'
_cell_volume   394.74850962
_cell_formula_units_Z   2
loop_
 _symmetry_equiv_pos_site_id
 _symmetry_equiv_pos_as_xyz
  1  'x, y, z'
loop_
 _atom_site_type_symbol
 _atom_site_label
 _atom_site_symmetry_multiplicity
 _atom_site_fract_x
 _atom_site_fract_y
 _atom_site_fract_z
 _atom_site_occupancy
  Hf  Hf0  1  0.331860  0.665930  0.000000  1
  Hf  Hf1  1  0.666658  0.333329  0.500000  1
  Hf  Hf2  1  0.666658  0.333329  0.000000  1
  Hf  Hf3  1  0.331860  0.665930  0.500000  1
  Hf  Hf4  1  0.264432  0.999994  0.250000  1
  Hf  Hf5  1  0.264432  0.264437  0.750000  1
  Hf  Hf6  1  0.001873  0.735432  0.750000  1
  Hf  Hf7  1  0.001873  0.266441  0.250000  1
  Zr  Zr8  1  0.734857  0.733728  0.250000  1
  Zr  Zr9  1  0.734857  0.001129  0.750000  1
  Zn  Zn10  1  0.001741  0.000871  0.000000  1
  Zn  Zn11  1  0.001741  0.000871  0.500000  1
  Bi  Bi12  1  0.614222  0.000744  0.250000  1
  Bi  Bi13  1  0.614222  0.613479  0.750000  1
  Pb  Pb14  1  0.000480  0.385963  0.750000  1
  Pb  Pb15  1  0.000480  0.614518  0.250000  1
  Pb  Pb16  1  0.383877  0.383788  0.250000  1
  Pb  Pb17  1  0.383877  0.000088  0.750000  1
