# generated using pymatgen
data_Tm2Lu3Tl3S
_symmetry_space_group_name_H-M   'P 1'
_cell_length_a   8.95977500
_cell_length_b   8.95977634
_cell_length_c   6.58307300
_cell_angle_alpha   90.00000000
_cell_angle_beta   90.00000000
_cell_angle_gamma   119.97864636
_symmetry_Int_Tables_number   1
_chemical_formula_structural   Tm2Lu3Tl3S
_chemical_formula_sum   'Tm4 Lu6 Tl6 S2'
_cell_volume   457.76963719
_cell_formula_units_Z   2
loop_
 _symmetry_equiv_pos_site_id
 _symmetry_equiv_pos_as_xyz
  1  'x, y, z'
loop_
 _atom_site_type_symbol
 _atom_site_label
 _atom_site_symmetry_multiplicity
 _atom_site_fract_x
 _atom_site_fract_y
 _atom_site_fract_z
 _atom_site_occupancy
  Tm  Tm0  1  0.756740  0.756740  0.750000  1
  Tm  Tm1  1  0.243269  0.999918  0.750000  1
  Tm  Tm2  1  0.999918  0.243269  0.750000  1
  Tm  Tm3  1  0.243748  0.243748  0.250000  1
  Lu  Lu4  1  0.666892  0.333445  0.000161  1
  Lu  Lu5  1  0.333445  0.666892  0.000161  1
  Lu  Lu6  1  0.333445  0.666892  0.499839  1
  Lu  Lu7  1  0.666892  0.333445  0.499839  1
  Lu  Lu8  1  0.756531  0.000117  0.250000  1
  Lu  Lu9  1  0.000117  0.756531  0.250000  1
  Tl  Tl10  1  0.399526  0.399526  0.750000  1
  Tl  Tl11  1  0.600709  0.000102  0.750000  1
  Tl  Tl12  1  0.000102  0.600709  0.750000  1
  Tl  Tl13  1  0.601421  0.601421  0.250000  1
  Tl  Tl14  1  0.399080  0.999373  0.250000  1
  Tl  Tl15  1  0.999373  0.399080  0.250000  1
  S  S16  1  0.999395  0.999395  0.001206  1
  S  S17  1  0.999395  0.999395  0.498794  1
