# generated using pymatgen
data_Dy3Ho5(HgPt)2
_symmetry_space_group_name_H-M   'P 1'
_cell_length_a   9.63709691
_cell_length_b   9.63709606
_cell_length_c   9.63709600
_cell_angle_alpha   60.00000020
_cell_angle_beta   60.00000311
_cell_angle_gamma   60.00000115
_symmetry_Int_Tables_number   1
_chemical_formula_structural   Dy3Ho5(HgPt)2
_chemical_formula_sum   'Dy6 Ho10 Hg4 Pt4'
_cell_volume   632.88327067
_cell_formula_units_Z   2
loop_
 _symmetry_equiv_pos_site_id
 _symmetry_equiv_pos_as_xyz
  1  'x, y, z'
loop_
 _atom_site_type_symbol
 _atom_site_label
 _atom_site_symmetry_multiplicity
 _atom_site_fract_x
 _atom_site_fract_y
 _atom_site_fract_z
 _atom_site_occupancy
  Dy  Dy0  1  0.935845  0.564155  0.564155  1
  Dy  Dy1  1  0.564155  0.935845  0.935845  1
  Dy  Dy2  1  0.564155  0.935845  0.564155  1
  Dy  Dy3  1  0.935845  0.564154  0.935845  1
  Dy  Dy4  1  0.564155  0.564155  0.935845  1
  Dy  Dy5  1  0.935845  0.935845  0.564154  1
  Ho  Ho6  1  0.354183  0.354183  0.354183  1
  Ho  Ho7  1  0.354183  0.354183  0.937454  1
  Ho  Ho8  1  0.354183  0.937454  0.354183  1
  Ho  Ho9  1  0.937454  0.354183  0.354183  1
  Ho  Ho10  1  0.810239  0.189761  0.189761  1
  Ho  Ho11  1  0.189761  0.810239  0.810239  1
  Ho  Ho12  1  0.189761  0.810239  0.189761  1
  Ho  Ho13  1  0.810239  0.189761  0.810239  1
  Ho  Ho14  1  0.189761  0.189761  0.810239  1
  Ho  Ho15  1  0.810239  0.810239  0.189761  1
  Hg  Hg16  1  0.586584  0.586584  0.586584  1
  Hg  Hg17  1  0.586584  0.586584  0.240247  1
  Hg  Hg18  1  0.586584  0.240247  0.586584  1
  Hg  Hg19  1  0.240247  0.586584  0.586584  1
  Pt  Pt20  1  0.143827  0.143827  0.143827  1
  Pt  Pt21  1  0.143827  0.143827  0.568520  1
  Pt  Pt22  1  0.143827  0.568520  0.143827  1
  Pt  Pt23  1  0.568520  0.143827  0.143827  1
