# generated using pymatgen
data_YbTaB6Ru
_symmetry_space_group_name_H-M   'P 1'
_cell_length_a   3.48121300
_cell_length_b   8.92836200
_cell_length_c   11.26304700
_cell_angle_alpha   90.00000000
_cell_angle_beta   90.00000000
_cell_angle_gamma   90.00000000
_symmetry_Int_Tables_number   1
_chemical_formula_structural   YbTaB6Ru
_chemical_formula_sum   'Yb4 Ta4 B24 Ru4'
_cell_volume   350.07273168
_cell_formula_units_Z   4
loop_
 _symmetry_equiv_pos_site_id
 _symmetry_equiv_pos_as_xyz
  1  'x, y, z'
loop_
 _atom_site_type_symbol
 _atom_site_label
 _atom_site_symmetry_multiplicity
 _atom_site_fract_x
 _atom_site_fract_y
 _atom_site_fract_z
 _atom_site_occupancy
  Yb  Yb0  1  0.000000  0.324254  0.414243  1
  Yb  Yb1  1  0.000000  0.675746  0.585757  1
  Yb  Yb2  1  0.000000  0.824254  0.085757  1
  Yb  Yb3  1  0.000000  0.175746  0.914243  1
  Ta  Ta4  1  0.000000  0.947299  0.376738  1
  Ta  Ta5  1  0.000000  0.052701  0.623262  1
  Ta  Ta6  1  0.000000  0.447299  0.123262  1
  Ta  Ta7  1  0.000000  0.552701  0.876738  1
  B  B8  1  0.500000  0.555249  0.432952  1
  B  B9  1  0.500000  0.444751  0.567048  1
  B  B10  1  0.500000  0.055249  0.067048  1
  B  B11  1  0.500000  0.944751  0.932952  1
  B  B12  1  0.500000  0.754387  0.417808  1
  B  B13  1  0.500000  0.245613  0.582192  1
  B  B14  1  0.500000  0.254387  0.082192  1
  B  B15  1  0.500000  0.745613  0.917808  1
  B  B16  1  0.500000  0.799085  0.262279  1
  B  B17  1  0.500000  0.200915  0.737721  1
  B  B18  1  0.500000  0.299085  0.237721  1
  B  B19  1  0.500000  0.700915  0.762279  1
  B  B20  1  0.500000  0.631470  0.180671  1
  B  B21  1  0.500000  0.368530  0.819329  1
  B  B22  1  0.500000  0.131470  0.319329  1
  B  B23  1  0.500000  0.868530  0.680671  1
  B  B24  1  0.500000  0.983428  0.213175  1
  B  B25  1  0.500000  0.016572  0.786825  1
  B  B26  1  0.500000  0.483428  0.286825  1
  B  B27  1  0.500000  0.516572  0.713175  1
  B  B28  1  0.500000  0.599796  0.026289  1
  B  B29  1  0.500000  0.400204  0.973711  1
  B  B30  1  0.500000  0.099796  0.473711  1
  B  B31  1  0.500000  0.900204  0.526289  1
  Ru  Ru32  1  0.000000  0.646249  0.317123  1
  Ru  Ru33  1  0.000000  0.353751  0.682877  1
  Ru  Ru34  1  0.000000  0.146249  0.182877  1
  Ru  Ru35  1  0.000000  0.853751  0.817123  1
