# generated using pymatgen
data_La3Sm5(Si3Pt)4
_symmetry_space_group_name_H-M   'P 1'
_cell_length_a   8.24619600
_cell_length_b   8.24619667
_cell_length_c   8.56549400
_cell_angle_alpha   90.00000000
_cell_angle_beta   90.00000000
_cell_angle_gamma   119.99999729
_symmetry_Int_Tables_number   1
_chemical_formula_structural   La3Sm5(Si3Pt)4
_chemical_formula_sum   'La3 Sm5 Si12 Pt4'
_cell_volume   504.41779642
_cell_formula_units_Z   1
loop_
 _symmetry_equiv_pos_site_id
 _symmetry_equiv_pos_as_xyz
  1  'x, y, z'
loop_
 _atom_site_type_symbol
 _atom_site_label
 _atom_site_symmetry_multiplicity
 _atom_site_fract_x
 _atom_site_fract_y
 _atom_site_fract_z
 _atom_site_occupancy
  La  La0  1  0.499524  0.500476  0.750000  1
  La  La1  1  0.499524  0.999045  0.750000  1
  La  La2  1  0.000955  0.500476  0.750000  1
  Sm  Sm3  1  0.000000  0.000000  0.250000  1
  Sm  Sm4  1  0.000000  0.000000  0.750000  1
  Sm  Sm5  1  0.500415  0.499585  0.250000  1
  Sm  Sm6  1  0.500415  0.000831  0.250000  1
  Sm  Sm7  1  0.999169  0.499585  0.250000  1
  Si  Si8  1  0.165126  0.834874  0.496961  1
  Si  Si9  1  0.165126  0.330252  0.496961  1
  Si  Si10  1  0.669748  0.834874  0.496961  1
  Si  Si11  1  0.834861  0.165139  0.496546  1
  Si  Si12  1  0.834861  0.669722  0.496546  1
  Si  Si13  1  0.330278  0.165139  0.496546  1
  Si  Si14  1  0.834861  0.165139  0.003454  1
  Si  Si15  1  0.834861  0.669722  0.003454  1
  Si  Si16  1  0.330278  0.165139  0.003454  1
  Si  Si17  1  0.165126  0.834874  0.003039  1
  Si  Si18  1  0.165126  0.330252  0.003039  1
  Si  Si19  1  0.669748  0.834874  0.003039  1
  Pt  Pt20  1  0.333333  0.666667  0.490814  1
  Pt  Pt21  1  0.666667  0.333333  0.494074  1
  Pt  Pt22  1  0.666667  0.333333  0.005926  1
  Pt  Pt23  1  0.333333  0.666667  0.009186  1
