# generated using pymatgen
data_NdSmEr3(In2Pd)2
_symmetry_space_group_name_H-M   'P 1'
_cell_length_a   3.64706300
_cell_length_b   8.24701128
_cell_length_c   18.33531984
_cell_angle_alpha   89.63540345
_cell_angle_beta   90.00000000
_cell_angle_gamma   90.00000000
_symmetry_Int_Tables_number   1
_chemical_formula_structural   NdSmEr3(In2Pd)2
_chemical_formula_sum   'Nd2 Sm2 Er6 In8 Pd4'
_cell_volume   551.46702799
_cell_formula_units_Z   2
loop_
 _symmetry_equiv_pos_site_id
 _symmetry_equiv_pos_as_xyz
  1  'x, y, z'
loop_
 _atom_site_type_symbol
 _atom_site_label
 _atom_site_symmetry_multiplicity
 _atom_site_fract_x
 _atom_site_fract_y
 _atom_site_fract_z
 _atom_site_occupancy
  Nd  Nd0  1  0.000000  0.500000  0.500000  1
  Nd  Nd1  1  0.000000  0.000000  0.000000  1
  Sm  Sm2  1  0.000000  0.737522  0.284655  1
  Sm  Sm3  1  0.000000  0.262478  0.715345  1
  Er  Er4  1  0.000000  0.762742  0.784379  1
  Er  Er5  1  0.000000  0.237258  0.215621  1
  Er  Er6  1  0.000000  0.620051  0.085146  1
  Er  Er7  1  0.000000  0.379949  0.914854  1
  Er  Er8  1  0.000000  0.878594  0.585716  1
  Er  Er9  1  0.000000  0.121406  0.414284  1
  In  In10  1  0.500000  0.698129  0.934350  1
  In  In11  1  0.500000  0.301871  0.065650  1
  In  In12  1  0.500000  0.806773  0.435933  1
  In  In13  1  0.500000  0.193227  0.564067  1
  In  In14  1  0.500000  0.590004  0.654507  1
  In  In15  1  0.500000  0.409996  0.345493  1
  In  In16  1  0.500000  0.916856  0.153068  1
  In  In17  1  0.500000  0.083144  0.846932  1
  Pd  Pd18  1  0.500000  0.517573  0.193907  1
  Pd  Pd19  1  0.500000  0.482427  0.806093  1
  Pd  Pd20  1  0.500000  0.968238  0.696264  1
  Pd  Pd21  1  0.500000  0.031762  0.303736  1
