# generated using pymatgen
data_Ho15Tm5Bi12
_symmetry_space_group_name_H-M   'P 1'
_cell_length_a   8.21658209
_cell_length_b   9.47922501
_cell_length_c   11.98677212
_cell_angle_alpha   90.00092869
_cell_angle_beta   90.01615518
_cell_angle_gamma   90.00540038
_symmetry_Int_Tables_number   1
_chemical_formula_structural   Ho15Tm5Bi12
_chemical_formula_sum   'Ho15 Tm5 Bi12'
_cell_volume   933.61164644
_cell_formula_units_Z   1
loop_
 _symmetry_equiv_pos_site_id
 _symmetry_equiv_pos_as_xyz
  1  'x, y, z'
loop_
 _atom_site_type_symbol
 _atom_site_label
 _atom_site_symmetry_multiplicity
 _atom_site_fract_x
 _atom_site_fract_y
 _atom_site_fract_z
 _atom_site_occupancy
  Ho  Ho0  1  0.353639  0.750068  0.216424  1
  Ho  Ho1  1  0.853592  0.750008  0.283610  1
  Ho  Ho2  1  0.646297  0.250108  0.783658  1
  Ho  Ho3  1  0.146548  0.250117  0.716473  1
  Ho  Ho4  1  0.807964  0.064375  0.559022  1
  Ho  Ho5  1  0.691984  0.935565  0.058997  1
  Ho  Ho6  1  0.192047  0.564379  0.440986  1
  Ho  Ho7  1  0.476820  0.250044  0.488966  1
  Ho  Ho8  1  0.977028  0.250069  0.011008  1
  Ho  Ho9  1  0.523198  0.750080  0.511063  1
  Ho  Ho10  1  0.023244  0.749939  0.988951  1
  Ho  Ho11  1  0.314456  0.250001  0.218012  1
  Ho  Ho12  1  0.814433  0.250073  0.281928  1
  Ho  Ho13  1  0.685620  0.749926  0.781917  1
  Ho  Ho14  1  0.185550  0.750076  0.718054  1
  Tm  Tm15  1  0.691965  0.564576  0.058973  1
  Tm  Tm16  1  0.191917  0.935402  0.441016  1
  Tm  Tm17  1  0.308017  0.064739  0.941048  1
  Tm  Tm18  1  0.808068  0.435408  0.558982  1
  Tm  Tm19  1  0.307949  0.435274  0.940992  1
  Bi  Bi20  1  0.405309  0.749806  0.957403  1
  Bi  Bi21  1  0.905474  0.749626  0.542532  1
  Bi  Bi22  1  0.594368  0.250557  0.042456  1
  Bi  Bi23  1  0.094547  0.249620  0.457479  1
  Bi  Bi24  1  0.566024  0.996211  0.325677  1
  Bi  Bi25  1  0.066020  0.503832  0.174241  1
  Bi  Bi26  1  0.433904  0.496212  0.674386  1
  Bi  Bi27  1  0.933972  0.003832  0.825714  1
  Bi  Bi28  1  0.433816  0.003860  0.674342  1
  Bi  Bi29  1  0.933939  0.496184  0.825741  1
  Bi  Bi30  1  0.566107  0.503844  0.325660  1
  Bi  Bi31  1  0.066187  0.996189  0.174287  1
