# generated using pymatgen
data_Tb3Y5Hf11Si16Au
_symmetry_space_group_name_H-M   'P 1'
_cell_length_a   7.29510743
_cell_length_b   7.29465817
_cell_length_c   13.26964514
_cell_angle_alpha   89.76811414
_cell_angle_beta   90.22285401
_cell_angle_gamma   89.82470743
_symmetry_Int_Tables_number   1
_chemical_formula_structural   Tb3Y5Hf11Si16Au
_chemical_formula_sum   'Tb3 Y5 Hf11 Si16 Au1'
_cell_volume   706.13388281
_cell_formula_units_Z   1
loop_
 _symmetry_equiv_pos_site_id
 _symmetry_equiv_pos_as_xyz
  1  'x, y, z'
loop_
 _atom_site_type_symbol
 _atom_site_label
 _atom_site_symmetry_multiplicity
 _atom_site_fract_x
 _atom_site_fract_y
 _atom_site_fract_z
 _atom_site_occupancy
  Tb  Tb0  1  0.495460  0.155085  0.535185  1
  Tb  Tb1  1  0.345685  0.998032  0.789520  1
  Tb  Tb2  1  0.655162  0.004935  0.283396  1
  Y  Y3  1  0.997985  0.345779  0.210549  1
  Y  Y4  1  0.004929  0.655051  0.716604  1
  Y  Y5  1  0.155012  0.495564  0.464783  1
  Y  Y6  1  0.498268  0.848358  0.032669  1
  Y  Y7  1  0.848386  0.498266  0.967288  1
  Hf  Hf8  1  0.824726  0.824709  0.499984  1
  Hf  Hf9  1  0.322921  0.676964  0.249046  1
  Hf  Hf10  1  0.676957  0.322960  0.750927  1
  Hf  Hf11  1  0.145531  0.996303  0.373890  1
  Hf  Hf12  1  0.857137  0.003299  0.878932  1
  Hf  Hf13  1  0.504349  0.646784  0.626458  1
  Hf  Hf14  1  0.355377  0.491600  0.877807  1
  Hf  Hf15  1  0.491516  0.355440  0.122197  1
  Hf  Hf16  1  0.646775  0.504358  0.373581  1
  Hf  Hf17  1  0.996426  0.145474  0.626198  1
  Hf  Hf18  1  0.003240  0.857178  0.121078  1
  Si  Si19  1  0.359830  0.296125  0.316311  1
  Si  Si20  1  0.639833  0.704249  0.819754  1
  Si  Si21  1  0.207033  0.861261  0.568579  1
  Si  Si22  1  0.131441  0.774641  0.927219  1
  Si  Si23  1  0.774857  0.131459  0.072781  1
  Si  Si24  1  0.861293  0.207047  0.431460  1
  Si  Si25  1  0.296033  0.359885  0.683718  1
  Si  Si26  1  0.704314  0.639734  0.180220  1
  Si  Si27  1  0.295039  0.052096  0.188897  1
  Si  Si28  1  0.705055  0.950314  0.686861  1
  Si  Si29  1  0.449976  0.795249  0.435532  1
  Si  Si30  1  0.210408  0.566596  0.064210  1
  Si  Si31  1  0.566677  0.210432  0.935761  1
  Si  Si32  1  0.795338  0.450074  0.564419  1
  Si  Si33  1  0.052109  0.295186  0.811048  1
  Si  Si34  1  0.950393  0.705008  0.313115  1
  Au  Au35  1  0.174527  0.174503  0.000025  1
