# generated using pymatgen
data_Pa5Mn(ReC4)2
_symmetry_space_group_name_H-M   'P 1'
_cell_length_a   11.28574100
_cell_length_b   11.28574100
_cell_length_c   3.41385800
_cell_angle_alpha   90.00000000
_cell_angle_beta   90.00000000
_cell_angle_gamma   90.00000000
_symmetry_Int_Tables_number   1
_chemical_formula_structural   Pa5Mn(ReC4)2
_chemical_formula_sum   'Pa10 Mn2 Re4 C16'
_cell_volume   434.81609477
_cell_formula_units_Z   2
loop_
 _symmetry_equiv_pos_site_id
 _symmetry_equiv_pos_as_xyz
  1  'x, y, z'
loop_
 _atom_site_type_symbol
 _atom_site_label
 _atom_site_symmetry_multiplicity
 _atom_site_fract_x
 _atom_site_fract_y
 _atom_site_fract_z
 _atom_site_occupancy
  Pa  Pa0  1  0.000000  0.500000  0.000000  1
  Pa  Pa1  1  0.277529  0.543077  0.500000  1
  Pa  Pa2  1  0.722471  0.456923  0.500000  1
  Pa  Pa3  1  0.543077  0.722471  0.500000  1
  Pa  Pa4  1  0.777529  0.956923  0.500000  1
  Pa  Pa5  1  0.222471  0.043077  0.500000  1
  Pa  Pa6  1  0.956923  0.222471  0.500000  1
  Pa  Pa7  1  0.456923  0.277529  0.500000  1
  Pa  Pa8  1  0.500000  0.000000  0.000000  1
  Pa  Pa9  1  0.043077  0.777529  0.500000  1
  Mn  Mn10  1  0.500000  0.500000  0.000000  1
  Mn  Mn11  1  0.000000  0.000000  0.000000  1
  Re  Re12  1  0.204278  0.295722  0.000000  1
  Re  Re13  1  0.704278  0.204278  0.000000  1
  Re  Re14  1  0.295722  0.795722  0.000000  1
  Re  Re15  1  0.795722  0.704278  0.000000  1
  C  C16  1  0.352232  0.404855  0.000000  1
  C  C17  1  0.619003  0.119003  0.500000  1
  C  C18  1  0.904855  0.852232  0.000000  1
  C  C19  1  0.652995  0.847005  0.000000  1
  C  C20  1  0.347005  0.152995  0.000000  1
  C  C21  1  0.119003  0.380997  0.500000  1
  C  C22  1  0.147768  0.904855  0.000000  1
  C  C23  1  0.847005  0.347005  0.000000  1
  C  C24  1  0.647768  0.595145  0.000000  1
  C  C25  1  0.595145  0.352232  0.000000  1
  C  C26  1  0.880997  0.619003  0.500000  1
  C  C27  1  0.852232  0.095145  0.000000  1
  C  C28  1  0.380997  0.880997  0.500000  1
  C  C29  1  0.152995  0.652995  0.000000  1
  C  C30  1  0.095145  0.147768  0.000000  1
  C  C31  1  0.404855  0.647768  0.000000  1
