# generated using pymatgen
data_Tb4Y3FeBr12
_symmetry_space_group_name_H-M   'P 1'
_cell_length_a   9.15265073
_cell_length_b   9.24837331
_cell_length_c   9.25595600
_cell_angle_alpha   107.06972809
_cell_angle_beta   106.94513185
_cell_angle_gamma   106.63877496
_symmetry_Int_Tables_number   1
_chemical_formula_structural   Tb4Y3FeBr12
_chemical_formula_sum   'Tb4 Y3 Fe1 Br12'
_cell_volume   654.53463321
_cell_formula_units_Z   1
loop_
 _symmetry_equiv_pos_site_id
 _symmetry_equiv_pos_as_xyz
  1  'x, y, z'
loop_
 _atom_site_type_symbol
 _atom_site_label
 _atom_site_symmetry_multiplicity
 _atom_site_fract_x
 _atom_site_fract_y
 _atom_site_fract_z
 _atom_site_occupancy
  Tb  Tb0  1  0.294177  0.019858  0.095320  1
  Tb  Tb1  1  0.901012  0.693578  0.977923  1
  Tb  Tb2  1  0.980105  0.899828  0.693805  1
  Tb  Tb3  1  0.706625  0.978931  0.905689  1
  Y  Y4  1  0.499042  0.500914  0.500031  1
  Y  Y5  1  0.098817  0.304630  0.021030  1
  Y  Y6  1  0.020988  0.100203  0.305798  1
  Fe  Fe7  1  0.000496  0.998926  0.999631  1
  Br  Br8  1  0.461406  0.384252  0.167174  1
  Br  Br9  1  0.163898  0.463239  0.383880  1
  Br  Br10  1  0.383891  0.167893  0.461563  1
  Br  Br11  1  0.536566  0.615766  0.832689  1
  Br  Br12  1  0.832854  0.535484  0.613288  1
  Br  Br13  1  0.615145  0.833737  0.539640  1
  Br  Br14  1  0.777798  0.318684  0.927910  1
  Br  Br15  1  0.928999  0.780097  0.321162  1
  Br  Br16  1  0.323543  0.931835  0.781029  1
  Br  Br17  1  0.223342  0.678476  0.071668  1
  Br  Br18  1  0.070976  0.222265  0.678342  1
  Br  Br19  1  0.680322  0.071403  0.222426  1
