# generated using pymatgen
data_Sm5Ti3(Co4P3)4
_symmetry_space_group_name_H-M   'P 1'
_cell_length_a   12.22369800
_cell_length_b   12.22369764
_cell_length_c   3.71696500
_cell_angle_alpha   90.00000000
_cell_angle_beta   90.00000000
_cell_angle_gamma   120.00000639
_symmetry_Int_Tables_number   1
_chemical_formula_structural   Sm5Ti3(Co4P3)4
_chemical_formula_sum   'Sm5 Ti3 Co16 P12'
_cell_volume   480.97697406
_cell_formula_units_Z   1
loop_
 _symmetry_equiv_pos_site_id
 _symmetry_equiv_pos_as_xyz
  1  'x, y, z'
loop_
 _atom_site_type_symbol
 _atom_site_label
 _atom_site_symmetry_multiplicity
 _atom_site_fract_x
 _atom_site_fract_y
 _atom_site_fract_z
 _atom_site_occupancy
  Sm  Sm0  1  0.185875  0.185875  0.500000  1
  Sm  Sm1  1  0.814125  0.000000  0.500000  1
  Sm  Sm2  1  0.000000  0.814125  0.500000  1
  Sm  Sm3  1  0.333333  0.666667  0.000000  1
  Sm  Sm4  1  0.666667  0.333333  0.000000  1
  Ti  Ti5  1  0.561847  0.561847  0.000000  1
  Ti  Ti6  1  0.438153  0.000000  0.000000  1
  Ti  Ti7  1  0.000000  0.438153  0.000000  1
  Co  Co8  1  0.717006  0.717006  0.500000  1
  Co  Co9  1  0.282994  0.000000  0.500000  1
  Co  Co10  1  0.000000  0.282994  0.500000  1
  Co  Co11  1  0.177405  0.376595  0.000000  1
  Co  Co12  1  0.623405  0.800810  0.000000  1
  Co  Co13  1  0.199190  0.822595  0.000000  1
  Co  Co14  1  0.800810  0.623405  0.000000  1
  Co  Co15  1  0.822595  0.199190  0.000000  1
  Co  Co16  1  0.376595  0.177405  0.000000  1
  Co  Co17  1  0.356318  0.480425  0.500000  1
  Co  Co18  1  0.519575  0.875893  0.500000  1
  Co  Co19  1  0.124107  0.643682  0.500000  1
  Co  Co20  1  0.875893  0.519575  0.500000  1
  Co  Co21  1  0.643682  0.124107  0.500000  1
  Co  Co22  1  0.480425  0.356318  0.500000  1
  Co  Co23  1  0.000000  0.000000  0.000000  1
  P  P24  1  0.818576  0.818576  0.000000  1
  P  P25  1  0.181424  0.000000  0.000000  1
  P  P26  1  0.000000  0.181424  0.000000  1
  P  P27  1  0.166470  0.478414  0.500000  1
  P  P28  1  0.521586  0.688057  0.500000  1
  P  P29  1  0.311943  0.833530  0.500000  1
  P  P30  1  0.688057  0.521586  0.500000  1
  P  P31  1  0.833530  0.311943  0.500000  1
  P  P32  1  0.478414  0.166470  0.500000  1
  P  P33  1  0.362354  0.362354  0.000000  1
  P  P34  1  0.637646  0.000000  0.000000  1
  P  P35  1  0.000000  0.637646  0.000000  1
