# generated using pymatgen
data_Nd5ErAl24Os5Au3
_symmetry_space_group_name_H-M   'P 1'
_cell_length_a   9.00014275
_cell_length_b   8.95379334
_cell_length_c   9.64213834
_cell_angle_alpha   89.90493219
_cell_angle_beta   90.03139219
_cell_angle_gamma   119.60632381
_symmetry_Int_Tables_number   1
_chemical_formula_structural   Nd5ErAl24Os5Au3
_chemical_formula_sum   'Nd5 Er1 Al24 Os5 Au3'
_cell_volume   675.56792728
_cell_formula_units_Z   1
loop_
 _symmetry_equiv_pos_site_id
 _symmetry_equiv_pos_as_xyz
  1  'x, y, z'
loop_
 _atom_site_type_symbol
 _atom_site_label
 _atom_site_symmetry_multiplicity
 _atom_site_fract_x
 _atom_site_fract_y
 _atom_site_fract_z
 _atom_site_occupancy
  Nd  Nd0  1  0.188997  0.378840  0.254558  1
  Nd  Nd1  1  0.811425  0.620381  0.745414  1
  Nd  Nd2  1  0.621850  0.810668  0.247868  1
  Nd  Nd3  1  0.378149  0.188539  0.752531  1
  Nd  Nd4  1  0.191301  0.807287  0.249184  1
  Er  Er5  1  0.807072  0.198185  0.749028  1
  Al  Al6  1  0.321959  0.659800  0.026963  1
  Al  Al7  1  0.678067  0.338078  0.968432  1
  Al  Al8  1  0.672307  0.327340  0.527885  1
  Al  Al9  1  0.328398  0.671874  0.475481  1
  Al  Al10  1  0.149237  0.322026  0.578295  1
  Al  Al11  1  0.848693  0.676180  0.423794  1
  Al  Al12  1  0.679024  0.852364  0.575028  1
  Al  Al13  1  0.848868  0.675852  0.076151  1
  Al  Al14  1  0.322886  0.150220  0.427671  1
  Al  Al15  1  0.148401  0.321762  0.921277  1
  Al  Al16  1  0.164706  0.835594  0.575957  1
  Al  Al17  1  0.318153  0.159760  0.080523  1
  Al  Al18  1  0.835699  0.164424  0.427293  1
  Al  Al19  1  0.683089  0.842831  0.917394  1
  Al  Al20  1  0.847153  0.171854  0.078334  1
  Al  Al21  1  0.152396  0.827602  0.918619  1
  Al  Al22  1  0.567616  0.129096  0.258094  1
  Al  Al23  1  0.435837  0.872884  0.743234  1
  Al  Al24  1  0.877477  0.436603  0.250187  1
  Al  Al25  1  0.121134  0.560576  0.749816  1
  Al  Al26  1  0.568114  0.433867  0.250258  1
  Al  Al27  1  0.432314  0.566180  0.749920  1
  Al  Al28  1  0.997309  0.999063  0.250546  1
  Al  Al29  1  0.999159  0.003783  0.749457  1
  Os  Os30  1  0.998986  0.498088  0.998495  1
  Os  Os31  1  0.501559  0.000842  0.501433  1
  Os  Os32  1  0.999203  0.498343  0.501525  1
  Os  Os33  1  0.999977  0.999765  0.999704  1
  Os  Os34  1  0.000208  0.999779  0.500269  1
  Au  Au35  1  0.501790  0.000567  0.999226  1
  Au  Au36  1  0.500909  0.499600  0.999667  1
  Au  Au37  1  0.500576  0.499503  0.500488  1
