# generated using pymatgen
data_Li6Sn5PRh12
_symmetry_space_group_name_H-M   'P 1'
_cell_length_a   4.35121501
_cell_length_b   6.17412500
_cell_length_c   12.93279300
_cell_angle_alpha   90.00001814
_cell_angle_beta   89.99643387
_cell_angle_gamma   89.99997755
_symmetry_Int_Tables_number   1
_chemical_formula_structural   Li6Sn5PRh12
_chemical_formula_sum   'Li6 Sn5 P1 Rh12'
_cell_volume   347.43877646
_cell_formula_units_Z   1
loop_
 _symmetry_equiv_pos_site_id
 _symmetry_equiv_pos_as_xyz
  1  'x, y, z'
loop_
 _atom_site_type_symbol
 _atom_site_label
 _atom_site_symmetry_multiplicity
 _atom_site_fract_x
 _atom_site_fract_y
 _atom_site_fract_z
 _atom_site_occupancy
  Li  Li0  1  0.000004  0.499998  0.999999  1
  Li  Li1  1  0.499866  0.999992  0.169787  1
  Li  Li2  1  0.999897  0.500004  0.327387  1
  Li  Li3  1  0.500001  0.999997  0.499996  1
  Li  Li4  1  0.000102  0.500001  0.672611  1
  Li  Li5  1  0.500133  0.999993  0.830211  1
  Sn  Sn6  1  0.499960  0.500005  0.160845  1
  Sn  Sn7  1  0.999933  0.999998  0.330072  1
  Sn  Sn8  1  0.500015  0.499996  0.499999  1
  Sn  Sn9  1  0.000082  0.999992  0.669919  1
  Sn  Sn10  1  0.500040  0.500009  0.839160  1
  P  P11  1  0.000000  0.000001  0.000000  1
  Rh  Rh12  1  0.500003  0.222506  0.000000  1
  Rh  Rh13  1  0.500002  0.777497  0.000000  1
  Rh  Rh14  1  0.999928  0.234404  0.151542  1
  Rh  Rh15  1  0.999927  0.765591  0.151543  1
  Rh  Rh16  1  0.499823  0.252106  0.329668  1
  Rh  Rh17  1  0.499821  0.747893  0.329666  1
  Rh  Rh18  1  0.999980  0.249302  0.499995  1
  Rh  Rh19  1  0.999982  0.750697  0.500000  1
  Rh  Rh20  1  0.500179  0.252069  0.670362  1
  Rh  Rh21  1  0.500175  0.747939  0.670362  1
  Rh  Rh22  1  0.000075  0.234411  0.848440  1
  Rh  Rh23  1  0.000073  0.765592  0.848437  1
