# generated using pymatgen
data_Ho2Ni3Ir
_symmetry_space_group_name_H-M   'P 1'
_cell_length_a   5.21651202
_cell_length_b   5.06145867
_cell_length_c   5.06145800
_cell_angle_alpha   60.00000440
_cell_angle_beta   60.97847586
_cell_angle_gamma   60.97848131
_symmetry_Int_Tables_number   1
_chemical_formula_structural   Ho2Ni3Ir
_chemical_formula_sum   'Ho2 Ni3 Ir1'
_cell_volume   95.87022725
_cell_formula_units_Z   1
loop_
 _symmetry_equiv_pos_site_id
 _symmetry_equiv_pos_as_xyz
  1  'x, y, z'
loop_
 _atom_site_type_symbol
 _atom_site_label
 _atom_site_symmetry_multiplicity
 _atom_site_fract_x
 _atom_site_fract_y
 _atom_site_fract_z
 _atom_site_occupancy
  Ho  Ho0  1  0.754089  0.748637  0.748637  1
  Ho  Ho1  1  0.495911  0.501363  0.501363  1
  Ni  Ni2  1  0.125000  0.125000  0.625000  1
  Ni  Ni3  1  0.125000  0.625000  0.125000  1
  Ni  Ni4  1  0.125000  0.125000  0.125000  1
  Ir  Ir5  1  0.625000  0.125000  0.125000  1
