# generated using pymatgen
data_Y3Mg3ZnSnPb
_symmetry_space_group_name_H-M   'P 1'
_cell_length_a   7.53165400
_cell_length_b   7.53165340
_cell_length_c   4.53373800
_cell_angle_alpha   90.00000000
_cell_angle_beta   90.00000000
_cell_angle_gamma   120.00000265
_symmetry_Int_Tables_number   1
_chemical_formula_structural   Y3Mg3ZnSnPb
_chemical_formula_sum   'Y3 Mg3 Zn1 Sn1 Pb1'
_cell_volume   222.72436301
_cell_formula_units_Z   1
loop_
 _symmetry_equiv_pos_site_id
 _symmetry_equiv_pos_as_xyz
  1  'x, y, z'
loop_
 _atom_site_type_symbol
 _atom_site_label
 _atom_site_symmetry_multiplicity
 _atom_site_fract_x
 _atom_site_fract_y
 _atom_site_fract_z
 _atom_site_occupancy
  Y  Y0  1  0.003346  0.593434  0.000000  1
  Y  Y1  1  0.406566  0.409912  0.000000  1
  Y  Y2  1  0.590088  0.996654  0.000000  1
  Mg  Mg3  1  0.765400  0.767392  0.500000  1
  Mg  Mg4  1  0.232608  0.998008  0.500000  1
  Mg  Mg5  1  0.001992  0.234600  0.500000  1
  Zn  Zn6  1  0.000000  0.000000  0.000000  1
  Sn  Sn7  1  0.333333  0.666667  0.500000  1
  Pb  Pb8  1  0.666667  0.333333  0.500000  1
