# generated using pymatgen
data_Cs6TbYI12
_symmetry_space_group_name_H-M   'P 1'
_cell_length_a   10.69471081
_cell_length_b   10.68958952
_cell_length_c   8.86762300
_cell_angle_alpha   90.00000000
_cell_angle_beta   90.00000000
_cell_angle_gamma   89.94878010
_symmetry_Int_Tables_number   1
_chemical_formula_structural   Cs6TbYI12
_chemical_formula_sum   'Cs6 Tb1 Y1 I12'
_cell_volume   1013.76459982
_cell_formula_units_Z   1
loop_
 _symmetry_equiv_pos_site_id
 _symmetry_equiv_pos_as_xyz
  1  'x, y, z'
loop_
 _atom_site_type_symbol
 _atom_site_label
 _atom_site_symmetry_multiplicity
 _atom_site_fract_x
 _atom_site_fract_y
 _atom_site_fract_z
 _atom_site_occupancy
  Cs  Cs0  1  0.000000  0.000000  0.500000  1
  Cs  Cs1  1  0.000000  0.000000  0.000000  1
  Cs  Cs2  1  0.233926  0.586506  0.500000  1
  Cs  Cs3  1  0.766074  0.413494  0.500000  1
  Cs  Cs4  1  0.413038  0.232494  0.000000  1
  Cs  Cs5  1  0.586962  0.767506  0.000000  1
  Tb  Tb6  1  0.000000  0.500000  0.000000  1
  Y  Y7  1  0.500000  0.000000  0.500000  1
  I  I8  1  0.694197  0.058482  0.743522  1
  I  I9  1  0.305803  0.941518  0.743522  1
  I  I10  1  0.941096  0.694753  0.244115  1
  I  I11  1  0.058904  0.305247  0.244115  1
  I  I12  1  0.305803  0.941518  0.256478  1
  I  I13  1  0.694197  0.058482  0.256478  1
  I  I14  1  0.058904  0.305247  0.755885  1
  I  I15  1  0.941096  0.694753  0.755885  1
  I  I16  1  0.570612  0.725580  0.500000  1
  I  I17  1  0.429388  0.274420  0.500000  1
  I  I18  1  0.276012  0.569965  0.000000  1
  I  I19  1  0.723988  0.430035  0.000000  1
