# generated using pymatgen
data_SmPa(WN3)2
_symmetry_space_group_name_H-M   'P 1'
_cell_length_a   5.47982500
_cell_length_b   5.70150900
_cell_length_c   7.90491500
_cell_angle_alpha   90.00000000
_cell_angle_beta   90.00000000
_cell_angle_gamma   90.00000000
_symmetry_Int_Tables_number   1
_chemical_formula_structural   SmPa(WN3)2
_chemical_formula_sum   'Sm2 Pa2 W4 N12'
_cell_volume   246.97540597
_cell_formula_units_Z   2
loop_
 _symmetry_equiv_pos_site_id
 _symmetry_equiv_pos_as_xyz
  1  'x, y, z'
loop_
 _atom_site_type_symbol
 _atom_site_label
 _atom_site_symmetry_multiplicity
 _atom_site_fract_x
 _atom_site_fract_y
 _atom_site_fract_z
 _atom_site_occupancy
  Sm  Sm0  1  0.509987  0.553529  0.750000  1
  Sm  Sm1  1  0.990013  0.053529  0.750000  1
  Pa  Pa2  1  0.491103  0.429863  0.250000  1
  Pa  Pa3  1  0.008897  0.929863  0.250000  1
  W  W4  1  0.505101  0.999376  0.504603  1
  W  W5  1  0.994899  0.499376  0.995397  1
  W  W6  1  0.994899  0.499376  0.504603  1
  W  W7  1  0.505101  0.999376  0.995397  1
  N  N8  1  0.700143  0.294937  0.538926  1
  N  N9  1  0.302523  0.698192  0.059403  1
  N  N10  1  0.197477  0.198192  0.059403  1
  N  N11  1  0.426085  0.987964  0.750000  1
  N  N12  1  0.883527  0.543634  0.250000  1
  N  N13  1  0.302523  0.698192  0.440597  1
  N  N14  1  0.799857  0.794937  0.961074  1
  N  N15  1  0.700143  0.294937  0.961074  1
  N  N16  1  0.799857  0.794937  0.538926  1
  N  N17  1  0.073915  0.487964  0.750000  1
  N  N18  1  0.197477  0.198192  0.440597  1
  N  N19  1  0.616473  0.043634  0.250000  1
