# generated using pymatgen
data_Nd5Sm3(Sc3Pt4)4
_symmetry_space_group_name_H-M   'P 1'
_cell_length_a   7.54668907
_cell_length_b   7.47246411
_cell_length_c   13.79682828
_cell_angle_alpha   89.98135212
_cell_angle_beta   90.01382382
_cell_angle_gamma   90.00607436
_symmetry_Int_Tables_number   1
_chemical_formula_structural   Nd5Sm3(Sc3Pt4)4
_chemical_formula_sum   'Nd5 Sm3 Sc12 Pt16'
_cell_volume   778.03568315
_cell_formula_units_Z   1
loop_
 _symmetry_equiv_pos_site_id
 _symmetry_equiv_pos_as_xyz
  1  'x, y, z'
loop_
 _atom_site_type_symbol
 _atom_site_label
 _atom_site_symmetry_multiplicity
 _atom_site_fract_x
 _atom_site_fract_y
 _atom_site_fract_z
 _atom_site_occupancy
  Nd  Nd0  1  0.009745  0.173584  0.096726  1
  Nd  Nd1  1  0.990209  0.826398  0.903368  1
  Nd  Nd2  1  0.490268  0.673618  0.903350  1
  Nd  Nd3  1  0.989946  0.826497  0.596395  1
  Nd  Nd4  1  0.509721  0.326339  0.096716  1
  Sm  Sm5  1  0.010456  0.174366  0.402828  1
  Sm  Sm6  1  0.510446  0.326023  0.403028  1
  Sm  Sm7  1  0.489539  0.673822  0.596967  1
  Sc  Sc8  1  0.164524  0.495706  0.749680  1
  Sc  Sc9  1  0.835652  0.504106  0.250487  1
  Sc  Sc10  1  0.335712  0.995959  0.250497  1
  Sc  Sc11  1  0.663820  0.004226  0.749687  1
  Sc  Sc12  1  0.332699  0.164558  0.624221  1
  Sc  Sc13  1  0.667535  0.835917  0.375763  1
  Sc  Sc14  1  0.168069  0.663870  0.375561  1
  Sc  Sc15  1  0.667569  0.835972  0.124969  1
  Sc  Sc16  1  0.832152  0.335938  0.624189  1
  Sc  Sc17  1  0.332451  0.164046  0.875111  1
  Sc  Sc18  1  0.832401  0.336139  0.875123  1
  Sc  Sc19  1  0.167584  0.664042  0.124924  1
  Pt  Pt20  1  0.032909  0.134277  0.749978  1
  Pt  Pt21  1  0.967351  0.866432  0.250462  1
  Pt  Pt22  1  0.467341  0.633591  0.250390  1
  Pt  Pt23  1  0.532592  0.366309  0.749599  1
  Pt  Pt24  1  0.293802  0.862523  0.749313  1
  Pt  Pt25  1  0.706980  0.137582  0.251114  1
  Pt  Pt26  1  0.206926  0.362428  0.251091  1
  Pt  Pt27  1  0.792365  0.636764  0.749526  1
  Pt  Pt28  1  0.168437  0.454680  0.544800  1
  Pt  Pt29  1  0.831565  0.543331  0.454599  1
  Pt  Pt30  1  0.332328  0.956001  0.454682  1
  Pt  Pt31  1  0.832724  0.545379  0.045241  1
  Pt  Pt32  1  0.666834  0.045063  0.544815  1
  Pt  Pt33  1  0.167334  0.454526  0.954787  1
  Pt  Pt34  1  0.667251  0.045361  0.954745  1
  Pt  Pt35  1  0.332764  0.954628  0.045267  1
