# generated using pymatgen
data_HoTm19PdRh11
_symmetry_space_group_name_H-M   'P 1'
_cell_length_a   10.76010115
_cell_length_b   10.76014389
_cell_length_c   6.28889300
_cell_angle_alpha   90.00525027
_cell_angle_beta   90.00956873
_cell_angle_gamma   90.09191612
_symmetry_Int_Tables_number   1
_chemical_formula_structural   HoTm19PdRh11
_chemical_formula_sum   'Ho1 Tm19 Pd1 Rh11'
_cell_volume   728.12856970
_cell_formula_units_Z   1
loop_
 _symmetry_equiv_pos_site_id
 _symmetry_equiv_pos_as_xyz
  1  'x, y, z'
loop_
 _atom_site_type_symbol
 _atom_site_label
 _atom_site_symmetry_multiplicity
 _atom_site_fract_x
 _atom_site_fract_y
 _atom_site_fract_z
 _atom_site_occupancy
  Ho  Ho0  1  0.501907  0.497952  0.498997  1
  Tm  Tm1  1  0.290747  0.088814  0.378340  1
  Tm  Tm2  1  0.290463  0.915146  0.878816  1
  Tm  Tm3  1  0.709230  0.088623  0.878026  1
  Tm  Tm4  1  0.709121  0.911501  0.378216  1
  Tm  Tm5  1  0.591240  0.792188  0.879345  1
  Tm  Tm6  1  0.589097  0.208212  0.377184  1
  Tm  Tm7  1  0.412681  0.793597  0.373172  1
  Tm  Tm8  1  0.411280  0.209344  0.877664  1
  Tm  Tm9  1  0.207616  0.408604  0.620811  1
  Tm  Tm10  1  0.206604  0.587095  0.126751  1
  Tm  Tm11  1  0.791517  0.411095  0.122698  1
  Tm  Tm12  1  0.790872  0.588885  0.622519  1
  Tm  Tm13  1  0.911234  0.709246  0.121741  1
  Tm  Tm14  1  0.911345  0.290756  0.621848  1
  Tm  Tm15  1  0.084957  0.709508  0.621074  1
  Tm  Tm16  1  0.088457  0.290870  0.121891  1
  Tm  Tm17  1  0.999866  0.000206  0.499755  1
  Tm  Tm18  1  0.999796  0.000142  0.000240  1
  Tm  Tm19  1  0.502102  0.498028  0.001091  1
  Pd  Pd20  1  0.344619  0.655477  0.751022  1
  Rh  Rh21  1  0.845882  0.154076  0.249966  1
  Rh  Rh22  1  0.846081  0.845953  0.749702  1
  Rh  Rh23  1  0.153945  0.154024  0.750187  1
  Rh  Rh24  1  0.154762  0.845306  0.250028  1
  Rh  Rh25  1  0.655061  0.344754  0.750820  1
  Rh  Rh26  1  0.654465  0.654935  0.248850  1
  Rh  Rh27  1  0.344799  0.345862  0.249285  1
  Rh  Rh28  1  0.499737  0.999710  0.124276  1
  Rh  Rh29  1  0.499985  0.999783  0.624923  1
  Rh  Rh30  1  0.000331  0.500023  0.874949  1
  Rh  Rh31  1  0.000208  0.500283  0.375814  1
