# generated using pymatgen
data_Tm4LuIn3Hg
_symmetry_space_group_name_H-M   'P 1'
_cell_length_a   9.13785500
_cell_length_b   9.13785513
_cell_length_c   6.62595400
_cell_angle_alpha   90.00000000
_cell_angle_beta   90.00000000
_cell_angle_gamma   119.99999592
_symmetry_Int_Tables_number   1
_chemical_formula_structural   Tm4LuIn3Hg
_chemical_formula_sum   'Tm8 Lu2 In6 Hg2'
_cell_volume   479.14570192
_cell_formula_units_Z   2
loop_
 _symmetry_equiv_pos_site_id
 _symmetry_equiv_pos_as_xyz
  1  'x, y, z'
loop_
 _atom_site_type_symbol
 _atom_site_label
 _atom_site_symmetry_multiplicity
 _atom_site_fract_x
 _atom_site_fract_y
 _atom_site_fract_z
 _atom_site_occupancy
  Tm  Tm0  1  0.333333  0.666667  0.500000  1
  Tm  Tm1  1  0.666667  0.333333  0.500000  1
  Tm  Tm2  1  0.288019  0.000000  0.750108  1
  Tm  Tm3  1  0.711981  0.000000  0.249892  1
  Tm  Tm4  1  0.000000  0.288019  0.750108  1
  Tm  Tm5  1  0.000000  0.711981  0.249892  1
  Tm  Tm6  1  0.711981  0.711981  0.750108  1
  Tm  Tm7  1  0.288019  0.288019  0.249892  1
  Lu  Lu8  1  0.666667  0.333333  0.000000  1
  Lu  Lu9  1  0.333333  0.666667  0.000000  1
  In  In10  1  0.625569  0.000000  0.750037  1
  In  In11  1  0.374431  0.000000  0.249963  1
  In  In12  1  0.000000  0.625569  0.750037  1
  In  In13  1  0.000000  0.374431  0.249963  1
  In  In14  1  0.374431  0.374431  0.750037  1
  In  In15  1  0.625569  0.625569  0.249963  1
  Hg  Hg16  1  0.000000  0.000000  0.500000  1
  Hg  Hg17  1  0.000000  0.000000  0.000000  1
