# generated using pymatgen
data_Yb4Zr2GaRuO12
_symmetry_space_group_name_H-M   'P 1'
_cell_length_a   5.45571195
_cell_length_b   5.70578277
_cell_length_c   7.79136435
_cell_angle_alpha   88.65902057
_cell_angle_beta   89.70601027
_cell_angle_gamma   89.86937467
_symmetry_Int_Tables_number   1
_chemical_formula_structural   Yb4Zr2GaRuO12
_chemical_formula_sum   'Yb4 Zr2 Ga1 Ru1 O12'
_cell_volume   242.46803406
_cell_formula_units_Z   1
loop_
 _symmetry_equiv_pos_site_id
 _symmetry_equiv_pos_as_xyz
  1  'x, y, z'
loop_
 _atom_site_type_symbol
 _atom_site_label
 _atom_site_symmetry_multiplicity
 _atom_site_fract_x
 _atom_site_fract_y
 _atom_site_fract_z
 _atom_site_occupancy
  Yb  Yb0  1  0.013027  0.440045  0.268045  1
  Yb  Yb1  1  0.986973  0.559955  0.731955  1
  Yb  Yb2  1  0.518093  0.065629  0.732661  1
  Yb  Yb3  1  0.481907  0.934371  0.267339  1
  Zr  Zr4  1  0.000000  0.000000  0.000000  1
  Zr  Zr5  1  0.500000  0.500000  0.000000  1
  Ga  Ga6  1  0.500000  0.500000  0.500000  1
  Ru  Ru7  1  0.000000  0.000000  0.500000  1
  O  O8  1  0.313409  0.188368  0.060747  1
  O  O9  1  0.686591  0.811632  0.939253  1
  O  O10  1  0.815174  0.310787  0.938682  1
  O  O11  1  0.706941  0.803400  0.551344  1
  O  O12  1  0.184826  0.689213  0.061318  1
  O  O13  1  0.293059  0.196600  0.448656  1
  O  O14  1  0.191561  0.710629  0.448030  1
  O  O15  1  0.808439  0.289371  0.551970  1
  O  O16  1  0.598924  0.534183  0.263467  1
  O  O17  1  0.401076  0.465817  0.736533  1
  O  O18  1  0.108520  0.962077  0.740780  1
  O  O19  1  0.891480  0.037923  0.259220  1
