# generated using pymatgen
data_Tb13Er3In4(PtRh)2
_symmetry_space_group_name_H-M   'P 1'
_cell_length_a   9.70465833
_cell_length_b   9.69623375
_cell_length_c   9.69782903
_cell_angle_alpha   60.05205237
_cell_angle_beta   60.08615856
_cell_angle_gamma   59.98213446
_symmetry_Int_Tables_number   1
_chemical_formula_structural   Tb13Er3In4(PtRh)2
_chemical_formula_sum   'Tb13 Er3 In4 Pt2 Rh2'
_cell_volume   645.85767498
_cell_formula_units_Z   1
loop_
 _symmetry_equiv_pos_site_id
 _symmetry_equiv_pos_as_xyz
  1  'x, y, z'
loop_
 _atom_site_type_symbol
 _atom_site_label
 _atom_site_symmetry_multiplicity
 _atom_site_fract_x
 _atom_site_fract_y
 _atom_site_fract_z
 _atom_site_occupancy
  Tb  Tb0  1  0.648623  0.048535  0.649622  1
  Tb  Tb1  1  0.061280  0.062548  0.437695  1
  Tb  Tb2  1  0.437695  0.438478  0.061280  1
  Tb  Tb3  1  0.649622  0.653220  0.648623  1
  Tb  Tb4  1  0.810117  0.186567  0.192315  1
  Tb  Tb5  1  0.192315  0.811000  0.810117  1
  Tb  Tb6  1  0.053720  0.649881  0.646011  1
  Tb  Tb7  1  0.437674  0.062413  0.061185  1
  Tb  Tb8  1  0.437064  0.062936  0.437064  1
  Tb  Tb9  1  0.060673  0.439327  0.060673  1
  Tb  Tb10  1  0.646011  0.650387  0.053720  1
  Tb  Tb11  1  0.188878  0.811122  0.188878  1
  Tb  Tb12  1  0.061185  0.438728  0.437674  1
  Er  Er13  1  0.809783  0.810424  0.192465  1
  Er  Er14  1  0.809923  0.190077  0.809923  1
  Er  Er15  1  0.192465  0.187327  0.809783  1
  In  In16  1  0.417331  0.416780  0.417490  1
  In  In17  1  0.418065  0.416969  0.747924  1
  In  In18  1  0.417490  0.748399  0.417331  1
  In  In19  1  0.747924  0.417039  0.418065  1
  Pt  Pt20  1  0.859448  0.426214  0.857472  1
  Pt  Pt21  1  0.857472  0.856867  0.859448  1
  Rh  Rh22  1  0.859059  0.856404  0.426181  1
  Rh  Rh23  1  0.426181  0.858357  0.859059  1
