# generated using pymatgen
data_Tb3Al3GaAu2
_symmetry_space_group_name_H-M   'P 1'
_cell_length_a   7.16120200
_cell_length_b   7.16120263
_cell_length_c   4.26289000
_cell_angle_alpha   90.00000000
_cell_angle_beta   90.00000000
_cell_angle_gamma   120.00000634
_symmetry_Int_Tables_number   1
_chemical_formula_structural   Tb3Al3GaAu2
_chemical_formula_sum   'Tb3 Al3 Ga1 Au2'
_cell_volume   189.32441202
_cell_formula_units_Z   1
loop_
 _symmetry_equiv_pos_site_id
 _symmetry_equiv_pos_as_xyz
  1  'x, y, z'
loop_
 _atom_site_type_symbol
 _atom_site_label
 _atom_site_symmetry_multiplicity
 _atom_site_fract_x
 _atom_site_fract_y
 _atom_site_fract_z
 _atom_site_occupancy
  Tb  Tb0  1  0.418496  0.416931  0.500000  1
  Tb  Tb1  1  0.583069  0.001565  0.500000  1
  Tb  Tb2  1  0.998435  0.581504  0.500000  1
  Al  Al3  1  0.756160  0.760658  0.000000  1
  Al  Al4  1  0.239342  0.995503  0.000000  1
  Al  Al5  1  0.004497  0.243840  0.000000  1
  Ga  Ga6  1  0.666667  0.333333  0.000000  1
  Au  Au7  1  0.333333  0.666667  0.000000  1
  Au  Au8  1  0.000000  0.000000  0.500000  1
