# generated using pymatgen
data_La2(CO3)3
_symmetry_space_group_name_H-M   'P 1'
_cell_length_a   8.75340081
_cell_length_b   8.59046827
_cell_length_c   8.61945400
_cell_angle_alpha   119.89405205
_cell_angle_beta   90.05343129
_cell_angle_gamma   90.01423516
_symmetry_Int_Tables_number   1
_chemical_formula_structural   La2(CO3)3
_chemical_formula_sum   'La4 C6 O18'
_cell_volume   561.90949295
_cell_formula_units_Z   2
loop_
 _symmetry_equiv_pos_site_id
 _symmetry_equiv_pos_as_xyz
  1  'x, y, z'
loop_
 _atom_site_type_symbol
 _atom_site_label
 _atom_site_symmetry_multiplicity
 _atom_site_fract_x
 _atom_site_fract_y
 _atom_site_fract_z
 _atom_site_occupancy
  La  La0  1  0.970668  0.665422  0.332128  1
  La  La1  1  0.529318  0.667317  0.333312  1
  La  La2  1  0.470682  0.332683  0.666688  1
  La  La3  1  0.029332  0.334578  0.667872  1
  C  C4  1  0.249749  0.970091  0.373012  1
  C  C5  1  0.250328  0.403077  0.030416  1
  C  C6  1  0.750157  0.372314  0.403438  1
  C  C7  1  0.249843  0.627686  0.596562  1
  C  C8  1  0.749672  0.596923  0.969584  1
  C  C9  1  0.750251  0.029909  0.626988  1
  O  O10  1  0.121392  0.885932  0.322695  1
  O  O11  1  0.378997  0.888029  0.323385  1
  O  O12  1  0.749582  0.665532  0.143465  1
  O  O13  1  0.379016  0.436858  0.113733  1
  O  O14  1  0.121426  0.435982  0.112960  1
  O  O15  1  0.749442  0.477202  0.333711  1
  O  O16  1  0.750985  0.855616  0.520896  1
  O  O17  1  0.120671  0.676623  0.562922  1
  O  O18  1  0.378269  0.677503  0.562358  1
  O  O19  1  0.621731  0.322497  0.437642  1
  O  O20  1  0.879329  0.323377  0.437078  1
  O  O21  1  0.249015  0.144384  0.479104  1
  O  O22  1  0.250558  0.522798  0.666289  1
  O  O23  1  0.878574  0.564018  0.887040  1
  O  O24  1  0.620984  0.563142  0.886267  1
  O  O25  1  0.250418  0.334468  0.856535  1
  O  O26  1  0.621003  0.111971  0.676615  1
  O  O27  1  0.878608  0.114068  0.677305  1
