# generated using pymatgen
data_Ho5Co16Si5P7Os3
_symmetry_space_group_name_H-M   'P 1'
_cell_length_a   12.03471586
_cell_length_b   12.06350142
_cell_length_c   3.70762400
_cell_angle_alpha   90.00000000
_cell_angle_beta   90.00000000
_cell_angle_gamma   120.04358689
_symmetry_Int_Tables_number   1
_chemical_formula_structural   Ho5Co16Si5P7Os3
_chemical_formula_sum   'Ho5 Co16 Si5 P7 Os3'
_cell_volume   465.95569355
_cell_formula_units_Z   1
loop_
 _symmetry_equiv_pos_site_id
 _symmetry_equiv_pos_as_xyz
  1  'x, y, z'
loop_
 _atom_site_type_symbol
 _atom_site_label
 _atom_site_symmetry_multiplicity
 _atom_site_fract_x
 _atom_site_fract_y
 _atom_site_fract_z
 _atom_site_occupancy
  Ho  Ho0  1  0.667185  0.333227  0.000000  1
  Ho  Ho1  1  0.332592  0.664542  0.000000  1
  Ho  Ho2  1  0.813186  0.813361  0.500000  1
  Ho  Ho3  1  0.186279  0.000534  0.500000  1
  Ho  Ho4  1  0.999123  0.185398  0.500000  1
  Co  Co5  1  0.879532  0.355427  0.500000  1
  Co  Co6  1  0.644539  0.522990  0.500000  1
  Co  Co7  1  0.477305  0.122668  0.500000  1
  Co  Co8  1  0.355396  0.878128  0.500000  1
  Co  Co9  1  0.515144  0.639328  0.500000  1
  Co  Co10  1  0.125398  0.477914  0.500000  1
  Co  Co11  1  0.806949  0.177368  0.000000  1
  Co  Co12  1  0.822023  0.628492  0.000000  1
  Co  Co13  1  0.371017  0.193870  0.000000  1
  Co  Co14  1  0.178494  0.806975  0.000000  1
  Co  Co15  1  0.626830  0.819811  0.000000  1
  Co  Co16  1  0.197232  0.374938  0.000000  1
  Co  Co17  1  0.277121  0.281237  0.500000  1
  Co  Co18  1  0.723391  0.998990  0.500000  1
  Co  Co19  1  0.000124  0.724111  0.500000  1
  Co  Co20  1  0.000578  0.000619  0.000000  1
  Si  Si21  1  0.685058  0.162898  0.500000  1
  Si  Si22  1  0.837588  0.521535  0.500000  1
  Si  Si23  1  0.479056  0.315971  0.500000  1
  Si  Si24  1  0.163418  0.685029  0.500000  1
  Si  Si25  1  0.520764  0.836105  0.500000  1
  P  P26  1  0.312574  0.478467  0.500000  1
  P  P27  1  0.178158  0.179167  0.000000  1
  P  P28  1  0.821065  0.998808  0.000000  1
  P  P29  1  0.000094  0.822206  0.000000  1
  P  P30  1  0.635903  0.635683  0.000000  1
  P  P31  1  0.364350  0.000047  0.000000  1
  P  P32  1  0.999877  0.364337  0.000000  1
  Os  Os33  1  0.445389  0.443470  0.000000  1
  Os  Os34  1  0.556429  0.999906  0.000000  1
  Os  Os35  1  0.000839  0.556445  0.000000  1
