# generated using pymatgen
data_Tb5Ce3Zn8(Ir3Rh)2
_symmetry_space_group_name_H-M   'P 1'
_cell_length_a   3.94081400
_cell_length_b   7.22912015
_cell_length_c   16.33352904
_cell_angle_alpha   89.27868707
_cell_angle_beta   90.00000000
_cell_angle_gamma   90.00000000
_symmetry_Int_Tables_number   1
_chemical_formula_structural   Tb5Ce3Zn8(Ir3Rh)2
_chemical_formula_sum   'Tb5 Ce3 Zn8 Ir6 Rh2'
_cell_volume   465.28279390
_cell_formula_units_Z   1
loop_
 _symmetry_equiv_pos_site_id
 _symmetry_equiv_pos_as_xyz
  1  'x, y, z'
loop_
 _atom_site_type_symbol
 _atom_site_label
 _atom_site_symmetry_multiplicity
 _atom_site_fract_x
 _atom_site_fract_y
 _atom_site_fract_z
 _atom_site_occupancy
  Tb  Tb0  1  0.250000  0.667696  0.560380  1
  Tb  Tb1  1  0.750000  0.830929  0.058724  1
  Tb  Tb2  1  0.250000  0.057923  0.715695  1
  Tb  Tb3  1  0.250000  0.169864  0.939755  1
  Tb  Tb4  1  0.750000  0.944261  0.284781  1
  Ce  Ce5  1  0.250000  0.555536  0.784231  1
  Ce  Ce6  1  0.750000  0.448959  0.215406  1
  Ce  Ce7  1  0.750000  0.328736  0.440295  1
  Zn  Zn8  1  0.250000  0.106789  0.153935  1
  Zn  Zn9  1  0.750000  0.500914  0.941993  1
  Zn  Zn10  1  0.750000  0.993255  0.562012  1
  Zn  Zn11  1  0.750000  0.381911  0.649663  1
  Zn  Zn12  1  0.750000  0.895606  0.847520  1
  Zn  Zn13  1  0.250000  0.499772  0.057696  1
  Zn  Zn14  1  0.250000  0.619951  0.348083  1
  Zn  Zn15  1  0.250000  0.992694  0.438089  1
  Ir  Ir16  1  0.750000  0.748196  0.436640  1
  Ir  Ir17  1  0.750000  0.271350  0.812899  1
  Ir  Ir18  1  0.250000  0.731917  0.185218  1
  Ir  Ir19  1  0.250000  0.751163  0.932241  1
  Ir  Ir20  1  0.250000  0.248426  0.560321  1
  Ir  Ir21  1  0.250000  0.250097  0.312975  1
  Rh  Rh22  1  0.750000  0.752590  0.692542  1
  Rh  Rh23  1  0.750000  0.251467  0.068903  1
