# generated using pymatgen
data_Tm2Al9FePt2
_symmetry_space_group_name_H-M   'P 1'
_cell_length_a   7.53750638
_cell_length_b   7.53750561
_cell_length_c   9.37155300
_cell_angle_alpha   90.00000000
_cell_angle_beta   90.00000000
_cell_angle_gamma   119.87834522
_symmetry_Int_Tables_number   1
_chemical_formula_structural   Tm2Al9FePt2
_chemical_formula_sum   'Tm4 Al18 Fe2 Pt4'
_cell_volume   461.66677926
_cell_formula_units_Z   2
loop_
 _symmetry_equiv_pos_site_id
 _symmetry_equiv_pos_as_xyz
  1  'x, y, z'
loop_
 _atom_site_type_symbol
 _atom_site_label
 _atom_site_symmetry_multiplicity
 _atom_site_fract_x
 _atom_site_fract_y
 _atom_site_fract_z
 _atom_site_occupancy
  Tm  Tm0  1  0.993475  0.663632  0.250000  1
  Tm  Tm1  1  0.006525  0.336368  0.750000  1
  Tm  Tm2  1  0.663632  0.993475  0.250000  1
  Tm  Tm3  1  0.336368  0.006525  0.750000  1
  Al  Al4  1  0.108947  0.108947  0.250000  1
  Al  Al5  1  0.891053  0.891053  0.750000  1
  Al  Al6  1  0.998691  0.321462  0.075257  1
  Al  Al7  1  0.001309  0.678538  0.924743  1
  Al  Al8  1  0.001309  0.678538  0.575257  1
  Al  Al9  1  0.321462  0.998691  0.424743  1
  Al  Al10  1  0.998691  0.321462  0.424743  1
  Al  Al11  1  0.678538  0.001309  0.575257  1
  Al  Al12  1  0.678538  0.001309  0.924743  1
  Al  Al13  1  0.321462  0.998691  0.075257  1
  Al  Al14  1  0.320854  0.320854  0.554007  1
  Al  Al15  1  0.679146  0.679146  0.445993  1
  Al  Al16  1  0.679146  0.679146  0.054007  1
  Al  Al17  1  0.320854  0.320854  0.945993  1
  Al  Al18  1  0.339763  0.541732  0.250000  1
  Al  Al19  1  0.660237  0.458268  0.750000  1
  Al  Al20  1  0.541732  0.339763  0.250000  1
  Al  Al21  1  0.458268  0.660237  0.750000  1
  Fe  Fe22  1  0.000000  0.000000  0.000000  1
  Fe  Fe23  1  0.000000  0.000000  0.500000  1
  Pt  Pt24  1  0.672267  0.327733  0.000000  1
  Pt  Pt25  1  0.327733  0.672267  0.000000  1
  Pt  Pt26  1  0.327733  0.672267  0.500000  1
  Pt  Pt27  1  0.672267  0.327733  0.500000  1
