# generated using pymatgen
data_Tb4Dy3Er(WO6)4
_symmetry_space_group_name_H-M   'P 1'
_cell_length_a   5.41248216
_cell_length_b   7.72849129
_cell_length_c   11.47581037
_cell_angle_alpha   75.49574887
_cell_angle_beta   89.99907349
_cell_angle_gamma   89.97320960
_symmetry_Int_Tables_number   1
_chemical_formula_structural   Tb4Dy3Er(WO6)4
_chemical_formula_sum   'Tb4 Dy3 Er1 W4 O24'
_cell_volume   464.73755544
_cell_formula_units_Z   1
loop_
 _symmetry_equiv_pos_site_id
 _symmetry_equiv_pos_as_xyz
  1  'x, y, z'
loop_
 _atom_site_type_symbol
 _atom_site_label
 _atom_site_symmetry_multiplicity
 _atom_site_fract_x
 _atom_site_fract_y
 _atom_site_fract_z
 _atom_site_occupancy
  Tb  Tb0  1  0.683671  0.499878  0.249916  1
  Tb  Tb1  1  0.316535  0.499600  0.750394  1
  Tb  Tb2  1  0.741113  0.000265  0.249599  1
  Tb  Tb3  1  0.258980  0.000297  0.750501  1
  Dy  Dy4  1  0.183516  0.206463  0.421885  1
  Dy  Dy5  1  0.183234  0.793928  0.077848  1
  Dy  Dy6  1  0.816449  0.793578  0.578009  1
  Er  Er7  1  0.816630  0.206947  0.921506  1
  W  W8  1  0.256135  0.276384  0.114157  1
  W  W9  1  0.256048  0.723447  0.385364  1
  W  W10  1  0.743979  0.723299  0.885365  1
  W  W11  1  0.744212  0.276413  0.615005  1
  O  O12  1  0.457197  0.209425  0.272304  1
  O  O13  1  0.457068  0.790346  0.227296  1
  O  O14  1  0.542728  0.789951  0.727495  1
  O  O15  1  0.544360  0.209327  0.773703  1
  O  O16  1  0.046046  0.061432  0.103138  1
  O  O17  1  0.046426  0.938971  0.396224  1
  O  O18  1  0.951693  0.940483  0.896363  1
  O  O19  1  0.953779  0.061143  0.603790  1
  O  O20  1  0.981871  0.289009  0.228119  1
  O  O21  1  0.981430  0.710983  0.271785  1
  O  O22  1  0.018833  0.711373  0.772077  1
  O  O23  1  0.018086  0.288721  0.729142  1
  O  O24  1  0.848356  0.365655  0.451975  1
  O  O25  1  0.848520  0.634393  0.048219  1
  O  O26  1  0.151662  0.634159  0.548292  1
  O  O27  1  0.149289  0.364844  0.951484  1
  O  O28  1  0.639980  0.509347  0.614333  1
  O  O29  1  0.641655  0.489562  0.885852  1
  O  O30  1  0.359936  0.490454  0.385723  1
  O  O31  1  0.359469  0.509169  0.113894  1
  O  O32  1  0.465883  0.155009  0.569381  1
  O  O33  1  0.465441  0.844644  0.931165  1
  O  O34  1  0.533999  0.845277  0.431114  1
  O  O35  1  0.535791  0.155822  0.067584  1
