# generated using pymatgen
data_Ni2TeCl2O3
_symmetry_space_group_name_H-M   'P 1'
_cell_length_a   6.78597200
_cell_length_b   5.07870460
_cell_length_c   8.23240911
_cell_angle_alpha   73.81525701
_cell_angle_beta   90.00000000
_cell_angle_gamma   90.00000000
_symmetry_Int_Tables_number   1
_chemical_formula_structural   Ni2TeCl2O3
_chemical_formula_sum   'Ni4 Te2 Cl4 O6'
_cell_volume   272.47685354
_cell_formula_units_Z   2
loop_
 _symmetry_equiv_pos_site_id
 _symmetry_equiv_pos_as_xyz
  1  'x, y, z'
loop_
 _atom_site_type_symbol
 _atom_site_label
 _atom_site_symmetry_multiplicity
 _atom_site_fract_x
 _atom_site_fract_y
 _atom_site_fract_z
 _atom_site_occupancy
  Ni  Ni0  1  0.250000  0.735717  0.798537  1
  Ni  Ni1  1  0.750000  0.264283  0.201463  1
  Ni  Ni2  1  0.500000  0.000000  0.000000  1
  Ni  Ni3  1  0.000000  0.000000  0.000000  1
  Te  Te4  1  0.750000  0.608249  0.747152  1
  Te  Te5  1  0.250000  0.391751  0.252848  1
  Cl  Cl6  1  0.250000  0.837895  0.503439  1
  Cl  Cl7  1  0.250000  0.254740  0.797496  1
  Cl  Cl8  1  0.750000  0.745260  0.202504  1
  Cl  Cl9  1  0.750000  0.162105  0.496561  1
  O  O10  1  0.040664  0.231680  0.163164  1
  O  O11  1  0.540664  0.768320  0.836836  1
  O  O12  1  0.959336  0.768320  0.836836  1
  O  O13  1  0.750000  0.263215  0.935963  1
  O  O14  1  0.250000  0.736785  0.064037  1
  O  O15  1  0.459336  0.231680  0.163164  1
