# generated using pymatgen
data_Tb4Ho3Sn23Ir6
_symmetry_space_group_name_H-M   'P 1'
_cell_length_a   9.86994000
_cell_length_b   9.86993970
_cell_length_c   10.13541900
_cell_angle_alpha   90.00000000
_cell_angle_beta   90.00000000
_cell_angle_gamma   119.99999432
_symmetry_Int_Tables_number   1
_chemical_formula_structural   Tb4Ho3Sn23Ir6
_chemical_formula_sum   'Tb4 Ho3 Sn23 Ir6'
_cell_volume   855.06942115
_cell_formula_units_Z   1
loop_
 _symmetry_equiv_pos_site_id
 _symmetry_equiv_pos_as_xyz
  1  'x, y, z'
loop_
 _atom_site_type_symbol
 _atom_site_label
 _atom_site_symmetry_multiplicity
 _atom_site_fract_x
 _atom_site_fract_y
 _atom_site_fract_z
 _atom_site_occupancy
  Tb  Tb0  1  0.000000  0.000000  0.000192  1
  Tb  Tb1  1  0.518839  0.481161  0.693205  1
  Tb  Tb2  1  0.518839  0.037675  0.693205  1
  Tb  Tb3  1  0.962325  0.481161  0.693205  1
  Ho  Ho4  1  0.035917  0.517959  0.305838  1
  Ho  Ho5  1  0.482041  0.964083  0.305838  1
  Ho  Ho6  1  0.482041  0.517959  0.305838  1
  Sn  Sn7  1  0.666667  0.333333  0.172084  1
  Sn  Sn8  1  0.666667  0.333333  0.876495  1
  Sn  Sn9  1  0.333333  0.666667  0.125698  1
  Sn  Sn10  1  0.352331  0.352308  0.000156  1
  Sn  Sn11  1  0.999977  0.647669  0.000156  1
  Sn  Sn12  1  0.647692  0.000023  0.000156  1
  Sn  Sn13  1  0.647692  0.647669  0.000156  1
  Sn  Sn14  1  0.333333  0.666667  0.828410  1
  Sn  Sn15  1  0.443915  0.221957  0.457985  1
  Sn  Sn16  1  0.221960  0.778040  0.540972  1
  Sn  Sn17  1  0.221960  0.443918  0.540972  1
  Sn  Sn18  1  0.556082  0.778040  0.540972  1
  Sn  Sn19  1  0.119048  0.880952  0.283292  1
  Sn  Sn20  1  0.778043  0.556085  0.457985  1
  Sn  Sn21  1  0.778043  0.221957  0.457985  1
  Sn  Sn22  1  0.352331  0.000023  0.000156  1
  Sn  Sn23  1  0.119048  0.238097  0.283292  1
  Sn  Sn24  1  0.761903  0.880952  0.283292  1
  Sn  Sn25  1  0.237259  0.118629  0.716992  1
  Sn  Sn26  1  0.881371  0.762741  0.716992  1
  Sn  Sn27  1  0.881371  0.118629  0.716992  1
  Sn  Sn28  1  0.000000  0.000000  0.499700  1
  Sn  Sn29  1  0.999977  0.352308  0.000156  1
  Ir  Ir30  1  0.169380  0.830620  0.801296  1
  Ir  Ir31  1  0.169380  0.338758  0.801296  1
  Ir  Ir32  1  0.661242  0.830620  0.801296  1
  Ir  Ir33  1  0.339148  0.169575  0.199248  1
  Ir  Ir34  1  0.830425  0.660852  0.199248  1
  Ir  Ir35  1  0.830425  0.169575  0.199248  1
