# generated using pymatgen
data_Tm6Co2Si5Ge
_symmetry_space_group_name_H-M   'P 1'
_cell_length_a   5.57330896
_cell_length_b   5.57330891
_cell_length_c   13.36474419
_cell_angle_alpha   70.68902421
_cell_angle_beta   70.68902264
_cell_angle_gamma   43.49147665
_symmetry_Int_Tables_number   1
_chemical_formula_structural   Tm6Co2Si5Ge
_chemical_formula_sum   'Tm6 Co2 Si5 Ge1'
_cell_volume   266.99197829
_cell_formula_units_Z   1
loop_
 _symmetry_equiv_pos_site_id
 _symmetry_equiv_pos_as_xyz
  1  'x, y, z'
loop_
 _atom_site_type_symbol
 _atom_site_label
 _atom_site_symmetry_multiplicity
 _atom_site_fract_x
 _atom_site_fract_y
 _atom_site_fract_z
 _atom_site_occupancy
  Tm  Tm0  1  0.744260  0.744260  0.771968  1
  Tm  Tm1  1  0.398171  0.398171  0.922259  1
  Tm  Tm2  1  0.600416  0.600416  0.081737  1
  Tm  Tm3  1  0.475368  0.475368  0.379299  1
  Tm  Tm4  1  0.253366  0.253366  0.228287  1
  Tm  Tm5  1  0.526032  0.526032  0.617202  1
  Co  Co6  1  0.753595  0.753595  0.417551  1
  Co  Co7  1  0.251589  0.251589  0.578009  1
  Si  Si8  1  0.139727  0.139727  0.454271  1
  Si  Si9  1  0.862730  0.862730  0.544058  1
  Si  Si10  1  0.946701  0.946701  0.242442  1
  Si  Si11  1  0.884214  0.884214  0.077278  1
  Si  Si12  1  0.117694  0.117694  0.927092  1
  Ge  Ge13  1  0.046138  0.046138  0.758547  1
