# generated using pymatgen
data_CsNd6(CI6)2
_symmetry_space_group_name_H-M   'P 1'
_cell_length_a   9.74466425
_cell_length_b   9.72958018
_cell_length_c   10.19567583
_cell_angle_alpha   72.23483780
_cell_angle_beta   71.13333790
_cell_angle_gamma   72.75369905
_symmetry_Int_Tables_number   1
_chemical_formula_structural   CsNd6(CI6)2
_chemical_formula_sum   'Cs1 Nd6 C2 I12'
_cell_volume   849.86580155
_cell_formula_units_Z   1
loop_
 _symmetry_equiv_pos_site_id
 _symmetry_equiv_pos_as_xyz
  1  'x, y, z'
loop_
 _atom_site_type_symbol
 _atom_site_label
 _atom_site_symmetry_multiplicity
 _atom_site_fract_x
 _atom_site_fract_y
 _atom_site_fract_z
 _atom_site_occupancy
  Cs  Cs0  1  0.000002  0.499997  0.000001  1
  Nd  Nd1  1  0.474557  0.107839  0.194434  1
  Nd  Nd2  1  0.769650  0.031747  0.411139  1
  Nd  Nd3  1  0.589320  0.732430  0.475032  1
  Nd  Nd4  1  0.410680  0.267573  0.524966  1
  Nd  Nd5  1  0.230351  0.968252  0.588864  1
  Nd  Nd6  1  0.525446  0.892161  0.805562  1
  C  C7  1  0.493849  0.024206  0.429147  1
  C  C8  1  0.506151  0.975799  0.570858  1
  I  I9  1  0.799247  0.157627  0.079834  1
  I  I10  1  0.585106  0.779260  0.142836  1
  I  I11  1  0.352049  0.434120  0.221963  1
  I  I12  1  0.135960  0.069757  0.292247  1
  I  I13  1  0.926594  0.719148  0.354742  1
  I  I14  1  0.717355  0.365788  0.431087  1
  I  I15  1  0.282648  0.634210  0.568912  1
  I  I16  1  0.073406  0.280850  0.645259  1
  I  I17  1  0.864038  0.930240  0.707756  1
  I  I18  1  0.647950  0.565883  0.778035  1
  I  I19  1  0.414889  0.220739  0.857164  1
  I  I20  1  0.200756  0.842371  0.920161  1
