# generated using pymatgen
data_Ti6GaSiC2
_symmetry_space_group_name_H-M   'P 1'
_cell_length_a   5.50917060
_cell_length_b   5.50917096
_cell_length_c   8.32640800
_cell_angle_alpha   90.00000000
_cell_angle_beta   90.00000000
_cell_angle_gamma   146.70372004
_symmetry_Int_Tables_number   1
_chemical_formula_structural   Ti6GaSiC2
_chemical_formula_sum   'Ti6 Ga1 Si1 C2'
_cell_volume   138.73231166
_cell_formula_units_Z   1
loop_
 _symmetry_equiv_pos_site_id
 _symmetry_equiv_pos_as_xyz
  1  'x, y, z'
loop_
 _atom_site_type_symbol
 _atom_site_label
 _atom_site_symmetry_multiplicity
 _atom_site_fract_x
 _atom_site_fract_y
 _atom_site_fract_z
 _atom_site_occupancy
  Ti  Ti0  1  0.871967  0.128030  0.039395  1
  Ti  Ti1  1  0.542472  0.457525  0.250000  1
  Ti  Ti2  1  0.871967  0.128030  0.460605  1
  Ti  Ti3  1  0.129373  0.870624  0.547539  1
  Ti  Ti4  1  0.451822  0.548175  0.750000  1
  Ti  Ti5  1  0.129373  0.870624  0.952461  1
  Ga  Ga6  1  0.250699  0.749299  0.250000  1
  Si  Si7  1  0.750701  0.249297  0.750000  1
  C  C8  1  0.500807  0.499191  0.999127  1
  C  C9  1  0.500807  0.499191  0.500873  1
