# generated using pymatgen
data_YbHf3SiGe5Ir7
_symmetry_space_group_name_H-M   'P 1'
_cell_length_a   7.12560012
_cell_length_b   7.11121185
_cell_length_c   7.12560091
_cell_angle_alpha   109.35496345
_cell_angle_beta   109.54848759
_cell_angle_gamma   109.35494424
_symmetry_Int_Tables_number   1
_chemical_formula_structural   YbHf3SiGe5Ir7
_chemical_formula_sum   'Yb1 Hf3 Si1 Ge5 Ir7'
_cell_volume   278.47924934
_cell_formula_units_Z   1
loop_
 _symmetry_equiv_pos_site_id
 _symmetry_equiv_pos_as_xyz
  1  'x, y, z'
loop_
 _atom_site_type_symbol
 _atom_site_label
 _atom_site_symmetry_multiplicity
 _atom_site_fract_x
 _atom_site_fract_y
 _atom_site_fract_z
 _atom_site_occupancy
  Yb  Yb0  1  0.999505  0.494158  0.999505  1
  Hf  Hf1  1  0.531023  0.533657  0.531023  1
  Hf  Hf2  1  0.998111  0.999941  0.527590  1
  Hf  Hf3  1  0.527590  0.999941  0.998111  1
  Si  Si4  1  0.667999  0.005785  0.667999  1
  Ge  Ge5  1  0.301557  0.999924  0.301557  1
  Ge  Ge6  1  0.007027  0.313908  0.312112  1
  Ge  Ge7  1  0.006484  0.681259  0.690800  1
  Ge  Ge8  1  0.690800  0.681259  0.006484  1
  Ge  Ge9  1  0.312112  0.313908  0.007027  1
  Ir  Ir10  1  0.254053  0.497082  0.744775  1
  Ir  Ir11  1  0.254975  0.754290  0.507096  1
  Ir  Ir12  1  0.489961  0.243216  0.743917  1
  Ir  Ir13  1  0.507096  0.754290  0.254975  1
  Ir  Ir14  1  0.744775  0.497082  0.254053  1
  Ir  Ir15  1  0.963015  0.987084  0.963015  1
  Ir  Ir16  1  0.743917  0.243216  0.489961  1
