# generated using pymatgen
data_Yb2ErThPd4
_symmetry_space_group_name_H-M   'P 1'
_cell_length_a   4.49093100
_cell_length_b   5.66065734
_cell_length_c   7.20287418
_cell_angle_alpha   91.14267234
_cell_angle_beta   90.00000000
_cell_angle_gamma   90.00000000
_symmetry_Int_Tables_number   1
_chemical_formula_structural   Yb2ErThPd4
_chemical_formula_sum   'Yb2 Er1 Th1 Pd4'
_cell_volume   183.07232759
_cell_formula_units_Z   1
loop_
 _symmetry_equiv_pos_site_id
 _symmetry_equiv_pos_as_xyz
  1  'x, y, z'
loop_
 _atom_site_type_symbol
 _atom_site_label
 _atom_site_symmetry_multiplicity
 _atom_site_fract_x
 _atom_site_fract_y
 _atom_site_fract_z
 _atom_site_occupancy
  Yb  Yb0  1  0.250000  0.142608  0.182239  1
  Yb  Yb1  1  0.750000  0.857380  0.821657  1
  Er  Er2  1  0.750000  0.641852  0.315146  1
  Th  Th3  1  0.250000  0.358421  0.682368  1
  Pd  Pd4  1  0.250000  0.837188  0.534444  1
  Pd  Pd5  1  0.250000  0.645615  0.050434  1
  Pd  Pd6  1  0.750000  0.160383  0.461270  1
  Pd  Pd7  1  0.750000  0.356552  0.952442  1
