# generated using pymatgen
data_Y2U(InIr)3
_symmetry_space_group_name_H-M   'P 1'
_cell_length_a   7.49696654
_cell_length_b   7.49696601
_cell_length_c   3.86686000
_cell_angle_alpha   90.00000000
_cell_angle_beta   90.00000000
_cell_angle_gamma   117.75677523
_symmetry_Int_Tables_number   1
_chemical_formula_structural   Y2U(InIr)3
_chemical_formula_sum   'Y2 U1 In3 Ir3'
_cell_volume   192.32677258
_cell_formula_units_Z   1
loop_
 _symmetry_equiv_pos_site_id
 _symmetry_equiv_pos_as_xyz
  1  'x, y, z'
loop_
 _atom_site_type_symbol
 _atom_site_label
 _atom_site_symmetry_multiplicity
 _atom_site_fract_x
 _atom_site_fract_y
 _atom_site_fract_z
 _atom_site_occupancy
  Y  Y0  1  0.404780  0.000345  0.000000  1
  Y  Y1  1  0.000345  0.404780  0.000000  1
  U  U2  1  0.584329  0.584329  0.000000  1
  In  In3  1  0.012188  0.741350  0.500000  1
  In  In4  1  0.242877  0.242877  0.500000  1
  In  In5  1  0.741350  0.012188  0.500000  1
  Ir  Ir6  1  0.984912  0.984912  0.000000  1
  Ir  Ir7  1  0.661672  0.367549  0.500000  1
  Ir  Ir8  1  0.367549  0.661672  0.500000  1
