# generated using pymatgen
data_Tm2Lu2Tc3B8Os
_symmetry_space_group_name_H-M   'P 1'
_cell_length_a   5.87424291
_cell_length_b   5.23985900
_cell_length_c   6.37501013
_cell_angle_alpha   90.00000000
_cell_angle_beta   90.28362329
_cell_angle_gamma   90.00000000
_symmetry_Int_Tables_number   1
_chemical_formula_structural   Tm2Lu2Tc3B8Os
_chemical_formula_sum   'Tm2 Lu2 Tc3 B8 Os1'
_cell_volume   196.22171193
_cell_formula_units_Z   1
loop_
 _symmetry_equiv_pos_site_id
 _symmetry_equiv_pos_as_xyz
  1  'x, y, z'
loop_
 _atom_site_type_symbol
 _atom_site_label
 _atom_site_symmetry_multiplicity
 _atom_site_fract_x
 _atom_site_fract_y
 _atom_site_fract_z
 _atom_site_occupancy
  Tm  Tm0  1  0.014485  0.250000  0.337587  1
  Tm  Tm1  1  0.514143  0.250000  0.161731  1
  Lu  Lu2  1  0.984620  0.750000  0.664641  1
  Lu  Lu3  1  0.484369  0.750000  0.835468  1
  Tc  Tc4  1  0.181546  0.250000  0.814060  1
  Tc  Tc5  1  0.679565  0.250000  0.684331  1
  Tc  Tc6  1  0.819170  0.750000  0.185959  1
  B  B7  1  0.366845  0.077522  0.535386  1
  B  B8  1  0.868453  0.422110  0.964831  1
  B  B9  1  0.633527  0.579776  0.465897  1
  B  B10  1  0.134022  0.921103  0.034782  1
  B  B11  1  0.633527  0.920224  0.465897  1
  B  B12  1  0.134022  0.578897  0.034782  1
  B  B13  1  0.366845  0.422478  0.535386  1
  B  B14  1  0.868453  0.077890  0.964831  1
  Os  Os15  1  0.316405  0.750000  0.314434  1
