# generated using pymatgen
data_Sr3PrTi5(Si2O11)2
_symmetry_space_group_name_H-M   'P 1'
_cell_length_a   7.63748059
_cell_length_b   7.63747984
_cell_length_c   12.00403991
_cell_angle_alpha   66.81097960
_cell_angle_beta   113.18901840
_cell_angle_gamma   136.33996956
_symmetry_Int_Tables_number   1
_chemical_formula_structural   Sr3PrTi5(Si2O11)2
_chemical_formula_sum   'Sr3 Pr1 Ti5 Si4 O22'
_cell_volume   437.76349692
_cell_formula_units_Z   1
loop_
 _symmetry_equiv_pos_site_id
 _symmetry_equiv_pos_as_xyz
  1  'x, y, z'
loop_
 _atom_site_type_symbol
 _atom_site_label
 _atom_site_symmetry_multiplicity
 _atom_site_fract_x
 _atom_site_fract_y
 _atom_site_fract_z
 _atom_site_occupancy
  Sr  Sr0  1  0.952432  0.047565  0.258801  1
  Sr  Sr1  1  0.767260  0.232737  0.736091  1
  Sr  Sr2  1  0.233412  0.766585  0.267243  1
  Pr  Pr3  1  0.050218  0.949779  0.746301  1
  Ti  Ti4  1  0.498685  0.501312  0.498347  1
  Ti  Ti5  1  0.240835  0.241368  0.001573  1
  Ti  Ti6  1  0.758633  0.759166  0.001573  1
  Ti  Ti7  1  0.274340  0.725657  0.002266  1
  Ti  Ti8  1  0.722491  0.277506  0.995701  1
  Si  Si9  1  0.845218  0.154778  0.452856  1
  Si  Si10  1  0.157276  0.842721  0.549528  1
  Si  Si11  1  0.407971  0.592026  0.728637  1
  Si  Si12  1  0.594323  0.405673  0.272501  1
  O  O13  1  0.144649  0.855348  0.411557  1
  O  O14  1  0.865838  0.134159  0.594833  1
  O  O15  1  0.280980  0.719017  0.655219  1
  O  O16  1  0.721004  0.278992  0.351382  1
  O  O17  1  0.471705  0.528292  0.643745  1
  O  O18  1  0.531732  0.468265  0.358946  1
  O  O19  1  0.399860  0.600137  0.991775  1
  O  O20  1  0.597625  0.402372  0.004706  1
  O  O21  1  0.093426  0.906571  0.995469  1
  O  O22  1  0.901342  0.098655  0.993334  1
  O  O23  1  0.653437  0.868286  0.414364  1
  O  O24  1  0.873786  0.660457  0.590017  1
  O  O25  1  0.339542  0.126213  0.590017  1
  O  O26  1  0.131712  0.346562  0.414364  1
  O  O27  1  0.541850  0.958005  0.115394  1
  O  O28  1  0.952073  0.553551  0.875472  1
  O  O29  1  0.446447  0.047925  0.875472  1
  O  O30  1  0.041994  0.458149  0.115394  1
  O  O31  1  0.327698  0.202092  0.183833  1
  O  O32  1  0.202801  0.320542  0.814727  1
  O  O33  1  0.679458  0.797199  0.814727  1
  O  O34  1  0.797909  0.672302  0.183833  1
