# generated using pymatgen
data_Dy3Y(B4W)4
_symmetry_space_group_name_H-M   'P 1'
_cell_length_a   6.04035100
_cell_length_b   11.67594600
_cell_length_c   3.62659300
_cell_angle_alpha   90.00000000
_cell_angle_beta   90.00000000
_cell_angle_gamma   90.00028950
_symmetry_Int_Tables_number   1
_chemical_formula_structural   Dy3Y(B4W)4
_chemical_formula_sum   'Dy3 Y1 B16 W4'
_cell_volume   255.77204306
_cell_formula_units_Z   1
loop_
 _symmetry_equiv_pos_site_id
 _symmetry_equiv_pos_as_xyz
  1  'x, y, z'
loop_
 _atom_site_type_symbol
 _atom_site_label
 _atom_site_symmetry_multiplicity
 _atom_site_fract_x
 _atom_site_fract_y
 _atom_site_fract_z
 _atom_site_occupancy
  Dy  Dy0  1  0.373196  0.649674  0.000000  1
  Dy  Dy1  1  0.126813  0.149608  0.000000  1
  Dy  Dy2  1  0.873238  0.850329  0.000000  1
  Y  Y3  1  0.626737  0.350360  0.000000  1
  B  B4  1  0.786736  0.186408  0.500000  1
  B  B5  1  0.213488  0.813462  0.500000  1
  B  B6  1  0.286248  0.313370  0.500000  1
  B  B7  1  0.713450  0.686548  0.500000  1
  B  B8  1  0.866410  0.032075  0.500000  1
  B  B9  1  0.133605  0.967906  0.500000  1
  B  B10  1  0.366244  0.468058  0.500000  1
  B  B11  1  0.633559  0.532249  0.500000  1
  B  B12  1  0.886277  0.452817  0.500000  1
  B  B13  1  0.113969  0.547318  0.500000  1
  B  B14  1  0.386012  0.047269  0.500000  1
  B  B15  1  0.613948  0.952704  0.500000  1
  B  B16  1  0.975949  0.306774  0.500000  1
  B  B17  1  0.024347  0.693162  0.500000  1
  B  B18  1  0.475455  0.193047  0.500000  1
  B  B19  1  0.524327  0.806847  0.500000  1
  W  W20  1  0.630691  0.084426  0.000000  1
  W  W21  1  0.369333  0.915450  0.000000  1
  W  W22  1  0.130571  0.415531  0.000000  1
  W  W23  1  0.869398  0.584608  0.000000  1
