# generated using pymatgen
data_Ti4V14C15
_symmetry_space_group_name_H-M   'P 1'
_cell_length_a   5.15253474
_cell_length_b   5.14694270
_cell_length_c   14.53043604
_cell_angle_alpha   89.90355865
_cell_angle_beta   89.95158344
_cell_angle_gamma   120.11678325
_symmetry_Int_Tables_number   1
_chemical_formula_structural   Ti4V14C15
_chemical_formula_sum   'Ti4 V14 C15'
_cell_volume   333.32341420
_cell_formula_units_Z   1
loop_
 _symmetry_equiv_pos_site_id
 _symmetry_equiv_pos_as_xyz
  1  'x, y, z'
loop_
 _atom_site_type_symbol
 _atom_site_label
 _atom_site_symmetry_multiplicity
 _atom_site_fract_x
 _atom_site_fract_y
 _atom_site_fract_z
 _atom_site_occupancy
  Ti  Ti0  1  0.774073  0.541541  0.417300  1
  Ti  Ti1  1  0.767658  0.227842  0.084667  1
  Ti  Ti2  1  0.454720  0.229492  0.749858  1
  Ti  Ti3  1  0.768675  0.543433  0.915983  1
  V  V4  1  0.774405  0.246152  0.585205  1
  V  V5  1  0.471349  0.224955  0.253191  1
  V  V6  1  0.106458  0.520413  0.748175  1
  V  V7  1  0.479331  0.587500  0.082835  1
  V  V8  1  0.414176  0.890045  0.415605  1
  V  V9  1  0.480599  0.894402  0.918288  1
  V  V10  1  0.409568  0.517182  0.583705  1
  V  V11  1  0.108210  0.589547  0.252115  1
  V  V12  1  0.134521  0.881339  0.589556  1
  V  V13  1  0.118588  0.251810  0.923866  1
  V  V14  1  0.747858  0.865366  0.256866  1
  V  V15  1  0.118502  0.869486  0.076728  1
  V  V16  1  0.749250  0.880451  0.740424  1
  V  V17  1  0.130172  0.246818  0.408250  1
  C  C18  1  0.444220  0.223734  0.000710  1
  C  C19  1  0.776363  0.554113  0.665536  1
  C  C20  1  0.776799  0.220363  0.333585  1
  C  C21  1  0.126626  0.564489  0.000473  1
  C  C22  1  0.440320  0.876764  0.664463  1
  C  C23  1  0.436706  0.557756  0.332202  1
  C  C24  1  0.790296  0.895970  0.000523  1
  C  C25  1  0.099129  0.209218  0.664386  1
  C  C26  1  0.109713  0.898554  0.332238  1
  C  C27  1  0.431583  0.211764  0.500520  1
  C  C28  1  0.780640  0.567821  0.168564  1
  C  C29  1  0.786366  0.214524  0.832395  1
  C  C30  1  0.108147  0.549140  0.500726  1
  C  C31  1  0.442264  0.891241  0.168462  1
  C  C32  1  0.442716  0.556777  0.832597  1
