# generated using pymatgen
data_Dy2HgPtPb
_symmetry_space_group_name_H-M   'P 1'
_cell_length_a   8.11931600
_cell_length_b   8.10391200
_cell_length_c   3.77092700
_cell_angle_alpha   90.00000000
_cell_angle_beta   90.00000000
_cell_angle_gamma   90.00000000
_symmetry_Int_Tables_number   1
_chemical_formula_structural   Dy2HgPtPb
_chemical_formula_sum   'Dy4 Hg2 Pt2 Pb2'
_cell_volume   248.12029327
_cell_formula_units_Z   2
loop_
 _symmetry_equiv_pos_site_id
 _symmetry_equiv_pos_as_xyz
  1  'x, y, z'
loop_
 _atom_site_type_symbol
 _atom_site_label
 _atom_site_symmetry_multiplicity
 _atom_site_fract_x
 _atom_site_fract_y
 _atom_site_fract_z
 _atom_site_occupancy
  Dy  Dy0  1  0.638208  0.174411  0.500000  1
  Dy  Dy1  1  0.192360  0.335684  0.500000  1
  Dy  Dy2  1  0.861792  0.674411  0.500000  1
  Dy  Dy3  1  0.307640  0.835684  0.500000  1
  Hg  Hg4  1  0.625573  0.866954  0.000000  1
  Hg  Hg5  1  0.874427  0.366954  0.000000  1
  Pt  Pt6  1  0.371933  0.121647  0.000000  1
  Pt  Pt7  1  0.128067  0.621647  0.000000  1
  Pb  Pb8  1  0.003822  0.001302  0.000000  1
  Pb  Pb9  1  0.496178  0.501302  0.000000  1
