# generated using pymatgen
data_RbBHCl3
_symmetry_space_group_name_H-M   'P 1'
_cell_length_a   5.68071492
_cell_length_b   5.68071595
_cell_length_c   5.68071545
_cell_angle_alpha   73.59429672
_cell_angle_beta   73.59429450
_cell_angle_gamma   73.59430411
_symmetry_Int_Tables_number   1
_chemical_formula_structural   RbBHCl3
_chemical_formula_sum   'Rb1 B1 H1 Cl3'
_cell_volume   164.55415646
_cell_formula_units_Z   1
loop_
 _symmetry_equiv_pos_site_id
 _symmetry_equiv_pos_as_xyz
  1  'x, y, z'
loop_
 _atom_site_type_symbol
 _atom_site_label
 _atom_site_symmetry_multiplicity
 _atom_site_fract_x
 _atom_site_fract_y
 _atom_site_fract_z
 _atom_site_occupancy
  Rb  Rb0  1  0.986898  0.986898  0.986898  1
  B  B1  1  0.490684  0.490684  0.490684  1
  H  H2  1  0.393569  0.393569  0.393569  1
  Cl  Cl3  1  0.393103  0.393103  0.842645  1
  Cl  Cl4  1  0.393103  0.842645  0.393103  1
  Cl  Cl5  1  0.842645  0.393103  0.393103  1
