# generated using pymatgen
data_NdTh3(TcC2)2
_symmetry_space_group_name_H-M   'P 1'
_cell_length_a   5.36245600
_cell_length_b   6.66688700
_cell_length_c   10.13340700
_cell_angle_alpha   90.00000000
_cell_angle_beta   90.00000000
_cell_angle_gamma   90.00000000
_symmetry_Int_Tables_number   1
_chemical_formula_structural   NdTh3(TcC2)2
_chemical_formula_sum   'Nd2 Th6 Tc4 C8'
_cell_volume   362.27830069
_cell_formula_units_Z   2
loop_
 _symmetry_equiv_pos_site_id
 _symmetry_equiv_pos_as_xyz
  1  'x, y, z'
loop_
 _atom_site_type_symbol
 _atom_site_label
 _atom_site_symmetry_multiplicity
 _atom_site_fract_x
 _atom_site_fract_y
 _atom_site_fract_z
 _atom_site_occupancy
  Nd  Nd0  1  0.250000  0.309054  0.449180  1
  Nd  Nd1  1  0.750000  0.190946  0.949180  1
  Th  Th2  1  0.250000  0.474224  0.779617  1
  Th  Th3  1  0.750000  0.025776  0.279617  1
  Th  Th4  1  0.250000  0.978434  0.722898  1
  Th  Th5  1  0.750000  0.521566  0.222898  1
  Th  Th6  1  0.250000  0.812288  0.048449  1
  Th  Th7  1  0.750000  0.687712  0.548449  1
  Tc  Tc8  1  0.250000  0.272318  0.137760  1
  Tc  Tc9  1  0.750000  0.227682  0.637760  1
  Tc  Tc10  1  0.250000  0.771000  0.362505  1
  Tc  Tc11  1  0.750000  0.729000  0.862505  1
  C  C12  1  0.250000  0.676352  0.553055  1
  C  C13  1  0.750000  0.823648  0.053055  1
  C  C14  1  0.250000  0.170007  0.949119  1
  C  C15  1  0.750000  0.329993  0.449119  1
  C  C16  1  0.250000  0.032276  0.255207  1
  C  C17  1  0.750000  0.467724  0.755207  1
  C  C18  1  0.250000  0.534207  0.242209  1
  C  C19  1  0.750000  0.965793  0.742209  1
