# generated using pymatgen
data_Er3Al2IrC
_symmetry_space_group_name_H-M   'P 1'
_cell_length_a   9.05043781
_cell_length_b   9.05043761
_cell_length_c   9.05043700
_cell_angle_alpha   59.99999859
_cell_angle_beta   59.99999929
_cell_angle_gamma   59.99999460
_symmetry_Int_Tables_number   1
_chemical_formula_structural   Er3Al2IrC
_chemical_formula_sum   'Er12 Al8 Ir4 C4'
_cell_volume   524.19599010
_cell_formula_units_Z   4
loop_
 _symmetry_equiv_pos_site_id
 _symmetry_equiv_pos_as_xyz
  1  'x, y, z'
loop_
 _atom_site_type_symbol
 _atom_site_label
 _atom_site_symmetry_multiplicity
 _atom_site_fract_x
 _atom_site_fract_y
 _atom_site_fract_z
 _atom_site_occupancy
  Er  Er0  1  0.548491  0.951509  0.548491  1
  Er  Er1  1  0.298491  0.701509  0.701509  1
  Er  Er2  1  0.701509  0.298491  0.298491  1
  Er  Er3  1  0.298491  0.701509  0.298491  1
  Er  Er4  1  0.701509  0.701509  0.298491  1
  Er  Er5  1  0.298491  0.298491  0.701509  1
  Er  Er6  1  0.548491  0.548491  0.951509  1
  Er  Er7  1  0.951509  0.548491  0.548491  1
  Er  Er8  1  0.548491  0.951509  0.951509  1
  Er  Er9  1  0.951509  0.951509  0.548491  1
  Er  Er10  1  0.701509  0.298491  0.701509  1
  Er  Er11  1  0.951509  0.548491  0.951509  1
  Al  Al12  1  0.924011  0.924011  0.924011  1
  Al  Al13  1  0.022031  0.325989  0.325989  1
  Al  Al14  1  0.325989  0.022031  0.325989  1
  Al  Al15  1  0.325989  0.325989  0.022031  1
  Al  Al16  1  0.924011  0.227969  0.924011  1
  Al  Al17  1  0.924011  0.924011  0.227969  1
  Al  Al18  1  0.227969  0.924011  0.924011  1
  Al  Al19  1  0.325989  0.325989  0.325989  1
  Ir  Ir20  1  0.125000  0.125000  0.125000  1
  Ir  Ir21  1  0.625000  0.125000  0.125000  1
  Ir  Ir22  1  0.125000  0.625000  0.125000  1
  Ir  Ir23  1  0.125000  0.125000  0.625000  1
  C  C24  1  0.625000  0.625000  0.625000  1
  C  C25  1  0.125000  0.625000  0.625000  1
  C  C26  1  0.625000  0.125000  0.625000  1
  C  C27  1  0.625000  0.625000  0.125000  1
