# generated using pymatgen
data_NaSi4(PtRh2)2
_symmetry_space_group_name_H-M   'P 1'
_cell_length_a   7.07335404
_cell_length_b   7.16413930
_cell_length_c   3.74281100
_cell_angle_alpha   90.00000000
_cell_angle_beta   90.00000000
_cell_angle_gamma   120.42547860
_symmetry_Int_Tables_number   1
_chemical_formula_structural   NaSi4(PtRh2)2
_chemical_formula_sum   'Na1 Si4 Pt2 Rh4'
_cell_volume   163.54600427
_cell_formula_units_Z   1
loop_
 _symmetry_equiv_pos_site_id
 _symmetry_equiv_pos_as_xyz
  1  'x, y, z'
loop_
 _atom_site_type_symbol
 _atom_site_label
 _atom_site_symmetry_multiplicity
 _atom_site_fract_x
 _atom_site_fract_y
 _atom_site_fract_z
 _atom_site_occupancy
  Na  Na0  1  0.998065  0.999033  0.000000  1
  Si  Si1  1  0.795999  0.196397  0.500000  1
  Si  Si2  1  0.401318  0.200658  0.500000  1
  Si  Si3  1  0.343920  0.671961  0.000000  1
  Si  Si4  1  0.795999  0.599601  0.500000  1
  Pt  Pt5  1  0.193963  0.806258  0.500000  1
  Pt  Pt6  1  0.193963  0.387707  0.500000  1
  Rh  Rh7  1  0.532939  0.067974  0.000000  1
  Rh  Rh8  1  0.937195  0.468599  0.000000  1
  Rh  Rh9  1  0.532939  0.464967  0.000000  1
  Rh  Rh10  1  0.607031  0.803517  0.500000  1
