# generated using pymatgen
data_Dy2Sc10Tc3Ru
_symmetry_space_group_name_H-M   'P 1'
_cell_length_a   5.86081419
_cell_length_b   7.20149922
_cell_length_c   8.47925000
_cell_angle_alpha   90.00000000
_cell_angle_beta   90.00000000
_cell_angle_gamma   92.06792854
_symmetry_Int_Tables_number   1
_chemical_formula_structural   Dy2Sc10Tc3Ru
_chemical_formula_sum   'Dy2 Sc10 Tc3 Ru1'
_cell_volume   357.64765686
_cell_formula_units_Z   1
loop_
 _symmetry_equiv_pos_site_id
 _symmetry_equiv_pos_as_xyz
  1  'x, y, z'
loop_
 _atom_site_type_symbol
 _atom_site_label
 _atom_site_symmetry_multiplicity
 _atom_site_fract_x
 _atom_site_fract_y
 _atom_site_fract_z
 _atom_site_occupancy
  Dy  Dy0  1  0.619407  0.025250  0.250000  1
  Dy  Dy1  1  0.383057  0.972936  0.750000  1
  Sc  Sc2  1  0.337402  0.659626  0.061365  1
  Sc  Sc3  1  0.136116  0.189883  0.436919  1
  Sc  Sc4  1  0.660655  0.341625  0.560883  1
  Sc  Sc5  1  0.862495  0.810495  0.936928  1
  Sc  Sc6  1  0.660655  0.341625  0.939117  1
  Sc  Sc7  1  0.862495  0.810495  0.563072  1
  Sc  Sc8  1  0.337402  0.659626  0.438635  1
  Sc  Sc9  1  0.136116  0.189883  0.063081  1
  Sc  Sc10  1  0.882972  0.547303  0.250000  1
  Sc  Sc11  1  0.120719  0.451089  0.750000  1
  Tc  Tc12  1  0.077844  0.884855  0.250000  1
  Tc  Tc13  1  0.461074  0.382072  0.250000  1
  Tc  Tc14  1  0.922824  0.115236  0.750000  1
  Ru  Ru15  1  0.538770  0.618001  0.750000  1
