# generated using pymatgen
data_TbNdTcB6
_symmetry_space_group_name_H-M   'P 1'
_cell_length_a   3.75560900
_cell_length_b   9.26152900
_cell_length_c   11.71442100
_cell_angle_alpha   90.00000000
_cell_angle_beta   90.00000000
_cell_angle_gamma   90.00000000
_symmetry_Int_Tables_number   1
_chemical_formula_structural   TbNdTcB6
_chemical_formula_sum   'Tb4 Nd4 Tc4 B24'
_cell_volume   407.45897655
_cell_formula_units_Z   4
loop_
 _symmetry_equiv_pos_site_id
 _symmetry_equiv_pos_as_xyz
  1  'x, y, z'
loop_
 _atom_site_type_symbol
 _atom_site_label
 _atom_site_symmetry_multiplicity
 _atom_site_fract_x
 _atom_site_fract_y
 _atom_site_fract_z
 _atom_site_occupancy
  Tb  Tb0  1  0.000000  0.942774  0.368687  1
  Tb  Tb1  1  0.000000  0.057226  0.631313  1
  Tb  Tb2  1  0.000000  0.442774  0.131313  1
  Tb  Tb3  1  0.000000  0.557226  0.868687  1
  Nd  Nd4  1  0.000000  0.323688  0.414363  1
  Nd  Nd5  1  0.000000  0.676312  0.585637  1
  Nd  Nd6  1  0.000000  0.823688  0.085637  1
  Nd  Nd7  1  0.000000  0.176312  0.914363  1
  Tc  Tc8  1  0.000000  0.639837  0.319251  1
  Tc  Tc9  1  0.000000  0.360163  0.680749  1
  Tc  Tc10  1  0.000000  0.139837  0.180749  1
  Tc  Tc11  1  0.000000  0.860163  0.819251  1
  B  B12  1  0.500000  0.555261  0.430537  1
  B  B13  1  0.500000  0.444739  0.569463  1
  B  B14  1  0.500000  0.055261  0.069463  1
  B  B15  1  0.500000  0.944739  0.930537  1
  B  B16  1  0.500000  0.748964  0.416042  1
  B  B17  1  0.500000  0.251036  0.583958  1
  B  B18  1  0.500000  0.248964  0.083958  1
  B  B19  1  0.500000  0.751036  0.916042  1
  B  B20  1  0.500000  0.791123  0.266050  1
  B  B21  1  0.500000  0.208877  0.733950  1
  B  B22  1  0.500000  0.291123  0.233950  1
  B  B23  1  0.500000  0.708877  0.766050  1
  B  B24  1  0.500000  0.630506  0.186635  1
  B  B25  1  0.500000  0.369494  0.813365  1
  B  B26  1  0.500000  0.130506  0.313365  1
  B  B27  1  0.500000  0.869494  0.686635  1
  B  B28  1  0.500000  0.985009  0.212674  1
  B  B29  1  0.500000  0.014991  0.787326  1
  B  B30  1  0.500000  0.485009  0.287326  1
  B  B31  1  0.500000  0.514991  0.712674  1
  B  B32  1  0.500000  0.597438  0.026954  1
  B  B33  1  0.500000  0.402562  0.973046  1
  B  B34  1  0.500000  0.097438  0.473046  1
  B  B35  1  0.500000  0.902562  0.526954  1
