# generated using pymatgen
data_La20Ga4Si7Ge
_symmetry_space_group_name_H-M   'P 1'
_cell_length_a   7.90176480
_cell_length_b   7.90081550
_cell_length_c   14.55766700
_cell_angle_alpha   89.98411838
_cell_angle_beta   90.03862614
_cell_angle_gamma   89.96842877
_symmetry_Int_Tables_number   1
_chemical_formula_structural   La20Ga4Si7Ge
_chemical_formula_sum   'La20 Ga4 Si7 Ge1'
_cell_volume   908.84038771
_cell_formula_units_Z   1
loop_
 _symmetry_equiv_pos_site_id
 _symmetry_equiv_pos_as_xyz
  1  'x, y, z'
loop_
 _atom_site_type_symbol
 _atom_site_label
 _atom_site_symmetry_multiplicity
 _atom_site_fract_x
 _atom_site_fract_y
 _atom_site_fract_z
 _atom_site_occupancy
  La  La0  1  0.817730  0.826766  0.607037  1
  La  La1  1  0.185698  0.828562  0.105929  1
  La  La2  1  0.166019  0.807835  0.393618  1
  La  La3  1  0.000813  0.499052  0.727369  1
  La  La4  1  0.832604  0.190468  0.394480  1
  La  La5  1  0.688122  0.665391  0.393810  1
  La  La6  1  0.670984  0.315872  0.606696  1
  La  La7  1  0.327404  0.683155  0.606657  1
  La  La8  1  0.997620  0.506679  0.218086  1
  La  La9  1  0.668714  0.685208  0.105843  1
  La  La10  1  0.684637  0.328326  0.893390  1
  La  La11  1  0.827868  0.815217  0.893246  1
  La  La12  1  0.314255  0.338619  0.396058  1
  La  La13  1  0.181573  0.171376  0.606636  1
  La  La14  1  0.811747  0.169847  0.106690  1
  La  La15  1  0.314663  0.670386  0.893187  1
  La  La16  1  0.335816  0.317492  0.103137  1
  La  La17  1  0.506561  0.997489  0.277975  1
  La  La18  1  0.170315  0.183878  0.893968  1
  La  La19  1  0.499162  0.000903  0.775681  1
  Ga  Ga20  1  0.498788  0.998594  0.496541  1
  Ga  Ga21  1  0.499035  0.998211  0.996760  1
  Ga  Ga22  1  0.117958  0.118030  0.249877  1
  Ga  Ga23  1  0.998684  0.498978  0.000758  1
  Si  Si24  1  0.612736  0.386980  0.250198  1
  Si  Si25  1  0.112652  0.887126  0.750400  1
  Si  Si26  1  0.387305  0.386700  0.750177  1
  Si  Si27  1  0.387574  0.613080  0.249608  1
  Si  Si28  1  0.885029  0.885392  0.250013  1
  Si  Si29  1  0.612280  0.612830  0.750082  1
  Si  Si30  1  0.886728  0.112160  0.750247  1
  Ge  Ge31  1  0.998926  0.499398  0.505847  1
