# generated using pymatgen
data_Pr2Nd10Rh3AuBr12
_symmetry_space_group_name_H-M   'P 1'
_cell_length_a   10.56281064
_cell_length_b   10.56501649
_cell_length_c   10.56916952
_cell_angle_alpha   109.86775607
_cell_angle_beta   109.94378701
_cell_angle_gamma   109.73035141
_symmetry_Int_Tables_number   1
_chemical_formula_structural   Pr2Nd10Rh3AuBr12
_chemical_formula_sum   'Pr2 Nd10 Rh3 Au1 Br12'
_cell_volume   895.09614797
_cell_formula_units_Z   1
loop_
 _symmetry_equiv_pos_site_id
 _symmetry_equiv_pos_as_xyz
  1  'x, y, z'
loop_
 _atom_site_type_symbol
 _atom_site_label
 _atom_site_symmetry_multiplicity
 _atom_site_fract_x
 _atom_site_fract_y
 _atom_site_fract_z
 _atom_site_occupancy
  Pr  Pr0  1  0.268303  0.006906  0.027066  1
  Pr  Pr1  1  0.233692  0.266199  0.749963  1
  Nd  Nd2  1  0.472318  0.492930  0.231597  1
  Nd  Nd3  1  0.750637  0.233804  0.267010  1
  Nd  Nd4  1  0.749198  0.013738  0.485460  1
  Nd  Nd5  1  0.231084  0.472386  0.492406  1
  Nd  Nd6  1  0.266464  0.749508  0.233392  1
  Nd  Nd7  1  0.027736  0.269011  0.007596  1
  Nd  Nd8  1  0.007259  0.027930  0.268872  1
  Nd  Nd9  1  0.486181  0.750219  0.014337  1
  Nd  Nd10  1  0.492859  0.231365  0.472360  1
  Nd  Nd11  1  0.014096  0.485909  0.750004  1
  Rh  Rh12  1  0.502205  0.998323  0.250483  1
  Rh  Rh13  1  0.997866  0.250051  0.501200  1
  Rh  Rh14  1  0.250044  0.502172  0.998832  1
  Au  Au15  1  0.250062  0.250706  0.250747  1
  Br  Br16  1  0.250045  0.755420  0.742540  1
  Br  Br17  1  0.509202  0.503837  0.752909  1
  Br  Br18  1  0.990806  0.746325  0.997324  1
  Br  Br19  1  0.743563  0.250032  0.756432  1
  Br  Br20  1  0.995271  0.990779  0.746341  1
  Br  Br21  1  0.250075  0.996356  0.502198  1
  Br  Br22  1  0.752865  0.508338  0.502954  1
  Br  Br23  1  0.504769  0.251161  0.998066  1
  Br  Br24  1  0.756322  0.743697  0.249958  1
  Br  Br25  1  0.747154  0.997260  0.991733  1
  Br  Br26  1  0.996994  0.502840  0.249834  1
  Br  Br27  1  0.502933  0.752799  0.508387  1
