# generated using pymatgen
data_Tm2V3Co9Si3As4
_symmetry_space_group_name_H-M   'P 1'
_cell_length_a   3.70872800
_cell_length_b   9.33407491
_cell_length_c   9.33177293
_cell_angle_alpha   120.17478717
_cell_angle_beta   90.00000000
_cell_angle_gamma   90.00000000
_symmetry_Int_Tables_number   1
_chemical_formula_structural   Tm2V3Co9Si3As4
_chemical_formula_sum   'Tm2 V3 Co9 Si3 As4'
_cell_volume   279.26946374
_cell_formula_units_Z   1
loop_
 _symmetry_equiv_pos_site_id
 _symmetry_equiv_pos_as_xyz
  1  'x, y, z'
loop_
 _atom_site_type_symbol
 _atom_site_label
 _atom_site_symmetry_multiplicity
 _atom_site_fract_x
 _atom_site_fract_y
 _atom_site_fract_z
 _atom_site_occupancy
  Tm  Tm0  1  0.000000  0.662312  0.328380  1
  Tm  Tm1  1  0.500000  0.335034  0.667714  1
  V  V2  1  0.500000  0.787109  0.900160  1
  V  V3  1  0.500000  0.109606  0.212109  1
  V  V4  1  0.500000  0.101582  0.890052  1
  Co  Co5  1  0.000000  0.573452  0.947898  1
  Co  Co6  1  0.000000  0.374760  0.426960  1
  Co  Co7  1  0.000000  0.058423  0.627518  1
  Co  Co8  1  0.000000  0.877565  0.154628  1
  Co  Co9  1  0.000000  0.276979  0.122774  1
  Co  Co10  1  0.000000  0.844885  0.724361  1
  Co  Co11  1  0.500000  0.947160  0.381033  1
  Co  Co12  1  0.500000  0.437841  0.055649  1
  Co  Co13  1  0.500000  0.613840  0.562352  1
  Si  Si14  1  0.000000  0.999923  0.000331  1
  Si  Si15  1  0.500000  0.709734  0.117822  1
  Si  Si16  1  0.500000  0.407092  0.289012  1
  As  As17  1  0.500000  0.879545  0.588530  1
  As  As18  1  0.000000  0.587199  0.703516  1
  As  As19  1  0.000000  0.116509  0.412251  1
  As  As20  1  0.000000  0.299449  0.886950  1
