# generated using pymatgen
data_Ca2LaDy(Ru2O7)2
_symmetry_space_group_name_H-M   'P 1'
_cell_length_a   7.29873309
_cell_length_b   7.35852566
_cell_length_c   7.29873229
_cell_angle_alpha   59.98803282
_cell_angle_beta   59.78341673
_cell_angle_gamma   59.98803313
_symmetry_Int_Tables_number   1
_chemical_formula_structural   Ca2LaDy(Ru2O7)2
_chemical_formula_sum   'Ca2 La1 Dy1 Ru4 O14'
_cell_volume   276.67918851
_cell_formula_units_Z   1
loop_
 _symmetry_equiv_pos_site_id
 _symmetry_equiv_pos_as_xyz
  1  'x, y, z'
loop_
 _atom_site_type_symbol
 _atom_site_label
 _atom_site_symmetry_multiplicity
 _atom_site_fract_x
 _atom_site_fract_y
 _atom_site_fract_z
 _atom_site_occupancy
  Ca  Ca0  1  0.125000  0.125000  0.625000  1
  Ca  Ca1  1  0.625000  0.125000  0.125000  1
  La  La2  1  0.125000  0.125000  0.125000  1
  Dy  Dy3  1  0.125000  0.625000  0.125000  1
  Ru  Ru4  1  0.625000  0.625000  0.125000  1
  Ru  Ru5  1  0.625000  0.125000  0.625000  1
  Ru  Ru6  1  0.125000  0.625000  0.625000  1
  Ru  Ru7  1  0.625000  0.625000  0.625000  1
  O  O8  1  0.248165  0.262288  0.248165  1
  O  O9  1  0.001835  0.987712  0.001835  1
  O  O10  1  0.296140  0.696888  0.296140  1
  O  O11  1  0.556751  0.943759  0.556751  1
  O  O12  1  0.299123  0.301695  0.696778  1
  O  O13  1  0.696778  0.301695  0.299123  1
  O  O14  1  0.300351  0.693788  0.704139  1
  O  O15  1  0.704139  0.693788  0.300351  1
  O  O16  1  0.693249  0.306241  0.693249  1
  O  O17  1  0.949649  0.556212  0.545861  1
  O  O18  1  0.553222  0.948305  0.950877  1
  O  O19  1  0.953860  0.553112  0.953860  1
  O  O20  1  0.545861  0.556212  0.949649  1
  O  O21  1  0.950877  0.948305  0.553222  1
