# generated using pymatgen
data_Ba4HfS6
_symmetry_space_group_name_H-M   'P 1'
_cell_length_a   8.62729219
_cell_length_b   8.62729148
_cell_length_c   8.62729273
_cell_angle_alpha   89.41574877
_cell_angle_beta   89.41575296
_cell_angle_gamma   89.41576422
_symmetry_Int_Tables_number   1
_chemical_formula_structural   Ba4HfS6
_chemical_formula_sum   'Ba8 Hf2 S12'
_cell_volume   642.03134088
_cell_formula_units_Z   2
loop_
 _symmetry_equiv_pos_site_id
 _symmetry_equiv_pos_as_xyz
  1  'x, y, z'
loop_
 _atom_site_type_symbol
 _atom_site_label
 _atom_site_symmetry_multiplicity
 _atom_site_fract_x
 _atom_site_fract_y
 _atom_site_fract_z
 _atom_site_occupancy
  Ba  Ba0  1  0.875267  0.624733  0.250000  1
  Ba  Ba1  1  0.250000  0.875267  0.624733  1
  Ba  Ba2  1  0.624733  0.250000  0.875267  1
  Ba  Ba3  1  0.750000  0.124733  0.375267  1
  Ba  Ba4  1  0.375267  0.750000  0.124733  1
  Ba  Ba5  1  0.124733  0.375267  0.750000  1
  Ba  Ba6  1  0.250000  0.250000  0.250000  1
  Ba  Ba7  1  0.750000  0.750000  0.750000  1
  Hf  Hf8  1  0.500000  0.500000  0.500000  1
  Hf  Hf9  1  0.000000  0.000000  0.000000  1
  S  S10  1  0.214653  0.559802  0.427693  1
  S  S11  1  0.427693  0.214653  0.559802  1
  S  S12  1  0.559802  0.427693  0.214653  1
  S  S13  1  0.927693  0.059802  0.714653  1
  S  S14  1  0.714653  0.927693  0.059802  1
  S  S15  1  0.059802  0.714653  0.927693  1
  S  S16  1  0.785347  0.440198  0.572307  1
  S  S17  1  0.572307  0.785347  0.440198  1
  S  S18  1  0.440198  0.572307  0.785347  1
  S  S19  1  0.072307  0.940198  0.285347  1
  S  S20  1  0.285347  0.072307  0.940198  1
  S  S21  1  0.940198  0.285347  0.072307  1
