# generated using pymatgen
data_Y4Cr3Fe(WO6)4
_symmetry_space_group_name_H-M   'P 1'
_cell_length_a   5.24826305
_cell_length_b   7.44102512
_cell_length_c   11.06869715
_cell_angle_alpha   90.00367648
_cell_angle_beta   90.07042848
_cell_angle_gamma   89.97962402
_symmetry_Int_Tables_number   1
_chemical_formula_structural   Y4Cr3Fe(WO6)4
_chemical_formula_sum   'Y4 Cr3 Fe1 W4 O24'
_cell_volume   432.25946686
_cell_formula_units_Z   1
loop_
 _symmetry_equiv_pos_site_id
 _symmetry_equiv_pos_as_xyz
  1  'x, y, z'
loop_
 _atom_site_type_symbol
 _atom_site_label
 _atom_site_symmetry_multiplicity
 _atom_site_fract_x
 _atom_site_fract_y
 _atom_site_fract_z
 _atom_site_occupancy
  Y  Y0  1  0.546620  0.251851  0.045609  1
  Y  Y1  1  0.046852  0.750537  0.454788  1
  Y  Y2  1  0.954088  0.249864  0.544230  1
  Y  Y3  1  0.454262  0.750264  0.956179  1
  Cr  Cr4  1  0.050082  0.998772  0.135157  1
  Cr  Cr5  1  0.548881  0.498623  0.364290  1
  Cr  Cr6  1  0.449844  0.998754  0.635261  1
  Fe  Fe7  1  0.956082  0.496136  0.861331  1
  W  W8  1  0.054114  0.506449  0.143190  1
  W  W9  1  0.556900  0.005786  0.356896  1
  W  W10  1  0.445777  0.506338  0.642394  1
  W  W11  1  0.942934  0.005625  0.856971  1
  O  O12  1  0.756419  0.960342  0.021196  1
  O  O13  1  0.764807  0.545327  0.027908  1
  O  O14  1  0.175087  0.748874  0.117777  1
  O  O15  1  0.935110  0.258458  0.143679  1
  O  O16  1  0.375105  0.435218  0.207828  1
  O  O17  1  0.386470  0.066973  0.214268  1
  O  O18  1  0.886713  0.567122  0.286736  1
  O  O19  1  0.876485  0.935400  0.292630  1
  O  O20  1  0.434842  0.758864  0.356496  1
  O  O21  1  0.674756  0.248858  0.382405  1
  O  O22  1  0.267445  0.044954  0.474809  1
  O  O23  1  0.256086  0.460704  0.478297  1
  O  O24  1  0.743889  0.960319  0.521503  1
  O  O25  1  0.732677  0.545031  0.525385  1
  O  O26  1  0.324746  0.748678  0.617325  1
  O  O27  1  0.565658  0.258889  0.643764  1
  O  O28  1  0.123882  0.434285  0.705856  1
  O  O29  1  0.113325  0.067183  0.714324  1
  O  O30  1  0.610999  0.567648  0.786509  1
  O  O31  1  0.623429  0.934948  0.792444  1
  O  O32  1  0.065265  0.758610  0.856091  1
  O  O33  1  0.824043  0.248784  0.882160  1
  O  O34  1  0.232025  0.045247  0.974966  1
  O  O35  1  0.244300  0.460682  0.979349  1
