# generated using pymatgen
data_Lu20(Ir3Pd)3
_symmetry_space_group_name_H-M   'P 1'
_cell_length_a   10.68100791
_cell_length_b   10.68100774
_cell_length_c   6.15261200
_cell_angle_alpha   89.90427461
_cell_angle_beta   89.90427461
_cell_angle_gamma   90.61109832
_symmetry_Int_Tables_number   1
_chemical_formula_structural   Lu20(Ir3Pd)3
_chemical_formula_sum   'Lu20 Ir9 Pd3'
_cell_volume   701.87224158
_cell_formula_units_Z   1
loop_
 _symmetry_equiv_pos_site_id
 _symmetry_equiv_pos_as_xyz
  1  'x, y, z'
loop_
 _atom_site_type_symbol
 _atom_site_label
 _atom_site_symmetry_multiplicity
 _atom_site_fract_x
 _atom_site_fract_y
 _atom_site_fract_z
 _atom_site_occupancy
  Lu  Lu0  1  0.293215  0.084307  0.367047  1
  Lu  Lu1  1  0.292794  0.907899  0.875057  1
  Lu  Lu2  1  0.704628  0.089852  0.869876  1
  Lu  Lu3  1  0.702960  0.909481  0.368871  1
  Lu  Lu4  1  0.581928  0.789372  0.875619  1
  Lu  Lu5  1  0.582024  0.209775  0.375236  1
  Lu  Lu6  1  0.411230  0.790359  0.375704  1
  Lu  Lu7  1  0.416622  0.209888  0.874813  1
  Lu  Lu8  1  0.210628  0.418072  0.624381  1
  Lu  Lu9  1  0.209641  0.588770  0.124296  1
  Lu  Lu10  1  0.790225  0.417976  0.124764  1
  Lu  Lu11  1  0.790112  0.583378  0.625187  1
  Lu  Lu12  1  0.915693  0.706785  0.132953  1
  Lu  Lu13  1  0.910148  0.295372  0.630124  1
  Lu  Lu14  1  0.092101  0.707206  0.624943  1
  Lu  Lu15  1  0.090519  0.297040  0.131129  1
  Lu  Lu16  1  0.000695  0.997514  0.499981  1
  Lu  Lu17  1  0.002486  0.999305  0.000019  1
  Lu  Lu18  1  0.499755  0.499445  0.001025  1
  Lu  Lu19  1  0.500555  0.500245  0.498975  1
  Ir  Ir20  1  0.151854  0.848146  0.250000  1
  Ir  Ir21  1  0.654523  0.345477  0.750000  1
  Ir  Ir22  1  0.656529  0.654822  0.248671  1
  Ir  Ir23  1  0.345178  0.343471  0.251329  1
  Ir  Ir24  1  0.347022  0.652978  0.750000  1
  Ir  Ir25  1  0.500510  0.999766  0.120992  1
  Ir  Ir26  1  0.500069  0.999726  0.623176  1
  Ir  Ir27  1  0.000274  0.499931  0.876824  1
  Ir  Ir28  1  0.000234  0.499490  0.379008  1
  Pd  Pd29  1  0.846623  0.153377  0.250000  1
  Pd  Pd30  1  0.843187  0.843963  0.750412  1
  Pd  Pd31  1  0.156037  0.156813  0.749588  1
