# generated using pymatgen
data_ErTh3PdPt11
_symmetry_space_group_name_H-M   'P 1'
_cell_length_a   5.94873812
_cell_length_b   5.94873683
_cell_length_c   9.76303300
_cell_angle_alpha   90.00000000
_cell_angle_beta   90.00000000
_cell_angle_gamma   120.02265569
_symmetry_Int_Tables_number   1
_chemical_formula_structural   ErTh3PdPt11
_chemical_formula_sum   'Er1 Th3 Pd1 Pt11'
_cell_volume   299.13401729
_cell_formula_units_Z   1
loop_
 _symmetry_equiv_pos_site_id
 _symmetry_equiv_pos_as_xyz
  1  'x, y, z'
loop_
 _atom_site_type_symbol
 _atom_site_label
 _atom_site_symmetry_multiplicity
 _atom_site_fract_x
 _atom_site_fract_y
 _atom_site_fract_z
 _atom_site_occupancy
  Er  Er0  1  0.332945  0.667055  0.250000  1
  Th  Th1  1  0.999946  0.000054  0.495540  1
  Th  Th2  1  0.999946  0.000054  0.004460  1
  Th  Th3  1  0.666891  0.333109  0.750000  1
  Pd  Pd4  1  0.825112  0.174888  0.250000  1
  Pt  Pt5  1  0.499118  0.500882  0.497188  1
  Pt  Pt6  1  0.499074  0.998359  0.497608  1
  Pt  Pt7  1  0.001641  0.500926  0.497608  1
  Pt  Pt8  1  0.499118  0.500882  0.002812  1
  Pt  Pt9  1  0.499074  0.998359  0.002392  1
  Pt  Pt10  1  0.001641  0.500926  0.002392  1
  Pt  Pt11  1  0.824369  0.648107  0.250000  1
  Pt  Pt12  1  0.351893  0.175631  0.250000  1
  Pt  Pt13  1  0.174746  0.349208  0.750000  1
  Pt  Pt14  1  0.650792  0.825254  0.750000  1
  Pt  Pt15  1  0.173697  0.826303  0.750000  1
