# generated using pymatgen
data_Ta4NbGa(B2Ru5)2
_symmetry_space_group_name_H-M   'P 1'
_cell_length_a   9.38646970
_cell_length_b   9.38525870
_cell_length_c   3.01446200
_cell_angle_alpha   90.00000000
_cell_angle_beta   90.00000000
_cell_angle_gamma   90.06901110
_symmetry_Int_Tables_number   1
_chemical_formula_structural   Ta4NbGa(B2Ru5)2
_chemical_formula_sum   'Ta4 Nb1 Ga1 B4 Ru10'
_cell_volume   265.55716862
_cell_formula_units_Z   1
loop_
 _symmetry_equiv_pos_site_id
 _symmetry_equiv_pos_as_xyz
  1  'x, y, z'
loop_
 _atom_site_type_symbol
 _atom_site_label
 _atom_site_symmetry_multiplicity
 _atom_site_fract_x
 _atom_site_fract_y
 _atom_site_fract_z
 _atom_site_occupancy
  Ta  Ta0  1  0.180145  0.324662  0.000000  1
  Ta  Ta1  1  0.324790  0.820501  0.000000  1
  Ta  Ta2  1  0.674903  0.179488  0.000000  1
  Ta  Ta3  1  0.999930  0.000035  0.000000  1
  Nb  Nb4  1  0.820385  0.675112  0.000000  1
  Ga  Ga5  1  0.500312  0.500186  0.000000  1
  B  B6  1  0.616371  0.870713  0.000000  1
  B  B7  1  0.383653  0.129437  0.000000  1
  B  B8  1  0.129387  0.616118  0.000000  1
  B  B9  1  0.870740  0.383566  0.000000  1
  Ru  Ru10  1  0.567970  0.715648  0.500000  1
  Ru  Ru11  1  0.431062  0.284796  0.500000  1
  Ru  Ru12  1  0.071855  0.780543  0.500000  1
  Ru  Ru13  1  0.928743  0.219460  0.500000  1
  Ru  Ru14  1  0.284876  0.568958  0.500000  1
  Ru  Ru15  1  0.715095  0.430211  0.500000  1
  Ru  Ru16  1  0.219486  0.071310  0.500000  1
  Ru  Ru17  1  0.780069  0.929646  0.500000  1
  Ru  Ru18  1  0.499741  0.000098  0.500000  1
  Ru  Ru19  1  0.000488  0.499511  0.500000  1
