# generated using pymatgen
data_Tb8Hf11Si16Au
_symmetry_space_group_name_H-M   'P 1'
_cell_length_a   7.30106604
_cell_length_b   7.30106604
_cell_length_c   13.28304706
_cell_angle_alpha   89.76158770
_cell_angle_beta   90.23841230
_cell_angle_gamma   89.78961750
_symmetry_Int_Tables_number   1
_chemical_formula_structural   Tb8Hf11Si16Au
_chemical_formula_sum   'Tb8 Hf11 Si16 Au1'
_cell_volume   708.04325455
_cell_formula_units_Z   1
loop_
 _symmetry_equiv_pos_site_id
 _symmetry_equiv_pos_as_xyz
  1  'x, y, z'
loop_
 _atom_site_type_symbol
 _atom_site_label
 _atom_site_symmetry_multiplicity
 _atom_site_fract_x
 _atom_site_fract_y
 _atom_site_fract_z
 _atom_site_occupancy
  Tb  Tb0  1  0.998158  0.345530  0.210465  1
  Tb  Tb1  1  0.004948  0.655340  0.716615  1
  Tb  Tb2  1  0.155145  0.495430  0.464846  1
  Tb  Tb3  1  0.498331  0.848414  0.032693  1
  Tb  Tb4  1  0.848414  0.498331  0.967307  1
  Tb  Tb5  1  0.495430  0.155145  0.535154  1
  Tb  Tb6  1  0.345530  0.998158  0.789535  1
  Tb  Tb7  1  0.655340  0.004948  0.283385  1
  Hf  Hf8  1  0.824742  0.824742  0.500000  1
  Hf  Hf9  1  0.322943  0.676811  0.249087  1
  Hf  Hf10  1  0.676811  0.322943  0.750913  1
  Hf  Hf11  1  0.145490  0.996271  0.373877  1
  Hf  Hf12  1  0.857211  0.003340  0.878845  1
  Hf  Hf13  1  0.504292  0.646840  0.626398  1
  Hf  Hf14  1  0.355258  0.491504  0.877823  1
  Hf  Hf15  1  0.491504  0.355258  0.122177  1
  Hf  Hf16  1  0.646840  0.504292  0.373602  1
  Hf  Hf17  1  0.996271  0.145490  0.626123  1
  Hf  Hf18  1  0.003340  0.857211  0.121155  1
  Si  Si19  1  0.360004  0.295942  0.316273  1
  Si  Si20  1  0.639579  0.704363  0.819725  1
  Si  Si21  1  0.207072  0.861393  0.568552  1
  Si  Si22  1  0.131387  0.774791  0.927293  1
  Si  Si23  1  0.774791  0.131387  0.072707  1
  Si  Si24  1  0.861393  0.207072  0.431448  1
  Si  Si25  1  0.295942  0.360004  0.683727  1
  Si  Si26  1  0.704363  0.639579  0.180275  1
  Si  Si27  1  0.295199  0.051971  0.189009  1
  Si  Si28  1  0.704913  0.950430  0.686844  1
  Si  Si29  1  0.450075  0.795270  0.435524  1
  Si  Si30  1  0.210484  0.566743  0.064286  1
  Si  Si31  1  0.566743  0.210484  0.935714  1
  Si  Si32  1  0.795270  0.450075  0.564476  1
  Si  Si33  1  0.051971  0.295199  0.810991  1
  Si  Si34  1  0.950430  0.704913  0.313156  1
  Au  Au35  1  0.174384  0.174384  0.000000  1
