# generated using pymatgen
data_Zr16Ni4Mo3Pt
_symmetry_space_group_name_H-M   'P 1'
_cell_length_a   8.78593795
_cell_length_b   8.81050274
_cell_length_c   8.81050200
_cell_angle_alpha   59.99999527
_cell_angle_beta   59.90746376
_cell_angle_gamma   59.90746221
_symmetry_Int_Tables_number   1
_chemical_formula_structural   Zr16Ni4Mo3Pt
_chemical_formula_sum   'Zr16 Ni4 Mo3 Pt1'
_cell_volume   481.57684696
_cell_formula_units_Z   1
loop_
 _symmetry_equiv_pos_site_id
 _symmetry_equiv_pos_as_xyz
  1  'x, y, z'
loop_
 _atom_site_type_symbol
 _atom_site_label
 _atom_site_symmetry_multiplicity
 _atom_site_fract_x
 _atom_site_fract_y
 _atom_site_fract_z
 _atom_site_occupancy
  Zr  Zr0  1  0.192196  0.602602  0.602602  1
  Zr  Zr1  1  0.602387  0.193481  0.602067  1
  Zr  Zr2  1  0.602387  0.602067  0.602067  1
  Zr  Zr3  1  0.602387  0.602067  0.193481  1
  Zr  Zr4  1  0.451803  0.451702  0.048247  1
  Zr  Zr5  1  0.048147  0.045795  0.453029  1
  Zr  Zr6  1  0.451803  0.048247  0.048247  1
  Zr  Zr7  1  0.048147  0.453029  0.453029  1
  Zr  Zr8  1  0.048147  0.453029  0.045795  1
  Zr  Zr9  1  0.451803  0.048247  0.451702  1
  Zr  Zr10  1  0.814582  0.815688  0.184865  1
  Zr  Zr11  1  0.177906  0.189689  0.816202  1
  Zr  Zr12  1  0.814582  0.184865  0.184865  1
  Zr  Zr13  1  0.177906  0.816202  0.816202  1
  Zr  Zr14  1  0.177906  0.816202  0.189689  1
  Zr  Zr15  1  0.814582  0.184865  0.815688  1
  Ni  Ni16  1  0.826727  0.391091  0.391091  1
  Ni  Ni17  1  0.394023  0.826186  0.389896  1
  Ni  Ni18  1  0.394023  0.389896  0.389896  1
  Ni  Ni19  1  0.394023  0.389896  0.826186  1
  Mo  Mo20  1  0.836019  0.500072  0.831955  1
  Mo  Mo21  1  0.836019  0.831955  0.831955  1
  Mo  Mo22  1  0.836019  0.831955  0.500072  1
  Pt  Pt23  1  0.506478  0.831174  0.831174  1
