# generated using pymatgen
data_La2Nd14Cd4CuIr3
_symmetry_space_group_name_H-M   'P 1'
_cell_length_a   9.95406373
_cell_length_b   9.95406340
_cell_length_c   9.96176981
_cell_angle_alpha   60.43901001
_cell_angle_beta   60.43900953
_cell_angle_gamma   60.37865588
_symmetry_Int_Tables_number   1
_chemical_formula_structural   La2Nd14Cd4CuIr3
_chemical_formula_sum   'La2 Nd14 Cd4 Cu1 Ir3'
_cell_volume   704.55718098
_cell_formula_units_Z   1
loop_
 _symmetry_equiv_pos_site_id
 _symmetry_equiv_pos_as_xyz
  1  'x, y, z'
loop_
 _atom_site_type_symbol
 _atom_site_label
 _atom_site_symmetry_multiplicity
 _atom_site_fract_x
 _atom_site_fract_y
 _atom_site_fract_z
 _atom_site_occupancy
  La  La0  1  0.345175  0.345175  0.346889  1
  La  La1  1  0.351560  0.351560  0.950855  1
  Nd  Nd2  1  0.352062  0.946729  0.352977  1
  Nd  Nd3  1  0.946729  0.352062  0.352977  1
  Nd  Nd4  1  0.806134  0.190861  0.189942  1
  Nd  Nd5  1  0.190560  0.810823  0.809482  1
  Nd  Nd6  1  0.190861  0.806134  0.189942  1
  Nd  Nd7  1  0.810823  0.190560  0.809482  1
  Nd  Nd8  1  0.189995  0.189995  0.806628  1
  Nd  Nd9  1  0.810196  0.810196  0.190138  1
  Nd  Nd10  1  0.940212  0.562553  0.562494  1
  Nd  Nd11  1  0.564628  0.938523  0.938361  1
  Nd  Nd12  1  0.562553  0.940212  0.562494  1
  Nd  Nd13  1  0.938523  0.564628  0.938361  1
  Nd  Nd14  1  0.563087  0.563087  0.939761  1
  Nd  Nd15  1  0.938590  0.938590  0.564492  1
  Cd  Cd16  1  0.581241  0.581241  0.579323  1
  Cd  Cd17  1  0.580755  0.580755  0.259228  1
  Cd  Cd18  1  0.581542  0.258872  0.579931  1
  Cd  Cd19  1  0.258872  0.581542  0.579931  1
  Cu  Cu20  1  0.142041  0.142041  0.143683  1
  Ir  Ir21  1  0.140718  0.140718  0.572166  1
  Ir  Ir22  1  0.140967  0.572175  0.140229  1
  Ir  Ir23  1  0.572175  0.140967  0.140229  1
