# generated using pymatgen
data_TbDy3Er4(ReC2)4
_symmetry_space_group_name_H-M   'P 1'
_cell_length_a   5.09484300
_cell_length_b   6.56942329
_cell_length_c   9.83044944
_cell_angle_alpha   89.96572659
_cell_angle_beta   90.00000000
_cell_angle_gamma   90.00000000
_symmetry_Int_Tables_number   1
_chemical_formula_structural   TbDy3Er4(ReC2)4
_chemical_formula_sum   'Tb1 Dy3 Er4 Re4 C8'
_cell_volume   329.02685614
_cell_formula_units_Z   1
loop_
 _symmetry_equiv_pos_site_id
 _symmetry_equiv_pos_as_xyz
  1  'x, y, z'
loop_
 _atom_site_type_symbol
 _atom_site_label
 _atom_site_symmetry_multiplicity
 _atom_site_fract_x
 _atom_site_fract_y
 _atom_site_fract_z
 _atom_site_occupancy
  Tb  Tb0  1  0.250000  0.467714  0.216152  1
  Dy  Dy1  1  0.250000  0.967625  0.283768  1
  Dy  Dy2  1  0.750000  0.532384  0.783758  1
  Dy  Dy3  1  0.750000  0.032390  0.716268  1
  Er  Er4  1  0.250000  0.821323  0.942851  1
  Er  Er5  1  0.250000  0.321313  0.557154  1
  Er  Er6  1  0.750000  0.178603  0.057043  1
  Er  Er7  1  0.750000  0.678730  0.442949  1
  Re  Re8  1  0.250000  0.278443  0.866661  1
  Re  Re9  1  0.250000  0.778554  0.633335  1
  Re  Re10  1  0.750000  0.721676  0.133277  1
  Re  Re11  1  0.750000  0.221398  0.366770  1
  C  C12  1  0.250000  0.045775  0.740816  1
  C  C13  1  0.250000  0.545801  0.759174  1
  C  C14  1  0.750000  0.954260  0.259181  1
  C  C15  1  0.750000  0.454220  0.240914  1
  C  C16  1  0.250000  0.674879  0.450034  1
  C  C17  1  0.250000  0.174334  0.049947  1
  C  C18  1  0.750000  0.325267  0.550114  1
  C  C19  1  0.750000  0.825311  0.949836  1
