# generated using pymatgen
data_La(NbCl3)6
_symmetry_space_group_name_H-M   'P 1'
_cell_length_a   10.36056366
_cell_length_b   10.36007146
_cell_length_c   10.35984557
_cell_angle_alpha   55.82499565
_cell_angle_beta   55.82564014
_cell_angle_gamma   55.82371970
_symmetry_Int_Tables_number   1
_chemical_formula_structural   La(NbCl3)6
_chemical_formula_sum   'La1 Nb6 Cl18'
_cell_volume   710.17716796
_cell_formula_units_Z   1
loop_
 _symmetry_equiv_pos_site_id
 _symmetry_equiv_pos_as_xyz
  1  'x, y, z'
loop_
 _atom_site_type_symbol
 _atom_site_label
 _atom_site_symmetry_multiplicity
 _atom_site_fract_x
 _atom_site_fract_y
 _atom_site_fract_z
 _atom_site_occupancy
  La  La0  1  0.000000  0.000000  0.000000  1
  Nb  Nb1  1  0.411877  0.300781  0.647837  1
  Nb  Nb2  1  0.352174  0.588107  0.699211  1
  Nb  Nb3  1  0.699179  0.352197  0.588104  1
  Nb  Nb4  1  0.300821  0.647803  0.411896  1
  Nb  Nb5  1  0.647826  0.411893  0.300789  1
  Nb  Nb6  1  0.588123  0.699219  0.352163  1
  Cl  Cl7  1  0.569173  0.167850  0.440683  1
  Cl  Cl8  1  0.228522  0.370579  0.901920  1
  Cl  Cl9  1  0.901829  0.228593  0.370545  1
  Cl  Cl10  1  0.370491  0.901980  0.228496  1
  Cl  Cl11  1  0.771478  0.629421  0.098080  1
  Cl  Cl12  1  0.098171  0.771407  0.629455  1
  Cl  Cl13  1  0.693752  0.954099  0.166389  1
  Cl  Cl14  1  0.954003  0.166422  0.693745  1
  Cl  Cl15  1  0.166530  0.693718  0.953865  1
  Cl  Cl16  1  0.306248  0.045901  0.833611  1
  Cl  Cl17  1  0.045997  0.833578  0.306255  1
  Cl  Cl18  1  0.833470  0.306282  0.046135  1
  Cl  Cl19  1  0.559236  0.430884  0.832131  1
  Cl  Cl20  1  0.167755  0.440746  0.569139  1
  Cl  Cl21  1  0.440764  0.569116  0.167869  1
  Cl  Cl22  1  0.430827  0.832150  0.559317  1
  Cl  Cl23  1  0.832245  0.559254  0.430861  1
  Cl  Cl24  1  0.629509  0.098020  0.771504  1
