# generated using pymatgen
data_Tb7Nd(Si3Ni)4
_symmetry_space_group_name_H-M   'P 1'
_cell_length_a   7.96422200
_cell_length_b   7.96422187
_cell_length_c   8.16264200
_cell_angle_alpha   90.00000000
_cell_angle_beta   90.00000000
_cell_angle_gamma   119.99999224
_symmetry_Int_Tables_number   1
_chemical_formula_structural   Tb7Nd(Si3Ni)4
_chemical_formula_sum   'Tb7 Nd1 Si12 Ni4'
_cell_volume   448.38195137
_cell_formula_units_Z   1
loop_
 _symmetry_equiv_pos_site_id
 _symmetry_equiv_pos_as_xyz
  1  'x, y, z'
loop_
 _atom_site_type_symbol
 _atom_site_label
 _atom_site_symmetry_multiplicity
 _atom_site_fract_x
 _atom_site_fract_y
 _atom_site_fract_z
 _atom_site_occupancy
  Tb  Tb0  1  0.499813  0.500187  0.750000  1
  Tb  Tb1  1  0.500199  0.499801  0.250000  1
  Tb  Tb2  1  0.000375  0.500187  0.750000  1
  Tb  Tb3  1  0.999602  0.499801  0.250000  1
  Tb  Tb4  1  0.499813  0.999625  0.750000  1
  Tb  Tb5  1  0.500199  0.000398  0.250000  1
  Tb  Tb6  1  0.000000  0.000000  0.750000  1
  Nd  Nd7  1  0.000000  0.000000  0.250000  1
  Si  Si8  1  0.828701  0.171299  0.997456  1
  Si  Si9  1  0.171291  0.828709  0.997989  1
  Si  Si10  1  0.342598  0.171299  0.997456  1
  Si  Si11  1  0.171291  0.828709  0.502011  1
  Si  Si12  1  0.657418  0.828709  0.997989  1
  Si  Si13  1  0.828701  0.171299  0.502544  1
  Si  Si14  1  0.828701  0.657402  0.997456  1
  Si  Si15  1  0.657418  0.828709  0.502011  1
  Si  Si16  1  0.171291  0.342582  0.997989  1
  Si  Si17  1  0.342598  0.171299  0.502544  1
  Si  Si18  1  0.171291  0.342582  0.502011  1
  Si  Si19  1  0.828701  0.657402  0.502544  1
  Ni  Ni20  1  0.666667  0.333333  0.000153  1
  Ni  Ni21  1  0.333333  0.666667  0.000723  1
  Ni  Ni22  1  0.333333  0.666667  0.499277  1
  Ni  Ni23  1  0.666667  0.333333  0.499847  1
