# generated using pymatgen
data_BaP12IrOs3
_symmetry_space_group_name_H-M   'P 1'
_cell_length_a   7.08455552
_cell_length_b   7.07821496
_cell_length_c   7.07821513
_cell_angle_alpha   109.45307531
_cell_angle_beta   109.48936210
_cell_angle_gamma   109.48936068
_symmetry_Int_Tables_number   1
_chemical_formula_structural   BaP12IrOs3
_chemical_formula_sum   'Ba1 P12 Ir1 Os3'
_cell_volume   273.17499006
_cell_formula_units_Z   1
loop_
 _symmetry_equiv_pos_site_id
 _symmetry_equiv_pos_as_xyz
  1  'x, y, z'
loop_
 _atom_site_type_symbol
 _atom_site_label
 _atom_site_symmetry_multiplicity
 _atom_site_fract_x
 _atom_site_fract_y
 _atom_site_fract_z
 _atom_site_occupancy
  Ba  Ba0  1  0.000000  0.000000  0.000000  1
  P  P1  1  0.855784  0.640793  0.496895  1
  P  P2  1  0.144216  0.359207  0.503105  1
  P  P3  1  0.140647  0.637740  0.782846  1
  P  P4  1  0.859353  0.362260  0.217154  1
  P  P5  1  0.641113  0.496895  0.856103  1
  P  P6  1  0.358887  0.503105  0.143897  1
  P  P7  1  0.642198  0.782846  0.145105  1
  P  P8  1  0.357802  0.217154  0.854895  1
  P  P9  1  0.497093  0.854895  0.637740  1
  P  P10  1  0.502907  0.145105  0.362260  1
  P  P11  1  0.785011  0.143897  0.640793  1
  P  P12  1  0.214989  0.856103  0.359207  1
  Ir  Ir13  1  0.500000  0.000000  0.000000  1
  Os  Os14  1  0.500000  0.500000  0.500000  1
  Os  Os15  1  0.000000  0.500000  0.000000  1
  Os  Os16  1  0.000000  0.000000  0.500000  1
