# generated using pymatgen
data_Ta2TiCdPt12
_symmetry_space_group_name_H-M   'P 1'
_cell_length_a   5.67254000
_cell_length_b   5.67254022
_cell_length_c   9.18435900
_cell_angle_alpha   90.00000000
_cell_angle_beta   90.00000000
_cell_angle_gamma   119.99999871
_symmetry_Int_Tables_number   1
_chemical_formula_structural   Ta2TiCdPt12
_chemical_formula_sum   'Ta2 Ti1 Cd1 Pt12'
_cell_volume   255.93792199
_cell_formula_units_Z   1
loop_
 _symmetry_equiv_pos_site_id
 _symmetry_equiv_pos_as_xyz
  1  'x, y, z'
loop_
 _atom_site_type_symbol
 _atom_site_label
 _atom_site_symmetry_multiplicity
 _atom_site_fract_x
 _atom_site_fract_y
 _atom_site_fract_z
 _atom_site_occupancy
  Ta  Ta0  1  0.000000  0.000000  0.493330  1
  Ta  Ta1  1  0.666667  0.333333  0.752729  1
  Ti  Ti2  1  0.000000  0.000000  0.005180  1
  Cd  Cd3  1  0.333333  0.666667  0.248910  1
  Pt  Pt4  1  0.503173  0.496827  0.506793  1
  Pt  Pt5  1  0.503173  0.006345  0.506793  1
  Pt  Pt6  1  0.993655  0.496827  0.506793  1
  Pt  Pt7  1  0.503109  0.496891  0.993441  1
  Pt  Pt8  1  0.503109  0.006217  0.993441  1
  Pt  Pt9  1  0.993783  0.496891  0.993441  1
  Pt  Pt10  1  0.832447  0.664893  0.249844  1
  Pt  Pt11  1  0.335107  0.167553  0.249844  1
  Pt  Pt12  1  0.832447  0.167553  0.249844  1
  Pt  Pt13  1  0.165912  0.331822  0.749872  1
  Pt  Pt14  1  0.668178  0.834088  0.749872  1
  Pt  Pt15  1  0.165912  0.834088  0.749872  1
