# generated using pymatgen
data_Tb3ErGa18(Co2Ni)2
_symmetry_space_group_name_H-M   'P 1'
_cell_length_a   7.39595333
_cell_length_b   7.39698178
_cell_length_c   9.38915935
_cell_angle_alpha   89.94440074
_cell_angle_beta   89.93714177
_cell_angle_gamma   119.78437522
_symmetry_Int_Tables_number   1
_chemical_formula_structural   Tb3ErGa18(Co2Ni)2
_chemical_formula_sum   'Tb3 Er1 Ga18 Co4 Ni2'
_cell_volume   445.80471739
_cell_formula_units_Z   1
loop_
 _symmetry_equiv_pos_site_id
 _symmetry_equiv_pos_as_xyz
  1  'x, y, z'
loop_
 _atom_site_type_symbol
 _atom_site_label
 _atom_site_symmetry_multiplicity
 _atom_site_fract_x
 _atom_site_fract_y
 _atom_site_fract_z
 _atom_site_occupancy
  Tb  Tb0  1  0.503268  0.831496  0.750043  1
  Tb  Tb1  1  0.497165  0.168852  0.249933  1
  Tb  Tb2  1  0.168538  0.496835  0.249942  1
  Er  Er3  1  0.831156  0.502874  0.750136  1
  Ga  Ga4  1  0.163084  0.949645  0.748284  1
  Ga  Ga5  1  0.836793  0.050577  0.249976  1
  Ga  Ga6  1  0.049679  0.836500  0.251738  1
  Ga  Ga7  1  0.949239  0.163638  0.750011  1
  Ga  Ga8  1  0.622649  0.622027  0.248546  1
  Ga  Ga9  1  0.378627  0.377631  0.751439  1
  Ga  Ga10  1  0.166852  0.168919  0.059321  1
  Ga  Ga11  1  0.834997  0.834423  0.559364  1
  Ga  Ga12  1  0.831098  0.832677  0.940381  1
  Ga  Ga13  1  0.165131  0.164990  0.440924  1
  Ga  Ga14  1  0.500872  0.833951  0.073017  1
  Ga  Ga15  1  0.501170  0.164171  0.573318  1
  Ga  Ga16  1  0.165481  0.499094  0.926744  1
  Ga  Ga17  1  0.836329  0.499272  0.427315  1
  Ga  Ga18  1  0.503580  0.168657  0.926930  1
  Ga  Ga19  1  0.499083  0.836126  0.426779  1
  Ga  Ga20  1  0.831914  0.496939  0.072373  1
  Ga  Ga21  1  0.163290  0.500915  0.573489  1
  Co  Co22  1  0.500223  0.499914  0.999812  1
  Co  Co23  1  0.828960  0.171053  0.500171  1
  Co  Co24  1  0.829193  0.170773  0.999837  1
  Co  Co25  1  0.171047  0.828739  0.500172  1
  Ni  Ni26  1  0.170550  0.829264  0.999853  1
  Ni  Ni27  1  0.500029  0.500050  0.500150  1
