# generated using pymatgen
data_Ac4ZnGa3Ir4
_symmetry_space_group_name_H-M   'P 1'
_cell_length_a   4.37499500
_cell_length_b   7.41318718
_cell_length_c   8.42144643
_cell_angle_alpha   90.56953063
_cell_angle_beta   90.00000000
_cell_angle_gamma   90.00000000
_symmetry_Int_Tables_number   1
_chemical_formula_structural   Ac4ZnGa3Ir4
_chemical_formula_sum   'Ac4 Zn1 Ga3 Ir4'
_cell_volume   273.11638879
_cell_formula_units_Z   1
loop_
 _symmetry_equiv_pos_site_id
 _symmetry_equiv_pos_as_xyz
  1  'x, y, z'
loop_
 _atom_site_type_symbol
 _atom_site_label
 _atom_site_symmetry_multiplicity
 _atom_site_fract_x
 _atom_site_fract_y
 _atom_site_fract_z
 _atom_site_occupancy
  Ac  Ac0  1  0.250000  0.525047  0.192799  1
  Ac  Ac1  1  0.750000  0.475422  0.809784  1
  Ac  Ac2  1  0.750000  0.969964  0.687643  1
  Ac  Ac3  1  0.250000  0.030027  0.311030  1
  Zn  Zn4  1  0.250000  0.645759  0.565876  1
  Ga  Ga5  1  0.750000  0.357192  0.438802  1
  Ga  Ga6  1  0.750000  0.850487  0.066774  1
  Ga  Ga7  1  0.250000  0.150156  0.932558  1
  Ir  Ir8  1  0.250000  0.784380  0.900582  1
  Ir  Ir9  1  0.750000  0.215453  0.101405  1
  Ir  Ir10  1  0.750000  0.721824  0.380999  1
  Ir  Ir11  1  0.250000  0.274289  0.611748  1
