# generated using pymatgen
data_K2TaAuSe4
_symmetry_space_group_name_H-M   'P 1'
_cell_length_a   13.99065476
_cell_length_b   12.47044272
_cell_length_c   7.63130536
_cell_angle_alpha   84.57019409
_cell_angle_beta   62.54103550
_cell_angle_gamma   32.88876441
_symmetry_Int_Tables_number   1
_chemical_formula_structural   K2TaAuSe4
_chemical_formula_sum   'K4 Ta2 Au2 Se8'
_cell_volume   509.71448487
_cell_formula_units_Z   2
loop_
 _symmetry_equiv_pos_site_id
 _symmetry_equiv_pos_as_xyz
  1  'x, y, z'
loop_
 _atom_site_type_symbol
 _atom_site_label
 _atom_site_symmetry_multiplicity
 _atom_site_fract_x
 _atom_site_fract_y
 _atom_site_fract_z
 _atom_site_occupancy
  K  K0  1  0.430599  0.430599  0.069401  1
  K  K1  1  0.819401  0.819401  0.180599  1
  K  K2  1  0.069401  0.069401  0.430599  1
  K  K3  1  0.180599  0.180599  0.819401  1
  Ta  Ta4  1  0.000000  0.000000  0.000000  1
  Ta  Ta5  1  0.250000  0.250000  0.250000  1
  Au  Au6  1  0.500000  0.500000  0.500000  1
  Au  Au7  1  0.750000  0.750000  0.750000  1
  Se  Se8  1  0.734562  0.384367  0.056373  1
  Se  Se9  1  0.824698  0.056373  0.384367  1
  Se  Se10  1  0.056373  0.824698  0.734562  1
  Se  Se11  1  0.384367  0.734562  0.824698  1
  Se  Se12  1  0.515438  0.865633  0.193627  1
  Se  Se13  1  0.865633  0.515438  0.425302  1
  Se  Se14  1  0.193627  0.425302  0.515438  1
  Se  Se15  1  0.425302  0.193627  0.865633  1
