# generated using pymatgen
data_Ti4Fe2CoCuSb4
_symmetry_space_group_name_H-M   'P 1'
_cell_length_a   7.27985128
_cell_length_b   5.94956110
_cell_length_c   11.88235700
_cell_angle_alpha   90.00000000
_cell_angle_beta   35.30248260
_cell_angle_gamma   65.88106877
_symmetry_Int_Tables_number   1
_chemical_formula_structural   Ti4Fe2CoCuSb4
_chemical_formula_sum   'Ti4 Fe2 Co1 Cu1 Sb4'
_cell_volume   210.30154286
_cell_formula_units_Z   1
loop_
 _symmetry_equiv_pos_site_id
 _symmetry_equiv_pos_as_xyz
  1  'x, y, z'
loop_
 _atom_site_type_symbol
 _atom_site_label
 _atom_site_symmetry_multiplicity
 _atom_site_fract_x
 _atom_site_fract_y
 _atom_site_fract_z
 _atom_site_occupancy
  Ti  Ti0  1  0.019258  0.484497  0.987202  1
  Ti  Ti1  1  0.011746  0.003756  0.247296  1
  Ti  Ti2  1  0.980742  0.515503  0.506461  1
  Ti  Ti3  1  0.988254  0.996244  0.759042  1
  Fe  Fe4  1  0.500000  0.500000  0.625000  1
  Fe  Fe5  1  0.500000  0.000000  0.875000  1
  Co  Co6  1  0.500000  0.500000  0.125000  1
  Cu  Cu7  1  0.500000  0.000000  0.375000  1
  Sb  Sb8  1  0.004212  0.495448  0.248948  1
  Sb  Sb9  1  0.995108  0.000340  0.501392  1
  Sb  Sb10  1  0.995788  0.504552  0.753160  1
  Sb  Sb11  1  0.004892  0.999660  0.996500  1
