# generated using pymatgen
data_Dy7Y(ScGa5)4
_symmetry_space_group_name_H-M   'P 1'
_cell_length_a   6.00986000
_cell_length_b   9.47056101
_cell_length_c   11.39925501
_cell_angle_alpha   89.99517944
_cell_angle_beta   90.00202086
_cell_angle_gamma   90.00053923
_symmetry_Int_Tables_number   1
_chemical_formula_structural   Dy7Y(ScGa5)4
_chemical_formula_sum   'Dy7 Y1 Sc4 Ga20'
_cell_volume   648.80849700
_cell_formula_units_Z   1
loop_
 _symmetry_equiv_pos_site_id
 _symmetry_equiv_pos_as_xyz
  1  'x, y, z'
loop_
 _atom_site_type_symbol
 _atom_site_label
 _atom_site_symmetry_multiplicity
 _atom_site_fract_x
 _atom_site_fract_y
 _atom_site_fract_z
 _atom_site_occupancy
  Dy  Dy0  1  0.890714  0.508926  0.352102  1
  Dy  Dy1  1  0.609230  0.991074  0.852081  1
  Dy  Dy2  1  0.109238  0.008890  0.647879  1
  Dy  Dy3  1  0.390703  0.491086  0.147990  1
  Dy  Dy4  1  0.109287  0.491101  0.647884  1
  Dy  Dy5  1  0.390747  0.008898  0.147927  1
  Dy  Dy6  1  0.890713  0.991105  0.352103  1
  Y  Y7  1  0.609347  0.508951  0.852042  1
  Sc  Sc8  1  0.849540  0.750035  0.073386  1
  Sc  Sc9  1  0.650462  0.750014  0.573353  1
  Sc  Sc10  1  0.150444  0.249926  0.926676  1
  Sc  Sc11  1  0.349488  0.250000  0.426659  1
  Ga  Ga12  1  0.878438  0.050811  0.089362  1
  Ga  Ga13  1  0.621613  0.449056  0.589099  1
  Ga  Ga14  1  0.121500  0.550966  0.910768  1
  Ga  Ga15  1  0.378420  0.949125  0.410617  1
  Ga  Ga16  1  0.121586  0.949153  0.910665  1
  Ga  Ga17  1  0.378353  0.550871  0.410637  1
  Ga  Ga18  1  0.878481  0.449117  0.089542  1
  Ga  Ga19  1  0.621614  0.050838  0.589323  1
  Ga  Ga20  1  0.161523  0.750024  0.248714  1
  Ga  Ga21  1  0.338186  0.750261  0.748598  1
  Ga  Ga22  1  0.838656  0.249732  0.751154  1
  Ga  Ga23  1  0.661584  0.250012  0.251247  1
  Ga  Ga24  1  0.380579  0.750114  0.001737  1
  Ga  Ga25  1  0.119204  0.750021  0.501521  1
  Ga  Ga26  1  0.619169  0.249772  0.998648  1
  Ga  Ga27  1  0.880826  0.249984  0.498483  1
  Ga  Ga28  1  0.603593  0.750007  0.294790  1
  Ga  Ga29  1  0.896855  0.750302  0.794707  1
  Ga  Ga30  1  0.396319  0.249858  0.705107  1
  Ga  Ga31  1  0.103586  0.249971  0.205200  1
