# generated using pymatgen
data_YbSm3Ga18(CoPd2)2
_symmetry_space_group_name_H-M   'P 1'
_cell_length_a   7.60534029
_cell_length_b   7.59573262
_cell_length_c   9.51602400
_cell_angle_alpha   90.00000000
_cell_angle_beta   90.00000000
_cell_angle_gamma   119.54850801
_symmetry_Int_Tables_number   1
_chemical_formula_structural   YbSm3Ga18(CoPd2)2
_chemical_formula_sum   'Yb1 Sm3 Ga18 Co2 Pd4'
_cell_volume   478.22512797
_cell_formula_units_Z   1
loop_
 _symmetry_equiv_pos_site_id
 _symmetry_equiv_pos_as_xyz
  1  'x, y, z'
loop_
 _atom_site_type_symbol
 _atom_site_label
 _atom_site_symmetry_multiplicity
 _atom_site_fract_x
 _atom_site_fract_y
 _atom_site_fract_z
 _atom_site_occupancy
  Yb  Yb0  1  0.013443  0.332647  0.250000  1
  Sm  Sm1  1  0.316871  0.991554  0.250000  1
  Sm  Sm2  1  0.007203  0.680685  0.750000  1
  Sm  Sm3  1  0.667571  0.988631  0.750000  1
  Ga  Ga4  1  0.347449  0.016441  0.923574  1
  Ga  Ga5  1  0.983434  0.648807  0.079134  1
  Ga  Ga6  1  0.347449  0.016441  0.576426  1
  Ga  Ga7  1  0.983434  0.648807  0.420866  1
  Ga  Ga8  1  0.668091  0.019279  0.079699  1
  Ga  Ga9  1  0.985634  0.335022  0.925829  1
  Ga  Ga10  1  0.668091  0.019279  0.420301  1
  Ga  Ga11  1  0.985634  0.335022  0.574171  1
  Ga  Ga12  1  0.665106  0.655884  0.937872  1
  Ga  Ga13  1  0.342261  0.335409  0.064419  1
  Ga  Ga14  1  0.665106  0.655884  0.562128  1
  Ga  Ga15  1  0.342261  0.335409  0.435581  1
  Ga  Ga16  1  0.134284  0.139151  0.750000  1
  Ga  Ga17  1  0.861061  0.866312  0.250000  1
  Ga  Ga18  1  0.463139  0.662063  0.250000  1
  Ga  Ga19  1  0.336143  0.535602  0.750000  1
  Ga  Ga20  1  0.566551  0.339258  0.750000  1
  Ga  Ga21  1  0.660856  0.429537  0.250000  1
  Co  Co22  1  0.667869  0.331732  0.999219  1
  Co  Co23  1  0.667869  0.331732  0.500781  1
  Pd  Pd24  1  0.998714  0.001283  0.000459  1
  Pd  Pd25  1  0.998714  0.001283  0.499541  1
  Pd  Pd26  1  0.327881  0.673422  0.000194  1
  Pd  Pd27  1  0.327881  0.673422  0.499806  1
