# generated using pymatgen
data_CdIn2Pd3
_symmetry_space_group_name_H-M   'P 1'
_cell_length_a   4.66001100
_cell_length_b   4.66000996
_cell_length_c   11.41102300
_cell_angle_alpha   90.00000000
_cell_angle_beta   90.00000000
_cell_angle_gamma   120.00000026
_symmetry_Int_Tables_number   1
_chemical_formula_structural   CdIn2Pd3
_chemical_formula_sum   'Cd2 In4 Pd6'
_cell_volume   214.59964461
_cell_formula_units_Z   2
loop_
 _symmetry_equiv_pos_site_id
 _symmetry_equiv_pos_as_xyz
  1  'x, y, z'
loop_
 _atom_site_type_symbol
 _atom_site_label
 _atom_site_symmetry_multiplicity
 _atom_site_fract_x
 _atom_site_fract_y
 _atom_site_fract_z
 _atom_site_occupancy
  Cd  Cd0  1  0.333333  0.666667  0.666247  1
  Cd  Cd1  1  0.666667  0.333333  0.333753  1
  In  In2  1  0.000000  0.000000  0.500000  1
  In  In3  1  0.333333  0.666667  0.172259  1
  In  In4  1  0.666667  0.333333  0.827741  1
  In  In5  1  0.000000  0.000000  0.000000  1
  Pd  Pd6  1  0.333333  0.666667  0.418910  1
  Pd  Pd7  1  0.666667  0.333333  0.079315  1
  Pd  Pd8  1  0.000000  0.000000  0.752325  1
  Pd  Pd9  1  0.000000  0.000000  0.247675  1
  Pd  Pd10  1  0.333333  0.666667  0.920685  1
  Pd  Pd11  1  0.666667  0.333333  0.581090  1
