# generated using pymatgen
data_Er20Si12S
_symmetry_space_group_name_H-M   'P 1'
_cell_length_a   6.27711500
_cell_length_b   8.37305288
_cell_length_c   14.58703700
_cell_angle_alpha   90.00000684
_cell_angle_beta   90.00000000
_cell_angle_gamma   89.99122303
_symmetry_Int_Tables_number   1
_chemical_formula_structural   Er20Si12S
_chemical_formula_sum   'Er20 Si12 S1'
_cell_volume   766.67446424
_cell_formula_units_Z   1
loop_
 _symmetry_equiv_pos_site_id
 _symmetry_equiv_pos_as_xyz
  1  'x, y, z'
loop_
 _atom_site_type_symbol
 _atom_site_label
 _atom_site_symmetry_multiplicity
 _atom_site_fract_x
 _atom_site_fract_y
 _atom_site_fract_z
 _atom_site_occupancy
  Er  Er0  1  0.500009  0.999997  0.334423  1
  Er  Er1  1  0.500036  0.500004  0.830288  1
  Er  Er2  1  0.500036  0.500004  0.169712  1
  Er  Er3  1  0.500009  0.999997  0.665577  1
  Er  Er4  1  0.999992  0.500011  0.166319  1
  Er  Er5  1  0.999998  0.999993  0.666015  1
  Er  Er6  1  0.999998  0.999993  0.333985  1
  Er  Er7  1  0.999992  0.500011  0.833681  1
  Er  Er8  1  0.752728  0.252681  0.000000  1
  Er  Er9  1  0.749187  0.744333  0.500000  1
  Er  Er10  1  0.751266  0.377947  0.379597  1
  Er  Er11  1  0.754904  0.873136  0.873709  1
  Er  Er12  1  0.754904  0.873136  0.126291  1
  Er  Er13  1  0.751266  0.377947  0.620403  1
  Er  Er14  1  0.247258  0.747283  0.000000  1
  Er  Er15  1  0.250823  0.255670  0.500000  1
  Er  Er16  1  0.245106  0.126860  0.126287  1
  Er  Er17  1  0.248737  0.622068  0.620395  1
  Er  Er18  1  0.248737  0.622068  0.379605  1
  Er  Er19  1  0.245106  0.126860  0.873713  1
  Si  Si20  1  0.749265  0.606343  0.000000  1
  Si  Si21  1  0.750469  0.106309  0.500000  1
  Si  Si22  1  0.753126  0.197202  0.199023  1
  Si  Si23  1  0.752378  0.695445  0.695675  1
  Si  Si24  1  0.752378  0.695445  0.304325  1
  Si  Si25  1  0.753126  0.197202  0.800977  1
  Si  Si26  1  0.250732  0.393671  0.000000  1
  Si  Si27  1  0.249535  0.893690  0.500000  1
  Si  Si28  1  0.247628  0.304557  0.304322  1
  Si  Si29  1  0.246868  0.802797  0.800977  1
  Si  Si30  1  0.246868  0.802797  0.199023  1
  Si  Si31  1  0.247628  0.304557  0.695678  1
  S  S32  1  0.499912  0.999988  0.000000  1
