# generated using pymatgen
data_Pr6Co13P12Rh5
_symmetry_space_group_name_H-M   'P 1'
_cell_length_a   3.84609800
_cell_length_b   10.85456872
_cell_length_c   12.70538129
_cell_angle_alpha   89.78870267
_cell_angle_beta   90.00000000
_cell_angle_gamma   90.00000000
_symmetry_Int_Tables_number   1
_chemical_formula_structural   Pr6Co13P12Rh5
_chemical_formula_sum   'Pr6 Co13 P12 Rh5'
_cell_volume   530.41728481
_cell_formula_units_Z   1
loop_
 _symmetry_equiv_pos_site_id
 _symmetry_equiv_pos_as_xyz
  1  'x, y, z'
loop_
 _atom_site_type_symbol
 _atom_site_label
 _atom_site_symmetry_multiplicity
 _atom_site_fract_x
 _atom_site_fract_y
 _atom_site_fract_z
 _atom_site_occupancy
  Pr  Pr0  1  0.000000  0.500159  0.519720  1
  Pr  Pr1  1  0.500000  0.000136  0.480553  1
  Pr  Pr2  1  0.500000  0.812862  0.206928  1
  Pr  Pr3  1  0.500000  0.183768  0.208508  1
  Pr  Pr4  1  0.000000  0.689057  0.792691  1
  Pr  Pr5  1  0.000000  0.313065  0.791510  1
  Co  Co6  1  0.000000  0.503431  0.988855  1
  Co  Co7  1  0.500000  0.998052  0.011646  1
  Co  Co8  1  0.500000  0.669121  0.995137  1
  Co  Co9  1  0.000000  0.162698  0.005277  1
  Co  Co10  1  0.000000  0.832649  0.005084  1
  Co  Co11  1  0.500000  0.300209  0.428963  1
  Co  Co12  1  0.500000  0.700255  0.429146  1
  Co  Co13  1  0.000000  0.199557  0.570820  1
  Co  Co14  1  0.000000  0.799783  0.570257  1
  Co  Co15  1  0.500000  0.883948  0.710578  1
  Co  Co16  1  0.500000  0.114973  0.710042  1
  Co  Co17  1  0.000000  0.616444  0.289967  1
  Co  Co18  1  0.000000  0.384741  0.289510  1
  P  P19  1  0.500000  0.507424  0.890838  1
  P  P20  1  0.000000  0.998431  0.106930  1
  P  P21  1  0.500000  0.500751  0.345314  1
  P  P22  1  0.000000  0.999101  0.654901  1
  P  P23  1  0.500000  0.296797  0.610524  1
  P  P24  1  0.500000  0.703337  0.610537  1
  P  P25  1  0.000000  0.203167  0.389649  1
  P  P26  1  0.000000  0.796776  0.389102  1
  P  P27  1  0.500000  0.845881  0.898775  1
  P  P28  1  0.500000  0.144950  0.892989  1
  P  P29  1  0.000000  0.654827  0.101948  1
  P  P30  1  0.000000  0.349816  0.107884  1
  Rh  Rh31  1  0.500000  0.504076  0.160086  1
  Rh  Rh32  1  0.000000  0.999601  0.841226  1
  Rh  Rh33  1  0.500000  0.500220  0.704288  1
  Rh  Rh34  1  0.000000  0.999643  0.295676  1
  Rh  Rh35  1  0.500000  0.330293  0.994139  1
