# generated using pymatgen
data_Sr4Tb7YSe16
_symmetry_space_group_name_H-M   'P 1'
_cell_length_a   4.16598300
_cell_length_b   12.67317317
_cell_length_c   15.06721000
_cell_angle_alpha   89.99048323
_cell_angle_beta   90.00000000
_cell_angle_gamma   90.00000000
_symmetry_Int_Tables_number   1
_chemical_formula_structural   Sr4Tb7YSe16
_chemical_formula_sum   'Sr4 Tb7 Y1 Se16'
_cell_volume   795.49178328
_cell_formula_units_Z   1
loop_
 _symmetry_equiv_pos_site_id
 _symmetry_equiv_pos_as_xyz
  1  'x, y, z'
loop_
 _atom_site_type_symbol
 _atom_site_label
 _atom_site_symmetry_multiplicity
 _atom_site_fract_x
 _atom_site_fract_y
 _atom_site_fract_z
 _atom_site_occupancy
  Sr  Sr0  1  0.250000  0.758411  0.664556  1
  Sr  Sr1  1  0.750000  0.741476  0.164326  1
  Sr  Sr2  1  0.250000  0.258567  0.835599  1
  Sr  Sr3  1  0.750000  0.241531  0.335540  1
  Tb  Tb4  1  0.250000  0.433822  0.610170  1
  Tb  Tb5  1  0.750000  0.066327  0.109944  1
  Tb  Tb6  1  0.250000  0.933486  0.890038  1
  Tb  Tb7  1  0.750000  0.566320  0.390051  1
  Tb  Tb8  1  0.250000  0.419644  0.098785  1
  Tb  Tb9  1  0.750000  0.080502  0.598960  1
  Tb  Tb10  1  0.250000  0.919494  0.401044  1
  Y  Y11  1  0.750000  0.580421  0.901056  1
  Se  Se12  1  0.250000  0.411930  0.421145  1
  Se  Se13  1  0.750000  0.088086  0.921091  1
  Se  Se14  1  0.250000  0.911920  0.078925  1
  Se  Se15  1  0.750000  0.588051  0.578940  1
  Se  Se16  1  0.250000  0.024215  0.716287  1
  Se  Se17  1  0.750000  0.475773  0.216253  1
  Se  Se18  1  0.250000  0.524414  0.784022  1
  Se  Se19  1  0.750000  0.975732  0.283734  1
  Se  Se20  1  0.250000  0.131506  0.471759  1
  Se  Se21  1  0.750000  0.368793  0.971565  1
  Se  Se22  1  0.250000  0.631390  0.027765  1
  Se  Se23  1  0.750000  0.868494  0.528241  1
  Se  Se24  1  0.250000  0.207547  0.174615  1
  Se  Se25  1  0.750000  0.292512  0.674648  1
  Se  Se26  1  0.250000  0.707534  0.325340  1
  Se  Se27  1  0.750000  0.792098  0.825603  1
