# generated using pymatgen
data_Tm6Hf4Al12Ir7
_symmetry_space_group_name_H-M   'P 1'
_cell_length_a   9.06307199
_cell_length_b   9.06307292
_cell_length_c   9.06307200
_cell_angle_alpha   59.99999605
_cell_angle_beta   59.99999267
_cell_angle_gamma   60.00000060
_symmetry_Int_Tables_number   1
_chemical_formula_structural   Tm6Hf4Al12Ir7
_chemical_formula_sum   'Tm6 Hf4 Al12 Ir7'
_cell_volume   526.39444943
_cell_formula_units_Z   1
loop_
 _symmetry_equiv_pos_site_id
 _symmetry_equiv_pos_as_xyz
  1  'x, y, z'
loop_
 _atom_site_type_symbol
 _atom_site_label
 _atom_site_symmetry_multiplicity
 _atom_site_fract_x
 _atom_site_fract_y
 _atom_site_fract_z
 _atom_site_occupancy
  Tm  Tm0  1  0.700515  0.700515  0.299485  1
  Tm  Tm1  1  0.299485  0.700515  0.299485  1
  Tm  Tm2  1  0.700515  0.299485  0.299485  1
  Tm  Tm3  1  0.299485  0.299485  0.700515  1
  Tm  Tm4  1  0.700515  0.299485  0.700515  1
  Tm  Tm5  1  0.299485  0.700515  0.700515  1
  Hf  Hf6  1  0.880304  0.880304  0.359088  1
  Hf  Hf7  1  0.880304  0.359088  0.880304  1
  Hf  Hf8  1  0.359088  0.880304  0.880304  1
  Hf  Hf9  1  0.880304  0.880304  0.880304  1
  Al  Al10  1  0.120776  0.120776  0.637672  1
  Al  Al11  1  0.120776  0.637672  0.120776  1
  Al  Al12  1  0.637672  0.120776  0.120776  1
  Al  Al13  1  0.120776  0.120776  0.120776  1
  Al  Al14  1  0.666311  0.666311  0.001066  1
  Al  Al15  1  0.666311  0.001066  0.666311  1
  Al  Al16  1  0.001066  0.666311  0.666311  1
  Al  Al17  1  0.666311  0.666311  0.666311  1
  Al  Al18  1  0.329588  0.329588  0.011238  1
  Al  Al19  1  0.329588  0.011238  0.329588  1
  Al  Al20  1  0.011238  0.329588  0.329588  1
  Al  Al21  1  0.329588  0.329588  0.329588  1
  Ir  Ir22  1  0.000000  0.000000  0.000000  1
  Ir  Ir23  1  0.999447  0.999447  0.500553  1
  Ir  Ir24  1  0.500553  0.999447  0.500553  1
  Ir  Ir25  1  0.999447  0.500553  0.500553  1
  Ir  Ir26  1  0.500553  0.500553  0.999447  1
  Ir  Ir27  1  0.999447  0.500553  0.999447  1
  Ir  Ir28  1  0.500553  0.999447  0.999447  1
