# generated using pymatgen
data_La2PrDy2P12Ru19
_symmetry_space_group_name_H-M   'P 1'
_cell_length_a   12.60918273
_cell_length_b   12.62441175
_cell_length_c   4.02903300
_cell_angle_alpha   90.00000000
_cell_angle_beta   90.00000000
_cell_angle_gamma   120.03995952
_symmetry_Int_Tables_number   1
_chemical_formula_structural   La2PrDy2P12Ru19
_chemical_formula_sum   'La2 Pr1 Dy2 P12 Ru19'
_cell_volume   555.20648754
_cell_formula_units_Z   1
loop_
 _symmetry_equiv_pos_site_id
 _symmetry_equiv_pos_as_xyz
  1  'x, y, z'
loop_
 _atom_site_type_symbol
 _atom_site_label
 _atom_site_symmetry_multiplicity
 _atom_site_fract_x
 _atom_site_fract_y
 _atom_site_fract_z
 _atom_site_occupancy
  La  La0  1  0.816373  0.999723  0.500000  1
  La  La1  1  0.183627  0.183350  0.500000  1
  Pr  Pr2  1  0.000000  0.815198  0.500000  1
  Dy  Dy3  1  0.666277  0.333513  0.000000  1
  Dy  Dy4  1  0.333723  0.667237  0.000000  1
  P  P5  1  0.625214  0.999889  0.000000  1
  P  P6  1  0.374786  0.374675  0.000000  1
  P  P7  1  0.000000  0.625956  0.000000  1
  P  P8  1  0.696468  0.520774  0.500000  1
  P  P9  1  0.823860  0.303258  0.500000  1
  P  P10  1  0.303532  0.824306  0.500000  1
  P  P11  1  0.521600  0.697017  0.500000  1
  P  P12  1  0.189312  0.998611  0.000000  1
  P  P13  1  0.810688  0.809300  0.000000  1
  P  P14  1  0.000000  0.191589  0.000000  1
  P  P15  1  0.478400  0.175416  0.500000  1
  P  P16  1  0.176140  0.479398  0.500000  1
  Ru  Ru17  1  0.618005  0.803290  0.000000  1
  Ru  Ru18  1  0.186264  0.383117  0.000000  1
  Ru  Ru19  1  0.381995  0.185285  0.000000  1
  Ru  Ru20  1  0.195907  0.813762  0.000000  1
  Ru  Ru21  1  0.804093  0.617855  0.000000  1
  Ru  Ru22  1  0.874624  0.505238  0.500000  1
  Ru  Ru23  1  0.494191  0.369192  0.500000  1
  Ru  Ru24  1  0.630186  0.125202  0.500000  1
  Ru  Ru25  1  0.125376  0.630613  0.500000  1
  Ru  Ru26  1  0.369814  0.495017  0.500000  1
  Ru  Ru27  1  0.505809  0.875001  0.500000  1
  Ru  Ru28  1  0.000000  0.000650  0.000000  1
  Ru  Ru29  1  0.711934  0.711281  0.500000  1
  Ru  Ru30  1  0.000000  0.289300  0.500000  1
  Ru  Ru31  1  0.446169  0.999549  0.000000  1
  Ru  Ru32  1  0.553831  0.553380  0.000000  1
  Ru  Ru33  1  0.000000  0.446855  0.000000  1
  Ru  Ru34  1  0.813736  0.196854  0.000000  1
  Ru  Ru35  1  0.288066  0.999346  0.500000  1
