# generated using pymatgen
data_Tb5Co7(PRu)12
_symmetry_space_group_name_H-M   'P 1'
_cell_length_a   12.37662100
_cell_length_b   12.37661958
_cell_length_c   3.81347200
_cell_angle_alpha   90.00000000
_cell_angle_beta   90.00000000
_cell_angle_gamma   119.99999044
_symmetry_Int_Tables_number   1
_chemical_formula_structural   Tb5Co7(PRu)12
_chemical_formula_sum   'Tb5 Co7 P12 Ru12'
_cell_volume   505.88915550
_cell_formula_units_Z   1
loop_
 _symmetry_equiv_pos_site_id
 _symmetry_equiv_pos_as_xyz
  1  'x, y, z'
loop_
 _atom_site_type_symbol
 _atom_site_label
 _atom_site_symmetry_multiplicity
 _atom_site_fract_x
 _atom_site_fract_y
 _atom_site_fract_z
 _atom_site_occupancy
  Tb  Tb0  1  0.666667  0.333333  0.000000  1
  Tb  Tb1  1  0.333333  0.666667  0.000000  1
  Tb  Tb2  1  0.181960  0.181629  0.500000  1
  Tb  Tb3  1  0.818371  0.000330  0.500000  1
  Tb  Tb4  1  0.999670  0.818040  0.500000  1
  Co  Co5  1  0.194473  0.824043  0.000000  1
  Co  Co6  1  0.629570  0.805527  0.000000  1
  Co  Co7  1  0.175957  0.370430  0.000000  1
  Co  Co8  1  0.715795  0.722319  0.500000  1
  Co  Co9  1  0.277681  0.993477  0.500000  1
  Co  Co10  1  0.006523  0.284205  0.500000  1
  Co  Co11  1  0.000000  0.000000  0.000000  1
  P  P12  1  0.364466  0.367749  0.000000  1
  P  P13  1  0.632251  0.996717  0.000000  1
  P  P14  1  0.003283  0.635534  0.000000  1
  P  P15  1  0.837623  0.312613  0.500000  1
  P  P16  1  0.687387  0.525011  0.500000  1
  P  P17  1  0.474989  0.162377  0.500000  1
  P  P18  1  0.316434  0.839400  0.500000  1
  P  P19  1  0.522966  0.683566  0.500000  1
  P  P20  1  0.160600  0.477034  0.500000  1
  P  P21  1  0.818041  0.824008  0.000000  1
  P  P22  1  0.175992  0.994032  0.000000  1
  P  P23  1  0.005968  0.181959  0.000000  1
  Ru  Ru24  1  0.549853  0.561684  0.000000  1
  Ru  Ru25  1  0.438316  0.988168  0.000000  1
  Ru  Ru26  1  0.011832  0.450147  0.000000  1
  Ru  Ru27  1  0.826786  0.198002  0.000000  1
  Ru  Ru28  1  0.801998  0.628784  0.000000  1
  Ru  Ru29  1  0.371216  0.173214  0.000000  1
  Ru  Ru30  1  0.638253  0.123196  0.500000  1
  Ru  Ru31  1  0.876804  0.515058  0.500000  1
  Ru  Ru32  1  0.484942  0.361747  0.500000  1
  Ru  Ru33  1  0.131025  0.648991  0.500000  1
  Ru  Ru34  1  0.517967  0.868975  0.500000  1
  Ru  Ru35  1  0.351009  0.482033  0.500000  1
