# generated using pymatgen
data_TaTi2(Nb7As4)3
_symmetry_space_group_name_H-M   'P 1'
_cell_length_a   3.52097100
_cell_length_b   12.00063352
_cell_length_c   14.84021316
_cell_angle_alpha   90.14703727
_cell_angle_beta   90.00000000
_cell_angle_gamma   90.00000000
_symmetry_Int_Tables_number   1
_chemical_formula_structural   TaTi2(Nb7As4)3
_chemical_formula_sum   'Ta1 Ti2 Nb21 As12'
_cell_volume   627.05456000
_cell_formula_units_Z   1
loop_
 _symmetry_equiv_pos_site_id
 _symmetry_equiv_pos_as_xyz
  1  'x, y, z'
loop_
 _atom_site_type_symbol
 _atom_site_label
 _atom_site_symmetry_multiplicity
 _atom_site_fract_x
 _atom_site_fract_y
 _atom_site_fract_z
 _atom_site_occupancy
  Ta  Ta0  1  0.500000  0.026269  0.390184  1
  Ti  Ti1  1  0.500000  0.913557  0.077721  1
  Ti  Ti2  1  0.500000  0.687369  0.203038  1
  Nb  Nb3  1  0.000000  0.186867  0.295887  1
  Nb  Nb4  1  0.000000  0.529247  0.109794  1
  Nb  Nb5  1  0.000000  0.885036  0.928817  1
  Nb  Nb6  1  0.000000  0.856811  0.475480  1
  Nb  Nb7  1  0.500000  0.386176  0.573118  1
  Nb  Nb8  1  0.000000  0.587455  0.578838  1
  Nb  Nb9  1  0.500000  0.613765  0.425535  1
  Nb  Nb10  1  0.000000  0.084136  0.758314  1
  Nb  Nb11  1  0.500000  0.645994  0.978838  1
  Nb  Nb12  1  0.000000  0.143410  0.522173  1
  Nb  Nb13  1  0.000000  0.413195  0.420870  1
  Nb  Nb14  1  0.500000  0.414914  0.259117  1
  Nb  Nb15  1  0.500000  0.584461  0.742113  1
  Nb  Nb16  1  0.500000  0.972332  0.609013  1
  Nb  Nb17  1  0.500000  0.357430  0.023649  1
  Nb  Nb18  1  0.000000  0.114135  0.072838  1
  Nb  Nb19  1  0.500000  0.086104  0.923060  1
  Nb  Nb20  1  0.000000  0.472691  0.890842  1
  Nb  Nb21  1  0.000000  0.810586  0.703594  1
  Nb  Nb22  1  0.500000  0.311262  0.796994  1
  Nb  Nb23  1  0.000000  0.915589  0.241034  1
  As  As24  1  0.000000  0.424864  0.703468  1
  As  As25  1  0.000000  0.245870  0.917063  1
  As  As26  1  0.000000  0.311560  0.152034  1
  As  As27  1  0.500000  0.746571  0.581862  1
  As  As28  1  0.500000  0.253928  0.416129  1
  As  As29  1  0.000000  0.576644  0.293755  1
  As  As30  1  0.500000  0.188601  0.651657  1
  As  As31  1  0.000000  0.758952  0.088831  1
  As  As32  1  0.500000  0.809292  0.344901  1
  As  As33  1  0.000000  0.688795  0.849587  1
  As  As34  1  0.500000  0.072410  0.201833  1
  As  As35  1  0.500000  0.923719  0.798018  1
