# generated using pymatgen
data_Tm3GaSn3Ir2
_symmetry_space_group_name_H-M   'P 1'
_cell_length_a   7.39269400
_cell_length_b   7.39269417
_cell_length_c   4.07766400
_cell_angle_alpha   90.00000000
_cell_angle_beta   90.00000000
_cell_angle_gamma   119.99999925
_symmetry_Int_Tables_number   1
_chemical_formula_structural   Tm3GaSn3Ir2
_chemical_formula_sum   'Tm3 Ga1 Sn3 Ir2'
_cell_volume   192.99565966
_cell_formula_units_Z   1
loop_
 _symmetry_equiv_pos_site_id
 _symmetry_equiv_pos_as_xyz
  1  'x, y, z'
loop_
 _atom_site_type_symbol
 _atom_site_label
 _atom_site_symmetry_multiplicity
 _atom_site_fract_x
 _atom_site_fract_y
 _atom_site_fract_z
 _atom_site_occupancy
  Tm  Tm0  1  0.984932  0.395043  0.500000  1
  Tm  Tm1  1  0.604957  0.589889  0.500000  1
  Tm  Tm2  1  0.410111  0.015068  0.500000  1
  Ga  Ga3  1  0.333333  0.666667  0.000000  1
  Sn  Sn4  1  0.995786  0.742227  0.000000  1
  Sn  Sn5  1  0.257773  0.253559  0.000000  1
  Sn  Sn6  1  0.746441  0.004214  0.000000  1
  Ir  Ir7  1  0.666667  0.333333  0.000000  1
  Ir  Ir8  1  0.000000  0.000000  0.500000  1
