# generated using pymatgen
data_Pr2NdSi5PPd20
_symmetry_space_group_name_H-M   'P 1'
_cell_length_a   8.78040407
_cell_length_b   8.78183488
_cell_length_c   8.78183412
_cell_angle_alpha   59.98921992
_cell_angle_beta   60.00538967
_cell_angle_gamma   60.00539059
_symmetry_Int_Tables_number   1
_chemical_formula_structural   Pr2NdSi5PPd20
_chemical_formula_sum   'Pr2 Nd1 Si5 P1 Pd20'
_cell_volume   478.81745973
_cell_formula_units_Z   1
loop_
 _symmetry_equiv_pos_site_id
 _symmetry_equiv_pos_as_xyz
  1  'x, y, z'
loop_
 _atom_site_type_symbol
 _atom_site_label
 _atom_site_symmetry_multiplicity
 _atom_site_fract_x
 _atom_site_fract_y
 _atom_site_fract_z
 _atom_site_occupancy
  Pr  Pr0  1  0.249559  0.250441  0.250441  1
  Pr  Pr1  1  0.749559  0.750441  0.750441  1
  Nd  Nd2  1  0.000245  0.999755  0.999755  1
  Si  Si3  1  0.267334  0.732666  0.732666  1
  Si  Si4  1  0.265990  0.734010  0.267355  1
  Si  Si5  1  0.732645  0.267355  0.734010  1
  Si  Si6  1  0.265990  0.267355  0.734010  1
  Si  Si7  1  0.732645  0.734010  0.267355  1
  P  P8  1  0.734714  0.265286  0.265286  1
  Pd  Pd9  1  0.347767  0.999348  0.999348  1
  Pd  Pd10  1  0.653537  0.999348  0.999348  1
  Pd  Pd11  1  0.000652  0.346463  0.652233  1
  Pd  Pd12  1  0.000652  0.652233  0.346463  1
  Pd  Pd13  1  0.998758  0.346646  0.001242  1
  Pd  Pd14  1  0.653354  0.001242  0.346646  1
  Pd  Pd15  1  0.000134  0.653322  0.999866  1
  Pd  Pd16  1  0.346678  0.999866  0.653322  1
  Pd  Pd17  1  0.998758  0.001242  0.346646  1
  Pd  Pd18  1  0.000134  0.999866  0.653322  1
  Pd  Pd19  1  0.653354  0.346646  0.001242  1
  Pd  Pd20  1  0.346678  0.653322  0.999866  1
  Pd  Pd21  1  0.386935  0.385367  0.385367  1
  Pd  Pd22  1  0.614595  0.614418  0.614418  1
  Pd  Pd23  1  0.385582  0.385405  0.843430  1
  Pd  Pd24  1  0.385582  0.843430  0.385405  1
  Pd  Pd25  1  0.614633  0.613065  0.157669  1
  Pd  Pd26  1  0.614633  0.157669  0.613065  1
  Pd  Pd27  1  0.842331  0.385367  0.385367  1
  Pd  Pd28  1  0.156570  0.614418  0.614418  1
