# generated using pymatgen
data_Cs2MnMoS4
_symmetry_space_group_name_H-M   'P 1'
_cell_length_a   14.47063234
_cell_length_b   12.86540370
_cell_length_c   7.71123970
_cell_angle_alpha   85.49563559
_cell_angle_beta   62.41488322
_cell_angle_gamma   32.08947948
_symmetry_Int_Tables_number   1
_chemical_formula_structural   Cs2MnMoS4
_chemical_formula_sum   'Cs4 Mn2 Mo2 S8'
_cell_volume   503.98327501
_cell_formula_units_Z   2
loop_
 _symmetry_equiv_pos_site_id
 _symmetry_equiv_pos_as_xyz
  1  'x, y, z'
loop_
 _atom_site_type_symbol
 _atom_site_label
 _atom_site_symmetry_multiplicity
 _atom_site_fract_x
 _atom_site_fract_y
 _atom_site_fract_z
 _atom_site_occupancy
  Cs  Cs0  1  0.573399  0.573399  0.926601  1
  Cs  Cs1  1  0.926601  0.926601  0.573399  1
  Cs  Cs2  1  0.323399  0.323399  0.676601  1
  Cs  Cs3  1  0.676601  0.676601  0.323399  1
  Mn  Mn4  1  0.000000  0.000000  0.000000  1
  Mn  Mn5  1  0.250000  0.250000  0.250000  1
  Mo  Mo6  1  0.750000  0.750000  0.750000  1
  Mo  Mo7  1  0.500000  0.500000  0.500000  1
  S  S8  1  0.211064  0.889363  0.609619  1
  S  S9  1  0.289954  0.609619  0.889363  1
  S  S10  1  0.609619  0.289954  0.211064  1
  S  S11  1  0.889363  0.211064  0.289954  1
  S  S12  1  0.360637  0.038936  0.960046  1
  S  S13  1  0.960046  0.640381  0.360637  1
  S  S14  1  0.640381  0.960046  0.038936  1
  S  S15  1  0.038936  0.360637  0.640381  1
