# generated using pymatgen
data_Gd4Co2SnB6
_symmetry_space_group_name_H-M   'P 1'
_cell_length_a   5.28914697
_cell_length_b   5.28987259
_cell_length_c   8.36765600
_cell_angle_alpha   71.62757806
_cell_angle_beta   71.57596857
_cell_angle_gamma   60.00455567
_symmetry_Int_Tables_number   1
_chemical_formula_structural   Gd4Co2SnB6
_chemical_formula_sum   'Gd4 Co2 Sn1 B6'
_cell_volume   188.81560972
_cell_formula_units_Z   1
loop_
 _symmetry_equiv_pos_site_id
 _symmetry_equiv_pos_as_xyz
  1  'x, y, z'
loop_
 _atom_site_type_symbol
 _atom_site_label
 _atom_site_symmetry_multiplicity
 _atom_site_fract_x
 _atom_site_fract_y
 _atom_site_fract_z
 _atom_site_occupancy
  Gd  Gd0  1  0.251994  0.251044  0.244969  1
  Gd  Gd1  1  0.748006  0.748956  0.755031  1
  Gd  Gd2  1  0.413932  0.414750  0.757385  1
  Gd  Gd3  1  0.586068  0.585250  0.242615  1
  Co  Co4  1  0.117038  0.117413  0.648511  1
  Co  Co5  1  0.882962  0.882587  0.351489  1
  Sn  Sn6  1  0.000000  0.000000  0.000000  1
  B  B7  1  0.830646  0.500000  0.500000  1
  B  B8  1  0.499982  0.169367  0.499997  1
  B  B9  1  0.169347  0.830633  0.500003  1
  B  B10  1  0.500018  0.830633  0.500003  1
  B  B11  1  0.830653  0.169367  0.499997  1
  B  B12  1  0.169354  0.500000  0.500000  1
