# generated using pymatgen
data_Dy3HfCo8(SiP2)2
_symmetry_space_group_name_H-M   'P 1'
_cell_length_a   3.74955100
_cell_length_b   10.74769200
_cell_length_c   12.47618800
_cell_angle_alpha   90.00000000
_cell_angle_beta   90.00000000
_cell_angle_gamma   90.00000000
_symmetry_Int_Tables_number   1
_chemical_formula_structural   Dy3HfCo8(SiP2)2
_chemical_formula_sum   'Dy6 Hf2 Co16 Si4 P8'
_cell_volume   502.77814083
_cell_formula_units_Z   2
loop_
 _symmetry_equiv_pos_site_id
 _symmetry_equiv_pos_as_xyz
  1  'x, y, z'
loop_
 _atom_site_type_symbol
 _atom_site_label
 _atom_site_symmetry_multiplicity
 _atom_site_fract_x
 _atom_site_fract_y
 _atom_site_fract_z
 _atom_site_occupancy
  Dy  Dy0  1  0.000000  0.500000  0.531489  1
  Dy  Dy1  1  0.500000  0.000000  0.468511  1
  Dy  Dy2  1  0.500000  0.821151  0.207093  1
  Dy  Dy3  1  0.500000  0.178849  0.207093  1
  Dy  Dy4  1  0.000000  0.678849  0.792907  1
  Dy  Dy5  1  0.000000  0.321151  0.792907  1
  Hf  Hf6  1  0.500000  0.500000  0.154112  1
  Hf  Hf7  1  0.000000  0.000000  0.845888  1
  Co  Co8  1  0.500000  0.500000  0.698853  1
  Co  Co9  1  0.000000  0.000000  0.301147  1
  Co  Co10  1  0.000000  0.500000  0.990799  1
  Co  Co11  1  0.500000  0.000000  0.009201  1
  Co  Co12  1  0.500000  0.329426  0.996229  1
  Co  Co13  1  0.500000  0.670574  0.996229  1
  Co  Co14  1  0.000000  0.170574  0.003771  1
  Co  Co15  1  0.000000  0.829426  0.003771  1
  Co  Co16  1  0.500000  0.293282  0.434218  1
  Co  Co17  1  0.500000  0.706718  0.434218  1
  Co  Co18  1  0.000000  0.206718  0.565782  1
  Co  Co19  1  0.000000  0.793282  0.565782  1
  Co  Co20  1  0.500000  0.877783  0.703590  1
  Co  Co21  1  0.500000  0.122217  0.703590  1
  Co  Co22  1  0.000000  0.622217  0.296410  1
  Co  Co23  1  0.000000  0.377783  0.296410  1
  Si  Si24  1  0.500000  0.500000  0.885068  1
  Si  Si25  1  0.000000  0.000000  0.114932  1
  Si  Si26  1  0.500000  0.500000  0.360343  1
  Si  Si27  1  0.000000  0.000000  0.639657  1
  P  P28  1  0.500000  0.306864  0.615355  1
  P  P29  1  0.500000  0.693136  0.615355  1
  P  P30  1  0.000000  0.193136  0.384645  1
  P  P31  1  0.000000  0.806864  0.384645  1
  P  P32  1  0.500000  0.838255  0.894268  1
  P  P33  1  0.500000  0.161745  0.894268  1
  P  P34  1  0.000000  0.661745  0.105732  1
  P  P35  1  0.000000  0.338255  0.105732  1
