# generated using pymatgen
data_LaTbEr5CoI12
_symmetry_space_group_name_H-M   'P 1'
_cell_length_a   9.72769658
_cell_length_b   9.73079292
_cell_length_c   9.72248986
_cell_angle_alpha   106.23073251
_cell_angle_beta   106.19599273
_cell_angle_gamma   106.32930524
_symmetry_Int_Tables_number   1
_chemical_formula_structural   LaTbEr5CoI12
_chemical_formula_sum   'La1 Tb1 Er5 Co1 I12'
_cell_volume   781.55662971
_cell_formula_units_Z   1
loop_
 _symmetry_equiv_pos_site_id
 _symmetry_equiv_pos_as_xyz
  1  'x, y, z'
loop_
 _atom_site_type_symbol
 _atom_site_label
 _atom_site_symmetry_multiplicity
 _atom_site_fract_x
 _atom_site_fract_y
 _atom_site_fract_z
 _atom_site_occupancy
  La  La0  1  0.996745  0.996960  0.996609  1
  Tb  Tb1  1  0.409393  0.212944  0.481944  1
  Er  Er2  1  0.516232  0.587886  0.780839  1
  Er  Er3  1  0.780768  0.516625  0.586971  1
  Er  Er4  1  0.587120  0.780156  0.516010  1
  Er  Er5  1  0.482173  0.411610  0.217603  1
  Er  Er6  1  0.217640  0.481912  0.410937  1
  Co  Co7  1  0.499131  0.498841  0.499291  1
  I  I8  1  0.276130  0.821707  0.426274  1
  I  I9  1  0.427588  0.278728  0.825994  1
  I  I10  1  0.823010  0.427153  0.276830  1
  I  I11  1  0.724790  0.176138  0.572449  1
  I  I12  1  0.571472  0.722077  0.175235  1
  I  I13  1  0.175604  0.571603  0.721596  1
  I  I14  1  0.043320  0.124974  0.351852  1
  I  I15  1  0.352825  0.046099  0.122556  1
  I  I16  1  0.124869  0.353129  0.046268  1
  I  I17  1  0.951892  0.872922  0.641775  1
  I  I18  1  0.642001  0.951929  0.872896  1
  I  I19  1  0.872663  0.641976  0.951438  1
