# generated using pymatgen
data_Tm2MoWN4
_symmetry_space_group_name_H-M   'P 1'
_cell_length_a   3.17019900
_cell_length_b   5.65889400
_cell_length_c   10.50734300
_cell_angle_alpha   90.00000000
_cell_angle_beta   90.00000000
_cell_angle_gamma   90.00000000
_symmetry_Int_Tables_number   1
_chemical_formula_structural   Tm2MoWN4
_chemical_formula_sum   'Tm4 Mo2 W2 N8'
_cell_volume   188.49984315
_cell_formula_units_Z   2
loop_
 _symmetry_equiv_pos_site_id
 _symmetry_equiv_pos_as_xyz
  1  'x, y, z'
loop_
 _atom_site_type_symbol
 _atom_site_label
 _atom_site_symmetry_multiplicity
 _atom_site_fract_x
 _atom_site_fract_y
 _atom_site_fract_z
 _atom_site_occupancy
  Tm  Tm0  1  0.250000  0.078725  0.853290  1
  Tm  Tm1  1  0.250000  0.578725  0.646710  1
  Tm  Tm2  1  0.750000  0.920522  0.145384  1
  Tm  Tm3  1  0.750000  0.420522  0.354616  1
  Mo  Mo4  1  0.750000  0.568357  0.905998  1
  Mo  Mo5  1  0.750000  0.068357  0.594002  1
  W  W6  1  0.250000  0.432381  0.095056  1
  W  W7  1  0.250000  0.932381  0.404944  1
  N  N8  1  0.250000  0.165282  0.247621  1
  N  N9  1  0.250000  0.665282  0.252379  1
  N  N10  1  0.750000  0.835999  0.750935  1
  N  N11  1  0.750000  0.335999  0.749065  1
  N  N12  1  0.250000  0.764360  0.996075  1
  N  N13  1  0.250000  0.264360  0.503925  1
  N  N14  1  0.750000  0.234373  0.006919  1
  N  N15  1  0.750000  0.734373  0.493081  1
