# generated using pymatgen
data_Er12N11
_symmetry_space_group_name_H-M   'P 1'
_cell_length_a   9.08399819
_cell_length_b   9.08399898
_cell_length_c   5.94162806
_cell_angle_alpha   89.98232373
_cell_angle_beta   89.98232454
_cell_angle_gamma   44.42917329
_symmetry_Int_Tables_number   1
_chemical_formula_structural   Er12N11
_chemical_formula_sum   'Er12 N11'
_cell_volume   343.22140746
_cell_formula_units_Z   1
loop_
 _symmetry_equiv_pos_site_id
 _symmetry_equiv_pos_as_xyz
  1  'x, y, z'
loop_
 _atom_site_type_symbol
 _atom_site_label
 _atom_site_symmetry_multiplicity
 _atom_site_fract_x
 _atom_site_fract_y
 _atom_site_fract_z
 _atom_site_occupancy
  Er  Er0  1  0.500000  0.000000  0.500000  1
  Er  Er1  1  0.172411  0.655463  0.829158  1
  Er  Er2  1  0.827589  0.344537  0.170842  1
  Er  Er3  1  0.344537  0.827589  0.170842  1
  Er  Er4  1  0.000000  0.500000  0.500000  1
  Er  Er5  1  0.655463  0.172411  0.829158  1
  Er  Er6  1  0.914115  0.914115  0.346705  1
  Er  Er7  1  0.583156  0.583156  0.671218  1
  Er  Er8  1  0.248285  0.248285  0.000591  1
  Er  Er9  1  0.416844  0.416844  0.328782  1
  Er  Er10  1  0.085885  0.085885  0.653295  1
  Er  Er11  1  0.751715  0.751715  0.999409  1
  N  N12  1  0.751896  0.248104  0.500000  1
  N  N13  1  0.415794  0.916942  0.833693  1
  N  N14  1  0.083058  0.584206  0.166307  1
  N  N15  1  0.584206  0.083058  0.166307  1
  N  N16  1  0.248104  0.751896  0.500000  1
  N  N17  1  0.916942  0.415794  0.833693  1
  N  N18  1  0.834172  0.834172  0.664215  1
  N  N19  1  0.500000  0.500000  0.000000  1
  N  N20  1  0.165828  0.165828  0.335785  1
  N  N21  1  0.665486  0.665486  0.329898  1
  N  N22  1  0.334514  0.334514  0.670102  1
