# generated using pymatgen
data_Er3HfMg2Ir3
_symmetry_space_group_name_H-M   'P 1'
_cell_length_a   7.27708644
_cell_length_b   7.14472787
_cell_length_c   4.17726400
_cell_angle_alpha   90.00000000
_cell_angle_beta   90.00000000
_cell_angle_gamma   119.40011244
_symmetry_Int_Tables_number   1
_chemical_formula_structural   Er3HfMg2Ir3
_chemical_formula_sum   'Er3 Hf1 Mg2 Ir3'
_cell_volume   189.21668085
_cell_formula_units_Z   1
loop_
 _symmetry_equiv_pos_site_id
 _symmetry_equiv_pos_as_xyz
  1  'x, y, z'
loop_
 _atom_site_type_symbol
 _atom_site_label
 _atom_site_symmetry_multiplicity
 _atom_site_fract_x
 _atom_site_fract_y
 _atom_site_fract_z
 _atom_site_occupancy
  Er  Er0  1  0.581651  0.585874  0.000000  1
  Er  Er1  1  0.418349  0.004223  0.000000  1
  Er  Er2  1  0.000000  0.398905  0.000000  1
  Hf  Hf3  1  0.000000  0.752799  0.500000  1
  Mg  Mg4  1  0.249776  0.249791  0.500000  1
  Mg  Mg5  1  0.750224  0.000016  0.500000  1
  Ir  Ir6  1  0.000000  0.981025  0.000000  1
  Ir  Ir7  1  0.678450  0.352908  0.500000  1
  Ir  Ir8  1  0.321550  0.674459  0.500000  1
