# generated using pymatgen
data_Hf2CrGaRe2
_symmetry_space_group_name_H-M   'P 1'
_cell_length_a   5.20189004
_cell_length_b   5.14081975
_cell_length_c   8.53323700
_cell_angle_alpha   90.00000000
_cell_angle_beta   90.00000000
_cell_angle_gamma   119.61237751
_symmetry_Int_Tables_number   1
_chemical_formula_structural   Hf2CrGaRe2
_chemical_formula_sum   'Hf4 Cr2 Ga2 Re4'
_cell_volume   198.39060171
_cell_formula_units_Z   2
loop_
 _symmetry_equiv_pos_site_id
 _symmetry_equiv_pos_as_xyz
  1  'x, y, z'
loop_
 _atom_site_type_symbol
 _atom_site_label
 _atom_site_symmetry_multiplicity
 _atom_site_fract_x
 _atom_site_fract_y
 _atom_site_fract_z
 _atom_site_occupancy
  Hf  Hf0  1  0.332826  0.666205  0.066203  1
  Hf  Hf1  1  0.667174  0.333378  0.566203  1
  Hf  Hf2  1  0.667174  0.333378  0.933797  1
  Hf  Hf3  1  0.332826  0.666205  0.433797  1
  Cr  Cr4  1  0.828429  0.658396  0.250000  1
  Cr  Cr5  1  0.171571  0.829968  0.750000  1
  Ga  Ga6  1  0.000000  0.989295  0.000000  1
  Ga  Ga7  1  0.000000  0.989295  0.500000  1
  Re  Re8  1  0.653446  0.831564  0.750000  1
  Re  Re9  1  0.346554  0.178118  0.250000  1
  Re  Re10  1  0.830526  0.177362  0.250000  1
  Re  Re11  1  0.169474  0.346836  0.750000  1
