# generated using pymatgen
data_Dy8Lu8Sc3Si16Hg
_symmetry_space_group_name_H-M   'P 1'
_cell_length_a   7.15568603
_cell_length_b   7.56368170
_cell_length_c   14.29607100
_cell_angle_alpha   90.00000000
_cell_angle_beta   90.00000000
_cell_angle_gamma   89.89650498
_symmetry_Int_Tables_number   1
_chemical_formula_structural   Dy8Lu8Sc3Si16Hg
_chemical_formula_sum   'Dy8 Lu8 Sc3 Si16 Hg1'
_cell_volume   773.74972742
_cell_formula_units_Z   1
loop_
 _symmetry_equiv_pos_site_id
 _symmetry_equiv_pos_as_xyz
  1  'x, y, z'
loop_
 _atom_site_type_symbol
 _atom_site_label
 _atom_site_symmetry_multiplicity
 _atom_site_fract_x
 _atom_site_fract_y
 _atom_site_fract_z
 _atom_site_occupancy
  Dy  Dy0  1  0.014838  0.179793  0.097188  1
  Dy  Dy1  1  0.984838  0.811735  0.902094  1
  Dy  Dy2  1  0.480644  0.675911  0.901898  1
  Dy  Dy3  1  0.984838  0.811735  0.597906  1
  Dy  Dy4  1  0.514184  0.321597  0.097362  1
  Dy  Dy5  1  0.014838  0.179793  0.402812  1
  Dy  Dy6  1  0.514184  0.321597  0.402638  1
  Dy  Dy7  1  0.480644  0.675911  0.598102  1
  Lu  Lu8  1  0.319038  0.183176  0.627004  1
  Lu  Lu9  1  0.676697  0.825154  0.374577  1
  Lu  Lu10  1  0.174582  0.682308  0.372558  1
  Lu  Lu11  1  0.676697  0.825154  0.125423  1
  Lu  Lu12  1  0.837402  0.324308  0.626760  1
  Lu  Lu13  1  0.319038  0.183176  0.872996  1
  Lu  Lu14  1  0.837402  0.324308  0.873240  1
  Lu  Lu15  1  0.174582  0.682308  0.127442  1
  Sc  Sc16  1  0.841488  0.490071  0.250000  1
  Sc  Sc17  1  0.344644  0.012735  0.250000  1
  Sc  Sc18  1  0.651707  0.989946  0.750000  1
  Si  Si19  1  0.016000  0.075730  0.750000  1
  Si  Si20  1  0.977399  0.903830  0.250000  1
  Si  Si21  1  0.476600  0.605580  0.250000  1
  Si  Si22  1  0.537876  0.389203  0.750000  1
  Si  Si23  1  0.285160  0.878244  0.750000  1
  Si  Si24  1  0.716991  0.136273  0.250000  1
  Si  Si25  1  0.216190  0.367786  0.250000  1
  Si  Si26  1  0.762008  0.635192  0.750000  1
  Si  Si27  1  0.161720  0.462122  0.527983  1
  Si  Si28  1  0.844728  0.532430  0.460536  1
  Si  Si29  1  0.346807  0.970044  0.462242  1
  Si  Si30  1  0.844728  0.532430  0.039464  1
  Si  Si31  1  0.654181  0.030011  0.541633  1
  Si  Si32  1  0.161720  0.462122  0.972017  1
  Si  Si33  1  0.654181  0.030011  0.958367  1
  Si  Si34  1  0.346807  0.970044  0.037758  1
  Hg  Hg35  1  0.154615  0.518231  0.750000  1
