# generated using pymatgen
data_HfZr3Sc4(InCu2)4
_symmetry_space_group_name_H-M   'P 1'
_cell_length_a   7.25124967
_cell_length_b   7.25124967
_cell_length_c   6.86318300
_cell_angle_alpha   90.00000000
_cell_angle_beta   90.00000000
_cell_angle_gamma   89.95083684
_symmetry_Int_Tables_number   1
_chemical_formula_structural   HfZr3Sc4(InCu2)4
_chemical_formula_sum   'Hf1 Zr3 Sc4 In4 Cu8'
_cell_volume   360.87029640
_cell_formula_units_Z   1
loop_
 _symmetry_equiv_pos_site_id
 _symmetry_equiv_pos_as_xyz
  1  'x, y, z'
loop_
 _atom_site_type_symbol
 _atom_site_label
 _atom_site_symmetry_multiplicity
 _atom_site_fract_x
 _atom_site_fract_y
 _atom_site_fract_z
 _atom_site_occupancy
  Hf  Hf0  1  0.352076  0.647924  0.500000  1
  Zr  Zr1  1  0.149275  0.148486  0.000000  1
  Zr  Zr2  1  0.851514  0.850725  0.000000  1
  Zr  Zr3  1  0.649616  0.350384  0.500000  1
  Sc  Sc4  1  0.687245  0.312755  0.000000  1
  Sc  Sc5  1  0.311405  0.688595  0.000000  1
  Sc  Sc6  1  0.811739  0.812082  0.500000  1
  Sc  Sc7  1  0.187918  0.188261  0.500000  1
  In  In8  1  0.499847  0.000213  0.249746  1
  In  In9  1  0.499847  0.000213  0.750254  1
  In  In10  1  0.999787  0.500153  0.249746  1
  In  In11  1  0.999787  0.500153  0.750254  1
  Cu  Cu12  1  0.375205  0.377671  0.206836  1
  Cu  Cu13  1  0.622329  0.624795  0.793164  1
  Cu  Cu14  1  0.622329  0.624795  0.206836  1
  Cu  Cu15  1  0.876985  0.123015  0.705487  1
  Cu  Cu16  1  0.876985  0.123015  0.294513  1
  Cu  Cu17  1  0.375205  0.377671  0.793164  1
  Cu  Cu18  1  0.125453  0.874547  0.297472  1
  Cu  Cu19  1  0.125453  0.874547  0.702528  1
