# generated using pymatgen
data_Hf18Re7MoPRu
_symmetry_space_group_name_H-M   'P 1'
_cell_length_a   8.60295200
_cell_length_b   8.60295202
_cell_length_c   8.59285600
_cell_angle_alpha   90.00000000
_cell_angle_beta   90.00000000
_cell_angle_gamma   119.99999993
_symmetry_Int_Tables_number   1
_chemical_formula_structural   Hf18Re7MoPRu
_chemical_formula_sum   'Hf18 Re7 Mo1 P1 Ru1'
_cell_volume   550.76098292
_cell_formula_units_Z   1
loop_
 _symmetry_equiv_pos_site_id
 _symmetry_equiv_pos_as_xyz
  1  'x, y, z'
loop_
 _atom_site_type_symbol
 _atom_site_label
 _atom_site_symmetry_multiplicity
 _atom_site_fract_x
 _atom_site_fract_y
 _atom_site_fract_z
 _atom_site_occupancy
  Hf  Hf0  1  0.197962  0.802038  0.446724  1
  Hf  Hf1  1  0.197962  0.395922  0.446724  1
  Hf  Hf2  1  0.604078  0.802038  0.446724  1
  Hf  Hf3  1  0.804150  0.195850  0.549539  1
  Hf  Hf4  1  0.804150  0.608302  0.549539  1
  Hf  Hf5  1  0.391698  0.195850  0.549539  1
  Hf  Hf6  1  0.805364  0.194636  0.950565  1
  Hf  Hf7  1  0.805364  0.610729  0.950565  1
  Hf  Hf8  1  0.389271  0.194636  0.950565  1
  Hf  Hf9  1  0.197459  0.802541  0.053083  1
  Hf  Hf10  1  0.197459  0.394916  0.053083  1
  Hf  Hf11  1  0.605084  0.802541  0.053083  1
  Hf  Hf12  1  0.542058  0.457942  0.249853  1
  Hf  Hf13  1  0.542058  0.084118  0.249853  1
  Hf  Hf14  1  0.915882  0.457942  0.249853  1
  Hf  Hf15  1  0.459413  0.540587  0.750199  1
  Hf  Hf16  1  0.459413  0.918826  0.750199  1
  Hf  Hf17  1  0.081174  0.540587  0.750199  1
  Re  Re18  1  0.888688  0.111312  0.250307  1
  Re  Re19  1  0.888688  0.777376  0.250307  1
  Re  Re20  1  0.222624  0.111312  0.250307  1
  Re  Re21  1  0.110363  0.889637  0.749687  1
  Re  Re22  1  0.110363  0.220727  0.749687  1
  Re  Re23  1  0.779273  0.889637  0.749687  1
  Re  Re24  1  0.000000  0.000000  0.001073  1
  Mo  Mo25  1  0.000000  0.000000  0.498417  1
  P  P26  1  0.666667  0.333333  0.750741  1
  Ru  Ru27  1  0.333333  0.666667  0.249894  1
