# generated using pymatgen
data_LiTm6P12Rh17
_symmetry_space_group_name_H-M   'P 1'
_cell_length_a   3.90602500
_cell_length_b   11.19887600
_cell_length_c   12.70850600
_cell_angle_alpha   90.00000000
_cell_angle_beta   90.00000000
_cell_angle_gamma   90.00000000
_symmetry_Int_Tables_number   1
_chemical_formula_structural   LiTm6P12Rh17
_chemical_formula_sum   'Li1 Tm6 P12 Rh17'
_cell_volume   555.90931699
_cell_formula_units_Z   1
loop_
 _symmetry_equiv_pos_site_id
 _symmetry_equiv_pos_as_xyz
  1  'x, y, z'
loop_
 _atom_site_type_symbol
 _atom_site_label
 _atom_site_symmetry_multiplicity
 _atom_site_fract_x
 _atom_site_fract_y
 _atom_site_fract_z
 _atom_site_occupancy
  Li  Li0  1  0.500000  0.500000  0.156691  1
  Tm  Tm1  1  0.000000  0.500000  0.516821  1
  Tm  Tm2  1  0.500000  0.000000  0.478390  1
  Tm  Tm3  1  0.500000  0.815969  0.205903  1
  Tm  Tm4  1  0.500000  0.184031  0.205903  1
  Tm  Tm5  1  0.000000  0.682486  0.794880  1
  Tm  Tm6  1  0.000000  0.317514  0.794880  1
  P  P7  1  0.500000  0.500000  0.880835  1
  P  P8  1  0.000000  0.000000  0.120655  1
  P  P9  1  0.500000  0.500000  0.349025  1
  P  P10  1  0.000000  0.000000  0.647087  1
  P  P11  1  0.500000  0.316096  0.619331  1
  P  P12  1  0.500000  0.683904  0.619331  1
  P  P13  1  0.000000  0.185799  0.381817  1
  P  P14  1  0.000000  0.814201  0.381817  1
  P  P15  1  0.500000  0.844864  0.891265  1
  P  P16  1  0.500000  0.155136  0.891265  1
  P  P17  1  0.000000  0.658563  0.108931  1
  P  P18  1  0.000000  0.341437  0.108931  1
  Rh  Rh19  1  0.000000  0.000000  0.829633  1
  Rh  Rh20  1  0.500000  0.500000  0.702389  1
  Rh  Rh21  1  0.000000  0.000000  0.298753  1
  Rh  Rh22  1  0.000000  0.500000  0.983791  1
  Rh  Rh23  1  0.500000  0.000000  0.018072  1
  Rh  Rh24  1  0.500000  0.331554  0.994430  1
  Rh  Rh25  1  0.500000  0.668446  0.994430  1
  Rh  Rh26  1  0.000000  0.165664  0.005760  1
  Rh  Rh27  1  0.000000  0.834336  0.005760  1
  Rh  Rh28  1  0.500000  0.291509  0.433640  1
  Rh  Rh29  1  0.500000  0.708491  0.433640  1
  Rh  Rh30  1  0.000000  0.203014  0.571170  1
  Rh  Rh31  1  0.000000  0.796986  0.571170  1
  Rh  Rh32  1  0.500000  0.872741  0.711197  1
  Rh  Rh33  1  0.500000  0.127259  0.711197  1
  Rh  Rh34  1  0.000000  0.626754  0.290604  1
  Rh  Rh35  1  0.000000  0.373246  0.290604  1
