# generated using pymatgen
data_Y2Tm14InAg3Rh4
_symmetry_space_group_name_H-M   'P 1'
_cell_length_a   9.48425938
_cell_length_b   9.46798394
_cell_length_c   9.44879672
_cell_angle_alpha   59.86956098
_cell_angle_beta   59.87576768
_cell_angle_gamma   59.94311556
_symmetry_Int_Tables_number   1
_chemical_formula_structural   Y2Tm14InAg3Rh4
_chemical_formula_sum   'Y2 Tm14 In1 Ag3 Rh4'
_cell_volume   598.54601767
_cell_formula_units_Z   1
loop_
 _symmetry_equiv_pos_site_id
 _symmetry_equiv_pos_as_xyz
  1  'x, y, z'
loop_
 _atom_site_type_symbol
 _atom_site_label
 _atom_site_symmetry_multiplicity
 _atom_site_fract_x
 _atom_site_fract_y
 _atom_site_fract_z
 _atom_site_occupancy
  Y  Y0  1  0.062986  0.063252  0.437287  1
  Y  Y1  1  0.436475  0.063252  0.437287  1
  Tm  Tm2  1  0.061598  0.435884  0.067420  1
  Tm  Tm3  1  0.054403  0.647063  0.649688  1
  Tm  Tm4  1  0.435098  0.435884  0.067420  1
  Tm  Tm5  1  0.647870  0.054316  0.649946  1
  Tm  Tm6  1  0.187786  0.812507  0.187380  1
  Tm  Tm7  1  0.188215  0.189741  0.812828  1
  Tm  Tm8  1  0.812327  0.812507  0.187380  1
  Tm  Tm9  1  0.435987  0.061221  0.066805  1
  Tm  Tm10  1  0.812286  0.188597  0.186831  1
  Tm  Tm11  1  0.062354  0.437695  0.437597  1
  Tm  Tm12  1  0.809216  0.189741  0.812828  1
  Tm  Tm13  1  0.188661  0.809134  0.813545  1
  Tm  Tm14  1  0.649212  0.647881  0.053698  1
  Tm  Tm15  1  0.648849  0.647063  0.649688  1
  In  In16  1  0.420310  0.420572  0.738809  1
  Ag  Ag17  1  0.417615  0.418812  0.414825  1
  Ag  Ag18  1  0.748746  0.418812  0.414825  1
  Ag  Ag19  1  0.418721  0.747851  0.414706  1
  Rh  Rh20  1  0.857307  0.855369  0.430019  1
  Rh  Rh21  1  0.857573  0.856825  0.856634  1
  Rh  Rh22  1  0.428968  0.856825  0.856634  1
  Rh  Rh23  1  0.857439  0.429198  0.855924  1
