# generated using pymatgen
data_ThCr2(MoC2)2
_symmetry_space_group_name_H-M   'P 1'
_cell_length_a   6.18947620
_cell_length_b   6.18947724
_cell_length_c   5.89399146
_cell_angle_alpha   92.98231943
_cell_angle_beta   95.33299847
_cell_angle_gamma   149.53613459
_symmetry_Int_Tables_number   1
_chemical_formula_structural   ThCr2(MoC2)2
_chemical_formula_sum   'Th1 Cr2 Mo2 C4'
_cell_volume   110.00769176
_cell_formula_units_Z   1
loop_
 _symmetry_equiv_pos_site_id
 _symmetry_equiv_pos_as_xyz
  1  'x, y, z'
loop_
 _atom_site_type_symbol
 _atom_site_label
 _atom_site_symmetry_multiplicity
 _atom_site_fract_x
 _atom_site_fract_y
 _atom_site_fract_z
 _atom_site_occupancy
  Th  Th0  1  0.000000  0.000000  0.000000  1
  Cr  Cr1  1  0.640430  0.811495  0.451925  1
  Cr  Cr2  1  0.359570  0.188505  0.548075  1
  Mo  Mo3  1  0.830854  0.373200  0.204053  1
  Mo  Mo4  1  0.169146  0.626800  0.795947  1
  C  C5  1  0.254102  0.391945  0.646047  1
  C  C6  1  0.745898  0.608055  0.353953  1
  C  C7  1  0.410330  0.734955  0.145284  1
  C  C8  1  0.589670  0.265045  0.854716  1
