# generated using pymatgen
data_Tb5CeFeTe2
_symmetry_space_group_name_H-M   'P 1'
_cell_length_a   8.47341900
_cell_length_b   8.43127190
_cell_length_c   3.86670300
_cell_angle_alpha   90.00000000
_cell_angle_beta   90.00000000
_cell_angle_gamma   119.83559441
_symmetry_Int_Tables_number   1
_chemical_formula_structural   Tb5CeFeTe2
_chemical_formula_sum   'Tb5 Ce1 Fe1 Te2'
_cell_volume   239.62952192
_cell_formula_units_Z   1
loop_
 _symmetry_equiv_pos_site_id
 _symmetry_equiv_pos_as_xyz
  1  'x, y, z'
loop_
 _atom_site_type_symbol
 _atom_site_label
 _atom_site_symmetry_multiplicity
 _atom_site_fract_x
 _atom_site_fract_y
 _atom_site_fract_z
 _atom_site_occupancy
  Tb  Tb0  1  0.000000  0.424731  0.500000  1
  Tb  Tb1  1  0.604475  0.600942  0.500000  1
  Tb  Tb2  1  0.395525  0.996467  0.500000  1
  Tb  Tb3  1  0.233168  0.241185  0.000000  1
  Tb  Tb4  1  0.766832  0.008018  0.000000  1
  Ce  Ce5  1  0.000000  0.775596  0.000000  1
  Fe  Fe6  1  0.000000  0.954895  0.500000  1
  Te  Te7  1  0.342852  0.670510  0.000000  1
  Te  Te8  1  0.657148  0.327657  0.000000  1
