# generated using pymatgen
data_HfZr9CuSn6Sb
_symmetry_space_group_name_H-M   'P 1'
_cell_length_a   8.75527300
_cell_length_b   8.75527339
_cell_length_c   5.93915300
_cell_angle_alpha   90.00000000
_cell_angle_beta   90.00000000
_cell_angle_gamma   120.00000229
_symmetry_Int_Tables_number   1
_chemical_formula_structural   HfZr9CuSn6Sb
_chemical_formula_sum   'Hf1 Zr9 Cu1 Sn6 Sb1'
_cell_volume   394.27073225
_cell_formula_units_Z   1
loop_
 _symmetry_equiv_pos_site_id
 _symmetry_equiv_pos_as_xyz
  1  'x, y, z'
loop_
 _atom_site_type_symbol
 _atom_site_label
 _atom_site_symmetry_multiplicity
 _atom_site_fract_x
 _atom_site_fract_y
 _atom_site_fract_z
 _atom_site_occupancy
  Hf  Hf0  1  0.666667  0.333333  0.500000  1
  Zr  Zr1  1  0.333333  0.666667  0.500000  1
  Zr  Zr2  1  0.333333  0.666667  0.000000  1
  Zr  Zr3  1  0.666667  0.333333  0.000000  1
  Zr  Zr4  1  0.728754  0.728473  0.237328  1
  Zr  Zr5  1  0.271527  0.000281  0.237328  1
  Zr  Zr6  1  0.999719  0.271246  0.237328  1
  Zr  Zr7  1  0.271527  0.271246  0.762672  1
  Zr  Zr8  1  0.728754  0.000281  0.762672  1
  Zr  Zr9  1  0.999719  0.728473  0.762672  1
  Cu  Cu10  1  0.000000  0.000000  0.000000  1
  Sn  Sn11  1  0.387427  0.386901  0.252725  1
  Sn  Sn12  1  0.613099  0.000526  0.252725  1
  Sn  Sn13  1  0.999474  0.612573  0.252725  1
  Sn  Sn14  1  0.613099  0.612573  0.747275  1
  Sn  Sn15  1  0.387427  0.000526  0.747275  1
  Sn  Sn16  1  0.999474  0.386901  0.747275  1
  Sb  Sb17  1  0.000000  0.000000  0.500000  1
