# generated using pymatgen
data_Ho6Ti4Al12Os7
_symmetry_space_group_name_H-M   'P 1'
_cell_length_a   8.99664465
_cell_length_b   8.99664575
_cell_length_c   8.99664600
_cell_angle_alpha   60.00000642
_cell_angle_beta   60.00000238
_cell_angle_gamma   60.00000351
_symmetry_Int_Tables_number   1
_chemical_formula_structural   Ho6Ti4Al12Os7
_chemical_formula_sum   'Ho6 Ti4 Al12 Os7'
_cell_volume   514.90470667
_cell_formula_units_Z   1
loop_
 _symmetry_equiv_pos_site_id
 _symmetry_equiv_pos_as_xyz
  1  'x, y, z'
loop_
 _atom_site_type_symbol
 _atom_site_label
 _atom_site_symmetry_multiplicity
 _atom_site_fract_x
 _atom_site_fract_y
 _atom_site_fract_z
 _atom_site_occupancy
  Ho  Ho0  1  0.708283  0.708283  0.291717  1
  Ho  Ho1  1  0.291717  0.708283  0.291717  1
  Ho  Ho2  1  0.708283  0.291717  0.291717  1
  Ho  Ho3  1  0.291717  0.291717  0.708283  1
  Ho  Ho4  1  0.708283  0.291717  0.708283  1
  Ho  Ho5  1  0.291717  0.708283  0.708283  1
  Ti  Ti6  1  0.880086  0.880086  0.359740  1
  Ti  Ti7  1  0.880086  0.359740  0.880086  1
  Ti  Ti8  1  0.359740  0.880086  0.880086  1
  Ti  Ti9  1  0.880086  0.880086  0.880086  1
  Al  Al10  1  0.119034  0.119034  0.642899  1
  Al  Al11  1  0.119034  0.642899  0.119034  1
  Al  Al12  1  0.642899  0.119034  0.119034  1
  Al  Al13  1  0.119034  0.119034  0.119034  1
  Al  Al14  1  0.669524  0.669524  0.991428  1
  Al  Al15  1  0.669524  0.991428  0.669524  1
  Al  Al16  1  0.991428  0.669524  0.669524  1
  Al  Al17  1  0.669524  0.669524  0.669524  1
  Al  Al18  1  0.330900  0.330900  0.007299  1
  Al  Al19  1  0.330900  0.007299  0.330900  1
  Al  Al20  1  0.007299  0.330900  0.330900  1
  Al  Al21  1  0.330900  0.330900  0.330900  1
  Os  Os22  1  0.000000  0.000000  0.000000  1
  Os  Os23  1  0.998650  0.998650  0.501350  1
  Os  Os24  1  0.501350  0.998650  0.501350  1
  Os  Os25  1  0.998650  0.501350  0.501350  1
  Os  Os26  1  0.501350  0.501350  0.998650  1
  Os  Os27  1  0.998650  0.501350  0.998650  1
  Os  Os28  1  0.501350  0.998650  0.998650  1
