# generated using pymatgen
data_Tb13ThAu20
_symmetry_space_group_name_H-M   'P 1'
_cell_length_a   8.79229051
_cell_length_b   8.79229006
_cell_length_c   10.45625454
_cell_angle_alpha   90.07016274
_cell_angle_beta   90.07016606
_cell_angle_gamma   107.21854516
_symmetry_Int_Tables_number   1
_chemical_formula_structural   Tb13ThAu20
_chemical_formula_sum   'Tb13 Th1 Au20'
_cell_volume   772.08596948
_cell_formula_units_Z   1
loop_
 _symmetry_equiv_pos_site_id
 _symmetry_equiv_pos_as_xyz
  1  'x, y, z'
loop_
 _atom_site_type_symbol
 _atom_site_label
 _atom_site_symmetry_multiplicity
 _atom_site_fract_x
 _atom_site_fract_y
 _atom_site_fract_z
 _atom_site_occupancy
  Tb  Tb0  1  0.307907  0.692093  0.000000  1
  Tb  Tb1  1  0.807694  0.192306  0.500000  1
  Tb  Tb2  1  0.192136  0.807864  0.500000  1
  Tb  Tb3  1  0.999513  0.000487  0.000000  1
  Tb  Tb4  1  0.499826  0.500174  0.500000  1
  Tb  Tb5  1  0.004099  0.503833  0.251484  1
  Tb  Tb6  1  0.998909  0.498783  0.748675  1
  Tb  Tb7  1  0.496167  0.995901  0.748516  1
  Tb  Tb8  1  0.501217  0.001091  0.251325  1
  Tb  Tb9  1  0.311203  0.313108  0.188855  1
  Tb  Tb10  1  0.686892  0.688797  0.811145  1
  Tb  Tb11  1  0.186965  0.187376  0.687541  1
  Tb  Tb12  1  0.812624  0.813035  0.312459  1
  Th  Th13  1  0.693503  0.306497  0.000000  1
  Au  Au14  1  0.860616  0.148850  0.209980  1
  Au  Au15  1  0.140013  0.850834  0.790623  1
  Au  Au16  1  0.640184  0.350143  0.707812  1
  Au  Au17  1  0.649857  0.359816  0.292188  1
  Au  Au18  1  0.360050  0.649550  0.290830  1
  Au  Au19  1  0.350450  0.639950  0.709170  1
  Au  Au20  1  0.851150  0.139384  0.790020  1
  Au  Au21  1  0.149166  0.859987  0.209377  1
  Au  Au22  1  0.939416  0.646454  0.001846  1
  Au  Au23  1  0.063790  0.355097  0.997652  1
  Au  Au24  1  0.562681  0.854461  0.502399  1
  Au  Au25  1  0.145539  0.437319  0.497601  1
  Au  Au26  1  0.437423  0.145670  0.497635  1
  Au  Au27  1  0.854330  0.562577  0.502365  1
  Au  Au28  1  0.353546  0.060584  0.998154  1
  Au  Au29  1  0.644903  0.936210  0.002348  1
  Au  Au30  1  0.104813  0.104149  0.398032  1
  Au  Au31  1  0.895851  0.895187  0.601968  1
  Au  Au32  1  0.394415  0.396847  0.897677  1
  Au  Au33  1  0.603153  0.605585  0.102323  1
