# generated using pymatgen
data_Nd2ThAlGa2Ni3
_symmetry_space_group_name_H-M   'P 1'
_cell_length_a   7.11328700
_cell_length_b   7.13727934
_cell_length_c   3.95684800
_cell_angle_alpha   90.00000000
_cell_angle_beta   90.00000000
_cell_angle_gamma   119.88885826
_symmetry_Int_Tables_number   1
_chemical_formula_structural   Nd2ThAlGa2Ni3
_chemical_formula_sum   'Nd2 Th1 Al1 Ga2 Ni3'
_cell_volume   174.16798187
_cell_formula_units_Z   1
loop_
 _symmetry_equiv_pos_site_id
 _symmetry_equiv_pos_as_xyz
  1  'x, y, z'
loop_
 _atom_site_type_symbol
 _atom_site_label
 _atom_site_symmetry_multiplicity
 _atom_site_fract_x
 _atom_site_fract_y
 _atom_site_fract_z
 _atom_site_occupancy
  Nd  Nd0  1  0.000442  0.418966  0.500000  1
  Nd  Nd1  1  0.581477  0.581034  0.500000  1
  Th  Th2  1  0.415856  0.000000  0.500000  1
  Al  Al3  1  0.776334  0.000000  0.000000  1
  Ga  Ga4  1  0.993574  0.759014  0.000000  1
  Ga  Ga5  1  0.234560  0.240986  0.000000  1
  Ni  Ni6  1  0.341559  0.691012  0.000000  1
  Ni  Ni7  1  0.650549  0.308988  0.000000  1
  Ni  Ni8  1  0.005649  0.000000  0.500000  1
