# generated using pymatgen
data_Li3(TbZn7)2
_symmetry_space_group_name_H-M   'P 1'
_cell_length_a   8.96367005
_cell_length_b   8.96367123
_cell_length_c   8.73591200
_cell_angle_alpha   90.00000000
_cell_angle_beta   90.00000000
_cell_angle_gamma   120.01066150
_symmetry_Int_Tables_number   1
_chemical_formula_structural   Li3(TbZn7)2
_chemical_formula_sum   'Li6 Tb4 Zn28'
_cell_volume   607.80461873
_cell_formula_units_Z   2
loop_
 _symmetry_equiv_pos_site_id
 _symmetry_equiv_pos_as_xyz
  1  'x, y, z'
loop_
 _atom_site_type_symbol
 _atom_site_label
 _atom_site_symmetry_multiplicity
 _atom_site_fract_x
 _atom_site_fract_y
 _atom_site_fract_z
 _atom_site_occupancy
  Li  Li0  1  0.500000  0.000000  0.500000  1
  Li  Li1  1  0.500000  0.500000  0.500000  1
  Li  Li2  1  0.000000  0.500000  0.500000  1
  Li  Li3  1  0.500000  0.000000  0.000000  1
  Li  Li4  1  0.500000  0.500000  0.000000  1
  Li  Li5  1  0.000000  0.500000  0.000000  1
  Tb  Tb6  1  0.000011  0.999989  0.750000  1
  Tb  Tb7  1  0.999989  0.000011  0.250000  1
  Tb  Tb8  1  0.666788  0.333212  0.250000  1
  Tb  Tb9  1  0.333212  0.666788  0.750000  1
  Zn  Zn10  1  0.666723  0.333277  0.596927  1
  Zn  Zn11  1  0.333277  0.666723  0.403073  1
  Zn  Zn12  1  0.333277  0.666723  0.096927  1
  Zn  Zn13  1  0.666723  0.333277  0.903073  1
  Zn  Zn14  1  0.666614  0.036543  0.750000  1
  Zn  Zn15  1  0.370074  0.333529  0.750000  1
  Zn  Zn16  1  0.963727  0.630237  0.750000  1
  Zn  Zn17  1  0.369763  0.036273  0.750000  1
  Zn  Zn18  1  0.963457  0.333386  0.750000  1
  Zn  Zn19  1  0.666471  0.629926  0.750000  1
  Zn  Zn20  1  0.333386  0.963457  0.250000  1
  Zn  Zn21  1  0.629926  0.666471  0.250000  1
  Zn  Zn22  1  0.036273  0.369763  0.250000  1
  Zn  Zn23  1  0.630237  0.963727  0.250000  1
  Zn  Zn24  1  0.036543  0.666614  0.250000  1
  Zn  Zn25  1  0.333529  0.370074  0.250000  1
  Zn  Zn26  1  0.836436  0.672707  0.481023  1
  Zn  Zn27  1  0.836384  0.163616  0.481077  1
  Zn  Zn28  1  0.327293  0.163564  0.481023  1
  Zn  Zn29  1  0.163564  0.327293  0.518977  1
  Zn  Zn30  1  0.163616  0.836384  0.518923  1
  Zn  Zn31  1  0.672707  0.836436  0.518977  1
  Zn  Zn32  1  0.163564  0.327293  0.981023  1
  Zn  Zn33  1  0.163616  0.836384  0.981077  1
  Zn  Zn34  1  0.672707  0.836436  0.981023  1
  Zn  Zn35  1  0.836436  0.672707  0.018977  1
  Zn  Zn36  1  0.836384  0.163616  0.018923  1
  Zn  Zn37  1  0.327293  0.163564  0.018977  1
