# generated using pymatgen
data_Dy3HoCo16(TcP3)4
_symmetry_space_group_name_H-M   'P 1'
_cell_length_a   3.70978000
_cell_length_b   10.35021111
_cell_length_c   11.80932213
_cell_angle_alpha   89.98302737
_cell_angle_beta   90.00000000
_cell_angle_gamma   90.00000000
_symmetry_Int_Tables_number   1
_chemical_formula_structural   Dy3HoCo16(TcP3)4
_chemical_formula_sum   'Dy3 Ho1 Co16 Tc4 P12'
_cell_volume   453.44259495
_cell_formula_units_Z   1
loop_
 _symmetry_equiv_pos_site_id
 _symmetry_equiv_pos_as_xyz
  1  'x, y, z'
loop_
 _atom_site_type_symbol
 _atom_site_label
 _atom_site_symmetry_multiplicity
 _atom_site_fract_x
 _atom_site_fract_y
 _atom_site_fract_z
 _atom_site_occupancy
  Dy  Dy0  1  0.250000  0.916003  0.204614  1
  Dy  Dy1  1  0.750000  0.415886  0.295455  1
  Dy  Dy2  1  0.750000  0.084007  0.795402  1
  Ho  Ho3  1  0.250000  0.584051  0.704564  1
  Co  Co4  1  0.250000  0.406970  0.489009  1
  Co  Co5  1  0.250000  0.093059  0.988973  1
  Co  Co6  1  0.750000  0.593143  0.511387  1
  Co  Co7  1  0.750000  0.906938  0.011026  1
  Co  Co8  1  0.250000  0.221802  0.176648  1
  Co  Co9  1  0.250000  0.278283  0.676578  1
  Co  Co10  1  0.750000  0.777983  0.823241  1
  Co  Co11  1  0.750000  0.721801  0.323489  1
  Co  Co12  1  0.250000  0.885477  0.702244  1
  Co  Co13  1  0.250000  0.614396  0.202190  1
  Co  Co14  1  0.750000  0.114377  0.297794  1
  Co  Co15  1  0.750000  0.385906  0.797620  1
  Co  Co16  1  0.250000  0.464042  0.931501  1
  Co  Co17  1  0.250000  0.036029  0.431701  1
  Co  Co18  1  0.750000  0.536075  0.068214  1
  Co  Co19  1  0.750000  0.963779  0.568342  1
  Tc  Tc20  1  0.250000  0.710774  0.989413  1
  Tc  Tc21  1  0.250000  0.789187  0.489507  1
  Tc  Tc22  1  0.750000  0.289250  0.010561  1
  Tc  Tc23  1  0.750000  0.210913  0.510649  1
  P  P24  1  0.250000  0.420691  0.112841  1
  P  P25  1  0.250000  0.079269  0.612817  1
  P  P26  1  0.750000  0.579291  0.886823  1
  P  P27  1  0.750000  0.920714  0.387161  1
  P  P28  1  0.250000  0.269945  0.865688  1
  P  P29  1  0.250000  0.230004  0.365695  1
  P  P30  1  0.750000  0.730088  0.134294  1
  P  P31  1  0.750000  0.769647  0.634411  1
  P  P32  1  0.250000  0.596649  0.390969  1
  P  P33  1  0.250000  0.903352  0.890997  1
  P  P34  1  0.750000  0.403593  0.609133  1
  P  P35  1  0.750000  0.096625  0.109049  1
