# generated using pymatgen
data_Ta8Be3As
_symmetry_space_group_name_H-M   'P 1'
_cell_length_a   6.10357100
_cell_length_b   6.10357100
_cell_length_c   4.96759700
_cell_angle_alpha   90.00000000
_cell_angle_beta   90.00000000
_cell_angle_gamma   90.00000000
_symmetry_Int_Tables_number   1
_chemical_formula_structural   Ta8Be3As
_chemical_formula_sum   'Ta8 Be3 As1'
_cell_volume   185.06076704
_cell_formula_units_Z   1
loop_
 _symmetry_equiv_pos_site_id
 _symmetry_equiv_pos_as_xyz
  1  'x, y, z'
loop_
 _atom_site_type_symbol
 _atom_site_label
 _atom_site_symmetry_multiplicity
 _atom_site_fract_x
 _atom_site_fract_y
 _atom_site_fract_z
 _atom_site_occupancy
  Ta  Ta0  1  0.329854  0.152048  0.507027  1
  Ta  Ta1  1  0.670146  0.847952  0.507027  1
  Ta  Ta2  1  0.152048  0.670146  0.507027  1
  Ta  Ta3  1  0.847952  0.329854  0.507027  1
  Ta  Ta4  1  0.329854  0.847952  0.992973  1
  Ta  Ta5  1  0.847952  0.670146  0.992973  1
  Ta  Ta6  1  0.152048  0.329854  0.992973  1
  Ta  Ta7  1  0.670146  0.152048  0.992973  1
  Be  Be8  1  0.000000  0.000000  0.750000  1
  Be  Be9  1  0.000000  0.000000  0.250000  1
  Be  Be10  1  0.500000  0.500000  0.750000  1
  As  As11  1  0.500000  0.500000  0.250000  1
