# generated using pymatgen
data_NdTh3(CdPt2)2
_symmetry_space_group_name_H-M   'P 1'
_cell_length_a   3.81141200
_cell_length_b   7.99104182
_cell_length_c   7.99104179
_cell_angle_alpha   91.02987316
_cell_angle_beta   90.00000000
_cell_angle_gamma   90.00000000
_symmetry_Int_Tables_number   1
_chemical_formula_structural   NdTh3(CdPt2)2
_chemical_formula_sum   'Nd1 Th3 Cd2 Pt4'
_cell_volume   243.34506353
_cell_formula_units_Z   1
loop_
 _symmetry_equiv_pos_site_id
 _symmetry_equiv_pos_as_xyz
  1  'x, y, z'
loop_
 _atom_site_type_symbol
 _atom_site_label
 _atom_site_symmetry_multiplicity
 _atom_site_fract_x
 _atom_site_fract_y
 _atom_site_fract_z
 _atom_site_occupancy
  Nd  Nd0  1  0.500000  0.673362  0.826638  1
  Th  Th1  1  0.500000  0.171218  0.673109  1
  Th  Th2  1  0.500000  0.826891  0.328782  1
  Th  Th3  1  0.500000  0.329417  0.170583  1
  Cd  Cd4  1  0.000000  0.996490  0.999332  1
  Cd  Cd5  1  0.000000  0.500668  0.503510  1
  Pt  Pt6  1  0.000000  0.626184  0.136052  1
  Pt  Pt7  1  0.000000  0.363948  0.873816  1
  Pt  Pt8  1  0.000000  0.878567  0.621433  1
  Pt  Pt9  1  0.000000  0.133255  0.366745  1
