# generated using pymatgen
data_PrSmYAlC3
_symmetry_space_group_name_H-M   'P 1'
_cell_length_a   3.68686000
_cell_length_b   7.28457834
_cell_length_c   10.14798569
_cell_angle_alpha   88.92740121
_cell_angle_beta   90.00000000
_cell_angle_gamma   90.00000000
_symmetry_Int_Tables_number   1
_chemical_formula_structural   PrSmYAlC3
_chemical_formula_sum   'Pr2 Sm2 Y2 Al2 C6'
_cell_volume   272.49893339
_cell_formula_units_Z   2
loop_
 _symmetry_equiv_pos_site_id
 _symmetry_equiv_pos_as_xyz
  1  'x, y, z'
loop_
 _atom_site_type_symbol
 _atom_site_label
 _atom_site_symmetry_multiplicity
 _atom_site_fract_x
 _atom_site_fract_y
 _atom_site_fract_z
 _atom_site_occupancy
  Pr  Pr0  1  0.500000  0.510924  0.191169  1
  Pr  Pr1  1  0.500000  0.489076  0.808831  1
  Sm  Sm2  1  0.000000  0.750937  0.458593  1
  Sm  Sm3  1  0.000000  0.249063  0.541407  1
  Y  Y4  1  0.500000  0.991571  0.202888  1
  Y  Y5  1  0.500000  0.008429  0.797112  1
  Al  Al6  1  0.000000  0.786073  0.009987  1
  Al  Al7  1  0.000000  0.213927  0.990013  1
  C  C8  1  0.500000  0.507265  0.564711  1
  C  C9  1  0.500000  0.492735  0.435289  1
  C  C10  1  0.500000  0.991162  0.564790  1
  C  C11  1  0.500000  0.008838  0.435210  1
  C  C12  1  0.000000  0.762454  0.208963  1
  C  C13  1  0.000000  0.237546  0.791037  1
