# generated using pymatgen
data_TbY5Ti2(MnC6)2
_symmetry_space_group_name_H-M   'P 1'
_cell_length_a   8.23907201
_cell_length_b   8.23965622
_cell_length_c   5.04188200
_cell_angle_alpha   90.00000000
_cell_angle_beta   90.00000000
_cell_angle_gamma   120.00301262
_symmetry_Int_Tables_number   1
_chemical_formula_structural   TbY5Ti2(MnC6)2
_chemical_formula_sum   'Tb1 Y5 Ti2 Mn2 C12'
_cell_volume   296.41318307
_cell_formula_units_Z   1
loop_
 _symmetry_equiv_pos_site_id
 _symmetry_equiv_pos_as_xyz
  1  'x, y, z'
loop_
 _atom_site_type_symbol
 _atom_site_label
 _atom_site_symmetry_multiplicity
 _atom_site_fract_x
 _atom_site_fract_y
 _atom_site_fract_z
 _atom_site_occupancy
  Tb  Tb0  1  0.381172  0.321614  0.250000  1
  Y  Y1  1  0.619164  0.678671  0.750000  1
  Y  Y2  1  0.940578  0.619102  0.250000  1
  Y  Y3  1  0.678662  0.059483  0.250000  1
  Y  Y4  1  0.321410  0.940514  0.750000  1
  Y  Y5  1  0.059466  0.380877  0.750000  1
  Ti  Ti6  1  0.999971  0.999976  0.499996  1
  Ti  Ti7  1  0.999971  0.999976  0.000004  1
  Mn  Mn8  1  0.666677  0.333312  0.750000  1
  Mn  Mn9  1  0.333314  0.666716  0.250000  1
  C  C10  1  0.963136  0.761329  0.750000  1
  C  C11  1  0.201555  0.962948  0.250000  1
  C  C12  1  0.761270  0.798102  0.250000  1
  C  C13  1  0.238657  0.201786  0.750000  1
  C  C14  1  0.798174  0.036852  0.750000  1
  C  C15  1  0.036851  0.238621  0.250000  1
  C  C16  1  0.862234  0.569728  0.750000  1
  C  C17  1  0.292529  0.862357  0.250000  1
  C  C18  1  0.569701  0.707657  0.250000  1
  C  C19  1  0.430310  0.292379  0.750000  1
  C  C20  1  0.137733  0.430278  0.250000  1
  C  C21  1  0.707465  0.137721  0.750000  1
