# generated using pymatgen
data_Gd3In3SnPt2
_symmetry_space_group_name_H-M   'P 1'
_cell_length_a   7.62280700
_cell_length_b   7.62280767
_cell_length_c   4.16752900
_cell_angle_alpha   90.00000000
_cell_angle_beta   90.00000000
_cell_angle_gamma   120.00000141
_symmetry_Int_Tables_number   1
_chemical_formula_structural   Gd3In3SnPt2
_chemical_formula_sum   'Gd3 In3 Sn1 Pt2'
_cell_volume   209.71965892
_cell_formula_units_Z   1
loop_
 _symmetry_equiv_pos_site_id
 _symmetry_equiv_pos_as_xyz
  1  'x, y, z'
loop_
 _atom_site_type_symbol
 _atom_site_label
 _atom_site_symmetry_multiplicity
 _atom_site_fract_x
 _atom_site_fract_y
 _atom_site_fract_z
 _atom_site_occupancy
  Gd  Gd0  1  0.604656  0.019004  0.500000  1
  Gd  Gd1  1  0.414347  0.395344  0.500000  1
  Gd  Gd2  1  0.980996  0.585653  0.500000  1
  In  In3  1  0.756891  0.745467  0.000000  1
  In  In4  1  0.988576  0.243109  0.000000  1
  In  In5  1  0.254533  0.011424  0.000000  1
  Sn  Sn6  1  0.333333  0.666667  0.000000  1
  Pt  Pt7  1  0.666667  0.333333  0.000000  1
  Pt  Pt8  1  0.000000  0.000000  0.500000  1
