# generated using pymatgen
data_Yb4CoNiRu6
_symmetry_space_group_name_H-M   'P 1'
_cell_length_a   5.09176806
_cell_length_b   5.26815033
_cell_length_c   8.54821800
_cell_angle_alpha   90.00000000
_cell_angle_beta   90.00000000
_cell_angle_gamma   119.12986980
_symmetry_Int_Tables_number   1
_chemical_formula_structural   Yb4CoNiRu6
_chemical_formula_sum   'Yb4 Co1 Ni1 Ru6'
_cell_volume   200.29702560
_cell_formula_units_Z   1
loop_
 _symmetry_equiv_pos_site_id
 _symmetry_equiv_pos_as_xyz
  1  'x, y, z'
loop_
 _atom_site_type_symbol
 _atom_site_label
 _atom_site_symmetry_multiplicity
 _atom_site_fract_x
 _atom_site_fract_y
 _atom_site_fract_z
 _atom_site_occupancy
  Yb  Yb0  1  0.667377  0.334924  0.564474  1
  Yb  Yb1  1  0.333133  0.665303  0.433257  1
  Yb  Yb2  1  0.333133  0.665303  0.066743  1
  Yb  Yb3  1  0.667377  0.334924  0.935526  1
  Co  Co4  1  0.169658  0.340644  0.750000  1
  Ni  Ni5  1  0.829885  0.658308  0.250000  1
  Ru  Ru6  1  0.002418  0.003769  0.500969  1
  Ru  Ru7  1  0.002418  0.003769  0.999031  1
  Ru  Ru8  1  0.176286  0.833339  0.750000  1
  Ru  Ru9  1  0.657122  0.834769  0.750000  1
  Ru  Ru10  1  0.821839  0.163044  0.250000  1
  Ru  Ru11  1  0.339354  0.161903  0.250000  1
