# generated using pymatgen
data_Yb(ZnAu)3
_symmetry_space_group_name_H-M   'P 1'
_cell_length_a   5.46941964
_cell_length_b   5.46941710
_cell_length_c   5.68352163
_cell_angle_alpha   102.79684413
_cell_angle_beta   102.79681941
_cell_angle_gamma   122.66115344
_symmetry_Int_Tables_number   1
_chemical_formula_structural   Yb(ZnAu)3
_chemical_formula_sum   'Yb1 Zn3 Au3'
_cell_volume   126.96797469
_cell_formula_units_Z   1
loop_
 _symmetry_equiv_pos_site_id
 _symmetry_equiv_pos_as_xyz
  1  'x, y, z'
loop_
 _atom_site_type_symbol
 _atom_site_label
 _atom_site_symmetry_multiplicity
 _atom_site_fract_x
 _atom_site_fract_y
 _atom_site_fract_z
 _atom_site_occupancy
  Yb  Yb0  1  0.004115  0.004115  0.008229  1
  Zn  Zn1  1  0.248214  0.748214  0.496427  1
  Zn  Zn2  1  0.748214  0.248214  0.496427  1
  Zn  Zn3  1  0.303032  0.303032  0.606064  1
  Au  Au4  1  0.710468  0.710468  0.420939  1
  Au  Au5  1  0.681113  0.304843  0.985957  1
  Au  Au6  1  0.304843  0.681113  0.985957  1
