# generated using pymatgen
data_Er6Lu2Ti11Si16Au
_symmetry_space_group_name_H-M   'P 1'
_cell_length_a   7.03082366
_cell_length_b   7.03266211
_cell_length_c   12.82185074
_cell_angle_alpha   90.13466899
_cell_angle_beta   89.91455356
_cell_angle_gamma   89.64946868
_symmetry_Int_Tables_number   1
_chemical_formula_structural   Er6Lu2Ti11Si16Au
_chemical_formula_sum   'Er6 Lu2 Ti11 Si16 Au1'
_cell_volume   633.96729545
_cell_formula_units_Z   1
loop_
 _symmetry_equiv_pos_site_id
 _symmetry_equiv_pos_as_xyz
  1  'x, y, z'
loop_
 _atom_site_type_symbol
 _atom_site_label
 _atom_site_symmetry_multiplicity
 _atom_site_fract_x
 _atom_site_fract_y
 _atom_site_fract_z
 _atom_site_occupancy
  Er  Er0  1  0.501356  0.157087  0.214629  1
  Er  Er1  1  0.841184  0.497251  0.283564  1
  Er  Er2  1  0.157309  0.501256  0.785153  1
  Er  Er3  1  0.656680  0.000956  0.968515  1
  Er  Er4  1  0.001988  0.341006  0.533313  1
  Er  Er5  1  0.001297  0.656553  0.031169  1
  Lu  Lu6  1  0.341362  0.000828  0.467054  1
  Lu  Lu7  1  0.498169  0.841686  0.716561  1
  Ti  Ti8  1  0.174851  0.826011  0.249763  1
  Ti  Ti9  1  0.825813  0.174420  0.750289  1
  Ti  Ti10  1  0.672162  0.673364  0.500314  1
  Ti  Ti11  1  0.147519  0.006647  0.876049  1
  Ti  Ti12  1  0.495700  0.651064  0.122772  1
  Ti  Ti13  1  0.505555  0.351504  0.625143  1
  Ti  Ti14  1  0.650287  0.495473  0.876717  1
  Ti  Ti15  1  0.350871  0.507048  0.375290  1
  Ti  Ti16  1  0.850895  0.992159  0.374620  1
  Ti  Ti17  1  0.007638  0.147475  0.123462  1
  Ti  Ti18  1  0.991869  0.850953  0.625655  1
  Si  Si19  1  0.203090  0.132418  0.683350  1
  Si  Si20  1  0.373630  0.720925  0.927343  1
  Si  Si21  1  0.630773  0.292617  0.432102  1
  Si  Si22  1  0.720289  0.373486  0.071658  1
  Si  Si23  1  0.294103  0.633843  0.568608  1
  Si  Si24  1  0.797932  0.866392  0.182588  1
  Si  Si25  1  0.134306  0.201375  0.316847  1
  Si  Si26  1  0.865296  0.797918  0.817189  1
  Si  Si27  1  0.286797  0.938179  0.065686  1
  Si  Si28  1  0.546581  0.791927  0.315020  1
  Si  Si29  1  0.454511  0.206303  0.809406  1
  Si  Si30  1  0.790520  0.547471  0.685363  1
  Si  Si31  1  0.207845  0.454272  0.190452  1
  Si  Si32  1  0.706320  0.047036  0.564681  1
  Si  Si33  1  0.938571  0.286525  0.933943  1
  Si  Si34  1  0.048383  0.708643  0.435776  1
  Au  Au35  1  0.328551  0.327933  0.999953  1
