# generated using pymatgen
data_Pr2NdV(Co4P3)2
_symmetry_space_group_name_H-M   'P 1'
_cell_length_a   3.76787700
_cell_length_b   10.71297100
_cell_length_c   12.43895200
_cell_angle_alpha   90.00000000
_cell_angle_beta   90.00000000
_cell_angle_gamma   90.00000000
_symmetry_Int_Tables_number   1
_chemical_formula_structural   Pr2NdV(Co4P3)2
_chemical_formula_sum   'Pr4 Nd2 V2 Co16 P12'
_cell_volume   502.10025080
_cell_formula_units_Z   2
loop_
 _symmetry_equiv_pos_site_id
 _symmetry_equiv_pos_as_xyz
  1  'x, y, z'
loop_
 _atom_site_type_symbol
 _atom_site_label
 _atom_site_symmetry_multiplicity
 _atom_site_fract_x
 _atom_site_fract_y
 _atom_site_fract_z
 _atom_site_occupancy
  Pr  Pr0  1  0.000000  0.500000  0.522886  1
  Pr  Pr1  1  0.500000  0.000000  0.477490  1
  Pr  Pr2  1  0.500000  0.818766  0.205076  1
  Pr  Pr3  1  0.500000  0.181234  0.205076  1
  Nd  Nd4  1  0.000000  0.681176  0.795129  1
  Nd  Nd5  1  0.000000  0.318824  0.795129  1
  V  V6  1  0.500000  0.500000  0.151355  1
  V  V7  1  0.000000  0.000000  0.848333  1
  Co  Co8  1  0.500000  0.500000  0.704328  1
  Co  Co9  1  0.000000  0.000000  0.296135  1
  Co  Co10  1  0.000000  0.500000  0.987606  1
  Co  Co11  1  0.500000  0.000000  0.011045  1
  Co  Co12  1  0.500000  0.332791  0.993742  1
  Co  Co13  1  0.500000  0.667209  0.993742  1
  Co  Co14  1  0.000000  0.167679  0.005003  1
  Co  Co15  1  0.000000  0.832321  0.005003  1
  Co  Co16  1  0.500000  0.295945  0.431282  1
  Co  Co17  1  0.500000  0.704055  0.431282  1
  Co  Co18  1  0.000000  0.204392  0.569919  1
  Co  Co19  1  0.000000  0.795608  0.569919  1
  Co  Co20  1  0.500000  0.880889  0.709543  1
  Co  Co21  1  0.500000  0.119111  0.709543  1
  Co  Co22  1  0.000000  0.618730  0.290919  1
  Co  Co23  1  0.000000  0.381270  0.290919  1
  P  P24  1  0.500000  0.500000  0.886269  1
  P  P25  1  0.000000  0.000000  0.112240  1
  P  P26  1  0.500000  0.500000  0.341395  1
  P  P27  1  0.000000  0.000000  0.658703  1
  P  P28  1  0.500000  0.306280  0.614868  1
  P  P29  1  0.500000  0.693720  0.614868  1
  P  P30  1  0.000000  0.194245  0.386523  1
  P  P31  1  0.000000  0.805755  0.386523  1
  P  P32  1  0.500000  0.847332  0.894126  1
  P  P33  1  0.500000  0.152668  0.894126  1
  P  P34  1  0.000000  0.651984  0.104978  1
  P  P35  1  0.000000  0.348016  0.104978  1
