# generated using pymatgen
data_LiTb15LuCd3Co4
_symmetry_space_group_name_H-M   'P 1'
_cell_length_a   9.51063431
_cell_length_b   9.51063499
_cell_length_c   9.55677560
_cell_angle_alpha   60.01994961
_cell_angle_beta   60.01994615
_cell_angle_gamma   59.91619518
_symmetry_Int_Tables_number   1
_chemical_formula_structural   LiTb15LuCd3Co4
_chemical_formula_sum   'Li1 Tb15 Lu1 Cd3 Co4'
_cell_volume   611.04090489
_cell_formula_units_Z   1
loop_
 _symmetry_equiv_pos_site_id
 _symmetry_equiv_pos_as_xyz
  1  'x, y, z'
loop_
 _atom_site_type_symbol
 _atom_site_label
 _atom_site_symmetry_multiplicity
 _atom_site_fract_x
 _atom_site_fract_y
 _atom_site_fract_z
 _atom_site_occupancy
  Li  Li0  1  0.821995  0.821995  0.533595  1
  Tb  Tb1  1  0.593565  0.593565  0.598004  1
  Tb  Tb2  1  0.188077  0.812497  0.813333  1
  Tb  Tb3  1  0.063684  0.063684  0.434910  1
  Tb  Tb4  1  0.438578  0.063446  0.060032  1
  Tb  Tb5  1  0.812497  0.188077  0.813333  1
  Tb  Tb6  1  0.436007  0.064611  0.434795  1
  Tb  Tb7  1  0.594687  0.214521  0.597226  1
  Tb  Tb8  1  0.811292  0.811292  0.188572  1
  Tb  Tb9  1  0.214521  0.594687  0.597226  1
  Tb  Tb10  1  0.810636  0.190076  0.187823  1
  Tb  Tb11  1  0.064611  0.436007  0.434795  1
  Tb  Tb12  1  0.190076  0.810636  0.187823  1
  Tb  Tb13  1  0.596730  0.596730  0.207477  1
  Tb  Tb14  1  0.187367  0.187367  0.812986  1
  Tb  Tb15  1  0.063446  0.438578  0.060032  1
  Lu  Lu16  1  0.438769  0.438769  0.059746  1
  Cd  Cd17  1  0.831355  0.831355  0.826622  1
  Cd  Cd18  1  0.509119  0.830689  0.827783  1
  Cd  Cd19  1  0.830689  0.509119  0.827783  1
  Co  Co20  1  0.391505  0.391505  0.388460  1
  Co  Co21  1  0.827644  0.391694  0.389812  1
  Co  Co22  1  0.391694  0.827644  0.389812  1
  Co  Co23  1  0.391458  0.391458  0.828015  1
