# generated using pymatgen
data_La5Si2SnO
_symmetry_space_group_name_H-M   'P 1'
_cell_length_a   9.29576048
_cell_length_b   9.29576023
_cell_length_c   9.29576028
_cell_angle_alpha   126.52475738
_cell_angle_beta   126.52476001
_cell_angle_gamma   79.02736616
_symmetry_Int_Tables_number   1
_chemical_formula_structural   La5Si2SnO
_chemical_formula_sum   'La10 Si4 Sn2 O2'
_cell_volume   501.73901627
_cell_formula_units_Z   2
loop_
 _symmetry_equiv_pos_site_id
 _symmetry_equiv_pos_as_xyz
  1  'x, y, z'
loop_
 _atom_site_type_symbol
 _atom_site_label
 _atom_site_symmetry_multiplicity
 _atom_site_fract_x
 _atom_site_fract_y
 _atom_site_fract_z
 _atom_site_occupancy
  La  La0  1  0.489423  0.298044  0.500000  1
  La  La1  1  0.798044  0.989423  0.500000  1
  La  La2  1  0.989423  0.489423  0.191379  1
  La  La3  1  0.298044  0.798044  0.808621  1
  La  La4  1  0.512170  0.703538  0.500000  1
  La  La5  1  0.203538  0.012170  0.500000  1
  La  La6  1  0.012170  0.512170  0.808631  1
  La  La7  1  0.703538  0.203538  0.191369  1
  La  La8  1  0.504344  0.504344  0.000000  1
  La  La9  1  0.004344  0.004344  0.000000  1
  Si  Si10  1  0.140056  0.360905  0.500000  1
  Si  Si11  1  0.860905  0.640056  0.500000  1
  Si  Si12  1  0.640056  0.140056  0.779150  1
  Si  Si13  1  0.360905  0.860905  0.220850  1
  Sn  Sn14  1  0.752546  0.752546  0.000000  1
  Sn  Sn15  1  0.252546  0.252546  0.000000  1
  O  O16  1  0.750393  0.250393  0.500000  1
  O  O17  1  0.250393  0.750393  0.500000  1
