# generated using pymatgen
data_Er7Lu13Pt16
_symmetry_space_group_name_H-M   'P 1'
_cell_length_a   7.37790501
_cell_length_b   7.46452912
_cell_length_c   14.48237900
_cell_angle_alpha   90.00077525
_cell_angle_beta   90.00259380
_cell_angle_gamma   90.01014729
_symmetry_Int_Tables_number   1
_chemical_formula_structural   Er7Lu13Pt16
_chemical_formula_sum   'Er7 Lu13 Pt16'
_cell_volume   797.58206053
_cell_formula_units_Z   1
loop_
 _symmetry_equiv_pos_site_id
 _symmetry_equiv_pos_as_xyz
  1  'x, y, z'
loop_
 _atom_site_type_symbol
 _atom_site_label
 _atom_site_symmetry_multiplicity
 _atom_site_fract_x
 _atom_site_fract_y
 _atom_site_fract_z
 _atom_site_occupancy
  Er  Er0  1  0.000638  0.821212  0.907454  1
  Er  Er1  1  0.499267  0.321191  0.092444  1
  Er  Er2  1  0.999355  0.178987  0.407432  1
  Er  Er3  1  0.499445  0.321557  0.407460  1
  Er  Er4  1  0.999286  0.178795  0.092462  1
  Er  Er5  1  0.500666  0.678804  0.907596  1
  Er  Er6  1  0.000676  0.820961  0.592490  1
  Lu  Lu7  1  0.500831  0.679496  0.592557  1
  Lu  Lu8  1  0.656136  0.167074  0.622605  1
  Lu  Lu9  1  0.156234  0.332982  0.877206  1
  Lu  Lu10  1  0.343840  0.832908  0.122784  1
  Lu  Lu11  1  0.843885  0.666964  0.377400  1
  Lu  Lu12  1  0.344097  0.832755  0.377486  1
  Lu  Lu13  1  0.843909  0.667158  0.122745  1
  Lu  Lu14  1  0.656140  0.167094  0.877206  1
  Lu  Lu15  1  0.156460  0.333084  0.622510  1
  Lu  Lu16  1  0.818835  0.509391  0.749834  1
  Lu  Lu17  1  0.319008  0.990658  0.749847  1
  Lu  Lu18  1  0.181103  0.490652  0.250119  1
  Lu  Lu19  1  0.681188  0.009349  0.250107  1
  Pt  Pt20  1  0.683852  0.964626  0.458811  1
  Pt  Pt21  1  0.184034  0.534278  0.041676  1
  Pt  Pt22  1  0.316209  0.034149  0.958520  1
  Pt  Pt23  1  0.813328  0.467337  0.541956  1
  Pt  Pt24  1  0.316630  0.032208  0.542036  1
  Pt  Pt25  1  0.815954  0.465494  0.958502  1
  Pt  Pt26  1  0.683980  0.965726  0.041654  1
  Pt  Pt27  1  0.184852  0.535334  0.459096  1
  Pt  Pt28  1  0.453663  0.386300  0.749405  1
  Pt  Pt29  1  0.953190  0.114410  0.749959  1
  Pt  Pt30  1  0.546830  0.614636  0.250003  1
  Pt  Pt31  1  0.046865  0.885435  0.250061  1
  Pt  Pt32  1  0.679659  0.854516  0.748822  1
  Pt  Pt33  1  0.182024  0.644429  0.749435  1
  Pt  Pt34  1  0.319119  0.144301  0.250169  1
  Pt  Pt35  1  0.818813  0.355747  0.250148  1
