# generated using pymatgen
data_YMgScCu9
_symmetry_space_group_name_H-M   'P 1'
_cell_length_a   5.02871700
_cell_length_b   5.02871754
_cell_length_c   16.05032500
_cell_angle_alpha   90.00000000
_cell_angle_beta   90.00000000
_cell_angle_gamma   120.00000306
_symmetry_Int_Tables_number   1
_chemical_formula_structural   YMgScCu9
_chemical_formula_sum   'Y2 Mg2 Sc2 Cu18'
_cell_volume   351.50287907
_cell_formula_units_Z   2
loop_
 _symmetry_equiv_pos_site_id
 _symmetry_equiv_pos_as_xyz
  1  'x, y, z'
loop_
 _atom_site_type_symbol
 _atom_site_label
 _atom_site_symmetry_multiplicity
 _atom_site_fract_x
 _atom_site_fract_y
 _atom_site_fract_z
 _atom_site_occupancy
  Y  Y0  1  0.666667  0.333333  0.242992  1
  Y  Y1  1  0.333333  0.666667  0.742992  1
  Mg  Mg2  1  0.666667  0.333333  0.034487  1
  Mg  Mg3  1  0.333333  0.666667  0.534487  1
  Sc  Sc4  1  0.666667  0.333333  0.468726  1
  Sc  Sc5  1  0.333333  0.666667  0.968726  1
  Cu  Cu6  1  0.333333  0.666667  0.250689  1
  Cu  Cu7  1  0.666667  0.333333  0.750689  1
  Cu  Cu8  1  0.168463  0.831537  0.376945  1
  Cu  Cu9  1  0.168463  0.336927  0.376945  1
  Cu  Cu10  1  0.000000  0.000000  0.751386  1
  Cu  Cu11  1  0.000000  0.000000  0.251386  1
  Cu  Cu12  1  0.000000  0.000000  0.000599  1
  Cu  Cu13  1  0.000000  0.000000  0.500599  1
  Cu  Cu14  1  0.167744  0.335488  0.123429  1
  Cu  Cu15  1  0.832256  0.167744  0.623429  1
  Cu  Cu16  1  0.335488  0.167744  0.623429  1
  Cu  Cu17  1  0.664512  0.832256  0.123429  1
  Cu  Cu18  1  0.167744  0.832256  0.123429  1
  Cu  Cu19  1  0.831537  0.663073  0.876945  1
  Cu  Cu20  1  0.831537  0.168463  0.876945  1
  Cu  Cu21  1  0.832256  0.664512  0.623429  1
  Cu  Cu22  1  0.336927  0.168463  0.876945  1
  Cu  Cu23  1  0.663073  0.831537  0.376945  1
