# generated using pymatgen
data_Tb6Ge7P5Rh18
_symmetry_space_group_name_H-M   'P 1'
_cell_length_a   3.96047600
_cell_length_b   11.49028749
_cell_length_c   13.09352113
_cell_angle_alpha   89.88851280
_cell_angle_beta   90.00000000
_cell_angle_gamma   90.00000000
_symmetry_Int_Tables_number   1
_chemical_formula_structural   Tb6Ge7P5Rh18
_chemical_formula_sum   'Tb6 Ge7 P5 Rh18'
_cell_volume   595.84584104
_cell_formula_units_Z   1
loop_
 _symmetry_equiv_pos_site_id
 _symmetry_equiv_pos_as_xyz
  1  'x, y, z'
loop_
 _atom_site_type_symbol
 _atom_site_label
 _atom_site_symmetry_multiplicity
 _atom_site_fract_x
 _atom_site_fract_y
 _atom_site_fract_z
 _atom_site_occupancy
  Tb  Tb0  1  0.000000  0.498582  0.517775  1
  Tb  Tb1  1  0.500000  0.001853  0.479482  1
  Tb  Tb2  1  0.500000  0.818715  0.205124  1
  Tb  Tb3  1  0.500000  0.186648  0.202752  1
  Tb  Tb4  1  0.000000  0.679644  0.797016  1
  Tb  Tb5  1  0.000000  0.318331  0.795108  1
  Ge  Ge6  1  0.500000  0.313267  0.615764  1
  Ge  Ge7  1  0.500000  0.688592  0.618687  1
  Ge  Ge8  1  0.000000  0.189561  0.380124  1
  Ge  Ge9  1  0.000000  0.809533  0.382511  1
  Ge  Ge10  1  0.500000  0.852542  0.891257  1
  Ge  Ge11  1  0.500000  0.148960  0.891843  1
  Ge  Ge12  1  0.000000  0.649424  0.109820  1
  P  P13  1  0.500000  0.498155  0.884278  1
  P  P14  1  0.000000  0.999533  0.119403  1
  P  P15  1  0.500000  0.500578  0.343148  1
  P  P16  1  0.000000  0.001009  0.656323  1
  P  P17  1  0.000000  0.345594  0.104343  1
  Rh  Rh18  1  0.500000  0.501212  0.162475  1
  Rh  Rh19  1  0.000000  0.002402  0.836895  1
  Rh  Rh20  1  0.500000  0.500160  0.709427  1
  Rh  Rh21  1  0.000000  0.998538  0.294339  1
  Rh  Rh22  1  0.000000  0.494776  0.979330  1
  Rh  Rh23  1  0.500000  0.001004  0.028796  1
  Rh  Rh24  1  0.500000  0.334161  0.996536  1
  Rh  Rh25  1  0.500000  0.664218  0.986710  1
  Rh  Rh26  1  0.000000  0.167757  0.015870  1
  Rh  Rh27  1  0.000000  0.834832  0.013329  1
  Rh  Rh28  1  0.500000  0.310673  0.426136  1
  Rh  Rh29  1  0.500000  0.691825  0.431202  1
  Rh  Rh30  1  0.000000  0.193986  0.567548  1
  Rh  Rh31  1  0.000000  0.808495  0.569840  1
  Rh  Rh32  1  0.500000  0.881956  0.706482  1
  Rh  Rh33  1  0.500000  0.121389  0.706231  1
  Rh  Rh34  1  0.000000  0.616086  0.294321  1
  Rh  Rh35  1  0.000000  0.376007  0.279775  1
