# generated using pymatgen
data_MgP6(Pd10Pb)2
_symmetry_space_group_name_H-M   'P 1'
_cell_length_a   8.66149414
_cell_length_b   8.66149382
_cell_length_c   8.66149400
_cell_angle_alpha   59.99999932
_cell_angle_beta   60.00000053
_cell_angle_gamma   59.99999914
_symmetry_Int_Tables_number   1
_chemical_formula_structural   MgP6(Pd10Pb)2
_chemical_formula_sum   'Mg1 P6 Pd20 Pb2'
_cell_volume   459.47662629
_cell_formula_units_Z   1
loop_
 _symmetry_equiv_pos_site_id
 _symmetry_equiv_pos_as_xyz
  1  'x, y, z'
loop_
 _atom_site_type_symbol
 _atom_site_label
 _atom_site_symmetry_multiplicity
 _atom_site_fract_x
 _atom_site_fract_y
 _atom_site_fract_z
 _atom_site_occupancy
  Mg  Mg0  1  0.000000  0.000000  0.000000  1
  P  P1  1  0.736356  0.263644  0.263644  1
  P  P2  1  0.263644  0.736356  0.736356  1
  P  P3  1  0.263644  0.736356  0.263644  1
  P  P4  1  0.736356  0.263644  0.736356  1
  P  P5  1  0.263644  0.263644  0.736356  1
  P  P6  1  0.736356  0.736356  0.263644  1
  Pd  Pd7  1  0.384445  0.384445  0.384445  1
  Pd  Pd8  1  0.615555  0.615555  0.615555  1
  Pd  Pd9  1  0.384445  0.384445  0.846665  1
  Pd  Pd10  1  0.384445  0.846665  0.384445  1
  Pd  Pd11  1  0.615555  0.615555  0.153335  1
  Pd  Pd12  1  0.615555  0.153335  0.615555  1
  Pd  Pd13  1  0.846665  0.384445  0.384445  1
  Pd  Pd14  1  0.153335  0.615555  0.615555  1
  Pd  Pd15  1  0.341549  0.000000  0.000000  1
  Pd  Pd16  1  0.658451  0.000000  0.000000  1
  Pd  Pd17  1  0.000000  0.341549  0.658451  1
  Pd  Pd18  1  0.000000  0.658451  0.341549  1
  Pd  Pd19  1  0.000000  0.341549  0.000000  1
  Pd  Pd20  1  0.658451  0.000000  0.341549  1
  Pd  Pd21  1  0.000000  0.658451  0.000000  1
  Pd  Pd22  1  0.341549  0.000000  0.658451  1
  Pd  Pd23  1  0.000000  0.000000  0.341549  1
  Pd  Pd24  1  0.000000  0.000000  0.658451  1
  Pd  Pd25  1  0.658451  0.341549  0.000000  1
  Pd  Pd26  1  0.341549  0.658451  0.000000  1
  Pb  Pb27  1  0.250000  0.250000  0.250000  1
  Pb  Pb28  1  0.750000  0.750000  0.750000  1
