# generated using pymatgen
data_Ca12Sc7Ti12CrO48
_symmetry_space_group_name_H-M   'P 1'
_cell_length_a   11.06160823
_cell_length_b   11.05466425
_cell_length_c   11.06160827
_cell_angle_alpha   109.45850226
_cell_angle_beta   109.48393382
_cell_angle_gamma   109.45850357
_symmetry_Int_Tables_number   1
_chemical_formula_structural   Ca12Sc7Ti12CrO48
_chemical_formula_sum   'Ca12 Sc7 Ti12 Cr1 O48'
_cell_volume   1041.42587062
_cell_formula_units_Z   1
loop_
 _symmetry_equiv_pos_site_id
 _symmetry_equiv_pos_as_xyz
  1  'x, y, z'
loop_
 _atom_site_type_symbol
 _atom_site_label
 _atom_site_symmetry_multiplicity
 _atom_site_fract_x
 _atom_site_fract_y
 _atom_site_fract_z
 _atom_site_occupancy
  Ca  Ca0  1  0.250268  0.374612  0.125201  1
  Ca  Ca1  1  0.749732  0.625388  0.874799  1
  Ca  Ca2  1  0.751891  0.124310  0.376693  1
  Ca  Ca3  1  0.123307  0.247617  0.375198  1
  Ca  Ca4  1  0.374799  0.749411  0.125067  1
  Ca  Ca5  1  0.248109  0.875690  0.623307  1
  Ca  Ca6  1  0.876693  0.752383  0.624802  1
  Ca  Ca7  1  0.625201  0.250589  0.874933  1
  Ca  Ca8  1  0.374933  0.124344  0.249732  1
  Ca  Ca9  1  0.625067  0.875656  0.750268  1
  Ca  Ca10  1  0.124802  0.372419  0.748109  1
  Ca  Ca11  1  0.875198  0.627581  0.251891  1
  Sc  Sc12  1  0.000000  0.000000  0.000000  1
  Sc  Sc13  1  0.500000  0.000000  0.500000  1
  Sc  Sc14  1  0.000000  0.500000  0.500000  1
  Sc  Sc15  1  0.500000  0.000000  0.000000  1
  Sc  Sc16  1  0.500000  0.500000  0.000000  1
  Sc  Sc17  1  0.500000  0.500000  0.500000  1
  Sc  Sc18  1  0.000000  0.500000  0.000000  1
  Ti  Ti19  1  0.249988  0.625040  0.374838  1
  Ti  Ti20  1  0.750012  0.374960  0.625162  1
  Ti  Ti21  1  0.752607  0.875410  0.128515  1
  Ti  Ti22  1  0.371485  0.246895  0.624092  1
  Ti  Ti23  1  0.628515  0.753105  0.375908  1
  Ti  Ti24  1  0.247393  0.124590  0.871485  1
  Ti  Ti25  1  0.125162  0.750202  0.875149  1
  Ti  Ti26  1  0.874838  0.249798  0.124851  1
  Ti  Ti27  1  0.624851  0.375053  0.250012  1
  Ti  Ti28  1  0.375149  0.624947  0.749988  1
  Ti  Ti29  1  0.875908  0.122803  0.747393  1
  Ti  Ti30  1  0.124092  0.877197  0.252607  1
  Cr  Cr31  1  0.000000  0.000000  0.500000  1
  O  O32  1  0.478899  0.378224  0.293064  1
  O  O33  1  0.521101  0.621776  0.706936  1
  O  O34  1  0.585830  0.186439  0.206401  1
  O  O35  1  0.917525  0.116281  0.598086  1
  O  O36  1  0.293599  0.480038  0.379429  1
  O  O37  1  0.312388  0.914657  0.295021  1
  O  O38  1  0.414170  0.813561  0.793599  1
  O  O39  1  0.082475  0.883719  0.401914  1
  O  O40  1  0.706401  0.519962  0.620571  1
  O  O41  1  0.687612  0.085343  0.704979  1
  O  O42  1  0.019203  0.312464  0.896875  1
  O  O43  1  0.206936  0.585160  0.185835  1
  O  O44  1  0.121080  0.020997  0.206585  1
  O  O45  1  0.980797  0.687536  0.103125  1
  O  O46  1  0.793064  0.414840  0.814165  1
  O  O47  1  0.878920  0.979003  0.793415  1
  O  O48  1  0.603125  0.915589  0.122328  1
  O  O49  1  0.186253  0.478742  0.600235  1
  O  O50  1  0.396875  0.084411  0.877672  1
  O  O51  1  0.813747  0.521258  0.399765  1
  O  O52  1  0.901914  0.018195  0.319439  1
  O  O53  1  0.378801  0.585663  0.899354  1
  O  O54  1  0.098086  0.981805  0.680561  1
  O  O55  1  0.621199  0.414337  0.100646  1
  O  O56  1  0.377672  0.293261  0.480797  1
  O  O57  1  0.585505  0.899917  0.378920  1
  O  O58  1  0.622328  0.706739  0.519203  1
  O  O59  1  0.414495  0.100083  0.621080  1
  O  O60  1  0.120571  0.600608  0.914170  1
  O  O61  1  0.020554  0.206862  0.121199  1
  O  O62  1  0.879429  0.399392  0.085830  1
  O  O63  1  0.979446  0.793138  0.878801  1
  O  O64  1  0.314165  0.899325  0.021101  1
  O  O65  1  0.913982  0.292490  0.313747  1
  O  O66  1  0.685835  0.100675  0.978899  1
  O  O67  1  0.086018  0.707510  0.686253  1
  O  O68  1  0.180561  0.198756  0.582475  1
  O  O69  1  0.482633  0.602269  0.187612  1
  O  O70  1  0.819439  0.801244  0.417525  1
  O  O71  1  0.517367  0.397731  0.812388  1
  O  O72  1  0.293415  0.314412  0.914495  1
  O  O73  1  0.706585  0.685588  0.085505  1
  O  O74  1  0.204979  0.119636  0.017367  1
  O  O75  1  0.795021  0.880364  0.982633  1
  O  O76  1  0.899765  0.378508  0.586018  1
  O  O77  1  0.100235  0.621492  0.413982  1
  O  O78  1  0.600646  0.186309  0.479446  1
  O  O79  1  0.399354  0.813691  0.520554  1
