# generated using pymatgen
data_La4Y12CdHg3Ir4
_symmetry_space_group_name_H-M   'P 1'
_cell_length_a   9.76634844
_cell_length_b   9.78426642
_cell_length_c   9.78426800
_cell_angle_alpha   60.00000141
_cell_angle_beta   59.93929261
_cell_angle_gamma   59.93928536
_symmetry_Int_Tables_number   1
_chemical_formula_structural   La4Y12CdHg3Ir4
_chemical_formula_sum   'La4 Y12 Cd1 Hg3 Ir4'
_cell_volume   660.50284437
_cell_formula_units_Z   1
loop_
 _symmetry_equiv_pos_site_id
 _symmetry_equiv_pos_as_xyz
  1  'x, y, z'
loop_
 _atom_site_type_symbol
 _atom_site_label
 _atom_site_symmetry_multiplicity
 _atom_site_fract_x
 _atom_site_fract_y
 _atom_site_fract_z
 _atom_site_occupancy
  La  La0  1  0.352763  0.351477  0.351477  1
  La  La1  1  0.352763  0.351477  0.944283  1
  La  La2  1  0.352763  0.944283  0.351477  1
  La  La3  1  0.942129  0.352623  0.352623  1
  Y  Y4  1  0.812925  0.186979  0.186979  1
  Y  Y5  1  0.185694  0.813663  0.813663  1
  Y  Y6  1  0.185694  0.813663  0.186980  1
  Y  Y7  1  0.812925  0.186979  0.813117  1
  Y  Y8  1  0.185694  0.186980  0.813663  1
  Y  Y9  1  0.812925  0.813117  0.186979  1
  Y  Y10  1  0.934126  0.564632  0.564632  1
  Y  Y11  1  0.564744  0.935541  0.935541  1
  Y  Y12  1  0.564744  0.935541  0.564174  1
  Y  Y13  1  0.934126  0.564632  0.936610  1
  Y  Y14  1  0.564744  0.564174  0.935541  1
  Y  Y15  1  0.934126  0.936610  0.564632  1
  Cd  Cd16  1  0.254855  0.581715  0.581715  1
  Hg  Hg17  1  0.584090  0.586639  0.586639  1
  Hg  Hg18  1  0.584090  0.586639  0.242633  1
  Hg  Hg19  1  0.584090  0.242633  0.586639  1
  Ir  Ir20  1  0.141096  0.141007  0.141007  1
  Ir  Ir21  1  0.141096  0.141007  0.576889  1
  Ir  Ir22  1  0.141096  0.576889  0.141007  1
  Ir  Ir23  1  0.576704  0.141099  0.141099  1
