# generated using pymatgen
data_Hf12CuRe11N4
_symmetry_space_group_name_H-M   'P 1'
_cell_length_a   8.60355818
_cell_length_b   8.58809690
_cell_length_c   8.60355700
_cell_angle_alpha   59.94042887
_cell_angle_beta   60.00000070
_cell_angle_gamma   59.94042419
_symmetry_Int_Tables_number   1
_chemical_formula_structural   Hf12CuRe11N4
_chemical_formula_sum   'Hf12 Cu1 Re11 N4'
_cell_volume   449.10349180
_cell_formula_units_Z   1
loop_
 _symmetry_equiv_pos_site_id
 _symmetry_equiv_pos_as_xyz
  1  'x, y, z'
loop_
 _atom_site_type_symbol
 _atom_site_label
 _atom_site_symmetry_multiplicity
 _atom_site_fract_x
 _atom_site_fract_y
 _atom_site_fract_z
 _atom_site_occupancy
  Hf  Hf0  1  0.807973  0.189005  0.195049  1
  Hf  Hf1  1  0.187865  0.812238  0.187865  1
  Hf  Hf2  1  0.812033  0.812238  0.187865  1
  Hf  Hf3  1  0.187865  0.812238  0.812033  1
  Hf  Hf4  1  0.807973  0.189005  0.807973  1
  Hf  Hf5  1  0.195049  0.189005  0.807973  1
  Hf  Hf6  1  0.437957  0.064145  0.059942  1
  Hf  Hf7  1  0.059980  0.443305  0.059980  1
  Hf  Hf8  1  0.436734  0.443305  0.059980  1
  Hf  Hf9  1  0.059980  0.443305  0.436734  1
  Hf  Hf10  1  0.437957  0.064145  0.437957  1
  Hf  Hf11  1  0.059942  0.064145  0.437957  1
  Cu  Cu12  1  0.835975  0.492075  0.835975  1
  Re  Re13  1  0.418812  0.416432  0.745942  1
  Re  Re14  1  0.418812  0.416432  0.418812  1
  Re  Re15  1  0.745942  0.416432  0.418812  1
  Re  Re16  1  0.417533  0.747400  0.417533  1
  Re  Re17  1  0.832231  0.823698  0.511840  1
  Re  Re18  1  0.832231  0.823698  0.832231  1
  Re  Re19  1  0.511840  0.823698  0.832231  1
  Re  Re20  1  0.620430  0.629278  0.129862  1
  Re  Re21  1  0.620430  0.629278  0.620430  1
  Re  Re22  1  0.129862  0.629278  0.620430  1
  Re  Re23  1  0.626445  0.120665  0.626445  1
  N  N24  1  0.123308  0.127083  0.626301  1
  N  N25  1  0.123308  0.127083  0.123308  1
  N  N26  1  0.626301  0.127083  0.123308  1
  N  N27  1  0.125232  0.624305  0.125232  1
