# generated using pymatgen
data_Lu5P12Ir16Os3
_symmetry_space_group_name_H-M   'P 1'
_cell_length_a   12.65040200
_cell_length_b   12.65040207
_cell_length_c   3.96890500
_cell_angle_alpha   90.00000000
_cell_angle_beta   90.00000000
_cell_angle_gamma   120.00000505
_symmetry_Int_Tables_number   1
_chemical_formula_structural   Lu5P12Ir16Os3
_chemical_formula_sum   'Lu5 P12 Ir16 Os3'
_cell_volume   550.05987877
_cell_formula_units_Z   1
loop_
 _symmetry_equiv_pos_site_id
 _symmetry_equiv_pos_as_xyz
  1  'x, y, z'
loop_
 _atom_site_type_symbol
 _atom_site_label
 _atom_site_symmetry_multiplicity
 _atom_site_fract_x
 _atom_site_fract_y
 _atom_site_fract_z
 _atom_site_occupancy
  Lu  Lu0  1  0.666667  0.333333  0.000000  1
  Lu  Lu1  1  0.333333  0.666667  0.000000  1
  Lu  Lu2  1  0.817641  0.817641  0.500000  1
  Lu  Lu3  1  0.182359  0.000000  0.500000  1
  Lu  Lu4  1  0.000000  0.182359  0.500000  1
  P  P5  1  0.689852  0.171260  0.500000  1
  P  P6  1  0.828740  0.518591  0.500000  1
  P  P7  1  0.481409  0.310148  0.500000  1
  P  P8  1  0.171260  0.689852  0.500000  1
  P  P9  1  0.518591  0.828740  0.500000  1
  P  P10  1  0.310148  0.481409  0.500000  1
  P  P11  1  0.643040  0.643040  0.000000  1
  P  P12  1  0.356960  0.000000  0.000000  1
  P  P13  1  0.000000  0.356960  0.000000  1
  P  P14  1  0.180425  0.180425  0.000000  1
  P  P15  1  0.819575  0.000000  0.000000  1
  P  P16  1  0.000000  0.819575  0.000000  1
  Ir  Ir17  1  0.806135  0.183178  0.000000  1
  Ir  Ir18  1  0.816822  0.622959  0.000000  1
  Ir  Ir19  1  0.377041  0.193865  0.000000  1
  Ir  Ir20  1  0.183178  0.806135  0.000000  1
  Ir  Ir21  1  0.622959  0.816822  0.000000  1
  Ir  Ir22  1  0.193865  0.377041  0.000000  1
  Ir  Ir23  1  0.460548  0.460548  0.000000  1
  Ir  Ir24  1  0.539452  0.000000  0.000000  1
  Ir  Ir25  1  0.000000  0.539452  0.000000  1
  Ir  Ir26  1  0.867327  0.362556  0.500000  1
  Ir  Ir27  1  0.637444  0.504772  0.500000  1
  Ir  Ir28  1  0.495228  0.132673  0.500000  1
  Ir  Ir29  1  0.362556  0.867327  0.500000  1
  Ir  Ir30  1  0.504772  0.637444  0.500000  1
  Ir  Ir31  1  0.132673  0.495228  0.500000  1
  Ir  Ir32  1  0.000000  0.000000  0.000000  1
  Os  Os33  1  0.284818  0.284818  0.500000  1
  Os  Os34  1  0.715182  0.000000  0.500000  1
  Os  Os35  1  0.000000  0.715182  0.500000  1
