# generated using pymatgen
data_DyTmFeCo16
_symmetry_space_group_name_H-M   'P 1'
_cell_length_a   6.28681274
_cell_length_b   6.28681220
_cell_length_c   6.28681300
_cell_angle_alpha   82.92015190
_cell_angle_beta   82.92015252
_cell_angle_gamma   82.92016728
_symmetry_Int_Tables_number   1
_chemical_formula_structural   DyTmFeCo16
_chemical_formula_sum   'Dy1 Tm1 Fe1 Co16'
_cell_volume   243.22775106
_cell_formula_units_Z   1
loop_
 _symmetry_equiv_pos_site_id
 _symmetry_equiv_pos_as_xyz
  1  'x, y, z'
loop_
 _atom_site_type_symbol
 _atom_site_label
 _atom_site_symmetry_multiplicity
 _atom_site_fract_x
 _atom_site_fract_y
 _atom_site_fract_z
 _atom_site_occupancy
  Dy  Dy0  1  0.346510  0.346510  0.346510  1
  Tm  Tm1  1  0.656275  0.656275  0.656275  1
  Fe  Fe2  1  0.095499  0.095499  0.095499  1
  Co  Co3  1  0.289718  0.709890  0.998986  1
  Co  Co4  1  0.709890  0.998986  0.289718  1
  Co  Co5  1  0.998986  0.289718  0.709890  1
  Co  Co6  1  0.289718  0.998986  0.709890  1
  Co  Co7  1  0.998986  0.709890  0.289718  1
  Co  Co8  1  0.709890  0.289718  0.998986  1
  Co  Co9  1  0.999031  0.999031  0.500902  1
  Co  Co10  1  0.999031  0.500902  0.999031  1
  Co  Co11  1  0.500902  0.999031  0.999031  1
  Co  Co12  1  0.346660  0.346660  0.849467  1
  Co  Co13  1  0.346660  0.849467  0.346660  1
  Co  Co14  1  0.849467  0.346660  0.346660  1
  Co  Co15  1  0.654748  0.654748  0.151432  1
  Co  Co16  1  0.654748  0.151432  0.654748  1
  Co  Co17  1  0.151432  0.654748  0.654748  1
  Co  Co18  1  0.901843  0.901843  0.901843  1
