# generated using pymatgen
data_Ho3Er7FeBi5
_symmetry_space_group_name_H-M   'P 1'
_cell_length_a   8.00926200
_cell_length_b   9.34148700
_cell_length_c   12.03950100
_cell_angle_alpha   90.00000000
_cell_angle_beta   90.00000000
_cell_angle_gamma   90.00000000
_symmetry_Int_Tables_number   1
_chemical_formula_structural   Ho3Er7FeBi5
_chemical_formula_sum   'Ho6 Er14 Fe2 Bi10'
_cell_volume   900.77640452
_cell_formula_units_Z   2
loop_
 _symmetry_equiv_pos_site_id
 _symmetry_equiv_pos_as_xyz
  1  'x, y, z'
loop_
 _atom_site_type_symbol
 _atom_site_label
 _atom_site_symmetry_multiplicity
 _atom_site_fract_x
 _atom_site_fract_y
 _atom_site_fract_z
 _atom_site_occupancy
  Ho  Ho0  1  0.575254  0.500000  0.772421  1
  Ho  Ho1  1  0.424746  0.500000  0.272421  1
  Ho  Ho2  1  0.255828  0.500000  0.993535  1
  Ho  Ho3  1  0.744172  0.500000  0.493535  1
  Ho  Ho4  1  0.090613  0.500000  0.719195  1
  Ho  Ho5  1  0.909387  0.500000  0.219195  1
  Er  Er6  1  0.431959  0.177444  0.563071  1
  Er  Er7  1  0.568041  0.822556  0.063071  1
  Er  Er8  1  0.075071  0.730745  0.436658  1
  Er  Er9  1  0.924929  0.269255  0.936658  1
  Er  Er10  1  0.075071  0.269255  0.436658  1
  Er  Er11  1  0.924929  0.730745  0.936658  1
  Er  Er12  1  0.431959  0.822556  0.563071  1
  Er  Er13  1  0.568041  0.177444  0.063071  1
  Er  Er14  1  0.905868  0.000000  0.201387  1
  Er  Er15  1  0.094132  0.000000  0.701387  1
  Er  Er16  1  0.192872  0.000000  0.994509  1
  Er  Er17  1  0.807128  0.000000  0.494509  1
  Er  Er18  1  0.366931  0.000000  0.309200  1
  Er  Er19  1  0.633069  0.000000  0.809200  1
  Fe  Fe20  1  0.175115  0.000000  0.488729  1
  Fe  Fe21  1  0.824885  0.000000  0.988729  1
  Bi  Bi22  1  0.816388  0.742047  0.671022  1
  Bi  Bi23  1  0.183612  0.257953  0.171022  1
  Bi  Bi24  1  0.678466  0.241238  0.325640  1
  Bi  Bi25  1  0.321534  0.758762  0.825640  1
  Bi  Bi26  1  0.678466  0.758762  0.325640  1
  Bi  Bi27  1  0.321534  0.241238  0.825640  1
  Bi  Bi28  1  0.816388  0.257953  0.671022  1
  Bi  Bi29  1  0.183612  0.742047  0.171022  1
  Bi  Bi30  1  0.348169  0.500000  0.528247  1
  Bi  Bi31  1  0.651831  0.500000  0.028247  1
