# generated using pymatgen
data_Ca2CeU7O20
_symmetry_space_group_name_H-M   'P 1'
_cell_length_a   10.12750112
_cell_length_b   10.12750165
_cell_length_c   6.61446600
_cell_angle_alpha   83.75558001
_cell_angle_beta   83.75557968
_cell_angle_gamma   141.80742540
_symmetry_Int_Tables_number   1
_chemical_formula_structural   Ca2CeU7O20
_chemical_formula_sum   'Ca2 Ce1 U7 O20'
_cell_volume   395.60996743
_cell_formula_units_Z   1
loop_
 _symmetry_equiv_pos_site_id
 _symmetry_equiv_pos_as_xyz
  1  'x, y, z'
loop_
 _atom_site_type_symbol
 _atom_site_label
 _atom_site_symmetry_multiplicity
 _atom_site_fract_x
 _atom_site_fract_y
 _atom_site_fract_z
 _atom_site_occupancy
  Ca  Ca0  1  0.500067  0.499933  0.000000  1
  Ca  Ca1  1  0.798237  0.201763  0.500000  1
  Ce  Ce2  1  0.204976  0.795024  0.500000  1
  U  U3  1  0.899281  0.100719  0.000000  1
  U  U4  1  0.397711  0.602289  0.500000  1
  U  U5  1  0.102803  0.897197  0.000000  1
  U  U6  1  0.999651  0.000349  0.500000  1
  U  U7  1  0.699425  0.300575  0.000000  1
  U  U8  1  0.607282  0.392718  0.500000  1
  U  U9  1  0.297670  0.702330  0.000000  1
  O  O10  1  0.262397  0.468915  0.876379  1
  O  O11  1  0.885589  0.886629  0.888483  1
  O  O12  1  0.763369  0.968164  0.361362  1
  O  O13  1  0.031836  0.236631  0.638638  1
  O  O14  1  0.461353  0.253788  0.888738  1
  O  O15  1  0.378087  0.385730  0.378844  1
  O  O16  1  0.614270  0.621913  0.621156  1
  O  O17  1  0.078011  0.678715  0.878493  1
  O  O18  1  0.531085  0.737603  0.123621  1
  O  O19  1  0.985519  0.780128  0.362933  1
  O  O20  1  0.219872  0.014481  0.637067  1
  O  O21  1  0.668250  0.068566  0.894337  1
  O  O22  1  0.113371  0.114411  0.111517  1
  O  O23  1  0.570456  0.172591  0.355309  1
  O  O24  1  0.827409  0.429544  0.644691  1
  O  O25  1  0.409830  0.806735  0.639160  1
  O  O26  1  0.746212  0.538647  0.111262  1
  O  O27  1  0.193265  0.590170  0.360840  1
  O  O28  1  0.321285  0.921989  0.121507  1
  O  O29  1  0.931434  0.331750  0.105663  1
