# generated using pymatgen
data_Tb5Ho3Sc12Si15Hg
_symmetry_space_group_name_H-M   'P 1'
_cell_length_a   7.13407004
_cell_length_b   7.39595413
_cell_length_c   14.09000295
_cell_angle_alpha   89.92402025
_cell_angle_beta   89.58121556
_cell_angle_gamma   90.14923234
_symmetry_Int_Tables_number   1
_chemical_formula_structural   Tb5Ho3Sc12Si15Hg
_chemical_formula_sum   'Tb5 Ho3 Sc12 Si15 Hg1'
_cell_volume   743.41136214
_cell_formula_units_Z   1
loop_
 _symmetry_equiv_pos_site_id
 _symmetry_equiv_pos_as_xyz
  1  'x, y, z'
loop_
 _atom_site_type_symbol
 _atom_site_label
 _atom_site_symmetry_multiplicity
 _atom_site_fract_x
 _atom_site_fract_y
 _atom_site_fract_z
 _atom_site_occupancy
  Tb  Tb0  1  0.011961  0.175424  0.097197  1
  Tb  Tb1  1  0.987745  0.825547  0.904311  1
  Tb  Tb2  1  0.487570  0.676483  0.904001  1
  Tb  Tb3  1  0.989066  0.831355  0.598064  1
  Tb  Tb4  1  0.511760  0.323953  0.096393  1
  Ho  Ho5  1  0.007570  0.171348  0.398107  1
  Ho  Ho6  1  0.511587  0.322014  0.398946  1
  Ho  Ho7  1  0.496467  0.681803  0.600335  1
  Sc  Sc8  1  0.162676  0.501261  0.754184  1
  Sc  Sc9  1  0.836903  0.498366  0.250167  1
  Sc  Sc10  1  0.337266  0.000902  0.248964  1
  Sc  Sc11  1  0.664951  0.997022  0.751615  1
  Sc  Sc12  1  0.342526  0.168420  0.628860  1
  Sc  Sc13  1  0.663996  0.824429  0.372990  1
  Sc  Sc14  1  0.166519  0.677810  0.370671  1
  Sc  Sc15  1  0.669221  0.823755  0.124414  1
  Sc  Sc16  1  0.825643  0.325188  0.626199  1
  Sc  Sc17  1  0.329155  0.175050  0.876082  1
  Sc  Sc18  1  0.830286  0.322882  0.876117  1
  Sc  Sc19  1  0.168783  0.676743  0.125076  1
  Si  Si20  1  0.035777  0.120917  0.751424  1
  Si  Si21  1  0.963987  0.883721  0.248088  1
  Si  Si22  1  0.465926  0.615456  0.248070  1
  Si  Si23  1  0.533944  0.385877  0.752046  1
  Si  Si24  1  0.285273  0.872333  0.751605  1
  Si  Si25  1  0.712431  0.127481  0.248196  1
  Si  Si26  1  0.213098  0.371348  0.248539  1
  Si  Si27  1  0.788674  0.627791  0.752426  1
  Si  Si28  1  0.832228  0.537948  0.458934  1
  Si  Si29  1  0.338764  0.962511  0.459882  1
  Si  Si30  1  0.843897  0.535419  0.038918  1
  Si  Si31  1  0.659826  0.037608  0.537395  1
  Si  Si32  1  0.155830  0.464064  0.962165  1
  Si  Si33  1  0.655855  0.035060  0.960632  1
  Si  Si34  1  0.343099  0.964723  0.039826  1
  Hg  Hg35  1  0.169739  0.457986  0.539164  1
