# generated using pymatgen
data_Tm9PaPt18
_symmetry_space_group_name_H-M   'P 1'
_cell_length_a   9.72356815
_cell_length_b   9.72356815
_cell_length_c   5.73893800
_cell_angle_alpha   90.00000000
_cell_angle_beta   90.00000000
_cell_angle_gamma   89.98001276
_symmetry_Int_Tables_number   1
_chemical_formula_structural   Tm9PaPt18
_chemical_formula_sum   'Tm9 Pa1 Pt18'
_cell_volume   542.60380025
_cell_formula_units_Z   1
loop_
 _symmetry_equiv_pos_site_id
 _symmetry_equiv_pos_as_xyz
  1  'x, y, z'
loop_
 _atom_site_type_symbol
 _atom_site_label
 _atom_site_symmetry_multiplicity
 _atom_site_fract_x
 _atom_site_fract_y
 _atom_site_fract_z
 _atom_site_occupancy
  Tm  Tm0  1  0.453230  0.810243  0.000000  1
  Tm  Tm1  1  0.546770  0.189757  0.000000  1
  Tm  Tm2  1  0.189757  0.546770  0.000000  1
  Tm  Tm3  1  0.810243  0.453230  0.000000  1
  Tm  Tm4  1  0.305540  0.046142  0.500000  1
  Tm  Tm5  1  0.694460  0.953858  0.500000  1
  Tm  Tm6  1  0.953858  0.694460  0.500000  1
  Tm  Tm7  1  0.046142  0.305540  0.500000  1
  Tm  Tm8  1  0.000000  0.000000  0.000000  1
  Pa  Pa9  1  0.500000  0.500000  0.500000  1
  Pt  Pt10  1  0.192626  0.807374  0.249232  1
  Pt  Pt11  1  0.807374  0.192626  0.750768  1
  Pt  Pt12  1  0.807374  0.192626  0.249232  1
  Pt  Pt13  1  0.192626  0.807374  0.750768  1
  Pt  Pt14  1  0.441955  0.779452  0.500000  1
  Pt  Pt15  1  0.558045  0.220548  0.500000  1
  Pt  Pt16  1  0.220548  0.558045  0.500000  1
  Pt  Pt17  1  0.779452  0.441955  0.500000  1
  Pt  Pt18  1  0.306639  0.306639  0.250140  1
  Pt  Pt19  1  0.693361  0.693361  0.749860  1
  Pt  Pt20  1  0.693361  0.693361  0.250140  1
  Pt  Pt21  1  0.306639  0.306639  0.749860  1
  Pt  Pt22  1  0.281787  0.056917  0.000000  1
  Pt  Pt23  1  0.718213  0.943083  0.000000  1
  Pt  Pt24  1  0.943083  0.718213  0.000000  1
  Pt  Pt25  1  0.056917  0.281787  0.000000  1
  Pt  Pt26  1  0.000000  0.000000  0.500000  1
  Pt  Pt27  1  0.500000  0.500000  0.000000  1
