# generated using pymatgen
data_Cs3Ag(PS4)2
_symmetry_space_group_name_H-M   'P 1'
_cell_length_a   7.25023988
_cell_length_b   7.25023856
_cell_length_c   18.44816100
_cell_angle_alpha   86.75249518
_cell_angle_beta   86.75249577
_cell_angle_gamma   120.72990727
_symmetry_Int_Tables_number   1
_chemical_formula_structural   Cs3Ag(PS4)2
_chemical_formula_sum   'Cs6 Ag2 P4 S16'
_cell_volume   828.09080895
_cell_formula_units_Z   2
loop_
 _symmetry_equiv_pos_site_id
 _symmetry_equiv_pos_as_xyz
  1  'x, y, z'
loop_
 _atom_site_type_symbol
 _atom_site_label
 _atom_site_symmetry_multiplicity
 _atom_site_fract_x
 _atom_site_fract_y
 _atom_site_fract_z
 _atom_site_occupancy
  Cs  Cs0  1  0.507986  0.357510  0.110821  1
  Cs  Cs1  1  0.357510  0.507986  0.610821  1
  Cs  Cs2  1  0.905964  0.708804  0.753375  1
  Cs  Cs3  1  0.708804  0.905964  0.253375  1
  Cs  Cs4  1  0.597573  0.048394  0.890310  1
  Cs  Cs5  1  0.048394  0.597573  0.390310  1
  Ag  Ag6  1  0.055753  0.951898  0.999906  1
  Ag  Ag7  1  0.951898  0.055753  0.499906  1
  P  P8  1  0.298910  0.430683  0.883080  1
  P  P9  1  0.430683  0.298910  0.383080  1
  P  P10  1  0.212070  0.674883  0.119418  1
  P  P11  1  0.674883  0.212070  0.619418  1
  S  S12  1  0.497056  0.165212  0.713130  1
  S  S13  1  0.165212  0.497056  0.213130  1
  S  S14  1  0.109661  0.101596  0.877296  1
  S  S15  1  0.101596  0.109661  0.377296  1
  S  S16  1  0.319890  0.597523  0.789776  1
  S  S17  1  0.597523  0.319890  0.289776  1
  S  S18  1  0.576764  0.518001  0.924926  1
  S  S19  1  0.518001  0.576764  0.424926  1
  S  S20  1  0.099584  0.525526  0.945784  1
  S  S21  1  0.525526  0.099584  0.445784  1
  S  S22  1  0.051960  0.402312  0.053532  1
  S  S23  1  0.402312  0.051960  0.553532  1
  S  S24  1  0.517271  0.881221  0.079245  1
  S  S25  1  0.881221  0.517271  0.579245  1
  S  S26  1  0.025860  0.816921  0.123100  1
  S  S27  1  0.816921  0.025860  0.623100  1
