# generated using pymatgen
data_Nd4Sn10PdRh5
_symmetry_space_group_name_H-M   'P 1'
_cell_length_a   13.64012175
_cell_length_b   13.64012179
_cell_length_c   7.35678316
_cell_angle_alpha   90.17888473
_cell_angle_beta   89.82111450
_cell_angle_gamma   160.97971680
_symmetry_Int_Tables_number   1
_chemical_formula_structural   Nd4Sn10PdRh5
_chemical_formula_sum   'Nd4 Sn10 Pd1 Rh5'
_cell_volume   446.07762547
_cell_formula_units_Z   1
loop_
 _symmetry_equiv_pos_site_id
 _symmetry_equiv_pos_as_xyz
  1  'x, y, z'
loop_
 _atom_site_type_symbol
 _atom_site_label
 _atom_site_symmetry_multiplicity
 _atom_site_fract_x
 _atom_site_fract_y
 _atom_site_fract_z
 _atom_site_occupancy
  Nd  Nd0  1  0.174001  0.825999  0.755260  1
  Nd  Nd1  1  0.826777  0.173223  0.252974  1
  Nd  Nd2  1  0.475043  0.524957  0.740786  1
  Nd  Nd3  1  0.523290  0.476710  0.234545  1
  Sn  Sn4  1  0.879416  0.120584  0.730571  1
  Sn  Sn5  1  0.121502  0.878498  0.225800  1
  Sn  Sn6  1  0.705095  0.294905  0.049812  1
  Sn  Sn7  1  0.295791  0.704209  0.550941  1
  Sn  Sn8  1  0.597446  0.402554  0.618493  1
  Sn  Sn9  1  0.403245  0.596755  0.113632  1
  Sn  Sn10  1  0.949922  0.050078  0.397663  1
  Sn  Sn11  1  0.048232  0.951768  0.903776  1
  Sn  Sn12  1  0.290198  0.709802  0.975053  1
  Sn  Sn13  1  0.710369  0.289631  0.474414  1
  Pd  Pd14  1  0.050713  0.949287  0.519215  1
  Rh  Rh15  1  0.948952  0.051048  0.019072  1
  Rh  Rh16  1  0.777141  0.222859  0.763630  1
  Rh  Rh17  1  0.222642  0.777358  0.264344  1
  Rh  Rh18  1  0.393825  0.606175  0.481919  1
  Rh  Rh19  1  0.606399  0.393601  0.984096  1
