# generated using pymatgen
data_Na2Ta3(VS4)3
_symmetry_space_group_name_H-M   'P 1'
_cell_length_a   5.68613000
_cell_length_b   5.68613011
_cell_length_c   14.77056200
_cell_angle_alpha   90.00000000
_cell_angle_beta   90.00000000
_cell_angle_gamma   120.00001256
_symmetry_Int_Tables_number   1
_chemical_formula_structural   Na2Ta3(VS4)3
_chemical_formula_sum   'Na2 Ta3 V3 S12'
_cell_volume   413.58156680
_cell_formula_units_Z   1
loop_
 _symmetry_equiv_pos_site_id
 _symmetry_equiv_pos_as_xyz
  1  'x, y, z'
loop_
 _atom_site_type_symbol
 _atom_site_label
 _atom_site_symmetry_multiplicity
 _atom_site_fract_x
 _atom_site_fract_y
 _atom_site_fract_z
 _atom_site_occupancy
  Na  Na0  1  0.000000  0.000000  0.499212  1
  Na  Na1  1  0.000000  0.000000  0.000788  1
  Ta  Ta2  1  0.333333  0.666667  0.750000  1
  Ta  Ta3  1  0.000000  0.000000  0.250000  1
  Ta  Ta4  1  0.000000  0.000000  0.750000  1
  V  V5  1  0.333333  0.666667  0.250000  1
  V  V6  1  0.666667  0.333333  0.750000  1
  V  V7  1  0.666667  0.333333  0.250000  1
  S  S8  1  0.344180  0.999944  0.148355  1
  S  S9  1  0.000056  0.344236  0.148355  1
  S  S10  1  0.655764  0.655820  0.148355  1
  S  S11  1  0.345136  0.334870  0.645918  1
  S  S12  1  0.655764  0.655820  0.351645  1
  S  S13  1  0.665130  0.010266  0.645918  1
  S  S14  1  0.989734  0.654864  0.645918  1
  S  S15  1  0.989734  0.654864  0.854082  1
  S  S16  1  0.345136  0.334870  0.854082  1
  S  S17  1  0.000056  0.344236  0.351645  1
  S  S18  1  0.344180  0.999944  0.351645  1
  S  S19  1  0.665130  0.010266  0.854082  1
