# generated using pymatgen
data_Nd4NiP8Pt23
_symmetry_space_group_name_H-M   'P 1'
_cell_length_a   8.51631208
_cell_length_b   8.53823014
_cell_length_c   8.55230671
_cell_angle_alpha   89.70247273
_cell_angle_beta   89.78588950
_cell_angle_gamma   90.18543016
_symmetry_Int_Tables_number   1
_chemical_formula_structural   Nd4NiP8Pt23
_chemical_formula_sum   'Nd4 Ni1 P8 Pt23'
_cell_volume   621.85839591
_cell_formula_units_Z   1
loop_
 _symmetry_equiv_pos_site_id
 _symmetry_equiv_pos_as_xyz
  1  'x, y, z'
loop_
 _atom_site_type_symbol
 _atom_site_label
 _atom_site_symmetry_multiplicity
 _atom_site_fract_x
 _atom_site_fract_y
 _atom_site_fract_z
 _atom_site_occupancy
  Nd  Nd0  1  0.499098  0.497733  0.999366  1
  Nd  Nd1  1  0.499292  0.999252  0.499135  1
  Nd  Nd2  1  0.001706  0.502121  0.497482  1
  Nd  Nd3  1  0.997484  0.999394  0.001165  1
  Ni  Ni4  1  0.423778  0.844959  0.156848  1
  P  P5  1  0.805044  0.304886  0.193386  1
  P  P6  1  0.204895  0.811626  0.299382  1
  P  P7  1  0.693498  0.694881  0.697427  1
  P  P8  1  0.304698  0.192814  0.807524  1
  P  P9  1  0.192579  0.694353  0.802522  1
  P  P10  1  0.806285  0.194961  0.694246  1
  P  P11  1  0.306033  0.307998  0.304769  1
  P  P12  1  0.685254  0.805168  0.198478  1
  Pt  Pt13  1  0.578414  0.343304  0.341568  1
  Pt  Pt14  1  0.078434  0.156002  0.658324  1
  Pt  Pt15  1  0.921889  0.657944  0.843867  1
  Pt  Pt16  1  0.159576  0.422430  0.843235  1
  Pt  Pt17  1  0.346887  0.583069  0.338373  1
  Pt  Pt18  1  0.653479  0.074765  0.160077  1
  Pt  Pt19  1  0.840803  0.922312  0.657415  1
  Pt  Pt20  1  0.844367  0.158130  0.421668  1
  Pt  Pt21  1  0.343401  0.341305  0.576726  1
  Pt  Pt22  1  0.163450  0.662596  0.075837  1
  Pt  Pt23  1  0.650416  0.836333  0.927824  1
  Pt  Pt24  1  0.576962  0.154940  0.841598  1
  Pt  Pt25  1  0.421523  0.657088  0.657854  1
  Pt  Pt26  1  0.924609  0.841829  0.337234  1
  Pt  Pt27  1  0.078836  0.345936  0.158024  1
  Pt  Pt28  1  0.839512  0.578695  0.156612  1
  Pt  Pt29  1  0.659179  0.422584  0.657222  1
  Pt  Pt30  1  0.340147  0.918865  0.850236  1
  Pt  Pt31  1  0.159269  0.078063  0.342308  1
  Pt  Pt32  1  0.156584  0.840981  0.574736  1
  Pt  Pt33  1  0.656804  0.658414  0.424813  1
  Pt  Pt34  1  0.842841  0.341053  0.922797  1
  Pt  Pt35  1  0.342977  0.153214  0.079922  1
