# generated using pymatgen
data_TbDyMn6Co6P7
_symmetry_space_group_name_H-M   'P 1'
_cell_length_a   9.08057800
_cell_length_b   9.08057830
_cell_length_c   3.63991600
_cell_angle_alpha   90.00000000
_cell_angle_beta   90.00000000
_cell_angle_gamma   120.00000619
_symmetry_Int_Tables_number   1
_chemical_formula_structural   TbDyMn6Co6P7
_chemical_formula_sum   'Tb1 Dy1 Mn6 Co6 P7'
_cell_volume   259.92554719
_cell_formula_units_Z   1
loop_
 _symmetry_equiv_pos_site_id
 _symmetry_equiv_pos_as_xyz
  1  'x, y, z'
loop_
 _atom_site_type_symbol
 _atom_site_label
 _atom_site_symmetry_multiplicity
 _atom_site_fract_x
 _atom_site_fract_y
 _atom_site_fract_z
 _atom_site_occupancy
  Tb  Tb0  1  0.333333  0.666667  0.500000  1
  Dy  Dy1  1  0.666667  0.333333  0.000000  1
  Mn  Mn2  1  0.880056  0.723289  0.000000  1
  Mn  Mn3  1  0.276711  0.156767  0.000000  1
  Mn  Mn4  1  0.843233  0.119944  0.000000  1
  Mn  Mn5  1  0.119180  0.895914  0.500000  1
  Mn  Mn6  1  0.104086  0.223266  0.500000  1
  Mn  Mn7  1  0.776734  0.880820  0.500000  1
  Co  Co8  1  0.369209  0.940326  0.000000  1
  Co  Co9  1  0.059674  0.428883  0.000000  1
  Co  Co10  1  0.571117  0.630791  0.000000  1
  Co  Co11  1  0.949495  0.561294  0.500000  1
  Co  Co12  1  0.438706  0.388201  0.500000  1
  Co  Co13  1  0.611799  0.050505  0.500000  1
  P  P14  1  0.110604  0.698653  0.000000  1
  P  P15  1  0.301347  0.411953  0.000000  1
  P  P16  1  0.588047  0.889396  0.000000  1
  P  P17  1  0.712253  0.593945  0.500000  1
  P  P18  1  0.406055  0.118309  0.500000  1
  P  P19  1  0.881691  0.287747  0.500000  1
  P  P20  1  0.000000  0.000000  0.000000  1
