# generated using pymatgen
data_Dy3Y(VB4)4
_symmetry_space_group_name_H-M   'P 1'
_cell_length_a   3.44510800
_cell_length_b   6.00348200
_cell_length_c   11.62558300
_cell_angle_alpha   90.00163888
_cell_angle_beta   90.00000000
_cell_angle_gamma   90.00000000
_symmetry_Int_Tables_number   1
_chemical_formula_structural   Dy3Y(VB4)4
_chemical_formula_sum   'Dy3 Y1 V4 B16'
_cell_volume   240.44779288
_cell_formula_units_Z   1
loop_
 _symmetry_equiv_pos_site_id
 _symmetry_equiv_pos_as_xyz
  1  'x, y, z'
loop_
 _atom_site_type_symbol
 _atom_site_label
 _atom_site_symmetry_multiplicity
 _atom_site_fract_x
 _atom_site_fract_y
 _atom_site_fract_z
 _atom_site_occupancy
  Dy  Dy0  1  0.000000  0.624393  0.348415  1
  Dy  Dy1  1  0.000000  0.375594  0.651558  1
  Dy  Dy2  1  0.000000  0.124390  0.151635  1
  Y  Y3  1  0.000000  0.875635  0.848372  1
  V  V4  1  0.000000  0.627167  0.082811  1
  V  V5  1  0.000000  0.372827  0.917263  1
  V  V6  1  0.000000  0.127195  0.417248  1
  V  V7  1  0.000000  0.872780  0.582722  1
  B  B8  1  0.500000  0.786285  0.185652  1
  B  B9  1  0.500000  0.213859  0.814294  1
  B  B10  1  0.500000  0.286277  0.314353  1
  B  B11  1  0.500000  0.713591  0.685551  1
  B  B12  1  0.500000  0.864234  0.032697  1
  B  B13  1  0.500000  0.135909  0.967465  1
  B  B14  1  0.500000  0.364188  0.467389  1
  B  B15  1  0.500000  0.635818  0.532615  1
  B  B16  1  0.500000  0.885492  0.452530  1
  B  B17  1  0.500000  0.114522  0.547468  1
  B  B18  1  0.500000  0.385492  0.047484  1
  B  B19  1  0.500000  0.614387  0.952585  1
  B  B20  1  0.500000  0.977237  0.307799  1
  B  B21  1  0.500000  0.022905  0.692142  1
  B  B22  1  0.500000  0.477221  0.192213  1
  B  B23  1  0.500000  0.522604  0.807741  1
