# generated using pymatgen
data_FeSi4Mo4Ir3
_symmetry_space_group_name_H-M   'P 1'
_cell_length_a   3.84661200
_cell_length_b   6.17912766
_cell_length_c   7.11079803
_cell_angle_alpha   89.86909243
_cell_angle_beta   90.00000000
_cell_angle_gamma   90.00000000
_symmetry_Int_Tables_number   1
_chemical_formula_structural   FeSi4Mo4Ir3
_chemical_formula_sum   'Fe1 Si4 Mo4 Ir3'
_cell_volume   169.01403093
_cell_formula_units_Z   1
loop_
 _symmetry_equiv_pos_site_id
 _symmetry_equiv_pos_as_xyz
  1  'x, y, z'
loop_
 _atom_site_type_symbol
 _atom_site_label
 _atom_site_symmetry_multiplicity
 _atom_site_fract_x
 _atom_site_fract_y
 _atom_site_fract_z
 _atom_site_occupancy
  Fe  Fe0  1  0.750000  0.356846  0.441448  1
  Si  Si1  1  0.250000  0.265952  0.613514  1
  Si  Si2  1  0.250000  0.758225  0.879165  1
  Si  Si3  1  0.750000  0.730631  0.376417  1
  Si  Si4  1  0.750000  0.240480  0.133463  1
  Mo  Mo5  1  0.250000  0.033304  0.329098  1
  Mo  Mo6  1  0.250000  0.518287  0.178735  1
  Mo  Mo7  1  0.750000  0.981575  0.665853  1
  Mo  Mo8  1  0.750000  0.468853  0.824854  1
  Ir  Ir9  1  0.250000  0.147451  0.934650  1
  Ir  Ir10  1  0.250000  0.645655  0.560991  1
  Ir  Ir11  1  0.750000  0.852741  0.061809  1
