# generated using pymatgen
data_Sc4Fe4Si3P
_symmetry_space_group_name_H-M   'P 1'
_cell_length_a   4.00461700
_cell_length_b   6.47689480
_cell_length_c   6.69192184
_cell_angle_alpha   90.15233968
_cell_angle_beta   90.00000000
_cell_angle_gamma   90.00000000
_symmetry_Int_Tables_number   1
_chemical_formula_structural   Sc4Fe4Si3P
_chemical_formula_sum   'Sc4 Fe4 Si3 P1'
_cell_volume   173.57099546
_cell_formula_units_Z   1
loop_
 _symmetry_equiv_pos_site_id
 _symmetry_equiv_pos_as_xyz
  1  'x, y, z'
loop_
 _atom_site_type_symbol
 _atom_site_label
 _atom_site_symmetry_multiplicity
 _atom_site_fract_x
 _atom_site_fract_y
 _atom_site_fract_z
 _atom_site_occupancy
  Sc  Sc0  1  0.750000  0.515804  0.809499  1
  Sc  Sc1  1  0.250000  0.988318  0.308940  1
  Sc  Sc2  1  0.750000  0.010879  0.691119  1
  Sc  Sc3  1  0.250000  0.491647  0.189842  1
  Fe  Fe4  1  0.250000  0.658184  0.568085  1
  Fe  Fe5  1  0.250000  0.142972  0.938111  1
  Fe  Fe6  1  0.750000  0.843745  0.055365  1
  Fe  Fe7  1  0.750000  0.346992  0.438458  1
  Si  Si8  1  0.250000  0.299119  0.609436  1
  Si  Si9  1  0.750000  0.202399  0.107892  1
  Si  Si10  1  0.750000  0.703253  0.391008  1
  P  P11  1  0.250000  0.796688  0.892244  1
