# generated using pymatgen
data_TbBeSi2Pd
_symmetry_space_group_name_H-M   'P 1'
_cell_length_a   3.95721776
_cell_length_b   3.95721782
_cell_length_c   5.83594029
_cell_angle_alpha   109.81831345
_cell_angle_beta   109.81830810
_cell_angle_gamma   90.00000151
_symmetry_Int_Tables_number   1
_chemical_formula_structural   TbBeSi2Pd
_chemical_formula_sum   'Tb1 Be1 Si2 Pd1'
_cell_volume   80.19843668
_cell_formula_units_Z   1
loop_
 _symmetry_equiv_pos_site_id
 _symmetry_equiv_pos_as_xyz
  1  'x, y, z'
loop_
 _atom_site_type_symbol
 _atom_site_label
 _atom_site_symmetry_multiplicity
 _atom_site_fract_x
 _atom_site_fract_y
 _atom_site_fract_z
 _atom_site_occupancy
  Tb  Tb0  1  0.000000  0.000000  0.000000  1
  Be  Be1  1  0.749999  0.250000  0.500000  1
  Si  Si2  1  0.615499  0.615499  0.230999  1
  Si  Si3  1  0.384500  0.384500  0.769001  1
  Pd  Pd4  1  0.250000  0.749999  0.500000  1
