# generated using pymatgen
data_Dy3Y(ScRh)4
_symmetry_space_group_name_H-M   'P 1'
_cell_length_a   4.23599000
_cell_length_b   7.20488314
_cell_length_c   8.75949691
_cell_angle_alpha   90.09932371
_cell_angle_beta   90.00000000
_cell_angle_gamma   90.00000000
_symmetry_Int_Tables_number   1
_chemical_formula_structural   Dy3Y(ScRh)4
_chemical_formula_sum   'Dy3 Y1 Sc4 Rh4'
_cell_volume   267.33780543
_cell_formula_units_Z   1
loop_
 _symmetry_equiv_pos_site_id
 _symmetry_equiv_pos_as_xyz
  1  'x, y, z'
loop_
 _atom_site_type_symbol
 _atom_site_label
 _atom_site_symmetry_multiplicity
 _atom_site_fract_x
 _atom_site_fract_y
 _atom_site_fract_z
 _atom_site_occupancy
  Dy  Dy0  1  0.250000  0.982747  0.325740  1
  Dy  Dy1  1  0.250000  0.482650  0.173140  1
  Dy  Dy2  1  0.750000  0.018123  0.673922  1
  Y  Y3  1  0.750000  0.516738  0.825483  1
  Sc  Sc4  1  0.250000  0.362642  0.566391  1
  Sc  Sc5  1  0.250000  0.861087  0.933181  1
  Sc  Sc6  1  0.750000  0.638258  0.432996  1
  Sc  Sc7  1  0.750000  0.137813  0.067531  1
  Rh  Rh8  1  0.250000  0.240672  0.901714  1
  Rh  Rh9  1  0.250000  0.744573  0.597847  1
  Rh  Rh10  1  0.750000  0.757447  0.100364  1
  Rh  Rh11  1  0.750000  0.257251  0.401691  1
