# generated using pymatgen
data_Yb2Al(SiPd2)3
_symmetry_space_group_name_H-M   'P 1'
_cell_length_a   6.76216596
_cell_length_b   6.77802831
_cell_length_c   6.76216364
_cell_angle_alpha   129.98353439
_cell_angle_beta   114.56406891
_cell_angle_gamma   86.58053763
_symmetry_Int_Tables_number   1
_chemical_formula_structural   Yb2Al(SiPd2)3
_chemical_formula_sum   'Yb2 Al1 Si3 Pd6'
_cell_volume   206.19605049
_cell_formula_units_Z   1
loop_
 _symmetry_equiv_pos_site_id
 _symmetry_equiv_pos_as_xyz
  1  'x, y, z'
loop_
 _atom_site_type_symbol
 _atom_site_label
 _atom_site_symmetry_multiplicity
 _atom_site_fract_x
 _atom_site_fract_y
 _atom_site_fract_z
 _atom_site_occupancy
  Yb  Yb0  1  0.999715  0.964399  0.964684  1
  Yb  Yb1  1  0.502219  0.065595  0.563375  1
  Al  Al2  1  0.351338  0.412280  0.060943  1
  Si  Si3  1  0.811194  0.239527  0.428333  1
  Si  Si4  1  0.644796  0.708914  0.064118  1
  Si  Si5  1  0.192815  0.622169  0.429354  1
  Pd  Pd6  1  0.949844  0.503830  0.953545  1
  Pd  Pd7  1  0.550285  0.503830  0.553987  1
  Pd  Pd8  1  0.040268  0.997727  0.541025  1
  Pd  Pd9  1  0.788805  0.484501  0.272483  1
  Pd  Pd10  1  0.212018  0.484501  0.695695  1
  Pd  Pd11  1  0.456703  0.997727  0.957461  1
