# generated using pymatgen
data_TmCo2(Sn3Ru)2
_symmetry_space_group_name_H-M   'P 1'
_cell_length_a   6.87488894
_cell_length_b   6.87488827
_cell_length_c   6.73438178
_cell_angle_alpha   120.09067172
_cell_angle_beta   120.09068208
_cell_angle_gamma   91.01726982
_symmetry_Int_Tables_number   1
_chemical_formula_structural   TmCo2(Sn3Ru)2
_chemical_formula_sum   'Tm1 Co2 Sn6 Ru2'
_cell_volume   222.35448392
_cell_formula_units_Z   1
loop_
 _symmetry_equiv_pos_site_id
 _symmetry_equiv_pos_as_xyz
  1  'x, y, z'
loop_
 _atom_site_type_symbol
 _atom_site_label
 _atom_site_symmetry_multiplicity
 _atom_site_fract_x
 _atom_site_fract_y
 _atom_site_fract_z
 _atom_site_occupancy
  Tm  Tm0  1  0.006774  0.006774  0.000000  1
  Co  Co1  1  0.391013  0.755759  0.000000  1
  Co  Co2  1  0.755759  0.391013  0.000000  1
  Sn  Sn3  1  0.471115  0.109291  0.000000  1
  Sn  Sn4  1  0.109291  0.471115  0.000000  1
  Sn  Sn5  1  0.872542  0.872542  0.331850  1
  Sn  Sn6  1  0.540692  0.540692  0.668150  1
  Sn  Sn7  1  0.001385  0.501385  0.500000  1
  Sn  Sn8  1  0.501385  0.001385  0.500000  1
  Ru  Ru9  1  0.258121  0.258121  0.666200  1
  Ru  Ru10  1  0.591921  0.591921  0.333800  1
