# generated using pymatgen
data_ErPa3(Rh2Pb)2
_symmetry_space_group_name_H-M   'P 1'
_cell_length_a   7.80697172
_cell_length_b   7.80697159
_cell_length_c   3.58235300
_cell_angle_alpha   90.00000000
_cell_angle_beta   90.00000000
_cell_angle_gamma   88.11823849
_symmetry_Int_Tables_number   1
_chemical_formula_structural   ErPa3(Rh2Pb)2
_chemical_formula_sum   'Er1 Pa3 Rh4 Pb2'
_cell_volume   218.22239297
_cell_formula_units_Z   1
loop_
 _symmetry_equiv_pos_site_id
 _symmetry_equiv_pos_as_xyz
  1  'x, y, z'
loop_
 _atom_site_type_symbol
 _atom_site_label
 _atom_site_symmetry_multiplicity
 _atom_site_fract_x
 _atom_site_fract_y
 _atom_site_fract_z
 _atom_site_occupancy
  Er  Er0  1  0.329873  0.829873  0.500000  1
  Pa  Pa1  1  0.667038  0.167038  0.500000  1
  Pa  Pa2  1  0.171348  0.330855  0.500000  1
  Pa  Pa3  1  0.830855  0.671348  0.500000  1
  Rh  Rh4  1  0.859863  0.359863  0.000000  1
  Rh  Rh5  1  0.376486  0.146072  0.000000  1
  Rh  Rh6  1  0.646072  0.876486  0.000000  1
  Rh  Rh7  1  0.112591  0.612591  0.000000  1
  Pb  Pb8  1  0.010575  0.995298  0.000000  1
  Pb  Pb9  1  0.495298  0.510575  0.000000  1
