# generated using pymatgen
data_LiSc5(AlRh2)6
_symmetry_space_group_name_H-M   'P 1'
_cell_length_a   4.39954201
_cell_length_b   6.17390604
_cell_length_c   13.11869103
_cell_angle_alpha   90.00049230
_cell_angle_beta   90.00675906
_cell_angle_gamma   89.99477107
_symmetry_Int_Tables_number   1
_chemical_formula_structural   LiSc5(AlRh2)6
_chemical_formula_sum   'Li1 Sc5 Al6 Rh12'
_cell_volume   356.33459106
_cell_formula_units_Z   1
loop_
 _symmetry_equiv_pos_site_id
 _symmetry_equiv_pos_as_xyz
  1  'x, y, z'
loop_
 _atom_site_type_symbol
 _atom_site_label
 _atom_site_symmetry_multiplicity
 _atom_site_fract_x
 _atom_site_fract_y
 _atom_site_fract_z
 _atom_site_occupancy
  Li  Li0  1  0.999996  0.000042  0.999998  1
  Sc  Sc1  1  0.499889  0.500021  0.162217  1
  Sc  Sc2  1  0.999927  0.000006  0.330870  1
  Sc  Sc3  1  0.499992  0.500001  0.500001  1
  Sc  Sc4  1  0.000081  0.999997  0.669122  1
  Sc  Sc5  1  0.500110  0.500010  0.837794  1
  Al  Al6  1  0.000010  0.499936  0.999988  1
  Al  Al7  1  0.500053  0.000104  0.161214  1
  Al  Al8  1  0.999981  0.499919  0.327591  1
  Al  Al9  1  0.499995  0.000059  0.499999  1
  Al  Al10  1  0.000020  0.499913  0.672414  1
  Al  Al11  1  0.499953  0.000098  0.838785  1
  Rh  Rh12  1  0.499962  0.241620  0.999997  1
  Rh  Rh13  1  0.500044  0.758493  0.000000  1
  Rh  Rh14  1  0.999852  0.245867  0.162391  1
  Rh  Rh15  1  0.999910  0.754135  0.162427  1
  Rh  Rh16  1  0.499897  0.249218  0.331896  1
  Rh  Rh17  1  0.499989  0.750697  0.331911  1
  Rh  Rh18  1  0.000072  0.251221  0.500000  1
  Rh  Rh19  1  0.999919  0.748762  0.500005  1
  Rh  Rh20  1  0.500002  0.249208  0.668112  1
  Rh  Rh21  1  0.500116  0.750690  0.668094  1
  Rh  Rh22  1  0.000093  0.245867  0.837603  1
  Rh  Rh23  1  0.000151  0.754118  0.837569  1
