# generated using pymatgen
data_Hf9Zr(ReN)3
_symmetry_space_group_name_H-M   'P 1'
_cell_length_a   8.60744700
_cell_length_b   8.60744609
_cell_length_c   8.47307900
_cell_angle_alpha   90.00000000
_cell_angle_beta   90.00000000
_cell_angle_gamma   119.99999966
_symmetry_Int_Tables_number   1
_chemical_formula_structural   Hf9Zr(ReN)3
_chemical_formula_sum   'Hf18 Zr2 Re6 N6'
_cell_volume   543.65145827
_cell_formula_units_Z   2
loop_
 _symmetry_equiv_pos_site_id
 _symmetry_equiv_pos_as_xyz
  1  'x, y, z'
loop_
 _atom_site_type_symbol
 _atom_site_label
 _atom_site_symmetry_multiplicity
 _atom_site_fract_x
 _atom_site_fract_y
 _atom_site_fract_z
 _atom_site_occupancy
  Hf  Hf0  1  0.454581  0.909162  0.250000  1
  Hf  Hf1  1  0.545419  0.090838  0.750000  1
  Hf  Hf2  1  0.090838  0.545419  0.250000  1
  Hf  Hf3  1  0.909162  0.454581  0.750000  1
  Hf  Hf4  1  0.454581  0.545419  0.250000  1
  Hf  Hf5  1  0.545419  0.454581  0.750000  1
  Hf  Hf6  1  0.206589  0.413179  0.558333  1
  Hf  Hf7  1  0.793411  0.586821  0.441667  1
  Hf  Hf8  1  0.586821  0.793411  0.558333  1
  Hf  Hf9  1  0.793411  0.586821  0.058333  1
  Hf  Hf10  1  0.413179  0.206589  0.441667  1
  Hf  Hf11  1  0.206589  0.413179  0.941667  1
  Hf  Hf12  1  0.206589  0.793411  0.558333  1
  Hf  Hf13  1  0.413179  0.206589  0.058333  1
  Hf  Hf14  1  0.793411  0.206589  0.441667  1
  Hf  Hf15  1  0.586821  0.793411  0.941667  1
  Hf  Hf16  1  0.793411  0.206589  0.058333  1
  Hf  Hf17  1  0.206589  0.793411  0.941667  1
  Zr  Zr18  1  0.000000  0.000000  0.000000  1
  Zr  Zr19  1  0.000000  0.000000  0.500000  1
  Re  Re20  1  0.113513  0.227027  0.250000  1
  Re  Re21  1  0.886487  0.772973  0.750000  1
  Re  Re22  1  0.772973  0.886487  0.250000  1
  Re  Re23  1  0.227027  0.113513  0.750000  1
  Re  Re24  1  0.113513  0.886487  0.250000  1
  Re  Re25  1  0.886487  0.113513  0.750000  1
  N  N26  1  0.500000  0.000000  0.000000  1
  N  N27  1  0.000000  0.500000  0.000000  1
  N  N28  1  0.500000  0.000000  0.500000  1
  N  N29  1  0.500000  0.500000  0.000000  1
  N  N30  1  0.000000  0.500000  0.500000  1
  N  N31  1  0.500000  0.500000  0.500000  1
