# generated using pymatgen
data_LiNd8Tm11Sn16
_symmetry_space_group_name_H-M   'P 1'
_cell_length_a   8.03544216
_cell_length_b   8.18431066
_cell_length_c   15.44366000
_cell_angle_alpha   89.98665669
_cell_angle_beta   89.98846304
_cell_angle_gamma   89.96598799
_symmetry_Int_Tables_number   1
_chemical_formula_structural   LiNd8Tm11Sn16
_chemical_formula_sum   'Li1 Nd8 Tm11 Sn16'
_cell_volume   1015.64520013
_cell_formula_units_Z   1
loop_
 _symmetry_equiv_pos_site_id
 _symmetry_equiv_pos_as_xyz
  1  'x, y, z'
loop_
 _atom_site_type_symbol
 _atom_site_label
 _atom_site_symmetry_multiplicity
 _atom_site_fract_x
 _atom_site_fract_y
 _atom_site_fract_z
 _atom_site_occupancy
  Li  Li0  1  0.358099  0.843758  0.874463  1
  Nd  Nd1  1  0.509481  0.319615  0.905184  1
  Nd  Nd2  1  0.014025  0.177447  0.596376  1
  Nd  Nd3  1  0.487144  0.676033  0.404149  1
  Nd  Nd4  1  0.983874  0.822358  0.096916  1
  Nd  Nd5  1  0.486644  0.676901  0.092833  1
  Nd  Nd6  1  0.986063  0.821831  0.402349  1
  Nd  Nd7  1  0.511520  0.319047  0.596987  1
  Nd  Nd8  1  0.013652  0.175444  0.903473  1
  Tm  Tm9  1  0.858289  0.665420  0.625126  1
  Tm  Tm10  1  0.644065  0.163237  0.375538  1
  Tm  Tm11  1  0.147589  0.334758  0.122352  1
  Tm  Tm12  1  0.643319  0.163813  0.124901  1
  Tm  Tm13  1  0.143192  0.336273  0.375883  1
  Tm  Tm14  1  0.355873  0.834822  0.623046  1
  Tm  Tm15  1  0.855990  0.666680  0.876180  1
  Tm  Tm16  1  0.193208  0.506055  0.751855  1
  Tm  Tm17  1  0.689241  0.993975  0.751943  1
  Tm  Tm18  1  0.810424  0.497171  0.250471  1
  Tm  Tm19  1  0.310925  0.002273  0.249112  1
  Sn  Sn20  1  0.313797  0.037575  0.038424  1
  Sn  Sn21  1  0.806926  0.457761  0.459886  1
  Sn  Sn22  1  0.693270  0.958781  0.542552  1
  Sn  Sn23  1  0.187999  0.550955  0.956318  1
  Sn  Sn24  1  0.685699  0.960432  0.958958  1
  Sn  Sn25  1  0.193018  0.539953  0.542012  1
  Sn  Sn26  1  0.308048  0.041126  0.457701  1
  Sn  Sn27  1  0.811608  0.458210  0.041079  1
  Sn  Sn28  1  0.553931  0.622769  0.754889  1
  Sn  Sn29  1  0.058939  0.877154  0.749936  1
  Sn  Sn30  1  0.445693  0.377314  0.249952  1
  Sn  Sn31  1  0.947504  0.125000  0.249213  1
  Sn  Sn32  1  0.318032  0.140595  0.751104  1
  Sn  Sn33  1  0.818502  0.357545  0.750253  1
  Sn  Sn34  1  0.675885  0.854329  0.249509  1
  Sn  Sn35  1  0.178537  0.643592  0.249075  1
