# generated using pymatgen
data_Li4CaPr3Si8
_symmetry_space_group_name_H-M   'P 1'
_cell_length_a   3.86630700
_cell_length_b   7.84580067
_cell_length_c   10.56913421
_cell_angle_alpha   89.92557740
_cell_angle_beta   90.00000000
_cell_angle_gamma   90.00000000
_symmetry_Int_Tables_number   1
_chemical_formula_structural   Li4CaPr3Si8
_chemical_formula_sum   'Li4 Ca1 Pr3 Si8'
_cell_volume   320.60674310
_cell_formula_units_Z   1
loop_
 _symmetry_equiv_pos_site_id
 _symmetry_equiv_pos_as_xyz
  1  'x, y, z'
loop_
 _atom_site_type_symbol
 _atom_site_label
 _atom_site_symmetry_multiplicity
 _atom_site_fract_x
 _atom_site_fract_y
 _atom_site_fract_z
 _atom_site_occupancy
  Li  Li0  1  0.250000  0.997871  0.390925  1
  Li  Li1  1  0.750000  0.005000  0.609623  1
  Li  Li2  1  0.250000  0.494251  0.112154  1
  Li  Li3  1  0.750000  0.504126  0.890082  1
  Ca  Ca4  1  0.750000  0.365323  0.365418  1
  Pr  Pr5  1  0.250000  0.134014  0.864005  1
  Pr  Pr6  1  0.750000  0.866136  0.134699  1
  Pr  Pr7  1  0.250000  0.633228  0.634229  1
  Si  Si8  1  0.750000  0.271388  0.069846  1
  Si  Si9  1  0.250000  0.727093  0.930354  1
  Si  Si10  1  0.750000  0.773057  0.430497  1
  Si  Si11  1  0.250000  0.231702  0.568317  1
  Si  Si12  1  0.750000  0.832014  0.821782  1
  Si  Si13  1  0.250000  0.165318  0.175606  1
  Si  Si14  1  0.750000  0.332923  0.678148  1
  Si  Si15  1  0.250000  0.666556  0.324314  1
