# generated using pymatgen
data_NdSmBi6(SeO5)4
_symmetry_space_group_name_H-M   'P 1'
_cell_length_a   8.85443002
_cell_length_b   8.85442892
_cell_length_c   11.52079521
_cell_angle_alpha   89.99306184
_cell_angle_beta   89.99306560
_cell_angle_gamma   143.34200218
_symmetry_Int_Tables_number   1
_chemical_formula_structural   NdSmBi6(SeO5)4
_chemical_formula_sum   'Nd1 Sm1 Bi6 Se4 O20'
_cell_volume   539.26843388
_cell_formula_units_Z   1
loop_
 _symmetry_equiv_pos_site_id
 _symmetry_equiv_pos_as_xyz
  1  'x, y, z'
loop_
 _atom_site_type_symbol
 _atom_site_label
 _atom_site_symmetry_multiplicity
 _atom_site_fract_x
 _atom_site_fract_y
 _atom_site_fract_z
 _atom_site_occupancy
  Nd  Nd0  1  0.732132  0.232132  0.612368  1
  Sm  Sm1  1  0.233888  0.733888  0.388374  1
  Bi  Bi2  1  0.237063  0.737063  0.867008  1
  Bi  Bi3  1  0.736284  0.236284  0.134126  1
  Bi  Bi4  1  0.891920  0.063200  0.393283  1
  Bi  Bi5  1  0.062731  0.891689  0.605797  1
  Bi  Bi6  1  0.391689  0.562731  0.605797  1
  Bi  Bi7  1  0.563200  0.391920  0.393283  1
  Se  Se8  1  0.389109  0.577762  0.146924  1
  Se  Se9  1  0.577617  0.390067  0.853861  1
  Se  Se10  1  0.890067  0.077617  0.853861  1
  Se  Se11  1  0.077762  0.889109  0.146924  1
  O  O12  1  0.145762  0.476170  0.223707  1
  O  O13  1  0.473213  0.144544  0.778181  1
  O  O14  1  0.644544  0.973213  0.778181  1
  O  O15  1  0.976170  0.645762  0.223707  1
  O  O16  1  0.567623  0.892917  0.499550  1
  O  O17  1  0.896372  0.570742  0.497711  1
  O  O18  1  0.070742  0.396372  0.497711  1
  O  O19  1  0.392917  0.067623  0.499550  1
  O  O20  1  0.121949  0.621949  0.697732  1
  O  O21  1  0.615892  0.115892  0.302514  1
  O  O22  1  0.554173  0.856804  0.080361  1
  O  O23  1  0.856616  0.553866  0.919711  1
  O  O24  1  0.174333  0.075831  0.260686  1
  O  O25  1  0.075159  0.174131  0.739108  1
  O  O26  1  0.674131  0.575159  0.739108  1
  O  O27  1  0.575831  0.674333  0.260686  1
  O  O28  1  0.247835  0.247651  0.500058  1
  O  O29  1  0.747651  0.747835  0.500058  1
  O  O30  1  0.356804  0.054173  0.080361  1
  O  O31  1  0.053866  0.356616  0.919711  1
