# generated using pymatgen
data_PrNd4Dy3Au4
_symmetry_space_group_name_H-M   'P 1'
_cell_length_a   5.04053200
_cell_length_b   7.30398082
_cell_length_c   9.14930000
_cell_angle_alpha   90.07712603
_cell_angle_beta   90.00000000
_cell_angle_gamma   90.00000000
_symmetry_Int_Tables_number   1
_chemical_formula_structural   PrNd4Dy3Au4
_chemical_formula_sum   'Pr1 Nd4 Dy3 Au4'
_cell_volume   336.83985733
_cell_formula_units_Z   1
loop_
 _symmetry_equiv_pos_site_id
 _symmetry_equiv_pos_as_xyz
  1  'x, y, z'
loop_
 _atom_site_type_symbol
 _atom_site_label
 _atom_site_symmetry_multiplicity
 _atom_site_fract_x
 _atom_site_fract_y
 _atom_site_fract_z
 _atom_site_occupancy
  Pr  Pr0  1  0.250000  0.490257  0.177479  1
  Nd  Nd1  1  0.750000  0.652749  0.414544  1
  Nd  Nd2  1  0.250000  0.994317  0.323724  1
  Nd  Nd3  1  0.750000  0.508417  0.822541  1
  Nd  Nd4  1  0.750000  0.009870  0.679027  1
  Dy  Dy5  1  0.250000  0.850106  0.919301  1
  Dy  Dy6  1  0.250000  0.348626  0.584464  1
  Dy  Dy7  1  0.750000  0.151449  0.081055  1
  Au  Au8  1  0.250000  0.245954  0.902113  1
  Au  Au9  1  0.250000  0.748048  0.604638  1
  Au  Au10  1  0.750000  0.755749  0.088733  1
  Au  Au11  1  0.750000  0.244458  0.402379  1
