# generated using pymatgen
data_TbGa3NiAu
_symmetry_space_group_name_H-M   'P 1'
_cell_length_a   4.05776123
_cell_length_b   6.55918700
_cell_length_c   8.06214365
_cell_angle_alpha   90.00000000
_cell_angle_beta   104.57548714
_cell_angle_gamma   90.00000000
_symmetry_Int_Tables_number   1
_chemical_formula_structural   TbGa3NiAu
_chemical_formula_sum   'Tb2 Ga6 Ni2 Au2'
_cell_volume   207.67310014
_cell_formula_units_Z   2
loop_
 _symmetry_equiv_pos_site_id
 _symmetry_equiv_pos_as_xyz
  1  'x, y, z'
loop_
 _atom_site_type_symbol
 _atom_site_label
 _atom_site_symmetry_multiplicity
 _atom_site_fract_x
 _atom_site_fract_y
 _atom_site_fract_z
 _atom_site_occupancy
  Tb  Tb0  1  0.876624  0.750000  0.753247  1
  Tb  Tb1  1  0.123376  0.250000  0.246753  1
  Ga  Ga2  1  0.070592  0.750000  0.141184  1
  Ga  Ga3  1  0.929408  0.250000  0.858816  1
  Ga  Ga4  1  0.685327  0.550406  0.370654  1
  Ga  Ga5  1  0.314673  0.449594  0.629346  1
  Ga  Ga6  1  0.685327  0.949594  0.370654  1
  Ga  Ga7  1  0.314673  0.050406  0.629346  1
  Ni  Ni8  1  0.224754  0.750000  0.449508  1
  Ni  Ni9  1  0.775246  0.250000  0.550492  1
  Au  Au10  1  0.500000  0.500000  0.000000  1
  Au  Au11  1  0.500000  0.000000  0.000000  1
