# generated using pymatgen
data_Dy12TcOsRh2
_symmetry_space_group_name_H-M   'P 1'
_cell_length_a   6.37578401
_cell_length_b   7.31577113
_cell_length_c   9.19052000
_cell_angle_alpha   90.00000000
_cell_angle_beta   90.00000000
_cell_angle_gamma   90.08895219
_symmetry_Int_Tables_number   1
_chemical_formula_structural   Dy12TcOsRh2
_chemical_formula_sum   'Dy12 Tc1 Os1 Rh2'
_cell_volume   428.68004528
_cell_formula_units_Z   1
loop_
 _symmetry_equiv_pos_site_id
 _symmetry_equiv_pos_as_xyz
  1  'x, y, z'
loop_
 _atom_site_type_symbol
 _atom_site_label
 _atom_site_symmetry_multiplicity
 _atom_site_fract_x
 _atom_site_fract_y
 _atom_site_fract_z
 _atom_site_occupancy
  Dy  Dy0  1  0.330001  0.678655  0.061719  1
  Dy  Dy1  1  0.170685  0.175264  0.434519  1
  Dy  Dy2  1  0.671827  0.324500  0.565606  1
  Dy  Dy3  1  0.830780  0.821197  0.937443  1
  Dy  Dy4  1  0.671827  0.324500  0.934394  1
  Dy  Dy5  1  0.830780  0.821197  0.562557  1
  Dy  Dy6  1  0.330001  0.678655  0.438281  1
  Dy  Dy7  1  0.170685  0.175264  0.065481  1
  Dy  Dy8  1  0.867737  0.538456  0.250000  1
  Dy  Dy9  1  0.629884  0.038319  0.250000  1
  Dy  Dy10  1  0.133306  0.461904  0.750000  1
  Dy  Dy11  1  0.369337  0.960968  0.750000  1
  Tc  Tc12  1  0.036868  0.886163  0.250000  1
  Os  Os13  1  0.541175  0.614397  0.750000  1
  Rh  Rh14  1  0.457822  0.384657  0.250000  1
  Rh  Rh15  1  0.957287  0.115905  0.750000  1
