# generated using pymatgen
data_Ho12GaCo3NiHg
_symmetry_space_group_name_H-M   'P 1'
_cell_length_a   8.27406651
_cell_length_b   8.27406661
_cell_length_c   8.27406670
_cell_angle_alpha   112.14291001
_cell_angle_beta   109.90596095
_cell_angle_gamma   106.41571819
_symmetry_Int_Tables_number   1
_chemical_formula_structural   Ho12GaCo3NiHg
_chemical_formula_sum   'Ho12 Ga1 Co3 Ni1 Hg1'
_cell_volume   434.94942083
_cell_formula_units_Z   1
loop_
 _symmetry_equiv_pos_site_id
 _symmetry_equiv_pos_as_xyz
  1  'x, y, z'
loop_
 _atom_site_type_symbol
 _atom_site_label
 _atom_site_symmetry_multiplicity
 _atom_site_fract_x
 _atom_site_fract_y
 _atom_site_fract_z
 _atom_site_occupancy
  Ho  Ho0  1  0.959556  0.262937  0.696619  1
  Ho  Ho1  1  0.040030  0.737266  0.302764  1
  Ho  Ho2  1  0.674631  0.861372  0.186740  1
  Ho  Ho3  1  0.329036  0.516905  0.187867  1
  Ho  Ho4  1  0.329036  0.141168  0.812133  1
  Ho  Ho5  1  0.674631  0.487891  0.813260  1
  Ho  Ho6  1  0.566318  0.262937  0.303381  1
  Ho  Ho7  1  0.434502  0.737266  0.697236  1
  Ho  Ho8  1  0.179447  0.777528  0.959887  1
  Ho  Ho9  1  0.817641  0.777528  0.598082  1
  Ho  Ho10  1  0.179447  0.219560  0.401918  1
  Ho  Ho11  1  0.817641  0.219560  0.040113  1
  Ga  Ga12  1  0.000140  0.500140  0.500000  1
  Co  Co13  1  0.883956  0.883956  0.000000  1
  Co  Co14  1  0.662191  0.498957  0.163234  1
  Co  Co15  1  0.335724  0.498957  0.836766  1
  Ni  Ni16  1  0.116495  0.116495  0.000000  1
  Hg  Hg17  1  0.499575  0.999575  0.500000  1
