# generated using pymatgen
data_Y2Tm2B12IrRu
_symmetry_space_group_name_H-M   'P 1'
_cell_length_a   3.63778900
_cell_length_b   9.13761187
_cell_length_c   11.48175512
_cell_angle_alpha   90.05029105
_cell_angle_beta   90.00000000
_cell_angle_gamma   90.00000000
_symmetry_Int_Tables_number   1
_chemical_formula_structural   Y2Tm2B12IrRu
_chemical_formula_sum   'Y4 Tm4 B24 Ir2 Ru2'
_cell_volume   381.66147566
_cell_formula_units_Z   2
loop_
 _symmetry_equiv_pos_site_id
 _symmetry_equiv_pos_as_xyz
  1  'x, y, z'
loop_
 _atom_site_type_symbol
 _atom_site_label
 _atom_site_symmetry_multiplicity
 _atom_site_fract_x
 _atom_site_fract_y
 _atom_site_fract_z
 _atom_site_occupancy
  Y  Y0  1  0.000000  0.318404  0.412372  1
  Y  Y1  1  0.000000  0.681596  0.587628  1
  Y  Y2  1  0.000000  0.822347  0.084901  1
  Y  Y3  1  0.000000  0.177653  0.915099  1
  Tm  Tm4  1  0.000000  0.945862  0.372658  1
  Tm  Tm5  1  0.000000  0.054138  0.627342  1
  Tm  Tm6  1  0.000000  0.442182  0.125981  1
  Tm  Tm7  1  0.000000  0.557818  0.874019  1
  B  B8  1  0.500000  0.553515  0.433478  1
  B  B9  1  0.500000  0.446485  0.566522  1
  B  B10  1  0.500000  0.054523  0.067123  1
  B  B11  1  0.500000  0.945477  0.932877  1
  B  B12  1  0.500000  0.751560  0.419686  1
  B  B13  1  0.500000  0.248440  0.580314  1
  B  B14  1  0.500000  0.249059  0.080706  1
  B  B15  1  0.500000  0.750941  0.919294  1
  B  B16  1  0.500000  0.792926  0.265597  1
  B  B17  1  0.500000  0.207074  0.734403  1
  B  B18  1  0.500000  0.291971  0.234481  1
  B  B19  1  0.500000  0.708029  0.765519  1
  B  B20  1  0.500000  0.630799  0.183677  1
  B  B21  1  0.500000  0.369201  0.816323  1
  B  B22  1  0.500000  0.131326  0.315338  1
  B  B23  1  0.500000  0.868674  0.684662  1
  B  B24  1  0.500000  0.983496  0.213325  1
  B  B25  1  0.500000  0.016504  0.786675  1
  B  B26  1  0.500000  0.481784  0.286013  1
  B  B27  1  0.500000  0.518216  0.713987  1
  B  B28  1  0.500000  0.606972  0.029466  1
  B  B29  1  0.500000  0.393028  0.970534  1
  B  B30  1  0.500000  0.106747  0.471199  1
  B  B31  1  0.500000  0.893253  0.528801  1
  Ir  Ir32  1  0.000000  0.638018  0.321334  1
  Ir  Ir33  1  0.000000  0.361982  0.678666  1
  Ru  Ru34  1  0.000000  0.138474  0.179659  1
  Ru  Ru35  1  0.000000  0.861526  0.820341  1
