# generated using pymatgen
data_NaHo6Co3Sn23Ir3
_symmetry_space_group_name_H-M   'P 1'
_cell_length_a   9.78623100
_cell_length_b   9.78622918
_cell_length_c   10.02696200
_cell_angle_alpha   90.00000000
_cell_angle_beta   90.00000000
_cell_angle_gamma   119.99998924
_symmetry_Int_Tables_number   1
_chemical_formula_structural   NaHo6Co3Sn23Ir3
_chemical_formula_sum   'Na1 Ho6 Co3 Sn23 Ir3'
_cell_volume   831.63142755
_cell_formula_units_Z   1
loop_
 _symmetry_equiv_pos_site_id
 _symmetry_equiv_pos_as_xyz
  1  'x, y, z'
loop_
 _atom_site_type_symbol
 _atom_site_label
 _atom_site_symmetry_multiplicity
 _atom_site_fract_x
 _atom_site_fract_y
 _atom_site_fract_z
 _atom_site_occupancy
  Na  Na0  1  0.000000  0.000000  0.987351  1
  Ho  Ho1  1  0.518634  0.481366  0.696145  1
  Ho  Ho2  1  0.518634  0.037268  0.696145  1
  Ho  Ho3  1  0.962732  0.481366  0.696145  1
  Ho  Ho4  1  0.038249  0.519125  0.306051  1
  Ho  Ho5  1  0.480875  0.961751  0.306051  1
  Ho  Ho6  1  0.480875  0.519125  0.306051  1
  Co  Co7  1  0.341564  0.170783  0.204300  1
  Co  Co8  1  0.829217  0.658436  0.204300  1
  Co  Co9  1  0.829217  0.170783  0.204300  1
  Sn  Sn10  1  0.666667  0.333333  0.184438  1
  Sn  Sn11  1  0.666667  0.333333  0.881380  1
  Sn  Sn12  1  0.333333  0.666667  0.123782  1
  Sn  Sn13  1  0.349591  0.343233  0.005589  1
  Sn  Sn14  1  0.993642  0.650409  0.005589  1
  Sn  Sn15  1  0.656767  0.006358  0.005589  1
  Sn  Sn16  1  0.656767  0.650409  0.005589  1
  Sn  Sn17  1  0.333333  0.666667  0.828155  1
  Sn  Sn18  1  0.438979  0.219490  0.453900  1
  Sn  Sn19  1  0.222113  0.777887  0.539426  1
  Sn  Sn20  1  0.222113  0.444225  0.539426  1
  Sn  Sn21  1  0.555775  0.777887  0.539426  1
  Sn  Sn22  1  0.116040  0.883960  0.271483  1
  Sn  Sn23  1  0.780510  0.561021  0.453900  1
  Sn  Sn24  1  0.780510  0.219490  0.453900  1
  Sn  Sn25  1  0.349591  0.006358  0.005589  1
  Sn  Sn26  1  0.116040  0.232079  0.271483  1
  Sn  Sn27  1  0.767921  0.883960  0.271483  1
  Sn  Sn28  1  0.235874  0.117937  0.717438  1
  Sn  Sn29  1  0.882063  0.764126  0.717438  1
  Sn  Sn30  1  0.882063  0.117937  0.717438  1
  Sn  Sn31  1  0.000000  0.000000  0.496458  1
  Sn  Sn32  1  0.993642  0.343233  0.005589  1
  Ir  Ir33  1  0.171985  0.828015  0.799560  1
  Ir  Ir34  1  0.171985  0.343969  0.799560  1
  Ir  Ir35  1  0.656031  0.828015  0.799560  1
