# generated using pymatgen
data_ZnCu(S2O7)2
_symmetry_space_group_name_H-M   'P 1'
_cell_length_a   5.04804948
_cell_length_b   7.05722140
_cell_length_c   8.40284905
_cell_angle_alpha   94.55891503
_cell_angle_beta   90.02707948
_cell_angle_gamma   106.71546544
_symmetry_Int_Tables_number   1
_chemical_formula_structural   ZnCu(S2O7)2
_chemical_formula_sum   'Zn1 Cu1 S4 O14'
_cell_volume   285.71153430
_cell_formula_units_Z   1
loop_
 _symmetry_equiv_pos_site_id
 _symmetry_equiv_pos_as_xyz
  1  'x, y, z'
loop_
 _atom_site_type_symbol
 _atom_site_label
 _atom_site_symmetry_multiplicity
 _atom_site_fract_x
 _atom_site_fract_y
 _atom_site_fract_z
 _atom_site_occupancy
  Zn  Zn0  1  0.500000  0.000000  0.500000  1
  Cu  Cu1  1  0.000000  0.500000  0.000000  1
  S  S2  1  0.483498  0.647599  0.766267  1
  S  S3  1  0.516502  0.352401  0.233733  1
  S  S4  1  0.117272  0.253334  0.687329  1
  S  S5  1  0.882728  0.746666  0.312671  1
  O  O6  1  0.696801  0.562276  0.810537  1
  O  O7  1  0.303199  0.437724  0.189463  1
  O  O8  1  0.306696  0.687999  0.896853  1
  O  O9  1  0.693304  0.312001  0.103147  1
  O  O10  1  0.573444  0.813799  0.668365  1
  O  O11  1  0.426556  0.186201  0.331635  1
  O  O12  1  0.268482  0.479010  0.638367  1
  O  O13  1  0.731518  0.520990  0.361633  1
  O  O14  1  0.896944  0.191479  0.566951  1
  O  O15  1  0.103056  0.808521  0.433049  1
  O  O16  1  0.322568  0.143840  0.676472  1
  O  O17  1  0.677432  0.856160  0.323528  1
  O  O18  1  0.030239  0.271229  0.853369  1
  O  O19  1  0.969761  0.728771  0.146631  1
