# generated using pymatgen
data_SrLaNbFeO6
_symmetry_space_group_name_H-M   'P 1'
_cell_length_a   8.16283364
_cell_length_b   8.16973286
_cell_length_c   9.87200713
_cell_angle_alpha   66.04827585
_cell_angle_beta   66.10358516
_cell_angle_gamma   91.09803623
_symmetry_Int_Tables_number   1
_chemical_formula_structural   SrLaNbFeO6
_chemical_formula_sum   'Sr4 La4 Nb4 Fe4 O24'
_cell_volume   536.63388858
_cell_formula_units_Z   4
loop_
 _symmetry_equiv_pos_site_id
 _symmetry_equiv_pos_as_xyz
  1  'x, y, z'
loop_
 _atom_site_type_symbol
 _atom_site_label
 _atom_site_symmetry_multiplicity
 _atom_site_fract_x
 _atom_site_fract_y
 _atom_site_fract_z
 _atom_site_occupancy
  Sr  Sr0  1  0.400899  0.858202  0.249469  1
  Sr  Sr1  1  0.899579  0.357833  0.250597  1
  Sr  Sr2  1  0.108015  0.150168  0.749710  1
  Sr  Sr3  1  0.607514  0.649676  0.749571  1
  La  La4  1  0.090145  0.643236  0.753996  1
  La  La5  1  0.590037  0.144292  0.754484  1
  La  La6  1  0.394618  0.340047  0.254474  1
  La  La7  1  0.893395  0.840535  0.255278  1
  Nb  Nb8  1  0.751993  0.247494  0.000033  1
  Nb  Nb9  1  0.251070  0.746972  0.001096  1
  Nb  Nb10  1  0.497559  0.501795  0.499989  1
  Nb  Nb11  1  0.997149  0.001555  0.501077  1
  Fe  Fe12  1  0.500228  0.998059  0.500721  1
  Fe  Fe13  1  0.748142  0.749945  0.000543  1
  Fe  Fe14  1  0.000117  0.498063  0.500796  1
  Fe  Fe15  1  0.247903  0.250311  0.000932  1
  O  O16  1  0.260529  0.986930  0.454981  1
  O  O17  1  0.761028  0.488253  0.454536  1
  O  O18  1  0.738544  0.511485  0.953375  1
  O  O19  1  0.237332  0.009954  0.955220  1
  O  O20  1  0.236859  0.528132  0.548472  1
  O  O21  1  0.736434  0.028326  0.549145  1
  O  O22  1  0.778244  0.986819  0.048992  1
  O  O23  1  0.277643  0.486651  0.049493  1
  O  O24  1  0.571930  0.765446  0.450806  1
  O  O25  1  0.072287  0.266054  0.451083  1
  O  O26  1  0.015398  0.322521  0.949983  1
  O  O27  1  0.516687  0.821047  0.951422  1
  O  O28  1  0.942006  0.739486  0.539840  1
  O  O29  1  0.442848  0.240012  0.539857  1
  O  O30  1  0.490715  0.192800  0.039168  1
  O  O31  1  0.987941  0.692516  0.041007  1
  O  O32  1  0.929639  0.902958  0.742151  1
  O  O33  1  0.428467  0.401953  0.744306  1
  O  O34  1  0.152594  0.679077  0.243156  1
  O  O35  1  0.652681  0.179381  0.243667  1
  O  O36  1  0.562269  0.583232  0.257496  1
  O  O37  1  0.062216  0.084683  0.255883  1
  O  O38  1  0.333552  0.811666  0.756900  1
  O  O39  1  0.833793  0.312433  0.756297  1
