# generated using pymatgen
data_Ac2PaN3
_symmetry_space_group_name_H-M   'P 1'
_cell_length_a   6.40877713
_cell_length_b   6.40877433
_cell_length_c   6.31482800
_cell_angle_alpha   99.75350375
_cell_angle_beta   99.75349039
_cell_angle_gamma   119.96518516
_symmetry_Int_Tables_number   1
_chemical_formula_structural   Ac2PaN3
_chemical_formula_sum   'Ac4 Pa2 N6'
_cell_volume   211.41959216
_cell_formula_units_Z   2
loop_
 _symmetry_equiv_pos_site_id
 _symmetry_equiv_pos_as_xyz
  1  'x, y, z'
loop_
 _atom_site_type_symbol
 _atom_site_label
 _atom_site_symmetry_multiplicity
 _atom_site_fract_x
 _atom_site_fract_y
 _atom_site_fract_z
 _atom_site_occupancy
  Ac  Ac0  1  0.835701  0.164299  0.500000  1
  Ac  Ac1  1  0.164299  0.835701  0.500000  1
  Ac  Ac2  1  0.500000  0.500000  0.500000  1
  Ac  Ac3  1  0.000000  0.000000  0.000000  1
  Pa  Pa4  1  0.333393  0.666607  0.000000  1
  Pa  Pa5  1  0.666607  0.333393  0.000000  1
  N  N6  1  0.436255  0.069052  0.206894  1
  N  N7  1  0.930948  0.563745  0.793106  1
  N  N8  1  0.563745  0.930948  0.793106  1
  N  N9  1  0.069052  0.436255  0.206894  1
  N  N10  1  0.698535  0.698535  0.197952  1
  N  N11  1  0.301465  0.301465  0.802048  1
