# generated using pymatgen
data_Sm3Y13(HgPt)4
_symmetry_space_group_name_H-M   'P 1'
_cell_length_a   9.72233941
_cell_length_b   9.72047349
_cell_length_c   9.72050713
_cell_angle_alpha   60.00742816
_cell_angle_beta   60.08169186
_cell_angle_gamma   60.08154948
_symmetry_Int_Tables_number   1
_chemical_formula_structural   Sm3Y13(HgPt)4
_chemical_formula_sum   'Sm3 Y13 Hg4 Pt4'
_cell_volume   650.41604407
_cell_formula_units_Z   1
loop_
 _symmetry_equiv_pos_site_id
 _symmetry_equiv_pos_as_xyz
  1  'x, y, z'
loop_
 _atom_site_type_symbol
 _atom_site_label
 _atom_site_symmetry_multiplicity
 _atom_site_fract_x
 _atom_site_fract_y
 _atom_site_fract_z
 _atom_site_occupancy
  Sm  Sm0  1  0.351746  0.352857  0.352857  1
  Sm  Sm1  1  0.357812  0.357087  0.931510  1
  Sm  Sm2  1  0.357812  0.931511  0.357086  1
  Y  Y3  1  0.930873  0.357823  0.357825  1
  Y  Y4  1  0.810896  0.190297  0.190298  1
  Y  Y5  1  0.186963  0.812655  0.812657  1
  Y  Y6  1  0.189398  0.811875  0.189286  1
  Y  Y7  1  0.811555  0.188465  0.811753  1
  Y  Y8  1  0.189399  0.189285  0.811875  1
  Y  Y9  1  0.811553  0.811751  0.188464  1
  Y  Y10  1  0.937106  0.564804  0.564804  1
  Y  Y11  1  0.563970  0.936520  0.936517  1
  Y  Y12  1  0.565013  0.936256  0.565129  1
  Y  Y13  1  0.937423  0.563390  0.936861  1
  Y  Y14  1  0.565014  0.565130  0.936253  1
  Y  Y15  1  0.937423  0.936859  0.563392  1
  Hg  Hg16  1  0.589445  0.585781  0.585782  1
  Hg  Hg17  1  0.587748  0.584770  0.237833  1
  Hg  Hg18  1  0.587748  0.237836  0.584769  1
  Hg  Hg19  1  0.238118  0.585508  0.585509  1
  Pt  Pt20  1  0.142546  0.145603  0.145600  1
  Pt  Pt21  1  0.139561  0.142453  0.570002  1
  Pt  Pt22  1  0.139562  0.570001  0.142454  1
  Pt  Pt23  1  0.571317  0.141484  0.141482  1
