# generated using pymatgen
data_NaCaGePd3
_symmetry_space_group_name_H-M   'P 1'
_cell_length_a   5.18791947
_cell_length_b   5.18792059
_cell_length_c   5.18791933
_cell_angle_alpha   65.85594709
_cell_angle_beta   65.85594346
_cell_angle_gamma   65.85593746
_symmetry_Int_Tables_number   1
_chemical_formula_structural   NaCaGePd3
_chemical_formula_sum   'Na1 Ca1 Ge1 Pd3'
_cell_volume   111.26233746
_cell_formula_units_Z   1
loop_
 _symmetry_equiv_pos_site_id
 _symmetry_equiv_pos_as_xyz
  1  'x, y, z'
loop_
 _atom_site_type_symbol
 _atom_site_label
 _atom_site_symmetry_multiplicity
 _atom_site_fract_x
 _atom_site_fract_y
 _atom_site_fract_z
 _atom_site_occupancy
  Na  Na0  1  0.872778  0.872778  0.872778  1
  Ca  Ca1  1  0.124861  0.124861  0.124861  1
  Ge  Ge2  1  0.501119  0.501119  0.501119  1
  Pd  Pd3  1  0.500577  0.500577  0.000088  1
  Pd  Pd4  1  0.000088  0.500577  0.500577  1
  Pd  Pd5  1  0.500577  0.000088  0.500577  1
