# generated using pymatgen
data_Lu5Hf2P12Ir17
_symmetry_space_group_name_H-M   'P 1'
_cell_length_a   12.62795300
_cell_length_b   12.86244793
_cell_length_c   3.95125900
_cell_angle_alpha   90.00000000
_cell_angle_beta   90.00000000
_cell_angle_gamma   119.39873215
_symmetry_Int_Tables_number   1
_chemical_formula_structural   Lu5Hf2P12Ir17
_chemical_formula_sum   'Lu5 Hf2 P12 Ir17'
_cell_volume   559.14217433
_cell_formula_units_Z   1
loop_
 _symmetry_equiv_pos_site_id
 _symmetry_equiv_pos_as_xyz
  1  'x, y, z'
loop_
 _atom_site_type_symbol
 _atom_site_label
 _atom_site_symmetry_multiplicity
 _atom_site_fract_x
 _atom_site_fract_y
 _atom_site_fract_z
 _atom_site_occupancy
  Lu  Lu0  1  0.330378  0.661298  0.500000  1
  Lu  Lu1  1  0.669081  0.338702  0.500000  1
  Lu  Lu2  1  0.999589  0.815993  0.000000  1
  Lu  Lu3  1  0.183597  0.184007  0.000000  1
  Lu  Lu4  1  0.813181  0.000000  0.000000  1
  Hf  Hf5  1  0.997421  0.447360  0.500000  1
  Hf  Hf6  1  0.550061  0.552640  0.500000  1
  P  P7  1  0.005675  0.652255  0.500000  1
  P  P8  1  0.353420  0.347745  0.500000  1
  P  P9  1  0.646562  0.000000  0.500000  1
  P  P10  1  0.514442  0.686058  0.000000  1
  P  P11  1  0.309976  0.824699  0.000000  1
  P  P12  1  0.164739  0.481580  0.000000  1
  P  P13  1  0.485277  0.175301  0.000000  1
  P  P14  1  0.683159  0.518420  0.000000  1
  P  P15  1  0.828384  0.313942  0.000000  1
  P  P16  1  0.999351  0.173014  0.500000  1
  P  P17  1  0.826336  0.826986  0.500000  1
  P  P18  1  0.180895  0.000000  0.500000  1
  Ir  Ir19  1  0.503951  0.863028  0.000000  1
  Ir  Ir20  1  0.128482  0.642515  0.000000  1
  Ir  Ir21  1  0.355537  0.497266  0.000000  1
  Ir  Ir22  1  0.485968  0.357485  0.000000  1
  Ir  Ir23  1  0.858273  0.502734  0.000000  1
  Ir  Ir24  1  0.640925  0.136972  0.000000  1
  Ir  Ir25  1  0.465410  0.000000  0.500000  1
  Ir  Ir26  1  0.997061  0.278697  0.000000  1
  Ir  Ir27  1  0.718365  0.721303  0.000000  1
  Ir  Ir28  1  0.288610  0.000000  0.000000  1
  Ir  Ir29  1  0.625333  0.808881  0.500000  1
  Ir  Ir30  1  0.202342  0.824737  0.500000  1
  Ir  Ir31  1  0.177861  0.365347  0.500000  1
  Ir  Ir32  1  0.377605  0.175263  0.500000  1
  Ir  Ir33  1  0.812514  0.634653  0.500000  1
  Ir  Ir34  1  0.816452  0.191119  0.500000  1
  Ir  Ir35  1  0.003787  0.000000  0.500000  1
