# generated using pymatgen
data_LiHf4Sc3(Si4Mo3)4
_symmetry_space_group_name_H-M   'P 1'
_cell_length_a   6.54995385
_cell_length_b   6.75350920
_cell_length_c   12.67597368
_cell_angle_alpha   90.07721816
_cell_angle_beta   89.88069854
_cell_angle_gamma   90.11160765
_symmetry_Int_Tables_number   1
_chemical_formula_structural   LiHf4Sc3(Si4Mo3)4
_chemical_formula_sum   'Li1 Hf4 Sc3 Si16 Mo12'
_cell_volume   560.72111071
_cell_formula_units_Z   1
loop_
 _symmetry_equiv_pos_site_id
 _symmetry_equiv_pos_as_xyz
  1  'x, y, z'
loop_
 _atom_site_type_symbol
 _atom_site_label
 _atom_site_symmetry_multiplicity
 _atom_site_fract_x
 _atom_site_fract_y
 _atom_site_fract_z
 _atom_site_occupancy
  Li  Li0  1  0.976206  0.164904  0.085913  1
  Hf  Hf1  1  0.498618  0.329164  0.095051  1
  Hf  Hf2  1  0.996692  0.170345  0.406902  1
  Hf  Hf3  1  0.494398  0.330145  0.404922  1
  Hf  Hf4  1  0.505053  0.669167  0.593558  1
  Sc  Sc5  1  0.005976  0.830606  0.910434  1
  Sc  Sc6  1  0.503612  0.669220  0.909840  1
  Sc  Sc7  1  0.005114  0.832023  0.592965  1
  Si  Si8  1  0.033907  0.125693  0.751773  1
  Si  Si9  1  0.970283  0.878751  0.247132  1
  Si  Si10  1  0.464981  0.624380  0.250534  1
  Si  Si11  1  0.534826  0.377617  0.750537  1
  Si  Si12  1  0.301179  0.860112  0.751378  1
  Si  Si13  1  0.706667  0.138379  0.245402  1
  Si  Si14  1  0.189233  0.354012  0.242656  1
  Si  Si15  1  0.802821  0.641739  0.752649  1
  Si  Si16  1  0.168403  0.460740  0.543371  1
  Si  Si17  1  0.832159  0.541519  0.456938  1
  Si  Si18  1  0.334930  0.958936  0.457131  1
  Si  Si19  1  0.838759  0.531105  0.046886  1
  Si  Si20  1  0.668128  0.040495  0.542569  1
  Si  Si21  1  0.165806  0.458462  0.957016  1
  Si  Si22  1  0.664566  0.037117  0.956777  1
  Si  Si23  1  0.327513  0.969161  0.046307  1
  Mo  Mo24  1  0.168348  0.507010  0.749606  1
  Mo  Mo25  1  0.830857  0.492760  0.253034  1
  Mo  Mo26  1  0.336412  0.011000  0.252045  1
  Mo  Mo27  1  0.666909  0.993638  0.749067  1
  Mo  Mo28  1  0.333097  0.163393  0.623166  1
  Mo  Mo29  1  0.671457  0.840368  0.375330  1
  Mo  Mo30  1  0.169402  0.661810  0.376497  1
  Mo  Mo31  1  0.667395  0.831128  0.123434  1
  Mo  Mo32  1  0.831276  0.337653  0.622603  1
  Mo  Mo33  1  0.334206  0.164857  0.875798  1
  Mo  Mo34  1  0.829272  0.336288  0.875886  1
  Mo  Mo35  1  0.171537  0.666303  0.124893  1
