# generated using pymatgen
data_EuSb3Pb4O13
_symmetry_space_group_name_H-M   'P 1'
_cell_length_a   7.71827918
_cell_length_b   7.72405069
_cell_length_c   7.71725638
_cell_angle_alpha   59.53490123
_cell_angle_beta   59.48161619
_cell_angle_gamma   59.59939665
_symmetry_Int_Tables_number   1
_chemical_formula_structural   EuSb3Pb4O13
_chemical_formula_sum   'Eu1 Sb3 Pb4 O13'
_cell_volume   321.90870367
_cell_formula_units_Z   1
loop_
 _symmetry_equiv_pos_site_id
 _symmetry_equiv_pos_as_xyz
  1  'x, y, z'
loop_
 _atom_site_type_symbol
 _atom_site_label
 _atom_site_symmetry_multiplicity
 _atom_site_fract_x
 _atom_site_fract_y
 _atom_site_fract_z
 _atom_site_occupancy
  Eu  Eu0  1  0.500137  0.499835  0.500192  1
  Sb  Sb1  1  0.001127  0.500161  0.500113  1
  Sb  Sb2  1  0.500117  0.500155  0.001127  1
  Sb  Sb3  1  0.500101  0.001154  0.500086  1
  Pb  Pb4  1  0.998822  0.998857  0.998770  1
  Pb  Pb5  1  0.496828  0.004070  0.004034  1
  Pb  Pb6  1  0.004082  0.003932  0.496996  1
  Pb  Pb7  1  0.004266  0.496234  0.004111  1
  O  O8  1  0.864033  0.411180  0.412364  1
  O  O9  1  0.415560  0.811301  0.811857  1
  O  O10  1  0.412391  0.411514  0.863759  1
  O  O11  1  0.811782  0.811275  0.415565  1
  O  O12  1  0.811831  0.416131  0.811885  1
  O  O13  1  0.410775  0.865820  0.411139  1
  O  O14  1  0.142563  0.585299  0.583815  1
  O  O15  1  0.584328  0.188940  0.188286  1
  O  O16  1  0.583774  0.584947  0.142860  1
  O  O17  1  0.188347  0.188955  0.584388  1
  O  O18  1  0.188398  0.583754  0.188340  1
  O  O19  1  0.585416  0.140789  0.585082  1
  O  O20  1  0.120324  0.120700  0.120232  1
