# generated using pymatgen
data_Li(SmAg3)2
_symmetry_space_group_name_H-M   'P 1'
_cell_length_a   5.42584944
_cell_length_b   5.42585121
_cell_length_c   14.13517300
_cell_angle_alpha   90.00000000
_cell_angle_beta   90.00000000
_cell_angle_gamma   116.42570618
_symmetry_Int_Tables_number   1
_chemical_formula_structural   Li(SmAg3)2
_chemical_formula_sum   'Li2 Sm4 Ag12'
_cell_volume   372.65610860
_cell_formula_units_Z   2
loop_
 _symmetry_equiv_pos_site_id
 _symmetry_equiv_pos_as_xyz
  1  'x, y, z'
loop_
 _atom_site_type_symbol
 _atom_site_label
 _atom_site_symmetry_multiplicity
 _atom_site_fract_x
 _atom_site_fract_y
 _atom_site_fract_z
 _atom_site_occupancy
  Li  Li0  1  0.830674  0.830674  0.250000  1
  Li  Li1  1  0.169326  0.169326  0.750000  1
  Sm  Sm2  1  0.322610  0.322610  0.111371  1
  Sm  Sm3  1  0.677390  0.677390  0.611371  1
  Sm  Sm4  1  0.322610  0.322610  0.388629  1
  Sm  Sm5  1  0.677390  0.677390  0.888629  1
  Ag  Ag6  1  0.833996  0.333245  0.250000  1
  Ag  Ag7  1  0.166004  0.666755  0.750000  1
  Ag  Ag8  1  0.333245  0.833996  0.250000  1
  Ag  Ag9  1  0.666755  0.166004  0.750000  1
  Ag  Ag10  1  0.989745  0.668042  0.077271  1
  Ag  Ag11  1  0.010255  0.331958  0.577271  1
  Ag  Ag12  1  0.668042  0.989745  0.422729  1
  Ag  Ag13  1  0.331958  0.010255  0.922729  1
  Ag  Ag14  1  0.010255  0.331958  0.922729  1
  Ag  Ag15  1  0.989745  0.668042  0.422729  1
  Ag  Ag16  1  0.331958  0.010255  0.577271  1
  Ag  Ag17  1  0.668042  0.989745  0.077271  1
