# generated using pymatgen
data_TbEr9(In2Pd)4
_symmetry_space_group_name_H-M   'P 1'
_cell_length_a   3.59561200
_cell_length_b   8.13163924
_cell_length_c   18.22256655
_cell_angle_alpha   90.07630285
_cell_angle_beta   90.00000000
_cell_angle_gamma   90.00000000
_symmetry_Int_Tables_number   1
_chemical_formula_structural   TbEr9(In2Pd)4
_chemical_formula_sum   'Tb1 Er9 In8 Pd4'
_cell_volume   532.79493024
_cell_formula_units_Z   1
loop_
 _symmetry_equiv_pos_site_id
 _symmetry_equiv_pos_as_xyz
  1  'x, y, z'
loop_
 _atom_site_type_symbol
 _atom_site_label
 _atom_site_symmetry_multiplicity
 _atom_site_fract_x
 _atom_site_fract_y
 _atom_site_fract_z
 _atom_site_occupancy
  Tb  Tb0  1  0.000000  0.500000  0.500000  1
  Er  Er1  1  0.000000  0.000000  0.000000  1
  Er  Er2  1  0.000000  0.738907  0.280468  1
  Er  Er3  1  0.000000  0.261093  0.719532  1
  Er  Er4  1  0.000000  0.761178  0.781051  1
  Er  Er5  1  0.000000  0.238822  0.218949  1
  Er  Er6  1  0.000000  0.616586  0.083362  1
  Er  Er7  1  0.000000  0.383414  0.916638  1
  Er  Er8  1  0.000000  0.883003  0.583740  1
  Er  Er9  1  0.000000  0.116997  0.416260  1
  In  In10  1  0.500000  0.709302  0.932729  1
  In  In11  1  0.500000  0.290698  0.067271  1
  In  In12  1  0.500000  0.792761  0.432269  1
  In  In13  1  0.500000  0.207239  0.567731  1
  In  In14  1  0.500000  0.581944  0.650726  1
  In  In15  1  0.500000  0.418056  0.349274  1
  In  In16  1  0.500000  0.918445  0.149651  1
  In  In17  1  0.500000  0.081555  0.850349  1
  Pd  Pd18  1  0.500000  0.522793  0.195653  1
  Pd  Pd19  1  0.500000  0.477207  0.804347  1
  Pd  Pd20  1  0.500000  0.977315  0.696321  1
  Pd  Pd21  1  0.500000  0.022685  0.303679  1
