# generated using pymatgen
data_CeDy7AlPd24
_symmetry_space_group_name_H-M   'P 1'
_cell_length_a   8.37071084
_cell_length_b   8.37071066
_cell_length_c   8.37071100
_cell_angle_alpha   89.93232552
_cell_angle_beta   90.06767448
_cell_angle_gamma   90.06767223
_symmetry_Int_Tables_number   1
_chemical_formula_structural   CeDy7AlPd24
_chemical_formula_sum   'Ce1 Dy7 Al1 Pd24'
_cell_volume   586.52443582
_cell_formula_units_Z   1
loop_
 _symmetry_equiv_pos_site_id
 _symmetry_equiv_pos_as_xyz
  1  'x, y, z'
loop_
 _atom_site_type_symbol
 _atom_site_label
 _atom_site_symmetry_multiplicity
 _atom_site_fract_x
 _atom_site_fract_y
 _atom_site_fract_z
 _atom_site_occupancy
  Ce  Ce0  1  0.745589  0.254411  0.254411  1
  Dy  Dy1  1  0.251416  0.251966  0.251966  1
  Dy  Dy2  1  0.747857  0.747750  0.747750  1
  Dy  Dy3  1  0.748034  0.748584  0.251966  1
  Dy  Dy4  1  0.748034  0.251966  0.748584  1
  Dy  Dy5  1  0.252250  0.252143  0.747750  1
  Dy  Dy6  1  0.252250  0.747750  0.252143  1
  Dy  Dy7  1  0.252218  0.747782  0.747782  1
  Al  Al8  1  0.000536  0.999464  0.999464  1
  Pd  Pd9  1  0.259682  0.499808  0.999834  1
  Pd  Pd10  1  0.740367  0.498849  0.001689  1
  Pd  Pd11  1  0.998311  0.259633  0.498849  1
  Pd  Pd12  1  0.501151  0.259633  0.001689  1
  Pd  Pd13  1  0.000166  0.740318  0.499808  1
  Pd  Pd14  1  0.500192  0.740318  0.999834  1
  Pd  Pd15  1  0.501151  0.001689  0.259633  1
  Pd  Pd16  1  0.259682  0.999834  0.499808  1
  Pd  Pd17  1  0.500192  0.999834  0.740318  1
  Pd  Pd18  1  0.740367  0.001689  0.498849  1
  Pd  Pd19  1  0.998311  0.498849  0.259633  1
  Pd  Pd20  1  0.000166  0.499808  0.740318  1
  Pd  Pd21  1  0.252924  0.499925  0.499925  1
  Pd  Pd22  1  0.746852  0.498901  0.498901  1
  Pd  Pd23  1  0.501099  0.253148  0.498901  1
  Pd  Pd24  1  0.500075  0.747076  0.499925  1
  Pd  Pd25  1  0.501099  0.498901  0.253148  1
  Pd  Pd26  1  0.500075  0.499925  0.747076  1
  Pd  Pd27  1  0.289127  0.999922  0.999922  1
  Pd  Pd28  1  0.711331  0.000331  0.000331  1
  Pd  Pd29  1  0.999669  0.288669  0.000331  1
  Pd  Pd30  1  0.000078  0.710873  0.999922  1
  Pd  Pd31  1  0.999669  0.000331  0.288669  1
  Pd  Pd32  1  0.000078  0.999922  0.710873  1
