# generated using pymatgen
data_Tb4Mn3Fe(WO6)4
_symmetry_space_group_name_H-M   'P 1'
_cell_length_a   5.25103536
_cell_length_b   7.38541749
_cell_length_c   11.24394403
_cell_angle_alpha   89.96630837
_cell_angle_beta   90.50081344
_cell_angle_gamma   89.87997410
_symmetry_Int_Tables_number   1
_chemical_formula_structural   Tb4Mn3Fe(WO6)4
_chemical_formula_sum   'Tb4 Mn3 Fe1 W4 O24'
_cell_volume   436.03469280
_cell_formula_units_Z   1
loop_
 _symmetry_equiv_pos_site_id
 _symmetry_equiv_pos_as_xyz
  1  'x, y, z'
loop_
 _atom_site_type_symbol
 _atom_site_label
 _atom_site_symmetry_multiplicity
 _atom_site_fract_x
 _atom_site_fract_y
 _atom_site_fract_z
 _atom_site_occupancy
  Tb  Tb0  1  0.955401  0.253930  0.042016  1
  Tb  Tb1  1  0.458606  0.752686  0.456275  1
  Tb  Tb2  1  0.544664  0.253341  0.545035  1
  Tb  Tb3  1  0.041729  0.752191  0.956025  1
  Mn  Mn4  1  0.457512  0.505495  0.138271  1
  Mn  Mn5  1  0.957522  0.005858  0.362106  1
  Mn  Mn6  1  0.044887  0.505294  0.639245  1
  Fe  Fe7  1  0.538928  0.008365  0.860472  1
  W  W8  1  0.450803  0.998390  0.141665  1
  W  W9  1  0.957356  0.496488  0.356400  1
  W  W10  1  0.045384  0.995002  0.644780  1
  W  W11  1  0.543000  0.498339  0.856555  1
  O  O12  1  0.730042  0.543132  0.022569  1
  O  O13  1  0.736447  0.960517  0.028061  1
  O  O14  1  0.332114  0.750827  0.118287  1
  O  O15  1  0.569823  0.250470  0.143099  1
  O  O16  1  0.133821  0.071818  0.200024  1
  O  O17  1  0.114821  0.440598  0.211334  1
  O  O18  1  0.618286  0.940710  0.286681  1
  O  O19  1  0.635246  0.572131  0.301253  1
  O  O20  1  0.070078  0.751134  0.356951  1
  O  O21  1  0.832515  0.251099  0.382924  1
  O  O22  1  0.251963  0.458453  0.462473  1
  O  O23  1  0.233376  0.041298  0.480201  1
  O  O24  1  0.771614  0.540811  0.522488  1
  O  O25  1  0.751477  0.958095  0.539244  1
  O  O26  1  0.170649  0.751058  0.617374  1
  O  O27  1  0.935373  0.249504  0.644246  1
  O  O28  1  0.371140  0.068651  0.705594  1
  O  O29  1  0.384761  0.439025  0.709824  1
  O  O30  1  0.891203  0.938729  0.788756  1
  O  O31  1  0.862276  0.574159  0.800318  1
  O  O32  1  0.425635  0.748760  0.856030  1
  O  O33  1  0.671065  0.255112  0.881406  1
  O  O34  1  0.250306  0.457120  0.962473  1
  O  O35  1  0.260182  0.041821  0.979544  1
