# generated using pymatgen
data_YbDy3(B6Ru)2
_symmetry_space_group_name_H-M   'P 1'
_cell_length_a   3.66107600
_cell_length_b   9.14812782
_cell_length_c   11.53892357
_cell_angle_alpha   89.79405323
_cell_angle_beta   90.00000000
_cell_angle_gamma   90.00000000
_symmetry_Int_Tables_number   1
_chemical_formula_structural   YbDy3(B6Ru)2
_chemical_formula_sum   'Yb2 Dy6 B24 Ru4'
_cell_volume   386.45903046
_cell_formula_units_Z   2
loop_
 _symmetry_equiv_pos_site_id
 _symmetry_equiv_pos_as_xyz
  1  'x, y, z'
loop_
 _atom_site_type_symbol
 _atom_site_label
 _atom_site_symmetry_multiplicity
 _atom_site_fract_x
 _atom_site_fract_y
 _atom_site_fract_z
 _atom_site_occupancy
  Yb  Yb0  1  0.000000  0.325995  0.414866  1
  Yb  Yb1  1  0.000000  0.674005  0.585134  1
  Dy  Dy2  1  0.000000  0.823157  0.086302  1
  Dy  Dy3  1  0.000000  0.176843  0.913698  1
  Dy  Dy4  1  0.000000  0.941846  0.369715  1
  Dy  Dy5  1  0.000000  0.058154  0.630285  1
  Dy  Dy6  1  0.000000  0.442720  0.131270  1
  Dy  Dy7  1  0.000000  0.557280  0.868730  1
  B  B8  1  0.500000  0.554320  0.432508  1
  B  B9  1  0.500000  0.445680  0.567492  1
  B  B10  1  0.500000  0.053895  0.067037  1
  B  B11  1  0.500000  0.946105  0.932963  1
  B  B12  1  0.500000  0.747480  0.418277  1
  B  B13  1  0.500000  0.252520  0.581723  1
  B  B14  1  0.500000  0.247860  0.081186  1
  B  B15  1  0.500000  0.752140  0.918814  1
  B  B16  1  0.500000  0.790830  0.265281  1
  B  B17  1  0.500000  0.209170  0.734719  1
  B  B18  1  0.500000  0.289803  0.234269  1
  B  B19  1  0.500000  0.710197  0.765731  1
  B  B20  1  0.500000  0.632063  0.185796  1
  B  B21  1  0.500000  0.367937  0.814204  1
  B  B22  1  0.500000  0.131410  0.313770  1
  B  B23  1  0.500000  0.868590  0.686230  1
  B  B24  1  0.500000  0.983966  0.211630  1
  B  B25  1  0.500000  0.016034  0.788370  1
  B  B26  1  0.500000  0.484704  0.288547  1
  B  B27  1  0.500000  0.515296  0.711453  1
  B  B28  1  0.500000  0.604720  0.028868  1
  B  B29  1  0.500000  0.395280  0.971132  1
  B  B30  1  0.500000  0.100458  0.472125  1
  B  B31  1  0.500000  0.899542  0.527875  1
  Ru  Ru32  1  0.000000  0.639882  0.319413  1
  Ru  Ru33  1  0.000000  0.360118  0.680587  1
  Ru  Ru34  1  0.000000  0.137076  0.177926  1
  Ru  Ru35  1  0.000000  0.862924  0.822074  1
