# generated using pymatgen
data_Er2Sc3Si4(GePt3)3
_symmetry_space_group_name_H-M   'P 1'
_cell_length_a   10.13604500
_cell_length_b   10.13604571
_cell_length_c   4.01404100
_cell_angle_alpha   90.00000000
_cell_angle_beta   90.00000000
_cell_angle_gamma   120.00000093
_symmetry_Int_Tables_number   1
_chemical_formula_structural   Er2Sc3Si4(GePt3)3
_chemical_formula_sum   'Er2 Sc3 Si4 Ge3 Pt9'
_cell_volume   357.14906894
_cell_formula_units_Z   1
loop_
 _symmetry_equiv_pos_site_id
 _symmetry_equiv_pos_as_xyz
  1  'x, y, z'
loop_
 _atom_site_type_symbol
 _atom_site_label
 _atom_site_symmetry_multiplicity
 _atom_site_fract_x
 _atom_site_fract_y
 _atom_site_fract_z
 _atom_site_occupancy
  Er  Er0  1  0.000000  0.000000  0.000000  1
  Er  Er1  1  0.333333  0.666667  0.500000  1
  Sc  Sc2  1  0.893858  0.456819  0.500000  1
  Sc  Sc3  1  0.562962  0.106142  0.500000  1
  Sc  Sc4  1  0.543181  0.437038  0.500000  1
  Si  Si5  1  0.554525  0.645405  0.000000  1
  Si  Si6  1  0.354595  0.909120  0.000000  1
  Si  Si7  1  0.090880  0.445475  0.000000  1
  Si  Si8  1  0.666667  0.333333  0.000000  1
  Ge  Ge9  1  0.241813  0.193836  0.500000  1
  Ge  Ge10  1  0.806164  0.047979  0.500000  1
  Ge  Ge11  1  0.952021  0.758187  0.500000  1
  Pt  Pt12  1  0.230942  0.934765  0.500000  1
  Pt  Pt13  1  0.065235  0.296178  0.500000  1
  Pt  Pt14  1  0.703822  0.769058  0.500000  1
  Pt  Pt15  1  0.315190  0.417401  0.000000  1
  Pt  Pt16  1  0.582599  0.897789  0.000000  1
  Pt  Pt17  1  0.102211  0.684810  0.000000  1
  Pt  Pt18  1  0.389317  0.171298  0.000000  1
  Pt  Pt19  1  0.828702  0.218020  0.000000  1
  Pt  Pt20  1  0.781980  0.610683  0.000000  1
