# generated using pymatgen
data_Tb8HoErIr4
_symmetry_space_group_name_H-M   'P 1'
_cell_length_a   6.51788935
_cell_length_b   7.21388401
_cell_length_c   8.56372071
_cell_angle_alpha   96.46073488
_cell_angle_beta   112.36790450
_cell_angle_gamma   90.00000560
_symmetry_Int_Tables_number   1
_chemical_formula_structural   Tb8HoErIr4
_chemical_formula_sum   'Tb8 Ho1 Er1 Ir4'
_cell_volume   369.59695078
_cell_formula_units_Z   1
loop_
 _symmetry_equiv_pos_site_id
 _symmetry_equiv_pos_as_xyz
  1  'x, y, z'
loop_
 _atom_site_type_symbol
 _atom_site_label
 _atom_site_symmetry_multiplicity
 _atom_site_fract_x
 _atom_site_fract_y
 _atom_site_fract_z
 _atom_site_occupancy
  Tb  Tb0  1  0.971038  0.918052  0.181697  1
  Tb  Tb1  1  0.789342  0.581948  0.818303  1
  Tb  Tb2  1  0.029073  0.081722  0.818242  1
  Tb  Tb3  1  0.210830  0.418278  0.181758  1
  Tb  Tb4  1  0.653405  0.817365  0.440501  1
  Tb  Tb5  1  0.212903  0.682635  0.559499  1
  Tb  Tb6  1  0.346410  0.182556  0.559274  1
  Tb  Tb7  1  0.787136  0.317444  0.440726  1
  Ho  Ho8  1  0.571316  0.250000  0.000000  1
  Er  Er9  1  0.428727  0.750000  0.000000  1
  Ir  Ir10  1  0.823618  0.573051  0.218575  1
  Ir  Ir11  1  0.605043  0.926949  0.781425  1
  Ir  Ir12  1  0.176298  0.427414  0.781435  1
  Ir  Ir13  1  0.394862  0.072586  0.218565  1
