# generated using pymatgen
data_Y(TcO4)3
_symmetry_space_group_name_H-M   'P 1'
_cell_length_a   9.98928500
_cell_length_b   9.98928512
_cell_length_c   6.26089700
_cell_angle_alpha   90.00000000
_cell_angle_beta   90.00000000
_cell_angle_gamma   120.00000204
_symmetry_Int_Tables_number   1
_chemical_formula_structural   Y(TcO4)3
_chemical_formula_sum   'Y2 Tc6 O24'
_cell_volume   541.04824789
_cell_formula_units_Z   2
loop_
 _symmetry_equiv_pos_site_id
 _symmetry_equiv_pos_as_xyz
  1  'x, y, z'
loop_
 _atom_site_type_symbol
 _atom_site_label
 _atom_site_symmetry_multiplicity
 _atom_site_fract_x
 _atom_site_fract_y
 _atom_site_fract_z
 _atom_site_occupancy
  Y  Y0  1  0.666667  0.333333  0.750000  1
  Y  Y1  1  0.333333  0.666667  0.250000  1
  Tc  Tc2  1  0.605160  0.702442  0.750000  1
  Tc  Tc3  1  0.097282  0.394840  0.750000  1
  Tc  Tc4  1  0.297558  0.902718  0.750000  1
  Tc  Tc5  1  0.394840  0.297558  0.250000  1
  Tc  Tc6  1  0.902718  0.605160  0.250000  1
  Tc  Tc7  1  0.702442  0.097282  0.250000  1
  O  O8  1  0.560098  0.509643  0.750000  1
  O  O9  1  0.949544  0.439902  0.750000  1
  O  O10  1  0.490357  0.050456  0.750000  1
  O  O11  1  0.439902  0.490357  0.250000  1
  O  O12  1  0.050456  0.560098  0.250000  1
  O  O13  1  0.509643  0.949544  0.250000  1
  O  O14  1  0.473625  0.260168  0.022223  1
  O  O15  1  0.786541  0.526375  0.022223  1
  O  O16  1  0.739832  0.213459  0.022223  1
  O  O17  1  0.526375  0.739832  0.522223  1
  O  O18  1  0.213459  0.473625  0.522223  1
  O  O19  1  0.260168  0.786541  0.522223  1
  O  O20  1  0.526375  0.739832  0.977777  1
  O  O21  1  0.213459  0.473625  0.977777  1
  O  O22  1  0.260168  0.786541  0.977777  1
  O  O23  1  0.473625  0.260168  0.477777  1
  O  O24  1  0.786541  0.526375  0.477777  1
  O  O25  1  0.739832  0.213459  0.477777  1
  O  O26  1  0.800625  0.820300  0.750000  1
  O  O27  1  0.019675  0.199375  0.750000  1
  O  O28  1  0.179700  0.980325  0.750000  1
  O  O29  1  0.199375  0.179700  0.250000  1
  O  O30  1  0.980325  0.800625  0.250000  1
  O  O31  1  0.820300  0.019675  0.250000  1
