# generated using pymatgen
data_CeTm2In3Ir2Rh
_symmetry_space_group_name_H-M   'P 1'
_cell_length_a   7.52653110
_cell_length_b   7.52653309
_cell_length_c   3.84679900
_cell_angle_alpha   90.00000000
_cell_angle_beta   90.00000000
_cell_angle_gamma   118.24658696
_symmetry_Int_Tables_number   1
_chemical_formula_structural   CeTm2In3Ir2Rh
_chemical_formula_sum   'Ce1 Tm2 In3 Ir2 Rh1'
_cell_volume   191.96642351
_cell_formula_units_Z   1
loop_
 _symmetry_equiv_pos_site_id
 _symmetry_equiv_pos_as_xyz
  1  'x, y, z'
loop_
 _atom_site_type_symbol
 _atom_site_label
 _atom_site_symmetry_multiplicity
 _atom_site_fract_x
 _atom_site_fract_y
 _atom_site_fract_z
 _atom_site_occupancy
  Ce  Ce0  1  0.580439  0.580439  0.500000  1
  Tm  Tm1  1  0.405832  0.999717  0.500000  1
  Tm  Tm2  1  0.999717  0.405832  0.500000  1
  In  In3  1  0.741929  0.006901  0.000000  1
  In  In4  1  0.006901  0.741929  0.000000  1
  In  In5  1  0.248676  0.248676  0.000000  1
  Ir  Ir6  1  0.348042  0.668387  0.000000  1
  Ir  Ir7  1  0.668387  0.348042  0.000000  1
  Rh  Rh8  1  0.000074  0.000074  0.500000  1
