# generated using pymatgen
data_Yb3In(Ir2O7)2
_symmetry_space_group_name_H-M   'P 1'
_cell_length_a   7.25750861
_cell_length_b   7.15262212
_cell_length_c   7.25750800
_cell_angle_alpha   59.51372237
_cell_angle_beta   60.00000278
_cell_angle_gamma   59.51373215
_symmetry_Int_Tables_number   1
_chemical_formula_structural   Yb3In(Ir2O7)2
_chemical_formula_sum   'Yb3 In1 Ir4 O14'
_cell_volume   264.41975204
_cell_formula_units_Z   1
loop_
 _symmetry_equiv_pos_site_id
 _symmetry_equiv_pos_as_xyz
  1  'x, y, z'
loop_
 _atom_site_type_symbol
 _atom_site_label
 _atom_site_symmetry_multiplicity
 _atom_site_fract_x
 _atom_site_fract_y
 _atom_site_fract_z
 _atom_site_occupancy
  Yb  Yb0  1  0.125000  0.125000  0.125000  1
  Yb  Yb1  1  0.625000  0.125000  0.125000  1
  Yb  Yb2  1  0.125000  0.125000  0.625000  1
  In  In3  1  0.125000  0.625000  0.125000  1
  Ir  Ir4  1  0.625000  0.625000  0.125000  1
  Ir  Ir5  1  0.625000  0.125000  0.625000  1
  Ir  Ir6  1  0.125000  0.625000  0.625000  1
  Ir  Ir7  1  0.625000  0.625000  0.625000  1
  O  O8  1  0.241769  0.274695  0.241769  1
  O  O9  1  0.706209  0.293397  0.294184  1
  O  O10  1  0.706209  0.293397  0.706209  1
  O  O11  1  0.298543  0.696623  0.298543  1
  O  O12  1  0.706291  0.696623  0.298543  1
  O  O13  1  0.294184  0.293397  0.706209  1
  O  O14  1  0.951457  0.553377  0.543709  1
  O  O15  1  0.298543  0.696623  0.706291  1
  O  O16  1  0.955816  0.956603  0.543791  1
  O  O17  1  0.543791  0.956603  0.543791  1
  O  O18  1  0.543709  0.553377  0.951457  1
  O  O19  1  0.951457  0.553377  0.951457  1
  O  O20  1  0.543791  0.956603  0.955816  1
  O  O21  1  0.008231  0.975305  0.008231  1
