# generated using pymatgen
data_LiLa10Al2GeRu6
_symmetry_space_group_name_H-M   'P 1'
_cell_length_a   8.64663807
_cell_length_b   8.65608586
_cell_length_c   8.58821602
_cell_angle_alpha   109.52703086
_cell_angle_beta   109.37750760
_cell_angle_gamma   109.71987868
_symmetry_Int_Tables_number   1
_chemical_formula_structural   LiLa10Al2GeRu6
_chemical_formula_sum   'Li1 La10 Al2 Ge1 Ru6'
_cell_volume   493.52848061
_cell_formula_units_Z   1
loop_
 _symmetry_equiv_pos_site_id
 _symmetry_equiv_pos_as_xyz
  1  'x, y, z'
loop_
 _atom_site_type_symbol
 _atom_site_label
 _atom_site_symmetry_multiplicity
 _atom_site_fract_x
 _atom_site_fract_y
 _atom_site_fract_z
 _atom_site_occupancy
  Li  Li0  1  0.498228  0.999556  0.913081  1
  La  La1  1  0.249847  0.684981  0.440208  1
  La  La2  1  0.749255  0.805573  0.053706  1
  La  La3  1  0.437391  0.253513  0.691300  1
  La  La4  1  0.691338  0.440393  0.252809  1
  La  La5  1  0.054100  0.752610  0.809149  1
  La  La6  1  0.815329  0.058775  0.755792  1
  La  La7  1  0.217498  0.220323  0.219445  1
  La  La8  1  0.500941  0.998646  0.286900  1
  La  La9  1  0.285525  0.499118  0.998751  1
  La  La10  1  0.001462  0.287988  0.503389  1
  Al  Al11  1  0.912627  0.500105  0.000187  1
  Al  Al12  1  0.998058  0.910936  0.496675  1
  Ge  Ge13  1  0.593797  0.593029  0.593291  1
  Ru  Ru14  1  0.237166  0.128769  0.864081  1
  Ru  Ru15  1  0.744234  0.380616  0.631650  1
  Ru  Ru16  1  0.891353  0.263109  0.126167  1
  Ru  Ru17  1  0.119387  0.867190  0.250146  1
  Ru  Ru18  1  0.633026  0.746841  0.382440  1
  Ru  Ru19  1  0.369439  0.607930  0.730836  1
