# generated using pymatgen
data_CsTb9Sm(C2I9)2
_symmetry_space_group_name_H-M   'P 1'
_cell_length_a   11.42866860
_cell_length_b   11.47676092
_cell_length_c   11.54845261
_cell_angle_alpha   113.25056184
_cell_angle_beta   87.12222391
_cell_angle_gamma   119.55369555
_symmetry_Int_Tables_number   1
_chemical_formula_structural   CsTb9Sm(C2I9)2
_chemical_formula_sum   'Cs1 Tb9 Sm1 C4 I18'
_cell_volume   1190.70278442
_cell_formula_units_Z   1
loop_
 _symmetry_equiv_pos_site_id
 _symmetry_equiv_pos_as_xyz
  1  'x, y, z'
loop_
 _atom_site_type_symbol
 _atom_site_label
 _atom_site_symmetry_multiplicity
 _atom_site_fract_x
 _atom_site_fract_y
 _atom_site_fract_z
 _atom_site_occupancy
  Cs  Cs0  1  0.499995  0.999976  0.500075  1
  Tb  Tb1  1  0.675411  0.723224  0.709650  1
  Tb  Tb2  1  0.276965  0.353050  0.016574  1
  Tb  Tb3  1  0.093495  0.392892  0.293031  1
  Tb  Tb4  1  0.965823  0.038887  0.324128  1
  Tb  Tb5  1  0.906646  0.606261  0.706452  1
  Tb  Tb6  1  0.105292  0.944637  0.000539  1
  Tb  Tb7  1  0.034563  0.960975  0.675860  1
  Tb  Tb8  1  0.325555  0.277084  0.290835  1
  Tb  Tb9  1  0.723335  0.646770  0.983413  1
  Sm  Sm10  1  0.892447  0.056006  0.999458  1
  C  C11  1  0.154229  0.222198  0.123806  1
  C  C12  1  0.847557  0.776866  0.876163  1
  C  C13  1  0.922694  0.852399  0.800861  1
  C  C14  1  0.079106  0.146627  0.199087  1
  I  I15  1  0.448749  0.530064  0.831135  1
  I  I16  1  0.384732  0.039063  0.158070  1
  I  I17  1  0.776118  0.855343  0.500749  1
  I  I18  1  0.836239  0.314630  0.156022  1
  I  I19  1  0.551476  0.470105  0.168839  1
  I  I20  1  0.223974  0.144600  0.499392  1
  I  I21  1  0.316882  0.095393  0.831306  1
  I  I22  1  0.681891  0.903353  0.170064  1
  I  I23  1  0.977186  0.757478  0.168859  1
  I  I24  1  0.933129  0.299119  0.501550  1
  I  I25  1  0.024372  0.243908  0.829714  1
  I  I26  1  0.067029  0.700903  0.498365  1
  I  I27  1  0.261176  0.623040  0.183858  1
  I  I28  1  0.738699  0.376724  0.816123  1
  I  I29  1  0.640829  0.432519  0.498594  1
  I  I30  1  0.163445  0.689235  0.846526  1
  I  I31  1  0.611857  0.959210  0.839508  1
  I  I32  1  0.359103  0.567461  0.501393  1
