# generated using pymatgen
data_Zr4TaTi2NbP4
_symmetry_space_group_name_H-M   'P 1'
_cell_length_a   3.56969700
_cell_length_b   6.84627446
_cell_length_c   8.29942210
_cell_angle_alpha   89.84044779
_cell_angle_beta   90.00000000
_cell_angle_gamma   90.00000000
_symmetry_Int_Tables_number   1
_chemical_formula_structural   Zr4TaTi2NbP4
_chemical_formula_sum   'Zr4 Ta1 Ti2 Nb1 P4'
_cell_volume   202.82983107
_cell_formula_units_Z   1
loop_
 _symmetry_equiv_pos_site_id
 _symmetry_equiv_pos_as_xyz
  1  'x, y, z'
loop_
 _atom_site_type_symbol
 _atom_site_label
 _atom_site_symmetry_multiplicity
 _atom_site_fract_x
 _atom_site_fract_y
 _atom_site_fract_z
 _atom_site_occupancy
  Zr  Zr0  1  0.250000  0.536100  0.830593  1
  Zr  Zr1  1  0.750000  0.965056  0.330779  1
  Zr  Zr2  1  0.250000  0.037397  0.669961  1
  Zr  Zr3  1  0.750000  0.465126  0.167960  1
  Ta  Ta4  1  0.750000  0.861946  0.940729  1
  Ti  Ti5  1  0.250000  0.135569  0.061072  1
  Ti  Ti6  1  0.250000  0.635636  0.440160  1
  Nb  Nb7  1  0.750000  0.362750  0.558644  1
  P  P8  1  0.750000  0.739150  0.636395  1
  P  P9  1  0.250000  0.762211  0.143349  1
  P  P10  1  0.750000  0.236821  0.864671  1
  P  P11  1  0.250000  0.262240  0.355687  1
