# generated using pymatgen
data_Tb3ErGa18(PdRu2)2
_symmetry_space_group_name_H-M   'P 1'
_cell_length_a   7.54690780
_cell_length_b   7.54992887
_cell_length_c   9.65063900
_cell_angle_alpha   90.00000000
_cell_angle_beta   90.00000000
_cell_angle_gamma   119.36601120
_symmetry_Int_Tables_number   1
_chemical_formula_structural   Tb3ErGa18(PdRu2)2
_chemical_formula_sum   'Tb3 Er1 Ga18 Pd2 Ru4'
_cell_volume   479.22315385
_cell_formula_units_Z   1
loop_
 _symmetry_equiv_pos_site_id
 _symmetry_equiv_pos_as_xyz
  1  'x, y, z'
loop_
 _atom_site_type_symbol
 _atom_site_label
 _atom_site_symmetry_multiplicity
 _atom_site_fract_x
 _atom_site_fract_y
 _atom_site_fract_z
 _atom_site_occupancy
  Tb  Tb0  1  0.997013  0.673744  0.250000  1
  Tb  Tb1  1  0.002982  0.326157  0.750000  1
  Tb  Tb2  1  0.673828  0.997331  0.250000  1
  Er  Er3  1  0.326191  0.002319  0.750000  1
  Ga  Ga4  1  0.135235  0.135179  0.250000  1
  Ga  Ga5  1  0.865879  0.865575  0.750000  1
  Ga  Ga6  1  0.005079  0.340869  0.079180  1
  Ga  Ga7  1  0.995660  0.660131  0.919668  1
  Ga  Ga8  1  0.995660  0.660131  0.580332  1
  Ga  Ga9  1  0.340682  0.004551  0.421484  1
  Ga  Ga10  1  0.005079  0.340869  0.420820  1
  Ga  Ga11  1  0.658392  0.995323  0.580234  1
  Ga  Ga12  1  0.658392  0.995323  0.919766  1
  Ga  Ga13  1  0.340682  0.004551  0.078516  1
  Ga  Ga14  1  0.342612  0.341882  0.565674  1
  Ga  Ga15  1  0.657431  0.657463  0.435419  1
  Ga  Ga16  1  0.657431  0.657463  0.064581  1
  Ga  Ga17  1  0.342612  0.341882  0.934326  1
  Ga  Ga18  1  0.335645  0.551758  0.250000  1
  Ga  Ga19  1  0.663748  0.447343  0.750000  1
  Ga  Ga20  1  0.551326  0.335186  0.250000  1
  Ga  Ga21  1  0.448337  0.664791  0.750000  1
  Pd  Pd22  1  0.000153  0.000292  0.999615  1
  Pd  Pd23  1  0.000153  0.000292  0.500385  1
  Ru  Ru24  1  0.674311  0.325499  0.999782  1
  Ru  Ru25  1  0.325588  0.674299  0.999500  1
  Ru  Ru26  1  0.325588  0.674299  0.500500  1
  Ru  Ru27  1  0.674311  0.325499  0.500218  1
