# generated using pymatgen
data_Tb6Er6Co4IrPb
_symmetry_space_group_name_H-M   'P 1'
_cell_length_a   8.28976741
_cell_length_b   8.29840980
_cell_length_c   8.28976662
_cell_angle_alpha   110.83764861
_cell_angle_beta   110.66254913
_cell_angle_gamma   106.90235441
_symmetry_Int_Tables_number   1
_chemical_formula_structural   Tb6Er6Co4IrPb
_chemical_formula_sum   'Tb6 Er6 Co4 Ir1 Pb1'
_cell_volume   438.56258027
_cell_formula_units_Z   1
loop_
 _symmetry_equiv_pos_site_id
 _symmetry_equiv_pos_as_xyz
  1  'x, y, z'
loop_
 _atom_site_type_symbol
 _atom_site_label
 _atom_site_symmetry_multiplicity
 _atom_site_fract_x
 _atom_site_fract_y
 _atom_site_fract_z
 _atom_site_occupancy
  Tb  Tb0  1  0.182619  0.284971  0.469998  1
  Tb  Tb1  1  0.817381  0.715029  0.530002  1
  Tb  Tb2  1  0.185027  0.715029  0.897647  1
  Tb  Tb3  1  0.814973  0.284971  0.102353  1
  Tb  Tb4  1  0.313849  0.621439  0.307590  1
  Tb  Tb5  1  0.686151  0.378561  0.692410  1
  Er  Er6  1  0.314394  0.005886  0.691492  1
  Er  Er7  1  0.685606  0.994114  0.308508  1
  Er  Er8  1  0.408549  0.212729  0.193856  1
  Er  Er9  1  0.591451  0.787271  0.806144  1
  Er  Er10  1  0.018872  0.212729  0.804179  1
  Er  Er11  1  0.981128  0.787271  0.195821  1
  Co  Co12  1  0.111314  0.612434  0.501120  1
  Co  Co13  1  0.888686  0.387566  0.498880  1
  Co  Co14  1  0.376914  0.000000  0.376914  1
  Co  Co15  1  0.623086  0.000000  0.623086  1
  Ir  Ir16  1  0.000000  0.000000  0.000000  1
  Pb  Pb17  1  0.500000  0.500000  0.000000  1
