# generated using pymatgen
data_Tb2DyHo(Al3Ir)6
_symmetry_space_group_name_H-M   'P 1'
_cell_length_a   7.55215608
_cell_length_b   7.55273384
_cell_length_c   9.47331100
_cell_angle_alpha   90.00000000
_cell_angle_beta   90.00000000
_cell_angle_gamma   119.44487096
_symmetry_Int_Tables_number   1
_chemical_formula_structural   Tb2DyHo(Al3Ir)6
_chemical_formula_sum   'Tb2 Dy1 Ho1 Al18 Ir6'
_cell_volume   470.55442632
_cell_formula_units_Z   1
loop_
 _symmetry_equiv_pos_site_id
 _symmetry_equiv_pos_as_xyz
  1  'x, y, z'
loop_
 _atom_site_type_symbol
 _atom_site_label
 _atom_site_symmetry_multiplicity
 _atom_site_fract_x
 _atom_site_fract_y
 _atom_site_fract_z
 _atom_site_occupancy
  Tb  Tb0  1  0.005415  0.328463  0.750000  1
  Tb  Tb1  1  0.671511  0.994584  0.250000  1
  Dy  Dy2  1  0.994567  0.671558  0.250000  1
  Ho  Ho3  1  0.328420  0.005329  0.750000  1
  Al  Al4  1  0.129730  0.129665  0.250000  1
  Al  Al5  1  0.870629  0.870458  0.750000  1
  Al  Al6  1  0.001214  0.335478  0.074079  1
  Al  Al7  1  0.999178  0.665035  0.925712  1
  Al  Al8  1  0.999178  0.665035  0.574288  1
  Al  Al9  1  0.335102  0.001000  0.426223  1
  Al  Al10  1  0.001214  0.335478  0.425921  1
  Al  Al11  1  0.664394  0.998868  0.574352  1
  Al  Al12  1  0.664394  0.998868  0.925648  1
  Al  Al13  1  0.335102  0.001000  0.073777  1
  Al  Al14  1  0.333361  0.333056  0.551012  1
  Al  Al15  1  0.666748  0.666589  0.449495  1
  Al  Al16  1  0.666748  0.666589  0.050505  1
  Al  Al17  1  0.333361  0.333056  0.948988  1
  Al  Al18  1  0.339720  0.548444  0.250000  1
  Al  Al19  1  0.659883  0.451168  0.750000  1
  Al  Al20  1  0.548473  0.339769  0.250000  1
  Al  Al21  1  0.451553  0.660538  0.750000  1
  Ir  Ir22  1  0.671821  0.328053  0.999871  1
  Ir  Ir23  1  0.327995  0.672028  0.999875  1
  Ir  Ir24  1  0.327995  0.672028  0.500125  1
  Ir  Ir25  1  0.671821  0.328053  0.500129  1
  Ir  Ir26  1  0.000235  0.999906  0.999873  1
  Ir  Ir27  1  0.000235  0.999906  0.500127  1
