# generated using pymatgen
data_Y3In3GeIrRh
_symmetry_space_group_name_H-M   'P 1'
_cell_length_a   7.53401000
_cell_length_b   7.53401132
_cell_length_c   4.02975200
_cell_angle_alpha   90.00000000
_cell_angle_beta   90.00000000
_cell_angle_gamma   120.00000298
_symmetry_Int_Tables_number   1
_chemical_formula_structural   Y3In3GeIrRh
_chemical_formula_sum   'Y3 In3 Ge1 Ir1 Rh1'
_cell_volume   198.08947405
_cell_formula_units_Z   1
loop_
 _symmetry_equiv_pos_site_id
 _symmetry_equiv_pos_as_xyz
  1  'x, y, z'
loop_
 _atom_site_type_symbol
 _atom_site_label
 _atom_site_symmetry_multiplicity
 _atom_site_fract_x
 _atom_site_fract_y
 _atom_site_fract_z
 _atom_site_occupancy
  Y  Y0  1  0.989635  0.583565  0.500000  1
  Y  Y1  1  0.416435  0.406070  0.500000  1
  Y  Y2  1  0.593930  0.010365  0.500000  1
  In  In3  1  0.988172  0.246687  0.000000  1
  In  In4  1  0.258516  0.011828  0.000000  1
  In  In5  1  0.753313  0.741484  0.000000  1
  Ge  Ge6  1  0.333333  0.666667  0.000000  1
  Ir  Ir7  1  0.666667  0.333333  0.000000  1
  Rh  Rh8  1  0.000000  0.000000  0.500000  1
