# generated using pymatgen
data_Dy6HoTm(OsC2)4
_symmetry_space_group_name_H-M   'P 1'
_cell_length_a   5.12923200
_cell_length_b   6.44179250
_cell_length_c   9.77261087
_cell_angle_alpha   90.19110132
_cell_angle_beta   90.00000000
_cell_angle_gamma   90.00000000
_symmetry_Int_Tables_number   1
_chemical_formula_structural   Dy6HoTm(OsC2)4
_chemical_formula_sum   'Dy6 Ho1 Tm1 Os4 C8'
_cell_volume   322.89941985
_cell_formula_units_Z   1
loop_
 _symmetry_equiv_pos_site_id
 _symmetry_equiv_pos_as_xyz
  1  'x, y, z'
loop_
 _atom_site_type_symbol
 _atom_site_label
 _atom_site_symmetry_multiplicity
 _atom_site_fract_x
 _atom_site_fract_y
 _atom_site_fract_z
 _atom_site_occupancy
  Dy  Dy0  1  0.750000  0.815599  0.052531  1
  Dy  Dy1  1  0.250000  0.184558  0.947705  1
  Dy  Dy2  1  0.250000  0.525704  0.219607  1
  Dy  Dy3  1  0.750000  0.473884  0.779776  1
  Dy  Dy4  1  0.750000  0.974336  0.717167  1
  Dy  Dy5  1  0.250000  0.025981  0.282709  1
  Ho  Ho6  1  0.250000  0.682144  0.552166  1
  Tm  Tm7  1  0.750000  0.319607  0.446873  1
  Os  Os8  1  0.250000  0.725499  0.864482  1
  Os  Os9  1  0.750000  0.274362  0.135894  1
  Os  Os10  1  0.750000  0.774948  0.366501  1
  Os  Os11  1  0.250000  0.224928  0.633127  1
  C  C12  1  0.250000  0.460992  0.757199  1
  C  C13  1  0.750000  0.538515  0.243308  1
  C  C14  1  0.750000  0.039586  0.260017  1
  C  C15  1  0.250000  0.961140  0.741104  1
  C  C16  1  0.250000  0.824603  0.052751  1
  C  C17  1  0.750000  0.175366  0.947489  1
  C  C18  1  0.750000  0.671220  0.553682  1
  C  C19  1  0.250000  0.327029  0.445914  1
