# generated using pymatgen
data_Na2LiNi9As7Rh2
_symmetry_space_group_name_H-M   'P 1'
_cell_length_a   9.53602314
_cell_length_b   9.50630307
_cell_length_c   3.78352000
_cell_angle_alpha   90.00000000
_cell_angle_beta   90.00000000
_cell_angle_gamma   120.12646560
_symmetry_Int_Tables_number   1
_chemical_formula_structural   Na2LiNi9As7Rh2
_chemical_formula_sum   'Na2 Li1 Ni9 As7 Rh2'
_cell_volume   296.65437820
_cell_formula_units_Z   1
loop_
 _symmetry_equiv_pos_site_id
 _symmetry_equiv_pos_as_xyz
  1  'x, y, z'
loop_
 _atom_site_type_symbol
 _atom_site_label
 _atom_site_symmetry_multiplicity
 _atom_site_fract_x
 _atom_site_fract_y
 _atom_site_fract_z
 _atom_site_occupancy
  Na  Na0  1  0.332541  0.667793  0.000000  1
  Na  Na1  1  0.666948  0.332527  0.500000  1
  Li  Li2  1  0.219001  0.115857  0.500000  1
  Ni  Ni3  1  0.122678  0.282449  0.000000  1
  Ni  Ni4  1  0.713170  0.835638  0.000000  1
  Ni  Ni5  1  0.161630  0.882472  0.000000  1
  Ni  Ni6  1  0.429413  0.379727  0.000000  1
  Ni  Ni7  1  0.626218  0.055325  0.000000  1
  Ni  Ni8  1  0.945967  0.569518  0.000000  1
  Ni  Ni9  1  0.049578  0.434068  0.500000  1
  Ni  Ni10  1  0.566652  0.616989  0.500000  1
  Ni  Ni11  1  0.382710  0.953839  0.500000  1
  As  As12  1  0.292779  0.414409  0.500000  1
  As  As13  1  0.586721  0.880908  0.500000  1
  As  As14  1  0.120070  0.708542  0.500000  1
  As  As15  1  0.419376  0.120908  0.000000  1
  As  As16  1  0.880276  0.294265  0.000000  1
  As  As17  1  0.705274  0.584278  0.000000  1
  As  As18  1  0.994376  0.996535  0.000000  1
  Rh  Rh19  1  0.880246  0.092766  0.500000  1
  Rh  Rh20  1  0.904377  0.781186  0.500000  1
