# generated using pymatgen
data_YbNpInO6
_symmetry_space_group_name_H-M   'P 1'
_cell_length_a   5.50113000
_cell_length_b   7.69810339
_cell_length_c   11.78291469
_cell_angle_alpha   79.11193991
_cell_angle_beta   90.00000000
_cell_angle_gamma   90.00000000
_symmetry_Int_Tables_number   1
_chemical_formula_structural   YbNpInO6
_chemical_formula_sum   'Yb4 Np4 In4 O24'
_cell_volume   490.00332567
_cell_formula_units_Z   4
loop_
 _symmetry_equiv_pos_site_id
 _symmetry_equiv_pos_as_xyz
  1  'x, y, z'
loop_
 _atom_site_type_symbol
 _atom_site_label
 _atom_site_symmetry_multiplicity
 _atom_site_fract_x
 _atom_site_fract_y
 _atom_site_fract_z
 _atom_site_occupancy
  Yb  Yb0  1  0.692991  0.500000  0.250000  1
  Yb  Yb1  1  0.307009  0.500000  0.750000  1
  Yb  Yb2  1  0.765696  0.000000  0.250000  1
  Yb  Yb3  1  0.234304  0.000000  0.750000  1
  Np  Np4  1  0.262895  0.257798  0.113444  1
  Np  Np5  1  0.262895  0.742202  0.386556  1
  Np  Np6  1  0.737105  0.742202  0.886556  1
  Np  Np7  1  0.737105  0.257798  0.613444  1
  In  In8  1  0.218338  0.233073  0.406542  1
  In  In9  1  0.218338  0.766927  0.093458  1
  In  In10  1  0.781662  0.766927  0.593458  1
  In  In11  1  0.781662  0.233073  0.906542  1
  O  O12  1  0.465672  0.207774  0.269764  1
  O  O13  1  0.465672  0.792226  0.230236  1
  O  O14  1  0.534328  0.792226  0.730236  1
  O  O15  1  0.534328  0.207774  0.769764  1
  O  O16  1  0.093122  0.022361  0.118292  1
  O  O17  1  0.093122  0.977639  0.381708  1
  O  O18  1  0.906878  0.977639  0.881708  1
  O  O19  1  0.906878  0.022361  0.618292  1
  O  O20  1  0.978234  0.297516  0.208556  1
  O  O21  1  0.978234  0.702484  0.291444  1
  O  O22  1  0.021766  0.702484  0.791444  1
  O  O23  1  0.021766  0.297516  0.708556  1
  O  O24  1  0.878358  0.330493  0.448536  1
  O  O25  1  0.878358  0.669507  0.051464  1
  O  O26  1  0.121642  0.669507  0.551464  1
  O  O27  1  0.121642  0.330493  0.948536  1
  O  O28  1  0.617405  0.503430  0.612676  1
  O  O29  1  0.617405  0.496570  0.887324  1
  O  O30  1  0.382595  0.496570  0.387324  1
  O  O31  1  0.382595  0.503430  0.112676  1
  O  O32  1  0.428173  0.160633  0.559900  1
  O  O33  1  0.428173  0.839367  0.940100  1
  O  O34  1  0.571827  0.839367  0.440100  1
  O  O35  1  0.571827  0.160633  0.059900  1
