# generated using pymatgen
data_Er8Si12Rh3Au
_symmetry_space_group_name_H-M   'P 1'
_cell_length_a   8.17009300
_cell_length_b   8.17009181
_cell_length_c   7.82810800
_cell_angle_alpha   90.00000000
_cell_angle_beta   90.00000000
_cell_angle_gamma   120.00000078
_symmetry_Int_Tables_number   1
_chemical_formula_structural   Er8Si12Rh3Au
_chemical_formula_sum   'Er8 Si12 Rh3 Au1'
_cell_volume   452.52374628
_cell_formula_units_Z   1
loop_
 _symmetry_equiv_pos_site_id
 _symmetry_equiv_pos_as_xyz
  1  'x, y, z'
loop_
 _atom_site_type_symbol
 _atom_site_label
 _atom_site_symmetry_multiplicity
 _atom_site_fract_x
 _atom_site_fract_y
 _atom_site_fract_z
 _atom_site_occupancy
  Er  Er0  1  0.976353  0.488177  0.254777  1
  Er  Er1  1  0.511823  0.488177  0.254777  1
  Er  Er2  1  0.492629  0.985257  0.746056  1
  Er  Er3  1  0.014743  0.507371  0.746056  1
  Er  Er4  1  0.492629  0.507371  0.746056  1
  Er  Er5  1  0.511823  0.023647  0.254777  1
  Er  Er6  1  0.000000  0.000000  0.746960  1
  Er  Er7  1  0.000000  0.000000  0.250767  1
  Si  Si8  1  0.167018  0.832982  0.498351  1
  Si  Si9  1  0.167018  0.334036  0.498351  1
  Si  Si10  1  0.665964  0.832982  0.498351  1
  Si  Si11  1  0.337359  0.168680  0.000478  1
  Si  Si12  1  0.833802  0.667605  0.501457  1
  Si  Si13  1  0.831320  0.168680  0.000478  1
  Si  Si14  1  0.831320  0.662641  0.000478  1
  Si  Si15  1  0.160784  0.321568  0.997860  1
  Si  Si16  1  0.678432  0.839216  0.997860  1
  Si  Si17  1  0.332395  0.166198  0.501457  1
  Si  Si18  1  0.833802  0.166198  0.501457  1
  Si  Si19  1  0.160784  0.839216  0.997860  1
  Rh  Rh20  1  0.666667  0.333333  0.963171  1
  Rh  Rh21  1  0.666667  0.333333  0.535107  1
  Rh  Rh22  1  0.333333  0.666667  0.468230  1
  Au  Au23  1  0.333333  0.666667  0.038823  1
