# generated using pymatgen
data_Ta16Nb8SiP7
_symmetry_space_group_name_H-M   'P 1'
_cell_length_a   10.23065422
_cell_length_b   10.30760400
_cell_length_c   5.05156055
_cell_angle_alpha   90.00000000
_cell_angle_beta   90.16981599
_cell_angle_gamma   90.00000000
_symmetry_Int_Tables_number   1
_chemical_formula_structural   Ta16Nb8SiP7
_chemical_formula_sum   'Ta16 Nb8 Si1 P7'
_cell_volume   532.70256457
_cell_formula_units_Z   1
loop_
 _symmetry_equiv_pos_site_id
 _symmetry_equiv_pos_as_xyz
  1  'x, y, z'
loop_
 _atom_site_type_symbol
 _atom_site_label
 _atom_site_symmetry_multiplicity
 _atom_site_fract_x
 _atom_site_fract_y
 _atom_site_fract_z
 _atom_site_occupancy
  Ta  Ta0  1  0.907821  0.590430  0.498427  1
  Ta  Ta1  1  0.906774  0.406744  0.000350  1
  Ta  Ta2  1  0.592411  0.092568  0.499792  1
  Ta  Ta3  1  0.799533  0.300076  0.500096  1
  Ta  Ta4  1  0.093226  0.406744  0.499650  1
  Ta  Ta5  1  0.092179  0.590430  0.001573  1
  Ta  Ta6  1  0.200467  0.300076  0.999904  1
  Ta  Ta7  1  0.297174  0.800152  0.996102  1
  Ta  Ta8  1  0.300509  0.200247  0.498823  1
  Ta  Ta9  1  0.699491  0.200247  0.001177  1
  Ta  Ta10  1  0.592297  0.907104  0.001166  1
  Ta  Ta11  1  0.702826  0.800152  0.503898  1
  Ta  Ta12  1  0.201284  0.698898  0.498233  1
  Ta  Ta13  1  0.407589  0.092568  0.000208  1
  Ta  Ta14  1  0.407703  0.907104  0.498834  1
  Ta  Ta15  1  0.798716  0.698898  0.001767  1
  Nb  Nb16  1  0.500000  0.645120  0.250000  1
  Nb  Nb17  1  0.853328  0.003598  0.750201  1
  Nb  Nb18  1  0.645222  0.499490  0.749549  1
  Nb  Nb19  1  0.000000  0.855646  0.250000  1
  Nb  Nb20  1  0.354778  0.499490  0.750451  1
  Nb  Nb21  1  0.000000  0.146097  0.250000  1
  Nb  Nb22  1  0.500000  0.353813  0.250000  1
  Nb  Nb23  1  0.146672  0.003598  0.749799  1
  Si  Si24  1  0.000000  0.794036  0.750000  1
  P  P25  1  0.500000  0.291424  0.750000  1
  P  P26  1  0.207996  0.000006  0.250238  1
  P  P27  1  0.792004  0.000006  0.249762  1
  P  P28  1  0.000000  0.208908  0.750000  1
  P  P29  1  0.707296  0.499031  0.249785  1
  P  P30  1  0.292704  0.499031  0.250215  1
  P  P31  1  0.500000  0.708270  0.750000  1
