# generated using pymatgen
data_Li12Pr11Dy(TeO6)8
_symmetry_space_group_name_H-M   'P 1'
_cell_length_a   11.01701232
_cell_length_b   11.03969604
_cell_length_c   11.03969702
_cell_angle_alpha   109.46382961
_cell_angle_beta   109.51669028
_cell_angle_gamma   109.51677770
_symmetry_Int_Tables_number   1
_chemical_formula_structural   Li12Pr11Dy(TeO6)8
_chemical_formula_sum   'Li12 Pr11 Dy1 Te8 O48'
_cell_volume   1032.54037523
_cell_formula_units_Z   1
loop_
 _symmetry_equiv_pos_site_id
 _symmetry_equiv_pos_as_xyz
  1  'x, y, z'
loop_
 _atom_site_type_symbol
 _atom_site_label
 _atom_site_symmetry_multiplicity
 _atom_site_fract_x
 _atom_site_fract_y
 _atom_site_fract_z
 _atom_site_occupancy
  Li  Li0  1  0.874650  0.749199  0.125050  1
  Li  Li1  1  0.250000  0.875045  0.125043  1
  Li  Li2  1  0.874646  0.125448  0.249597  1
  Li  Li3  1  0.374780  0.624738  0.249850  1
  Li  Li4  1  0.749999  0.623363  0.373361  1
  Li  Li5  1  0.625354  0.250402  0.374552  1
  Li  Li6  1  0.374778  0.750039  0.624928  1
  Li  Li7  1  0.250001  0.374957  0.624956  1
  Li  Li8  1  0.125223  0.875073  0.749960  1
  Li  Li9  1  0.625351  0.374951  0.750802  1
  Li  Li10  1  0.125221  0.250151  0.875262  1
  Li  Li11  1  0.750002  0.126638  0.876638  1
  Pr  Pr12  1  0.376615  0.250882  0.125530  1
  Pr  Pr13  1  0.625054  0.875036  0.250043  1
  Pr  Pr14  1  0.123387  0.374470  0.249119  1
  Pr  Pr15  1  0.249999  0.125000  0.374999  1
  Pr  Pr16  1  0.123384  0.748916  0.374266  1
  Pr  Pr17  1  0.750000  0.875000  0.625000  1
  Pr  Pr18  1  0.874945  0.249956  0.624964  1
  Pr  Pr19  1  0.376613  0.125731  0.751082  1
  Pr  Pr20  1  0.874946  0.624989  0.749981  1
  Pr  Pr21  1  0.250000  0.625000  0.875000  1
  Pr  Pr22  1  0.625054  0.750017  0.875011  1
  Dy  Dy23  1  0.750001  0.374998  0.125001  1
  Te  Te24  1  0.000119  0.000229  0.000112  1
  Te  Te25  1  0.502855  0.003317  0.001917  1
  Te  Te26  1  0.502854  0.499537  0.000937  1
  Te  Te27  1  0.997147  0.499065  0.000464  1
  Te  Te28  1  0.000119  0.999891  0.500007  1
  Te  Te29  1  0.499880  0.499887  0.499770  1
  Te  Te30  1  0.499880  0.999993  0.500109  1
  Te  Te31  1  0.997146  0.498083  0.496683  1
  O  O32  1  0.900939  0.330800  0.025345  1
  O  O33  1  0.115619  0.193027  0.022046  1
  O  O34  1  0.406856  0.885554  0.076880  1
  O  O35  1  0.671775  0.693318  0.077420  1
  O  O36  1  0.671776  0.978458  0.094357  1
  O  O37  1  0.424985  0.614514  0.094817  1
  O  O38  1  0.918652  0.590738  0.115881  1
  O  O39  1  0.193251  0.022395  0.115864  1
  O  O40  1  0.581349  0.197230  0.172086  1
  O  O41  1  0.599062  0.474654  0.169202  1
  O  O42  1  0.169360  0.576257  0.192319  1
  O  O43  1  0.022006  0.115766  0.192639  1
  O  O44  1  0.384380  0.477955  0.306974  1
  O  O45  1  0.918651  0.327914  0.302772  1
  O  O46  1  0.306749  0.922614  0.329144  1
  O  O47  1  0.022006  0.906240  0.329366  1
  O  O48  1  0.900939  0.570139  0.375593  1
  O  O49  1  0.477993  0.307359  0.384233  1
  O  O50  1  0.521801  0.829400  0.406143  1
  O  O51  1  0.884379  0.076955  0.406187  1
  O  O52  1  0.807007  0.828913  0.422861  1
  O  O53  1  0.615621  0.093813  0.423044  1
  O  O54  1  0.306748  0.384135  0.477604  1
  O  O55  1  0.169359  0.593103  0.477041  1
  O  O56  1  0.692993  0.615854  0.521905  1
  O  O57  1  0.828225  0.405645  0.521543  1
  O  O58  1  0.193251  0.170857  0.577386  1
  O  O59  1  0.384381  0.906426  0.577406  1
  O  O60  1  0.115619  0.922594  0.593574  1
  O  O61  1  0.477996  0.170635  0.593761  1
  O  O62  1  0.521802  0.692401  0.615658  1
  O  O63  1  0.093144  0.423121  0.614446  1
  O  O64  1  0.978198  0.093856  0.670600  1
  O  O65  1  0.692993  0.077139  0.671086  1
  O  O66  1  0.615621  0.521809  0.692577  1
  O  O67  1  0.075016  0.669833  0.689530  1
  O  O68  1  0.978197  0.884342  0.807598  1
  O  O69  1  0.828228  0.422582  0.806683  1
  O  O70  1  0.406856  0.521301  0.829975  1
  O  O71  1  0.424986  0.810471  0.830167  1
  O  O72  1  0.807007  0.978093  0.884145  1
  O  O73  1  0.075015  0.405183  0.885485  1
  O  O74  1  0.581349  0.384120  0.909263  1
  O  O75  1  0.330641  0.022958  0.906896  1
  O  O76  1  0.330642  0.307682  0.923744  1
  O  O77  1  0.599062  0.124407  0.929861  1
  O  O78  1  0.093147  0.670027  0.978700  1
  O  O79  1  0.884378  0.807423  0.978191  1
