# generated using pymatgen
data_Eu17Pa3Pt16
_symmetry_space_group_name_H-M   'P 1'
_cell_length_a   7.87804363
_cell_length_b   7.94500732
_cell_length_c   15.32931200
_cell_angle_alpha   90.18147163
_cell_angle_beta   90.02288037
_cell_angle_gamma   89.80609526
_symmetry_Int_Tables_number   1
_chemical_formula_structural   Eu17Pa3Pt16
_chemical_formula_sum   'Eu17 Pa3 Pt16'
_cell_volume   959.46833925
_cell_formula_units_Z   1
loop_
 _symmetry_equiv_pos_site_id
 _symmetry_equiv_pos_as_xyz
  1  'x, y, z'
loop_
 _atom_site_type_symbol
 _atom_site_label
 _atom_site_symmetry_multiplicity
 _atom_site_fract_x
 _atom_site_fract_y
 _atom_site_fract_z
 _atom_site_occupancy
  Eu  Eu0  1  0.850672  0.660344  0.380952  1
  Eu  Eu1  1  0.353557  0.836633  0.378993  1
  Eu  Eu2  1  0.854468  0.663789  0.117108  1
  Eu  Eu3  1  0.644691  0.165555  0.882178  1
  Eu  Eu4  1  0.144809  0.332480  0.619160  1
  Eu  Eu5  1  0.492857  0.674481  0.595155  1
  Eu  Eu6  1  0.998598  0.822898  0.903534  1
  Eu  Eu7  1  0.502769  0.324600  0.098450  1
  Eu  Eu8  1  0.001667  0.188020  0.404234  1
  Eu  Eu9  1  0.502807  0.317533  0.405491  1
  Eu  Eu10  1  0.001424  0.182010  0.095569  1
  Eu  Eu11  1  0.498147  0.681463  0.906197  1
  Eu  Eu12  1  0.996788  0.818899  0.593772  1
  Eu  Eu13  1  0.805169  0.513558  0.750068  1
  Eu  Eu14  1  0.304706  0.982627  0.751204  1
  Eu  Eu15  1  0.186876  0.488231  0.250795  1
  Eu  Eu16  1  0.698204  0.011024  0.250448  1
  Pa  Pa17  1  0.645424  0.154880  0.627103  1
  Pa  Pa18  1  0.152061  0.340892  0.876285  1
  Pa  Pa19  1  0.347293  0.841380  0.122897  1
  Pt  Pt20  1  0.697818  0.975917  0.473213  1
  Pt  Pt21  1  0.208306  0.553520  0.032113  1
  Pt  Pt22  1  0.289516  0.057749  0.964956  1
  Pt  Pt23  1  0.786129  0.428603  0.546112  1
  Pt  Pt24  1  0.344633  0.036747  0.550008  1
  Pt  Pt25  1  0.855528  0.456107  0.951407  1
  Pt  Pt26  1  0.641103  0.955626  0.047643  1
  Pt  Pt27  1  0.185216  0.532952  0.455666  1
  Pt  Pt28  1  0.441971  0.359128  0.747384  1
  Pt  Pt29  1  0.946387  0.138246  0.758255  1
  Pt  Pt30  1  0.545370  0.635576  0.235789  1
  Pt  Pt31  1  0.072607  0.871156  0.237822  1
  Pt  Pt32  1  0.690428  0.886379  0.739466  1
  Pt  Pt33  1  0.186516  0.610944  0.761599  1
  Pt  Pt34  1  0.323568  0.122738  0.239853  1
  Pt  Pt35  1  0.801914  0.377315  0.249121  1
