# generated using pymatgen
data_Mn3FeI7F
_symmetry_space_group_name_H-M   'P 1'
_cell_length_a   8.83630043
_cell_length_b   8.83629923
_cell_length_c   8.86103900
_cell_angle_alpha   55.50355619
_cell_angle_beta   55.50355365
_cell_angle_gamma   55.75731686
_symmetry_Int_Tables_number   1
_chemical_formula_structural   Mn3FeI7F
_chemical_formula_sum   'Mn3 Fe1 I7 F1'
_cell_volume   439.12542665
_cell_formula_units_Z   1
loop_
 _symmetry_equiv_pos_site_id
 _symmetry_equiv_pos_as_xyz
  1  'x, y, z'
loop_
 _atom_site_type_symbol
 _atom_site_label
 _atom_site_symmetry_multiplicity
 _atom_site_fract_x
 _atom_site_fract_y
 _atom_site_fract_z
 _atom_site_occupancy
  Mn  Mn0  1  0.518176  0.984422  0.482085  1
  Mn  Mn1  1  0.984422  0.518176  0.482085  1
  Mn  Mn2  1  0.496510  0.496510  0.998990  1
  Fe  Fe3  1  0.983033  0.983033  0.024889  1
  I  I4  1  0.740319  0.740319  0.738202  1
  I  I5  1  0.244164  0.739450  0.238934  1
  I  I6  1  0.739450  0.244164  0.238934  1
  I  I7  1  0.252389  0.252389  0.255155  1
  I  I8  1  0.229030  0.229030  0.737966  1
  I  I9  1  0.752900  0.251129  0.761026  1
  I  I10  1  0.251129  0.752900  0.761026  1
  F  F11  1  0.808478  0.808478  0.280710  1
