# generated using pymatgen
data_Tb3Er5Ti11Si16Pd
_symmetry_space_group_name_H-M   'P 1'
_cell_length_a   7.04779397
_cell_length_b   7.04798071
_cell_length_c   12.86984327
_cell_angle_alpha   90.14565294
_cell_angle_beta   89.84888813
_cell_angle_gamma   89.69417727
_symmetry_Int_Tables_number   1
_chemical_formula_structural   Tb3Er5Ti11Si16Pd
_chemical_formula_sum   'Tb3 Er5 Ti11 Si16 Pd1'
_cell_volume   639.26665063
_cell_formula_units_Z   1
loop_
 _symmetry_equiv_pos_site_id
 _symmetry_equiv_pos_as_xyz
  1  'x, y, z'
loop_
 _atom_site_type_symbol
 _atom_site_label
 _atom_site_symmetry_multiplicity
 _atom_site_fract_x
 _atom_site_fract_y
 _atom_site_fract_z
 _atom_site_occupancy
  Tb  Tb0  1  0.339969  0.003925  0.466779  1
  Tb  Tb1  1  0.496305  0.841236  0.717694  1
  Tb  Tb2  1  0.501911  0.158027  0.213735  1
  Er  Er3  1  0.841828  0.497392  0.282348  1
  Er  Er4  1  0.157198  0.501477  0.785798  1
  Er  Er5  1  0.655951  0.000358  0.968250  1
  Er  Er6  1  0.002259  0.340967  0.533325  1
  Er  Er7  1  0.000252  0.656140  0.031610  1
  Ti  Ti8  1  0.175029  0.825606  0.248822  1
  Ti  Ti9  1  0.826245  0.176326  0.751397  1
  Ti  Ti10  1  0.673889  0.672786  0.500081  1
  Ti  Ti11  1  0.148286  0.005644  0.877197  1
  Ti  Ti12  1  0.494339  0.652658  0.123925  1
  Ti  Ti13  1  0.508261  0.350449  0.627259  1
  Ti  Ti14  1  0.653939  0.494394  0.876198  1
  Ti  Ti15  1  0.350089  0.506859  0.372982  1
  Ti  Ti16  1  0.849771  0.992488  0.374373  1
  Ti  Ti17  1  0.005499  0.147685  0.122844  1
  Ti  Ti18  1  0.993267  0.849727  0.625727  1
  Si  Si19  1  0.200746  0.134768  0.685713  1
  Si  Si20  1  0.372791  0.710183  0.932194  1
  Si  Si21  1  0.632445  0.296060  0.433545  1
  Si  Si22  1  0.713411  0.373752  0.068064  1
  Si  Si23  1  0.293790  0.629137  0.566439  1
  Si  Si24  1  0.798202  0.865698  0.182636  1
  Si  Si25  1  0.131239  0.203209  0.314427  1
  Si  Si26  1  0.868128  0.796982  0.817730  1
  Si  Si27  1  0.285768  0.942098  0.064498  1
  Si  Si28  1  0.548195  0.789906  0.314670  1
  Si  Si29  1  0.449995  0.211045  0.814551  1
  Si  Si30  1  0.792622  0.546945  0.685322  1
  Si  Si31  1  0.208380  0.451199  0.185720  1
  Si  Si32  1  0.709999  0.048719  0.565035  1
  Si  Si33  1  0.944396  0.286525  0.935367  1
  Si  Si34  1  0.046690  0.707280  0.434945  1
  Pd  Pd35  1  0.328919  0.332352  0.998797  1
