# generated using pymatgen
data_InBi3Ir3RhO14
_symmetry_space_group_name_H-M   'P 1'
_cell_length_a   7.34775073
_cell_length_b   7.28184632
_cell_length_c   7.34775100
_cell_angle_alpha   59.70016059
_cell_angle_beta   60.00000327
_cell_angle_gamma   59.70015948
_symmetry_Int_Tables_number   1
_chemical_formula_structural   InBi3Ir3RhO14
_chemical_formula_sum   'In1 Bi3 Ir3 Rh1 O14'
_cell_volume   276.72740480
_cell_formula_units_Z   1
loop_
 _symmetry_equiv_pos_site_id
 _symmetry_equiv_pos_as_xyz
  1  'x, y, z'
loop_
 _atom_site_type_symbol
 _atom_site_label
 _atom_site_symmetry_multiplicity
 _atom_site_fract_x
 _atom_site_fract_y
 _atom_site_fract_z
 _atom_site_occupancy
  In  In0  1  0.125000  0.625000  0.125000  1
  Bi  Bi1  1  0.125000  0.125000  0.125000  1
  Bi  Bi2  1  0.625000  0.125000  0.125000  1
  Bi  Bi3  1  0.125000  0.125000  0.625000  1
  Ir  Ir4  1  0.625000  0.625000  0.625000  1
  Ir  Ir5  1  0.625000  0.625000  0.125000  1
  Ir  Ir6  1  0.125000  0.625000  0.625000  1
  Rh  Rh7  1  0.625000  0.125000  0.625000  1
  O  O8  1  0.243785  0.268646  0.243785  1
  O  O9  1  0.291945  0.699917  0.291945  1
  O  O10  1  0.961104  0.955920  0.541487  1
  O  O11  1  0.541487  0.955920  0.541487  1
  O  O12  1  0.716193  0.699917  0.291945  1
  O  O13  1  0.958055  0.550083  0.533807  1
  O  O14  1  0.708513  0.294080  0.708513  1
  O  O15  1  0.288896  0.294080  0.708513  1
  O  O16  1  0.708513  0.294080  0.288896  1
  O  O17  1  0.291945  0.699917  0.716193  1
  O  O18  1  0.958055  0.550083  0.958055  1
  O  O19  1  0.533807  0.550083  0.958055  1
  O  O20  1  0.006215  0.981354  0.006215  1
  O  O21  1  0.541487  0.955920  0.961104  1
