# generated using pymatgen
data_Nd2SmDySe3O4
_symmetry_space_group_name_H-M   'P 1'
_cell_length_a   6.72015611
_cell_length_b   6.72015619
_cell_length_c   8.45233000
_cell_angle_alpha   90.00000000
_cell_angle_beta   90.00000000
_cell_angle_gamma   145.55296865
_symmetry_Int_Tables_number   1
_chemical_formula_structural   Nd2SmDySe3O4
_chemical_formula_sum   'Nd2 Sm1 Dy1 Se3 O4'
_cell_volume   215.91282621
_cell_formula_units_Z   1
loop_
 _symmetry_equiv_pos_site_id
 _symmetry_equiv_pos_as_xyz
  1  'x, y, z'
loop_
 _atom_site_type_symbol
 _atom_site_label
 _atom_site_symmetry_multiplicity
 _atom_site_fract_x
 _atom_site_fract_y
 _atom_site_fract_z
 _atom_site_occupancy
  Nd  Nd0  1  0.317794  0.682206  0.237822  1
  Nd  Nd1  1  0.317794  0.682206  0.762178  1
  Sm  Sm2  1  0.985192  0.014808  0.500000  1
  Dy  Dy3  1  0.993576  0.006424  0.000000  1
  Se  Se4  1  0.678215  0.321785  0.000000  1
  Se  Se5  1  0.645242  0.354758  0.650353  1
  Se  Se6  1  0.645242  0.354758  0.349647  1
  O  O7  1  0.388107  0.611893  0.500000  1
  O  O8  1  0.916462  0.083538  0.758430  1
  O  O9  1  0.413346  0.586654  0.000000  1
  O  O10  1  0.916462  0.083538  0.241570  1
