# generated using pymatgen
data_Yb8LuZrIr4
_symmetry_space_group_name_H-M   'P 1'
_cell_length_a   8.51192025
_cell_length_b   8.51192022
_cell_length_c   7.21849193
_cell_angle_alpha   82.53453272
_cell_angle_beta   82.53453149
_cell_angle_gamma   44.85489262
_symmetry_Int_Tables_number   1
_chemical_formula_structural   Yb8LuZrIr4
_chemical_formula_sum   'Yb8 Lu1 Zr1 Ir4'
_cell_volume   365.21678160
_cell_formula_units_Z   1
loop_
 _symmetry_equiv_pos_site_id
 _symmetry_equiv_pos_as_xyz
  1  'x, y, z'
loop_
 _atom_site_type_symbol
 _atom_site_label
 _atom_site_symmetry_multiplicity
 _atom_site_fract_x
 _atom_site_fract_y
 _atom_site_fract_z
 _atom_site_occupancy
  Yb  Yb0  1  0.361288  0.204776  0.318198  1
  Yb  Yb1  1  0.202903  0.966908  0.073934  1
  Yb  Yb2  1  0.799755  0.029151  0.923481  1
  Yb  Yb3  1  0.970849  0.200245  0.576519  1
  Yb  Yb4  1  0.637382  0.795857  0.682572  1
  Yb  Yb5  1  0.204143  0.362618  0.817428  1
  Yb  Yb6  1  0.795224  0.638712  0.181802  1
  Yb  Yb7  1  0.033092  0.797097  0.426066  1
  Lu  Lu8  1  0.564684  0.435316  0.250000  1
  Zr  Zr9  1  0.442910  0.557090  0.750000  1
  Ir  Ir10  1  0.399819  0.800998  0.437644  1
  Ir  Ir11  1  0.199002  0.600181  0.062356  1
  Ir  Ir12  1  0.795824  0.406874  0.921812  1
  Ir  Ir13  1  0.593126  0.204176  0.578188  1
