# generated using pymatgen
data_TmLu3Th6(Ge3C)2
_symmetry_space_group_name_H-M   'P 1'
_cell_length_a   8.76357900
_cell_length_b   8.76337920
_cell_length_c   6.35104700
_cell_angle_alpha   89.99873577
_cell_angle_beta   90.00094402
_cell_angle_gamma   119.99963385
_symmetry_Int_Tables_number   1
_chemical_formula_structural   TmLu3Th6(Ge3C)2
_chemical_formula_sum   'Tm1 Lu3 Th6 Ge6 C2'
_cell_volume   422.40657689
_cell_formula_units_Z   1
loop_
 _symmetry_equiv_pos_site_id
 _symmetry_equiv_pos_as_xyz
  1  'x, y, z'
loop_
 _atom_site_type_symbol
 _atom_site_label
 _atom_site_symmetry_multiplicity
 _atom_site_fract_x
 _atom_site_fract_y
 _atom_site_fract_z
 _atom_site_occupancy
  Tm  Tm0  1  0.666669  0.333336  0.499998  1
  Lu  Lu1  1  0.333328  0.666669  0.500001  1
  Lu  Lu2  1  0.333319  0.666661  0.999995  1
  Lu  Lu3  1  0.666683  0.333343  0.000001  1
  Th  Th4  1  0.767501  0.767579  0.249897  1
  Th  Th5  1  0.232418  0.999891  0.249896  1
  Th  Th6  1  0.000094  0.232515  0.249893  1
  Th  Th7  1  0.232406  0.232512  0.750104  1
  Th  Th8  1  0.767496  0.999927  0.750109  1
  Th  Th9  1  0.000094  0.767578  0.750111  1
  Ge  Ge10  1  0.403819  0.404032  0.249846  1
  Ge  Ge11  1  0.595958  0.999777  0.249850  1
  Ge  Ge12  1  0.000216  0.596155  0.249857  1
  Ge  Ge13  1  0.595956  0.596167  0.750151  1
  Ge  Ge14  1  0.403825  0.999776  0.750152  1
  Ge  Ge15  1  0.000217  0.404076  0.750137  1
  C  C16  1  0.000001  0.000001  0.500003  1
  C  C17  1  0.999999  0.000001  0.000002  1
