# generated using pymatgen
data_Zr3(Co3Si)2
_symmetry_space_group_name_H-M   'P 1'
_cell_length_a   7.30375344
_cell_length_b   7.30358499
_cell_length_c   7.30413902
_cell_angle_alpha   109.47116049
_cell_angle_beta   109.47298794
_cell_angle_gamma   109.46933254
_symmetry_Int_Tables_number   1
_chemical_formula_structural   Zr3(Co3Si)2
_chemical_formula_sum   'Zr6 Co12 Si4'
_cell_volume   299.93717744
_cell_formula_units_Z   2
loop_
 _symmetry_equiv_pos_site_id
 _symmetry_equiv_pos_as_xyz
  1  'x, y, z'
loop_
 _atom_site_type_symbol
 _atom_site_label
 _atom_site_symmetry_multiplicity
 _atom_site_fract_x
 _atom_site_fract_y
 _atom_site_fract_z
 _atom_site_occupancy
  Zr  Zr0  1  0.721286  0.721284  0.000022  1
  Zr  Zr1  1  0.278778  0.999986  0.278788  1
  Zr  Zr2  1  0.999987  0.278759  0.278767  1
  Zr  Zr3  1  0.278714  0.278716  0.999978  1
  Zr  Zr4  1  0.721222  0.000014  0.721212  1
  Zr  Zr5  1  0.000013  0.721241  0.721233  1
  Co  Co6  1  0.344561  0.344524  0.689091  1
  Co  Co7  1  0.655473  0.999987  0.344522  1
  Co  Co8  1  0.000023  0.655490  0.344562  1
  Co  Co9  1  0.655427  0.344514  0.999963  1
  Co  Co10  1  0.344558  0.689081  0.344545  1
  Co  Co11  1  0.999977  0.344510  0.655438  1
  Co  Co12  1  0.344573  0.655486  0.000037  1
  Co  Co13  1  0.344527  0.000013  0.655478  1
  Co  Co14  1  0.689115  0.344548  0.344570  1
  Co  Co15  1  0.655439  0.655476  0.310909  1
  Co  Co16  1  0.655442  0.310919  0.655455  1
  Co  Co17  1  0.310885  0.655452  0.655430  1
  Si  Si18  1  0.000000  0.000000  0.500000  1
  Si  Si19  1  0.000000  0.500000  0.000000  1
  Si  Si20  1  0.500000  0.000000  0.000000  1
  Si  Si21  1  0.500000  0.500000  0.500000  1
