# generated using pymatgen
data_Tb2YIn3IrPd2
_symmetry_space_group_name_H-M   'P 1'
_cell_length_a   7.75829633
_cell_length_b   7.75540753
_cell_length_c   3.81630200
_cell_angle_alpha   90.00000000
_cell_angle_beta   90.00000000
_cell_angle_gamma   119.97882408
_symmetry_Int_Tables_number   1
_chemical_formula_structural   Tb2YIn3IrPd2
_chemical_formula_sum   'Tb2 Y1 In3 Ir1 Pd2'
_cell_volume   198.90100875
_cell_formula_units_Z   1
loop_
 _symmetry_equiv_pos_site_id
 _symmetry_equiv_pos_as_xyz
  1  'x, y, z'
loop_
 _atom_site_type_symbol
 _atom_site_label
 _atom_site_symmetry_multiplicity
 _atom_site_fract_x
 _atom_site_fract_y
 _atom_site_fract_z
 _atom_site_occupancy
  Tb  Tb0  1  0.416002  0.399507  0.500000  1
  Tb  Tb1  1  0.600580  0.016422  0.500000  1
  Y  Y2  1  0.983734  0.584422  0.500000  1
  In  In3  1  0.736046  0.739526  0.000000  1
  In  In4  1  0.260307  0.996163  0.000000  1
  In  In5  1  0.003655  0.264331  0.000000  1
  Ir  Ir6  1  0.666156  0.332865  0.000000  1
  Pd  Pd7  1  0.333480  0.666687  0.000000  1
  Pd  Pd8  1  0.000041  0.000079  0.500000  1
