# generated using pymatgen
data_Sr2Yb(AlP2)2
_symmetry_space_group_name_H-M   'P 1'
_cell_length_a   8.12513095
_cell_length_b   8.12513234
_cell_length_c   6.54187100
_cell_angle_alpha   89.16832464
_cell_angle_beta   89.16833155
_cell_angle_gamma   76.14504671
_symmetry_Int_Tables_number   1
_chemical_formula_structural   Sr2Yb(AlP2)2
_chemical_formula_sum   'Sr4 Yb2 Al4 P8'
_cell_volume   419.24289959
_cell_formula_units_Z   2
loop_
 _symmetry_equiv_pos_site_id
 _symmetry_equiv_pos_as_xyz
  1  'x, y, z'
loop_
 _atom_site_type_symbol
 _atom_site_label
 _atom_site_symmetry_multiplicity
 _atom_site_fract_x
 _atom_site_fract_y
 _atom_site_fract_z
 _atom_site_occupancy
  Sr  Sr0  1  0.008371  0.747319  0.539348  1
  Sr  Sr1  1  0.252681  0.991629  0.960652  1
  Sr  Sr2  1  0.991629  0.252681  0.460652  1
  Sr  Sr3  1  0.747319  0.008371  0.039348  1
  Yb  Yb4  1  0.403300  0.596700  0.250000  1
  Yb  Yb5  1  0.596700  0.403300  0.750000  1
  Al  Al6  1  0.826267  0.578098  0.081610  1
  Al  Al7  1  0.421902  0.173733  0.418390  1
  Al  Al8  1  0.173733  0.421902  0.918390  1
  Al  Al9  1  0.578098  0.826267  0.581610  1
  P  P10  1  0.062163  0.707641  0.031821  1
  P  P11  1  0.292359  0.937837  0.468179  1
  P  P12  1  0.937837  0.292359  0.968179  1
  P  P13  1  0.707641  0.062163  0.531821  1
  P  P14  1  0.731188  0.573283  0.425826  1
  P  P15  1  0.426717  0.268812  0.074174  1
  P  P16  1  0.268812  0.426717  0.574174  1
  P  P17  1  0.573283  0.731188  0.925826  1
