# generated using pymatgen
data_Ho5Cu6Ni13
_symmetry_space_group_name_H-M   'P 1'
_cell_length_a   4.94294535
_cell_length_b   4.94294453
_cell_length_c   16.38375869
_cell_angle_alpha   81.32387959
_cell_angle_beta   81.32388047
_cell_angle_gamma   59.99999883
_symmetry_Int_Tables_number   1
_chemical_formula_structural   Ho5Cu6Ni13
_chemical_formula_sum   'Ho5 Cu6 Ni13'
_cell_volume   341.36999505
_cell_formula_units_Z   1
loop_
 _symmetry_equiv_pos_site_id
 _symmetry_equiv_pos_as_xyz
  1  'x, y, z'
loop_
 _atom_site_type_symbol
 _atom_site_label
 _atom_site_symmetry_multiplicity
 _atom_site_fract_x
 _atom_site_fract_y
 _atom_site_fract_z
 _atom_site_occupancy
  Ho  Ho0  1  0.000000  0.000000  0.000000  1
  Ho  Ho1  1  0.922558  0.922558  0.232328  1
  Ho  Ho2  1  0.077442  0.077442  0.767672  1
  Ho  Ho3  1  0.848093  0.848093  0.455720  1
  Ho  Ho4  1  0.151907  0.151907  0.544280  1
  Cu  Cu5  1  0.749696  0.749697  0.750911  1
  Cu  Cu6  1  0.250303  0.250303  0.249090  1
  Cu  Cu7  1  0.666694  0.666694  0.999919  1
  Cu  Cu8  1  0.333306  0.333306  0.000081  1
  Cu  Cu9  1  0.583535  0.583535  0.249398  1
  Cu  Cu10  1  0.416465  0.416465  0.750602  1
  Ni  Ni11  1  0.500000  0.500000  0.500000  1
  Ni  Ni12  1  0.374773  0.374773  0.373897  1
  Ni  Ni13  1  0.876555  0.374773  0.373897  1
  Ni  Ni14  1  0.374773  0.876555  0.373897  1
  Ni  Ni15  1  0.625227  0.625227  0.626103  1
  Ni  Ni16  1  0.123445  0.625227  0.626103  1
  Ni  Ni17  1  0.625227  0.123445  0.626103  1
  Ni  Ni18  1  0.458763  0.458763  0.124035  1
  Ni  Ni19  1  0.958440  0.458763  0.124035  1
  Ni  Ni20  1  0.458763  0.958440  0.124035  1
  Ni  Ni21  1  0.541237  0.541237  0.875965  1
  Ni  Ni22  1  0.041560  0.541237  0.875965  1
  Ni  Ni23  1  0.541237  0.041560  0.875965  1
