# generated using pymatgen
data_Pr5Sm2Ho13Sn16
_symmetry_space_group_name_H-M   'P 1'
_cell_length_a   8.08438209
_cell_length_b   8.24328939
_cell_length_c   15.55154300
_cell_angle_alpha   90.03008913
_cell_angle_beta   90.20959786
_cell_angle_gamma   89.77191128
_symmetry_Int_Tables_number   1
_chemical_formula_structural   Pr5Sm2Ho13Sn16
_chemical_formula_sum   'Pr5 Sm2 Ho13 Sn16'
_cell_volume   1036.36910975
_cell_formula_units_Z   1
loop_
 _symmetry_equiv_pos_site_id
 _symmetry_equiv_pos_as_xyz
  1  'x, y, z'
loop_
 _atom_site_type_symbol
 _atom_site_label
 _atom_site_symmetry_multiplicity
 _atom_site_fract_x
 _atom_site_fract_y
 _atom_site_fract_z
 _atom_site_occupancy
  Pr  Pr0  1  0.015536  0.179565  0.598195  1
  Pr  Pr1  1  0.485007  0.678470  0.403444  1
  Pr  Pr2  1  0.984017  0.820870  0.096081  1
  Pr  Pr3  1  0.483543  0.677537  0.096310  1
  Pr  Pr4  1  0.984808  0.821275  0.403539  1
  Sm  Sm5  1  0.514439  0.321900  0.596492  1
  Sm  Sm6  1  0.016101  0.179793  0.902710  1
  Ho  Ho7  1  0.362575  0.835980  0.876934  1
  Ho  Ho8  1  0.860960  0.663459  0.623516  1
  Ho  Ho9  1  0.637992  0.164367  0.377079  1
  Ho  Ho10  1  0.135576  0.336413  0.121527  1
  Ho  Ho11  1  0.635932  0.164426  0.122303  1
  Ho  Ho12  1  0.138186  0.335817  0.377388  1
  Ho  Ho13  1  0.362181  0.836671  0.624331  1
  Ho  Ho14  1  0.863719  0.662996  0.877899  1
  Ho  Ho15  1  0.519697  0.321598  0.901730  1
  Ho  Ho16  1  0.196357  0.501982  0.750946  1
  Ho  Ho17  1  0.695169  0.997304  0.750823  1
  Ho  Ho18  1  0.803748  0.496685  0.249454  1
  Ho  Ho19  1  0.304351  0.003484  0.249684  1
  Sn  Sn20  1  0.301311  0.041319  0.041072  1
  Sn  Sn21  1  0.801944  0.458425  0.458595  1
  Sn  Sn22  1  0.696547  0.960571  0.542349  1
  Sn  Sn23  1  0.204526  0.534853  0.956340  1
  Sn  Sn24  1  0.697494  0.963642  0.957082  1
  Sn  Sn25  1  0.197726  0.541569  0.542378  1
  Sn  Sn26  1  0.303470  0.040791  0.458601  1
  Sn  Sn27  1  0.796837  0.456512  0.039757  1
  Sn  Sn28  1  0.561400  0.621195  0.750536  1
  Sn  Sn29  1  0.060991  0.876665  0.750667  1
  Sn  Sn30  1  0.437841  0.376607  0.249691  1
  Sn  Sn31  1  0.938570  0.124426  0.249389  1
  Sn  Sn32  1  0.328540  0.146116  0.751990  1
  Sn  Sn33  1  0.822160  0.357022  0.751361  1
  Sn  Sn34  1  0.675429  0.858055  0.249825  1
  Sn  Sn35  1  0.175325  0.641644  0.249983  1
