# generated using pymatgen
data_Re3Tc3Se7Br4
_symmetry_space_group_name_H-M   'P 1'
_cell_length_a   12.13695269
_cell_length_b   12.13690151
_cell_length_c   12.13706359
_cell_angle_alpha   51.16947360
_cell_angle_beta   51.16608279
_cell_angle_gamma   51.16808540
_symmetry_Int_Tables_number   1
_chemical_formula_structural   Re3Tc3Se7Br4
_chemical_formula_sum   'Re6 Tc6 Se14 Br8'
_cell_volume   1001.09996799
_cell_formula_units_Z   2
loop_
 _symmetry_equiv_pos_site_id
 _symmetry_equiv_pos_as_xyz
  1  'x, y, z'
loop_
 _atom_site_type_symbol
 _atom_site_label
 _atom_site_symmetry_multiplicity
 _atom_site_fract_x
 _atom_site_fract_y
 _atom_site_fract_z
 _atom_site_occupancy
  Re  Re0  1  0.527869  0.392900  0.682712  1
  Re  Re1  1  0.392888  0.682719  0.527877  1
  Re  Re2  1  0.682740  0.527876  0.392876  1
  Re  Re3  1  0.182726  0.892889  0.027869  1
  Re  Re4  1  0.892878  0.027878  0.182733  1
  Re  Re5  1  0.027872  0.182710  0.892897  1
  Tc  Tc6  1  0.472705  0.608626  0.316555  1
  Tc  Tc7  1  0.608634  0.316543  0.472685  1
  Tc  Tc8  1  0.316510  0.472691  0.608630  1
  Tc  Tc9  1  0.816532  0.108620  0.972707  1
  Tc  Tc10  1  0.108634  0.972684  0.816521  1
  Tc  Tc11  1  0.972703  0.816549  0.108628  1
  Se  Se12  1  0.803458  0.246763  0.545171  1
  Se  Se13  1  0.246765  0.545182  0.803452  1
  Se  Se14  1  0.545182  0.803463  0.246755  1
  Se  Se15  1  0.045173  0.746756  0.303467  1
  Se  Se16  1  0.746760  0.303456  0.045184  1
  Se  Se17  1  0.303454  0.045177  0.746765  1
  Se  Se18  1  0.197118  0.753810  0.454541  1
  Se  Se19  1  0.753803  0.454544  0.197096  1
  Se  Se20  1  0.454548  0.197110  0.753796  1
  Se  Se21  1  0.954545  0.253799  0.697127  1
  Se  Se22  1  0.253800  0.697096  0.954547  1
  Se  Se23  1  0.697101  0.954541  0.253810  1
  Se  Se24  1  0.599175  0.599187  0.599188  1
  Se  Se25  1  0.099183  0.099192  0.099177  1
  Br  Br26  1  0.951010  0.549398  0.249722  1
  Br  Br27  1  0.549343  0.249785  0.950951  1
  Br  Br28  1  0.249811  0.950966  0.549274  1
  Br  Br29  1  0.749757  0.049353  0.450992  1
  Br  Br30  1  0.049251  0.450958  0.749828  1
  Br  Br31  1  0.450985  0.749732  0.049407  1
  Br  Br32  1  0.398543  0.398514  0.398426  1
  Br  Br33  1  0.898465  0.898459  0.898557  1
