# generated using pymatgen
data_Dy2Er4InSi2
_symmetry_space_group_name_H-M   'P 1'
_cell_length_a   8.46663752
_cell_length_b   8.46663694
_cell_length_c   8.46663650
_cell_angle_alpha   112.46663199
_cell_angle_beta   110.85825818
_cell_angle_gamma   105.17673385
_symmetry_Int_Tables_number   1
_chemical_formula_structural   Dy2Er4InSi2
_chemical_formula_sum   'Dy4 Er8 In2 Si4'
_cell_volume   465.16005616
_cell_formula_units_Z   2
loop_
 _symmetry_equiv_pos_site_id
 _symmetry_equiv_pos_as_xyz
  1  'x, y, z'
loop_
 _atom_site_type_symbol
 _atom_site_label
 _atom_site_symmetry_multiplicity
 _atom_site_fract_x
 _atom_site_fract_y
 _atom_site_fract_z
 _atom_site_occupancy
  Dy  Dy0  1  0.187487  0.279808  0.467295  1
  Dy  Dy1  1  0.812513  0.720192  0.532705  1
  Dy  Dy2  1  0.187487  0.720192  0.907679  1
  Dy  Dy3  1  0.812513  0.279808  0.092321  1
  Er  Er4  1  0.319538  0.615881  0.296343  1
  Er  Er5  1  0.680462  0.384119  0.703657  1
  Er  Er6  1  0.319538  0.023195  0.703657  1
  Er  Er7  1  0.680462  0.976805  0.296343  1
  Er  Er8  1  0.441911  0.236806  0.205106  1
  Er  Er9  1  0.558089  0.763194  0.794894  1
  Er  Er10  1  0.031700  0.236806  0.794894  1
  Er  Er11  1  0.968300  0.763194  0.205106  1
  In  In12  1  0.500000  0.500000  0.000000  1
  In  In13  1  0.000000  0.000000  0.000000  1
  Si  Si14  1  0.116584  0.616584  0.500000  1
  Si  Si15  1  0.883416  0.383416  0.500000  1
  Si  Si16  1  0.369772  0.000000  0.369772  1
  Si  Si17  1  0.630228  0.000000  0.630228  1
