# generated using pymatgen
data_Er4Mn5Co9(P2Ir)6
_symmetry_space_group_name_H-M   'P 1'
_cell_length_a   3.72018100
_cell_length_b   10.52988548
_cell_length_c   12.21573059
_cell_angle_alpha   90.10323311
_cell_angle_beta   90.00000000
_cell_angle_gamma   90.00000000
_symmetry_Int_Tables_number   1
_chemical_formula_structural   Er4Mn5Co9(P2Ir)6
_chemical_formula_sum   'Er4 Mn5 Co9 P12 Ir6'
_cell_volume   478.52701367
_cell_formula_units_Z   1
loop_
 _symmetry_equiv_pos_site_id
 _symmetry_equiv_pos_as_xyz
  1  'x, y, z'
loop_
 _atom_site_type_symbol
 _atom_site_label
 _atom_site_symmetry_multiplicity
 _atom_site_fract_x
 _atom_site_fract_y
 _atom_site_fract_z
 _atom_site_occupancy
  Er  Er0  1  0.250000  0.582047  0.709157  1
  Er  Er1  1  0.250000  0.913462  0.214406  1
  Er  Er2  1  0.750000  0.420343  0.292321  1
  Er  Er3  1  0.750000  0.081571  0.787350  1
  Mn  Mn4  1  0.250000  0.705807  0.990924  1
  Mn  Mn5  1  0.250000  0.793817  0.484558  1
  Mn  Mn6  1  0.750000  0.292089  0.011468  1
  Mn  Mn7  1  0.750000  0.215044  0.506642  1
  Mn  Mn8  1  0.250000  0.406774  0.486227  1
  Co  Co9  1  0.750000  0.724878  0.322769  1
  Co  Co10  1  0.250000  0.883406  0.692210  1
  Co  Co11  1  0.250000  0.618156  0.197917  1
  Co  Co12  1  0.750000  0.112993  0.306879  1
  Co  Co13  1  0.750000  0.385610  0.803062  1
  Co  Co14  1  0.250000  0.463406  0.935678  1
  Co  Co15  1  0.250000  0.036517  0.433176  1
  Co  Co16  1  0.750000  0.535913  0.066691  1
  Co  Co17  1  0.750000  0.965285  0.562471  1
  P  P18  1  0.250000  0.429341  0.112497  1
  P  P19  1  0.250000  0.071267  0.609167  1
  P  P20  1  0.750000  0.570501  0.889992  1
  P  P21  1  0.750000  0.921640  0.387322  1
  P  P22  1  0.250000  0.273655  0.867785  1
  P  P23  1  0.250000  0.233405  0.373178  1
  P  P24  1  0.750000  0.724480  0.140679  1
  P  P25  1  0.750000  0.773573  0.628245  1
  P  P26  1  0.250000  0.599706  0.380491  1
  P  P27  1  0.250000  0.902129  0.880092  1
  P  P28  1  0.750000  0.403992  0.613386  1
  P  P29  1  0.750000  0.095360  0.121541  1
  Ir  Ir30  1  0.250000  0.095066  0.977580  1
  Ir  Ir31  1  0.750000  0.594516  0.511380  1
  Ir  Ir32  1  0.750000  0.900680  0.025683  1
  Ir  Ir33  1  0.250000  0.224656  0.180414  1
  Ir  Ir34  1  0.250000  0.274748  0.675908  1
  Ir  Ir35  1  0.750000  0.774165  0.820755  1
