# generated using pymatgen
data_Tb2CI3
_symmetry_space_group_name_H-M   'P 1'
_cell_length_a   13.81642500
_cell_length_b   8.51061834
_cell_length_c   16.83971400
_cell_angle_alpha   59.77007430
_cell_angle_beta   90.00000000
_cell_angle_gamma   90.00000000
_symmetry_Int_Tables_number   1
_chemical_formula_structural   Tb2CI3
_chemical_formula_sum   'Tb16 C8 I24'
_cell_volume   1710.84735382
_cell_formula_units_Z   8
loop_
 _symmetry_equiv_pos_site_id
 _symmetry_equiv_pos_as_xyz
  1  'x, y, z'
loop_
 _atom_site_type_symbol
 _atom_site_label
 _atom_site_symmetry_multiplicity
 _atom_site_fract_x
 _atom_site_fract_y
 _atom_site_fract_z
 _atom_site_occupancy
  Tb  Tb0  1  0.597739  0.140255  0.573489  1
  Tb  Tb1  1  0.407148  0.281226  0.430162  1
  Tb  Tb2  1  0.097739  0.859745  0.926511  1
  Tb  Tb3  1  0.907148  0.718774  0.069838  1
  Tb  Tb4  1  0.402261  0.859745  0.426511  1
  Tb  Tb5  1  0.592852  0.718774  0.569838  1
  Tb  Tb6  1  0.902261  0.140255  0.073489  1
  Tb  Tb7  1  0.092852  0.281226  0.930162  1
  Tb  Tb8  1  0.604348  0.624642  0.374874  1
  Tb  Tb9  1  0.395652  0.375358  0.625126  1
  Tb  Tb10  1  0.104348  0.375358  0.125126  1
  Tb  Tb11  1  0.895652  0.624642  0.874874  1
  Tb  Tb12  1  0.367762  0.841763  0.658396  1
  Tb  Tb13  1  0.632238  0.158237  0.341604  1
  Tb  Tb14  1  0.867762  0.158237  0.841604  1
  Tb  Tb15  1  0.132238  0.841763  0.158396  1
  C  C16  1  0.468308  0.962207  0.537946  1
  C  C17  1  0.531692  0.037793  0.462054  1
  C  C18  1  0.968308  0.037793  0.962054  1
  C  C19  1  0.031692  0.962207  0.037946  1
  C  C20  1  0.517639  0.412750  0.513089  1
  C  C21  1  0.017639  0.587250  0.986911  1
  C  C22  1  0.482361  0.587250  0.486911  1
  C  C23  1  0.982361  0.412750  0.013089  1
  I  I24  1  0.763416  0.327602  0.426314  1
  I  I25  1  0.238424  0.185614  0.571904  1
  I  I26  1  0.263416  0.672398  0.073686  1
  I  I27  1  0.738424  0.814386  0.928096  1
  I  I28  1  0.236584  0.672398  0.573686  1
  I  I29  1  0.761576  0.814386  0.428096  1
  I  I30  1  0.736584  0.327602  0.926314  1
  I  I31  1  0.261576  0.185614  0.071904  1
  I  I32  1  0.725356  0.336726  0.665896  1
  I  I33  1  0.274644  0.663274  0.334104  1
  I  I34  1  0.225356  0.663274  0.834104  1
  I  I35  1  0.774644  0.336726  0.165896  1
  I  I36  1  0.484543  0.993785  0.760565  1
  I  I37  1  0.513143  0.514479  0.241988  1
  I  I38  1  0.984543  0.006215  0.739435  1
  I  I39  1  0.013143  0.485521  0.258012  1
  I  I40  1  0.515457  0.006215  0.239435  1
  I  I41  1  0.486857  0.485521  0.758012  1
  I  I42  1  0.015457  0.993785  0.260565  1
  I  I43  1  0.986857  0.514479  0.741988  1
  I  I44  1  0.741315  0.817806  0.677481  1
  I  I45  1  0.258685  0.182194  0.322519  1
  I  I46  1  0.241315  0.182194  0.822519  1
  I  I47  1  0.758685  0.817806  0.177481  1
