# generated using pymatgen
data_Er3Tc(P3Rh4)2
_symmetry_space_group_name_H-M   'P 1'
_cell_length_a   3.91667500
_cell_length_b   11.11400800
_cell_length_c   12.75655900
_cell_angle_alpha   90.00000000
_cell_angle_beta   90.00000000
_cell_angle_gamma   90.00000000
_symmetry_Int_Tables_number   1
_chemical_formula_structural   Er3Tc(P3Rh4)2
_chemical_formula_sum   'Er6 Tc2 P12 Rh16'
_cell_volume   555.29246835
_cell_formula_units_Z   2
loop_
 _symmetry_equiv_pos_site_id
 _symmetry_equiv_pos_as_xyz
  1  'x, y, z'
loop_
 _atom_site_type_symbol
 _atom_site_label
 _atom_site_symmetry_multiplicity
 _atom_site_fract_x
 _atom_site_fract_y
 _atom_site_fract_z
 _atom_site_occupancy
  Er  Er0  1  0.750000  0.250000  0.477841  1
  Er  Er1  1  0.250000  0.750000  0.522159  1
  Er  Er2  1  0.250000  0.933321  0.794404  1
  Er  Er3  1  0.250000  0.566679  0.794404  1
  Er  Er4  1  0.750000  0.066679  0.205596  1
  Er  Er5  1  0.750000  0.433321  0.205596  1
  Tc  Tc6  1  0.250000  0.250000  0.840284  1
  Tc  Tc7  1  0.750000  0.750000  0.159716  1
  P  P8  1  0.250000  0.250000  0.122790  1
  P  P9  1  0.750000  0.750000  0.877210  1
  P  P10  1  0.250000  0.250000  0.652395  1
  P  P11  1  0.750000  0.750000  0.347605  1
  P  P12  1  0.250000  0.434413  0.380970  1
  P  P13  1  0.250000  0.065587  0.380970  1
  P  P14  1  0.750000  0.565587  0.619030  1
  P  P15  1  0.750000  0.934413  0.619030  1
  P  P16  1  0.250000  0.902279  0.111816  1
  P  P17  1  0.250000  0.597721  0.111816  1
  P  P18  1  0.750000  0.097721  0.888184  1
  P  P19  1  0.750000  0.402279  0.888184  1
  Rh  Rh20  1  0.250000  0.250000  0.298816  1
  Rh  Rh21  1  0.750000  0.750000  0.701184  1
  Rh  Rh22  1  0.750000  0.250000  0.011940  1
  Rh  Rh23  1  0.250000  0.750000  0.988060  1
  Rh  Rh24  1  0.250000  0.418454  0.014524  1
  Rh  Rh25  1  0.250000  0.081546  0.014524  1
  Rh  Rh26  1  0.750000  0.581546  0.985476  1
  Rh  Rh27  1  0.750000  0.918454  0.985476  1
  Rh  Rh28  1  0.250000  0.453371  0.567508  1
  Rh  Rh29  1  0.250000  0.046629  0.567508  1
  Rh  Rh30  1  0.750000  0.546629  0.432492  1
  Rh  Rh31  1  0.750000  0.953371  0.432492  1
  Rh  Rh32  1  0.250000  0.875177  0.290433  1
  Rh  Rh33  1  0.250000  0.624823  0.290433  1
  Rh  Rh34  1  0.750000  0.124823  0.709567  1
  Rh  Rh35  1  0.750000  0.375177  0.709567  1
