# generated using pymatgen
data_TmU3(SnIr2)2
_symmetry_space_group_name_H-M   'P 1'
_cell_length_a   7.67506705
_cell_length_b   7.66783783
_cell_length_c   3.53712100
_cell_angle_alpha   90.00000000
_cell_angle_beta   90.00000000
_cell_angle_gamma   91.23349501
_symmetry_Int_Tables_number   1
_chemical_formula_structural   TmU3(SnIr2)2
_chemical_formula_sum   'Tm1 U3 Sn2 Ir4'
_cell_volume   208.11546957
_cell_formula_units_Z   1
loop_
 _symmetry_equiv_pos_site_id
 _symmetry_equiv_pos_as_xyz
  1  'x, y, z'
loop_
 _atom_site_type_symbol
 _atom_site_label
 _atom_site_symmetry_multiplicity
 _atom_site_fract_x
 _atom_site_fract_y
 _atom_site_fract_z
 _atom_site_occupancy
  Tm  Tm0  1  0.170235  0.329728  0.000000  1
  U  U1  1  0.832694  0.667251  0.000000  1
  U  U2  1  0.668974  0.172861  0.000000  1
  U  U3  1  0.327248  0.831046  0.000000  1
  Sn  Sn4  1  0.003471  0.010171  0.500000  1
  Sn  Sn5  1  0.489971  0.496349  0.500000  1
  Ir  Ir6  1  0.386531  0.113606  0.500000  1
  Ir  Ir7  1  0.642861  0.857205  0.500000  1
  Ir  Ir8  1  0.852102  0.374009  0.500000  1
  Ir  Ir9  1  0.125913  0.647773  0.500000  1
