# generated using pymatgen
data_Gd2Ga9TcPd2
_symmetry_space_group_name_H-M   'P 1'
_cell_length_a   7.66462171
_cell_length_b   7.66462125
_cell_length_c   9.63808600
_cell_angle_alpha   90.15681823
_cell_angle_beta   90.15681075
_cell_angle_gamma   120.35825969
_symmetry_Int_Tables_number   1
_chemical_formula_structural   Gd2Ga9TcPd2
_chemical_formula_sum   'Gd4 Ga18 Tc2 Pd4'
_cell_volume   488.55908952
_cell_formula_units_Z   2
loop_
 _symmetry_equiv_pos_site_id
 _symmetry_equiv_pos_as_xyz
  1  'x, y, z'
loop_
 _atom_site_type_symbol
 _atom_site_label
 _atom_site_symmetry_multiplicity
 _atom_site_fract_x
 _atom_site_fract_y
 _atom_site_fract_z
 _atom_site_occupancy
  Gd  Gd0  1  0.994982  0.664057  0.247040  1
  Gd  Gd1  1  0.005018  0.335943  0.752960  1
  Gd  Gd2  1  0.664057  0.994982  0.247040  1
  Gd  Gd3  1  0.335943  0.005018  0.752960  1
  Ga  Ga4  1  0.129186  0.129186  0.251163  1
  Ga  Ga5  1  0.870814  0.870814  0.748837  1
  Ga  Ga6  1  0.002710  0.336363  0.078813  1
  Ga  Ga7  1  0.997290  0.663637  0.921187  1
  Ga  Ga8  1  0.000515  0.667755  0.581460  1
  Ga  Ga9  1  0.332245  0.999485  0.418540  1
  Ga  Ga10  1  0.999485  0.332245  0.418540  1
  Ga  Ga11  1  0.667755  0.000515  0.581460  1
  Ga  Ga12  1  0.663637  0.997290  0.921187  1
  Ga  Ga13  1  0.336363  0.002710  0.078813  1
  Ga  Ga14  1  0.334734  0.334734  0.572272  1
  Ga  Ga15  1  0.665266  0.665266  0.427728  1
  Ga  Ga16  1  0.659345  0.659345  0.061765  1
  Ga  Ga17  1  0.340655  0.340655  0.938235  1
  Ga  Ga18  1  0.335478  0.544538  0.246514  1
  Ga  Ga19  1  0.664522  0.455462  0.753486  1
  Ga  Ga20  1  0.544538  0.335478  0.246514  1
  Ga  Ga21  1  0.455462  0.664522  0.753486  1
  Tc  Tc22  1  0.674623  0.325377  0.000000  1
  Tc  Tc23  1  0.325377  0.674623  0.000000  1
  Pd  Pd24  1  0.330380  0.669620  0.500000  1
  Pd  Pd25  1  0.669620  0.330380  0.500000  1
  Pd  Pd26  1  0.000000  0.000000  0.000000  1
  Pd  Pd27  1  0.000000  0.000000  0.500000  1
