# generated using pymatgen
data_CaEr19Rh12
_symmetry_space_group_name_H-M   'P 1'
_cell_length_a   10.83464162
_cell_length_b   10.84635646
_cell_length_c   6.33133300
_cell_angle_alpha   89.92354120
_cell_angle_beta   90.03982017
_cell_angle_gamma   90.04802343
_symmetry_Int_Tables_number   1
_chemical_formula_structural   CaEr19Rh12
_chemical_formula_sum   'Ca1 Er19 Rh12'
_cell_volume   744.03426395
_cell_formula_units_Z   1
loop_
 _symmetry_equiv_pos_site_id
 _symmetry_equiv_pos_as_xyz
  1  'x, y, z'
loop_
 _atom_site_type_symbol
 _atom_site_label
 _atom_site_symmetry_multiplicity
 _atom_site_fract_x
 _atom_site_fract_y
 _atom_site_fract_z
 _atom_site_occupancy
  Ca  Ca0  1  0.090392  0.288111  0.123826  1
  Er  Er1  1  0.293520  0.087157  0.379785  1
  Er  Er2  1  0.291025  0.911156  0.879154  1
  Er  Er3  1  0.708839  0.088672  0.879253  1
  Er  Er4  1  0.708487  0.911440  0.380155  1
  Er  Er5  1  0.588234  0.791663  0.881977  1
  Er  Er6  1  0.588464  0.209714  0.381165  1
  Er  Er7  1  0.411160  0.790455  0.380168  1
  Er  Er8  1  0.411878  0.208727  0.877886  1
  Er  Er9  1  0.208009  0.412960  0.617836  1
  Er  Er10  1  0.207779  0.588129  0.119712  1
  Er  Er11  1  0.792952  0.410553  0.119471  1
  Er  Er12  1  0.791549  0.590611  0.620517  1
  Er  Er13  1  0.911183  0.709197  0.118844  1
  Er  Er14  1  0.909510  0.292230  0.617004  1
  Er  Er15  1  0.087883  0.709694  0.619382  1
  Er  Er16  1  0.000250  0.999268  0.499049  1
  Er  Er17  1  0.999393  0.000979  0.998432  1
  Er  Er18  1  0.500585  0.499878  0.002236  1
  Er  Er19  1  0.501268  0.500708  0.502180  1
  Rh  Rh20  1  0.838074  0.147440  0.257537  1
  Rh  Rh21  1  0.845455  0.847573  0.752207  1
  Rh  Rh22  1  0.155309  0.150617  0.735701  1
  Rh  Rh23  1  0.152818  0.846939  0.246907  1
  Rh  Rh24  1  0.654488  0.346038  0.751513  1
  Rh  Rh25  1  0.654153  0.652838  0.249611  1
  Rh  Rh26  1  0.356206  0.345719  0.257156  1
  Rh  Rh27  1  0.345555  0.652679  0.751578  1
  Rh  Rh28  1  0.499511  0.999804  0.126341  1
  Rh  Rh29  1  0.499604  0.999456  0.627800  1
  Rh  Rh30  1  0.998218  0.504637  0.869238  1
  Rh  Rh31  1  0.998249  0.504962  0.376375  1
