# generated using pymatgen
data_Ce4Be(ZnRh5)2
_symmetry_space_group_name_H-M   'P 1'
_cell_length_a   7.11659581
_cell_length_b   7.20306350
_cell_length_c   7.20306346
_cell_angle_alpha   108.12794857
_cell_angle_beta   110.40261203
_cell_angle_gamma   110.40261437
_symmetry_Int_Tables_number   1
_chemical_formula_structural   Ce4Be(ZnRh5)2
_chemical_formula_sum   'Ce4 Be1 Zn2 Rh10'
_cell_volume   282.29235579
_cell_formula_units_Z   1
loop_
 _symmetry_equiv_pos_site_id
 _symmetry_equiv_pos_as_xyz
  1  'x, y, z'
loop_
 _atom_site_type_symbol
 _atom_site_label
 _atom_site_symmetry_multiplicity
 _atom_site_fract_x
 _atom_site_fract_y
 _atom_site_fract_z
 _atom_site_occupancy
  Ce  Ce0  1  0.021482  0.010741  0.510741  1
  Ce  Ce1  1  0.021482  0.510741  0.010741  1
  Ce  Ce2  1  0.479806  0.972065  0.972065  1
  Ce  Ce3  1  0.479806  0.507740  0.507740  1
  Be  Be4  1  0.002503  0.001251  0.001251  1
  Zn  Zn5  1  0.745796  0.248811  0.496984  1
  Zn  Zn6  1  0.745796  0.496984  0.248811  1
  Rh  Rh7  1  0.515177  0.257588  0.757588  1
  Rh  Rh8  1  0.235139  0.490100  0.745039  1
  Rh  Rh9  1  0.235139  0.745039  0.490100  1
  Rh  Rh10  1  0.515177  0.757588  0.257588  1
  Rh  Rh11  1  0.743525  0.731296  0.012228  1
  Rh  Rh12  1  0.284015  0.011446  0.272569  1
  Rh  Rh13  1  0.973809  0.254106  0.254106  1
  Rh  Rh14  1  0.284015  0.272569  0.011446  1
  Rh  Rh15  1  0.743525  0.012228  0.731296  1
  Rh  Rh16  1  0.973809  0.719704  0.719704  1
