# generated using pymatgen
data_Nd4Al18(OsPd)3
_symmetry_space_group_name_H-M   'P 1'
_cell_length_a   7.65666859
_cell_length_b   7.65665807
_cell_length_c   9.67155642
_cell_angle_alpha   89.94133373
_cell_angle_beta   89.94136979
_cell_angle_gamma   119.37817284
_symmetry_Int_Tables_number   1
_chemical_formula_structural   Nd4Al18(OsPd)3
_chemical_formula_sum   'Nd4 Al18 Os3 Pd3'
_cell_volume   494.07458342
_cell_formula_units_Z   1
loop_
 _symmetry_equiv_pos_site_id
 _symmetry_equiv_pos_as_xyz
  1  'x, y, z'
loop_
 _atom_site_type_symbol
 _atom_site_label
 _atom_site_symmetry_multiplicity
 _atom_site_fract_x
 _atom_site_fract_y
 _atom_site_fract_z
 _atom_site_occupancy
  Nd  Nd0  1  0.996965  0.671401  0.750879  1
  Nd  Nd1  1  0.003471  0.328708  0.248982  1
  Nd  Nd2  1  0.671292  0.996529  0.751018  1
  Nd  Nd3  1  0.328599  0.003033  0.249122  1
  Al  Al4  1  0.134865  0.133075  0.750497  1
  Al  Al5  1  0.866925  0.865135  0.249503  1
  Al  Al6  1  0.009068  0.340412  0.574230  1
  Al  Al7  1  0.000159  0.664865  0.425701  1
  Al  Al8  1  0.996828  0.658471  0.071493  1
  Al  Al9  1  0.341529  0.003172  0.928507  1
  Al  Al10  1  0.004085  0.341070  0.927964  1
  Al  Al11  1  0.658930  0.995915  0.072036  1
  Al  Al12  1  0.659589  0.990933  0.425770  1
  Al  Al13  1  0.335135  0.999840  0.574300  1
  Al  Al14  1  0.339674  0.339525  0.045199  1
  Al  Al15  1  0.660475  0.660326  0.954801  1
  Al  Al16  1  0.659160  0.664478  0.550654  1
  Al  Al17  1  0.335522  0.340840  0.449346  1
  Al  Al18  1  0.338597  0.548549  0.750724  1
  Al  Al19  1  0.663064  0.455366  0.245434  1
  Al  Al20  1  0.544634  0.336936  0.754566  1
  Al  Al21  1  0.451451  0.661403  0.249275  1
  Os  Os22  1  0.327920  0.672080  0.500000  1
  Os  Os23  1  0.328409  0.671591  0.999999  1
  Os  Os24  1  0.672047  0.327954  0.000000  1
  Pd  Pd25  1  0.671767  0.328233  0.500000  1
  Pd  Pd26  1  0.999840  0.000160  0.500000  1
  Pd  Pd27  1  0.999999  0.000001  0.000000  1
