# generated using pymatgen
data_Y2Ho2Pd3Pb2Au
_symmetry_space_group_name_H-M   'P 1'
_cell_length_a   7.97583601
_cell_length_b   7.97583593
_cell_length_c   3.65771800
_cell_angle_alpha   90.00000000
_cell_angle_beta   90.00000000
_cell_angle_gamma   90.49076212
_symmetry_Int_Tables_number   1
_chemical_formula_structural   Y2Ho2Pd3Pb2Au
_chemical_formula_sum   'Y2 Ho2 Pd3 Pb2 Au1'
_cell_volume   232.67338881
_cell_formula_units_Z   1
loop_
 _symmetry_equiv_pos_site_id
 _symmetry_equiv_pos_as_xyz
  1  'x, y, z'
loop_
 _atom_site_type_symbol
 _atom_site_label
 _atom_site_symmetry_multiplicity
 _atom_site_fract_x
 _atom_site_fract_y
 _atom_site_fract_z
 _atom_site_occupancy
  Y  Y0  1  0.177026  0.331105  0.500000  1
  Y  Y1  1  0.831105  0.677026  0.500000  1
  Ho  Ho2  1  0.664550  0.164550  0.500000  1
  Ho  Ho3  1  0.328467  0.828467  0.500000  1
  Pd  Pd4  1  0.374779  0.122974  0.000000  1
  Pd  Pd5  1  0.622974  0.874779  0.000000  1
  Pd  Pd6  1  0.127972  0.627972  0.000000  1
  Pb  Pb7  1  0.001735  0.995340  0.000000  1
  Pb  Pb8  1  0.495340  0.501735  0.000000  1
  Au  Au9  1  0.876051  0.376051  0.000000  1
