# generated using pymatgen
data_RbCaBe3F9
_symmetry_space_group_name_H-M   'P 1'
_cell_length_a   7.00184700
_cell_length_b   7.00184642
_cell_length_c   10.21586100
_cell_angle_alpha   90.00000000
_cell_angle_beta   90.00000000
_cell_angle_gamma   119.99999799
_symmetry_Int_Tables_number   1
_chemical_formula_structural   RbCaBe3F9
_chemical_formula_sum   'Rb2 Ca2 Be6 F18'
_cell_volume   433.74133633
_cell_formula_units_Z   2
loop_
 _symmetry_equiv_pos_site_id
 _symmetry_equiv_pos_as_xyz
  1  'x, y, z'
loop_
 _atom_site_type_symbol
 _atom_site_label
 _atom_site_symmetry_multiplicity
 _atom_site_fract_x
 _atom_site_fract_y
 _atom_site_fract_z
 _atom_site_occupancy
  Rb  Rb0  1  0.333333  0.666667  0.500000  1
  Rb  Rb1  1  0.333333  0.666667  0.000000  1
  Ca  Ca2  1  0.000000  0.000000  0.500000  1
  Ca  Ca3  1  0.000000  0.000000  0.000000  1
  Be  Be4  1  0.880016  0.283792  0.250000  1
  Be  Be5  1  0.880016  0.596225  0.750000  1
  Be  Be6  1  0.403775  0.283792  0.750000  1
  Be  Be7  1  0.716208  0.119984  0.750000  1
  Be  Be8  1  0.716208  0.596225  0.250000  1
  Be  Be9  1  0.403775  0.119984  0.250000  1
  F  F10  1  0.735931  0.007083  0.625094  1
  F  F11  1  0.271152  0.264069  0.625094  1
  F  F12  1  0.992917  0.728848  0.625094  1
  F  F13  1  0.992917  0.264069  0.374906  1
  F  F14  1  0.895089  0.519165  0.250000  1
  F  F15  1  0.624076  0.104911  0.250000  1
  F  F16  1  0.480835  0.375924  0.250000  1
  F  F17  1  0.480835  0.104911  0.750000  1
  F  F18  1  0.624076  0.519165  0.750000  1
  F  F19  1  0.895089  0.375924  0.750000  1
  F  F20  1  0.992917  0.264069  0.125094  1
  F  F21  1  0.271152  0.007083  0.374906  1
  F  F22  1  0.735931  0.728848  0.374906  1
  F  F23  1  0.735931  0.728848  0.125094  1
  F  F24  1  0.271152  0.007083  0.125094  1
  F  F25  1  0.735931  0.007083  0.874906  1
  F  F26  1  0.271152  0.264069  0.874906  1
  F  F27  1  0.992917  0.728848  0.874906  1
