# generated using pymatgen
data_Cs6PuNpBr12
_symmetry_space_group_name_H-M   'P 1'
_cell_length_a   10.35544000
_cell_length_b   10.38428479
_cell_length_c   8.65304100
_cell_angle_alpha   90.00000000
_cell_angle_beta   90.00000000
_cell_angle_gamma   89.68414090
_symmetry_Int_Tables_number   1
_chemical_formula_structural   Cs6PuNpBr12
_chemical_formula_sum   'Cs6 Pu1 Np1 Br12'
_cell_volume   930.48057091
_cell_formula_units_Z   1
loop_
 _symmetry_equiv_pos_site_id
 _symmetry_equiv_pos_as_xyz
  1  'x, y, z'
loop_
 _atom_site_type_symbol
 _atom_site_label
 _atom_site_symmetry_multiplicity
 _atom_site_fract_x
 _atom_site_fract_y
 _atom_site_fract_z
 _atom_site_occupancy
  Cs  Cs0  1  0.000000  0.000000  0.500000  1
  Cs  Cs1  1  0.000000  0.000000  0.000000  1
  Cs  Cs2  1  0.226804  0.537290  0.500000  1
  Cs  Cs3  1  0.773196  0.462710  0.500000  1
  Cs  Cs4  1  0.463233  0.230336  0.000000  1
  Cs  Cs5  1  0.536767  0.769664  0.000000  1
  Pu  Pu6  1  0.000000  0.500000  0.000000  1
  Np  Np7  1  0.500000  0.000000  0.500000  1
  Br  Br8  1  0.692245  0.026167  0.742064  1
  Br  Br9  1  0.307755  0.973833  0.742064  1
  Br  Br10  1  0.970079  0.694551  0.241894  1
  Br  Br11  1  0.029921  0.305449  0.241894  1
  Br  Br12  1  0.307755  0.973833  0.257936  1
  Br  Br13  1  0.692245  0.026167  0.257936  1
  Br  Br14  1  0.029921  0.305449  0.758106  1
  Br  Br15  1  0.970079  0.694551  0.758106  1
  Br  Br16  1  0.531711  0.723330  0.500000  1
  Br  Br17  1  0.468289  0.276670  0.500000  1
  Br  Br18  1  0.280840  0.531953  0.000000  1
  Br  Br19  1  0.719160  0.468047  0.000000  1
