# generated using pymatgen
data_LaScSe3
_symmetry_space_group_name_H-M   'P 1'
_cell_length_a   6.85914400
_cell_length_b   7.58406300
_cell_length_c   10.07498900
_cell_angle_alpha   90.00000000
_cell_angle_beta   90.00000000
_cell_angle_gamma   90.00000000
_symmetry_Int_Tables_number   1
_chemical_formula_structural   LaScSe3
_chemical_formula_sum   'La4 Sc4 Se12'
_cell_volume   524.10274352
_cell_formula_units_Z   4
loop_
 _symmetry_equiv_pos_site_id
 _symmetry_equiv_pos_as_xyz
  1  'x, y, z'
loop_
 _atom_site_type_symbol
 _atom_site_label
 _atom_site_symmetry_multiplicity
 _atom_site_fract_x
 _atom_site_fract_y
 _atom_site_fract_z
 _atom_site_occupancy
  La  La0  1  0.960306  0.898548  0.750000  1
  La  La1  1  0.460306  0.601452  0.250000  1
  La  La2  1  0.539694  0.398548  0.750000  1
  La  La3  1  0.039694  0.101452  0.250000  1
  Sc  Sc4  1  0.500000  0.000000  0.500000  1
  Sc  Sc5  1  0.000000  0.500000  0.500000  1
  Sc  Sc6  1  0.000000  0.500000  0.000000  1
  Sc  Sc7  1  0.500000  0.000000  0.000000  1
  Se  Se8  1  0.822280  0.187664  0.560125  1
  Se  Se9  1  0.322280  0.312336  0.439875  1
  Se  Se10  1  0.677720  0.687664  0.939875  1
  Se  Se11  1  0.177720  0.812336  0.060125  1
  Se  Se12  1  0.177720  0.812336  0.439875  1
  Se  Se13  1  0.677720  0.687664  0.560125  1
  Se  Se14  1  0.322280  0.312336  0.060125  1
  Se  Se15  1  0.822280  0.187664  0.939875  1
  Se  Se16  1  0.627430  0.965991  0.250000  1
  Se  Se17  1  0.127430  0.534009  0.750000  1
  Se  Se18  1  0.872570  0.465991  0.250000  1
  Se  Se19  1  0.372570  0.034009  0.750000  1
