# generated using pymatgen
data_Nd3CrTcC6
_symmetry_space_group_name_H-M   'P 1'
_cell_length_a   8.27248200
_cell_length_b   8.27248101
_cell_length_c   5.20085500
_cell_angle_alpha   90.00000000
_cell_angle_beta   90.00000000
_cell_angle_gamma   119.99999596
_symmetry_Int_Tables_number   1
_chemical_formula_structural   Nd3CrTcC6
_chemical_formula_sum   'Nd6 Cr2 Tc2 C12'
_cell_volume   308.23148951
_cell_formula_units_Z   2
loop_
 _symmetry_equiv_pos_site_id
 _symmetry_equiv_pos_as_xyz
  1  'x, y, z'
loop_
 _atom_site_type_symbol
 _atom_site_label
 _atom_site_symmetry_multiplicity
 _atom_site_fract_x
 _atom_site_fract_y
 _atom_site_fract_z
 _atom_site_occupancy
  Nd  Nd0  1  0.615637  0.688622  0.750000  1
  Nd  Nd1  1  0.927015  0.615637  0.250000  1
  Nd  Nd2  1  0.688622  0.072985  0.250000  1
  Nd  Nd3  1  0.311378  0.927015  0.750000  1
  Nd  Nd4  1  0.072985  0.384363  0.750000  1
  Nd  Nd5  1  0.384363  0.311378  0.250000  1
  Cr  Cr6  1  0.000000  0.000000  0.500000  1
  Cr  Cr7  1  0.000000  0.000000  0.000000  1
  Tc  Tc8  1  0.666667  0.333333  0.750000  1
  Tc  Tc9  1  0.333333  0.666667  0.250000  1
  C  C10  1  0.957909  0.778989  0.750000  1
  C  C11  1  0.178919  0.957909  0.250000  1
  C  C12  1  0.778989  0.821081  0.250000  1
  C  C13  1  0.221011  0.178919  0.750000  1
  C  C14  1  0.821081  0.042091  0.750000  1
  C  C15  1  0.042091  0.221011  0.250000  1
  C  C16  1  0.870394  0.589581  0.750000  1
  C  C17  1  0.280812  0.870394  0.250000  1
  C  C18  1  0.589581  0.719188  0.250000  1
  C  C19  1  0.410419  0.280812  0.750000  1
  C  C20  1  0.129606  0.410419  0.250000  1
  C  C21  1  0.719188  0.129606  0.750000  1
