# generated using pymatgen
data_BaNi11B6Ir
_symmetry_space_group_name_H-M   'P 1'
_cell_length_a   6.18974299
_cell_length_b   6.11266278
_cell_length_c   6.18974229
_cell_angle_alpha   104.52712685
_cell_angle_beta   104.60552345
_cell_angle_gamma   104.52713299
_symmetry_Int_Tables_number   1
_chemical_formula_structural   BaNi11B6Ir
_chemical_formula_sum   'Ba1 Ni11 B6 Ir1'
_cell_volume   206.68089333
_cell_formula_units_Z   1
loop_
 _symmetry_equiv_pos_site_id
 _symmetry_equiv_pos_as_xyz
  1  'x, y, z'
loop_
 _atom_site_type_symbol
 _atom_site_label
 _atom_site_symmetry_multiplicity
 _atom_site_fract_x
 _atom_site_fract_y
 _atom_site_fract_z
 _atom_site_occupancy
  Ba  Ba0  1  0.997784  0.000000  0.002216  1
  Ni  Ni1  1  0.193299  0.463237  0.459612  1
  Ni  Ni2  1  0.508354  0.871707  0.136927  1
  Ni  Ni3  1  0.463768  0.185790  0.464788  1
  Ni  Ni4  1  0.535212  0.814210  0.536232  1
  Ni  Ni5  1  0.806855  0.534562  0.531043  1
  Ni  Ni6  1  0.540388  0.536763  0.806701  1
  Ni  Ni7  1  0.498411  0.134745  0.867628  1
  Ni  Ni8  1  0.863120  0.500000  0.136880  1
  Ni  Ni9  1  0.132372  0.865255  0.501589  1
  Ni  Ni10  1  0.468957  0.465438  0.193145  1
  Ni  Ni11  1  0.863073  0.128293  0.491646  1
  B  B12  1  0.767978  0.768225  0.351305  1
  B  B13  1  0.232607  0.651725  0.236957  1
  B  B14  1  0.230454  0.228460  0.647994  1
  B  B15  1  0.648695  0.231775  0.232022  1
  B  B16  1  0.352006  0.771540  0.769546  1
  B  B17  1  0.763043  0.348275  0.767393  1
  Ir  Ir18  1  0.133624  0.500000  0.866376  1
