# generated using pymatgen
data_HoLu5Al24(Ir3Ru)2
_symmetry_space_group_name_H-M   'P 1'
_cell_length_a   8.76975717
_cell_length_b   8.76975921
_cell_length_c   9.47530900
_cell_angle_alpha   90.00000000
_cell_angle_beta   90.00000000
_cell_angle_gamma   119.94475440
_symmetry_Int_Tables_number   1
_chemical_formula_structural   HoLu5Al24(Ir3Ru)2
_chemical_formula_sum   'Ho1 Lu5 Al24 Ir6 Ru2'
_cell_volume   631.45259076
_cell_formula_units_Z   1
loop_
 _symmetry_equiv_pos_site_id
 _symmetry_equiv_pos_as_xyz
  1  'x, y, z'
loop_
 _atom_site_type_symbol
 _atom_site_label
 _atom_site_symmetry_multiplicity
 _atom_site_fract_x
 _atom_site_fract_y
 _atom_site_fract_z
 _atom_site_occupancy
  Ho  Ho0  1  0.807574  0.192426  0.750000  1
  Lu  Lu1  1  0.194789  0.390312  0.250000  1
  Lu  Lu2  1  0.804899  0.610201  0.750000  1
  Lu  Lu3  1  0.609688  0.805211  0.250000  1
  Lu  Lu4  1  0.389799  0.195101  0.750000  1
  Lu  Lu5  1  0.194751  0.805249  0.250000  1
  Al  Al6  1  0.333123  0.666877  0.029942  1
  Al  Al7  1  0.666602  0.333398  0.969895  1
  Al  Al8  1  0.666602  0.333398  0.530105  1
  Al  Al9  1  0.333123  0.666877  0.470058  1
  Al  Al10  1  0.163484  0.326295  0.577844  1
  Al  Al11  1  0.836902  0.674311  0.421921  1
  Al  Al12  1  0.673705  0.836516  0.577844  1
  Al  Al13  1  0.836902  0.674311  0.078079  1
  Al  Al14  1  0.325689  0.163098  0.421921  1
  Al  Al15  1  0.163484  0.326295  0.922156  1
  Al  Al16  1  0.162923  0.837077  0.577912  1
  Al  Al17  1  0.325689  0.163098  0.078079  1
  Al  Al18  1  0.836895  0.163105  0.421443  1
  Al  Al19  1  0.673705  0.836516  0.922156  1
  Al  Al20  1  0.836895  0.163105  0.078557  1
  Al  Al21  1  0.162923  0.837077  0.922088  1
  Al  Al22  1  0.561940  0.124820  0.250000  1
  Al  Al23  1  0.437170  0.875356  0.750000  1
  Al  Al24  1  0.875180  0.438060  0.250000  1
  Al  Al25  1  0.124644  0.562830  0.750000  1
  Al  Al26  1  0.562001  0.437999  0.250000  1
  Al  Al27  1  0.437715  0.562285  0.750000  1
  Al  Al28  1  0.999991  0.000009  0.250000  1
  Al  Al29  1  0.001913  0.998087  0.750000  1
  Ir  Ir30  1  0.499498  0.999766  0.000260  1
  Ir  Ir31  1  0.000234  0.500502  0.000260  1
  Ir  Ir32  1  0.499498  0.999766  0.499740  1
  Ir  Ir33  1  0.499840  0.500160  0.999914  1
  Ir  Ir34  1  0.000234  0.500502  0.499740  1
  Ir  Ir35  1  0.499840  0.500160  0.500086  1
  Ru  Ru36  1  0.000080  0.999920  0.999945  1
  Ru  Ru37  1  0.000080  0.999920  0.500055  1
