# generated using pymatgen
data_Tb7ErBePd24
_symmetry_space_group_name_H-M   'P 1'
_cell_length_a   8.33807766
_cell_length_b   8.33807732
_cell_length_c   8.33807700
_cell_angle_alpha   89.93939264
_cell_angle_beta   90.06060736
_cell_angle_gamma   90.06060959
_symmetry_Int_Tables_number   1
_chemical_formula_structural   Tb7ErBePd24
_chemical_formula_sum   'Tb7 Er1 Be1 Pd24'
_cell_volume   579.69162645
_cell_formula_units_Z   1
loop_
 _symmetry_equiv_pos_site_id
 _symmetry_equiv_pos_as_xyz
  1  'x, y, z'
loop_
 _atom_site_type_symbol
 _atom_site_label
 _atom_site_symmetry_multiplicity
 _atom_site_fract_x
 _atom_site_fract_y
 _atom_site_fract_z
 _atom_site_occupancy
  Tb  Tb0  1  0.250482  0.250961  0.250961  1
  Tb  Tb1  1  0.749383  0.749677  0.749677  1
  Tb  Tb2  1  0.749039  0.749518  0.250961  1
  Tb  Tb3  1  0.749039  0.250961  0.749518  1
  Tb  Tb4  1  0.250323  0.250617  0.749677  1
  Tb  Tb5  1  0.250323  0.749677  0.250617  1
  Tb  Tb6  1  0.251453  0.748547  0.748547  1
  Er  Er7  1  0.748325  0.251675  0.251675  1
  Be  Be8  1  0.001446  0.998554  0.998554  1
  Pd  Pd9  1  0.253929  0.499712  0.000056  1
  Pd  Pd10  1  0.746077  0.499172  0.001497  1
  Pd  Pd11  1  0.998503  0.253923  0.499172  1
  Pd  Pd12  1  0.500828  0.253923  0.001497  1
  Pd  Pd13  1  0.999944  0.746071  0.499712  1
  Pd  Pd14  1  0.500288  0.746071  0.000056  1
  Pd  Pd15  1  0.500828  0.001497  0.253923  1
  Pd  Pd16  1  0.253929  0.000056  0.499712  1
  Pd  Pd17  1  0.500288  0.000056  0.746071  1
  Pd  Pd18  1  0.746077  0.001497  0.499172  1
  Pd  Pd19  1  0.998503  0.499172  0.253923  1
  Pd  Pd20  1  0.999944  0.499712  0.746071  1
  Pd  Pd21  1  0.250423  0.499760  0.499760  1
  Pd  Pd22  1  0.748966  0.499544  0.499544  1
  Pd  Pd23  1  0.500456  0.251034  0.499544  1
  Pd  Pd24  1  0.500240  0.749577  0.499760  1
  Pd  Pd25  1  0.500456  0.499544  0.251034  1
  Pd  Pd26  1  0.500240  0.499760  0.749577  1
  Pd  Pd27  1  0.269518  0.999652  0.999652  1
  Pd  Pd28  1  0.732805  0.001374  0.001374  1
  Pd  Pd29  1  0.998626  0.267195  0.001374  1
  Pd  Pd30  1  0.000348  0.730482  0.999652  1
  Pd  Pd31  1  0.998626  0.001374  0.267195  1
  Pd  Pd32  1  0.000348  0.999652  0.730482  1
