# generated using pymatgen
data_Nd16Hg4PdRh3
_symmetry_space_group_name_H-M   'P 1'
_cell_length_a   9.93355762
_cell_length_b   9.93884325
_cell_length_c   9.93884200
_cell_angle_alpha   59.99999752
_cell_angle_beta   59.98239428
_cell_angle_gamma   59.98239703
_symmetry_Int_Tables_number   1
_chemical_formula_structural   Nd16Hg4PdRh3
_chemical_formula_sum   'Nd16 Hg4 Pd1 Rh3'
_cell_volume   693.65867951
_cell_formula_units_Z   1
loop_
 _symmetry_equiv_pos_site_id
 _symmetry_equiv_pos_as_xyz
  1  'x, y, z'
loop_
 _atom_site_type_symbol
 _atom_site_label
 _atom_site_symmetry_multiplicity
 _atom_site_fract_x
 _atom_site_fract_y
 _atom_site_fract_z
 _atom_site_occupancy
  Nd  Nd0  1  0.347282  0.353504  0.353504  1
  Nd  Nd1  1  0.347282  0.353504  0.945708  1
  Nd  Nd2  1  0.347282  0.945708  0.353504  1
  Nd  Nd3  1  0.951128  0.349623  0.349623  1
  Nd  Nd4  1  0.813509  0.191089  0.191089  1
  Nd  Nd5  1  0.189742  0.809851  0.809851  1
  Nd  Nd6  1  0.189742  0.809851  0.190556  1
  Nd  Nd7  1  0.813509  0.191089  0.804314  1
  Nd  Nd8  1  0.189742  0.190556  0.809851  1
  Nd  Nd9  1  0.813509  0.804314  0.191089  1
  Nd  Nd10  1  0.936281  0.563112  0.563112  1
  Nd  Nd11  1  0.561513  0.937348  0.937348  1
  Nd  Nd12  1  0.561513  0.937348  0.563792  1
  Nd  Nd13  1  0.936281  0.563112  0.937495  1
  Nd  Nd14  1  0.561513  0.563792  0.937348  1
  Nd  Nd15  1  0.936281  0.937495  0.563112  1
  Hg  Hg16  1  0.584807  0.583830  0.583830  1
  Hg  Hg17  1  0.584807  0.583830  0.247534  1
  Hg  Hg18  1  0.584807  0.247534  0.583830  1
  Hg  Hg19  1  0.246152  0.584617  0.584617  1
  Pd  Pd20  1  0.570169  0.143278  0.143278  1
  Rh  Rh21  1  0.144384  0.141808  0.141808  1
  Rh  Rh22  1  0.144384  0.141808  0.572001  1
  Rh  Rh23  1  0.144384  0.572001  0.141808  1
