# generated using pymatgen
data_Ta3Co6Si2Ru
_symmetry_space_group_name_H-M   'P 1'
_cell_length_a   4.81026200
_cell_length_b   4.81026192
_cell_length_c   7.48460500
_cell_angle_alpha   90.00000000
_cell_angle_beta   90.00000000
_cell_angle_gamma   120.00000054
_symmetry_Int_Tables_number   1
_chemical_formula_structural   Ta3Co6Si2Ru
_chemical_formula_sum   'Ta3 Co6 Si2 Ru1'
_cell_volume   149.98125074
_cell_formula_units_Z   1
loop_
 _symmetry_equiv_pos_site_id
 _symmetry_equiv_pos_as_xyz
  1  'x, y, z'
loop_
 _atom_site_type_symbol
 _atom_site_label
 _atom_site_symmetry_multiplicity
 _atom_site_fract_x
 _atom_site_fract_y
 _atom_site_fract_z
 _atom_site_occupancy
  Ta  Ta0  1  0.666667  0.333333  0.545820  1
  Ta  Ta1  1  0.666667  0.333333  0.930260  1
  Ta  Ta2  1  0.333333  0.666667  0.084721  1
  Co  Co3  1  0.831851  0.168149  0.246485  1
  Co  Co4  1  0.831851  0.663703  0.246485  1
  Co  Co5  1  0.336297  0.168149  0.246485  1
  Co  Co6  1  0.171788  0.828212  0.752427  1
  Co  Co7  1  0.171788  0.343575  0.752427  1
  Co  Co8  1  0.656425  0.828212  0.752427  1
  Si  Si9  1  0.000000  0.000000  0.501431  1
  Si  Si10  1  0.000000  0.000000  0.995444  1
  Ru  Ru11  1  0.333333  0.666667  0.445589  1
