# generated using pymatgen
data_LaPr9InSi5
_symmetry_space_group_name_H-M   'P 1'
_cell_length_a   7.85295739
_cell_length_b   7.85295761
_cell_length_c   9.25740906
_cell_angle_alpha   115.09653227
_cell_angle_beta   115.09652129
_cell_angle_gamma   89.99999894
_symmetry_Int_Tables_number   1
_chemical_formula_structural   LaPr9InSi5
_chemical_formula_sum   'La1 Pr9 In1 Si5'
_cell_volume   456.78806624
_cell_formula_units_Z   1
loop_
 _symmetry_equiv_pos_site_id
 _symmetry_equiv_pos_as_xyz
  1  'x, y, z'
loop_
 _atom_site_type_symbol
 _atom_site_label
 _atom_site_symmetry_multiplicity
 _atom_site_fract_x
 _atom_site_fract_y
 _atom_site_fract_z
 _atom_site_occupancy
  La  La0  1  0.526334  0.526334  0.052669  1
  Pr  Pr1  1  0.975259  0.975259  0.950516  1
  Pr  Pr2  1  0.976192  0.829035  0.279036  1
  Pr  Pr3  1  0.302844  0.450001  0.279036  1
  Pr  Pr4  1  0.829035  0.302844  0.279036  1
  Pr  Pr5  1  0.450001  0.976192  0.279036  1
  Pr  Pr6  1  0.050065  0.196921  0.720583  1
  Pr  Pr7  1  0.670518  0.523662  0.720583  1
  Pr  Pr8  1  0.196921  0.670518  0.720583  1
  Pr  Pr9  1  0.523662  0.050065  0.720583  1
  In  In10  1  0.751131  0.751131  0.502262  1
  Si  Si11  1  0.249682  0.249682  0.499363  1
  Si  Si12  1  0.614681  0.885358  0.999178  1
  Si  Si13  1  0.384497  0.113820  0.999178  1
  Si  Si14  1  0.885358  0.384497  0.999178  1
  Si  Si15  1  0.113820  0.614681  0.999178  1
