# generated using pymatgen
data_Rb3Na2ZrAs3
_symmetry_space_group_name_H-M   'P 1'
_cell_length_a   11.08640000
_cell_length_b   11.08640023
_cell_length_c   15.97929500
_cell_angle_alpha   90.00000000
_cell_angle_beta   90.00000000
_cell_angle_gamma   142.85089493
_symmetry_Int_Tables_number   1
_chemical_formula_structural   Rb3Na2ZrAs3
_chemical_formula_sum   'Rb12 Na8 Zr4 As12'
_cell_volume   1186.03500560
_cell_formula_units_Z   4
loop_
 _symmetry_equiv_pos_site_id
 _symmetry_equiv_pos_as_xyz
  1  'x, y, z'
loop_
 _atom_site_type_symbol
 _atom_site_label
 _atom_site_symmetry_multiplicity
 _atom_site_fract_x
 _atom_site_fract_y
 _atom_site_fract_z
 _atom_site_occupancy
  Rb  Rb0  1  0.947829  0.607722  0.823829  1
  Rb  Rb1  1  0.552171  0.892278  0.323829  1
  Rb  Rb2  1  0.392278  0.052171  0.176171  1
  Rb  Rb3  1  0.052171  0.392278  0.176171  1
  Rb  Rb4  1  0.892278  0.552171  0.323829  1
  Rb  Rb5  1  0.447829  0.107722  0.676171  1
  Rb  Rb6  1  0.607722  0.947829  0.823829  1
  Rb  Rb7  1  0.280404  0.280404  0.316141  1
  Rb  Rb8  1  0.780404  0.780404  0.183859  1
  Rb  Rb9  1  0.219596  0.219596  0.816141  1
  Rb  Rb10  1  0.719596  0.719596  0.683859  1
  Rb  Rb11  1  0.107722  0.447829  0.676171  1
  Na  Na12  1  0.919702  0.080298  0.000000  1
  Na  Na13  1  0.580298  0.419702  0.500000  1
  Na  Na14  1  0.080298  0.919702  0.000000  1
  Na  Na15  1  0.419702  0.580298  0.500000  1
  Na  Na16  1  0.754873  0.245127  0.000000  1
  Na  Na17  1  0.745127  0.254873  0.500000  1
  Na  Na18  1  0.245127  0.754873  0.000000  1
  Na  Na19  1  0.254873  0.745127  0.500000  1
  Zr  Zr20  1  0.585993  0.414007  0.000000  1
  Zr  Zr21  1  0.914007  0.085993  0.500000  1
  Zr  Zr22  1  0.414007  0.585993  0.000000  1
  Zr  Zr23  1  0.085993  0.914007  0.500000  1
  As  As24  1  0.873933  0.560689  0.096380  1
  As  As25  1  0.439311  0.126067  0.903620  1
  As  As26  1  0.626067  0.939311  0.596380  1
  As  As27  1  0.939311  0.626067  0.596380  1
  As  As28  1  0.126067  0.439311  0.903620  1
  As  As29  1  0.560689  0.873933  0.096380  1
  As  As30  1  0.373933  0.060689  0.403620  1
  As  As31  1  0.201828  0.201828  0.587614  1
  As  As32  1  0.701828  0.701828  0.912386  1
  As  As33  1  0.298172  0.298172  0.087614  1
  As  As34  1  0.060689  0.373933  0.403620  1
  As  As35  1  0.798172  0.798172  0.412386  1
