# generated using pymatgen
data_TbPrHo4Ta2O14
_symmetry_space_group_name_H-M   'P 1'
_cell_length_a   6.49761130
_cell_length_b   6.49761207
_cell_length_c   7.54253531
_cell_angle_alpha   89.89577470
_cell_angle_beta   90.10422481
_cell_angle_gamma   108.79675392
_symmetry_Int_Tables_number   1
_chemical_formula_structural   TbPrHo4Ta2O14
_chemical_formula_sum   'Tb1 Pr1 Ho4 Ta2 O14'
_cell_volume   301.45413563
_cell_formula_units_Z   1
loop_
 _symmetry_equiv_pos_site_id
 _symmetry_equiv_pos_as_xyz
  1  'x, y, z'
loop_
 _atom_site_type_symbol
 _atom_site_label
 _atom_site_symmetry_multiplicity
 _atom_site_fract_x
 _atom_site_fract_y
 _atom_site_fract_z
 _atom_site_occupancy
  Tb  Tb0  1  0.462968  0.462968  0.000000  1
  Pr  Pr1  1  0.514741  0.514741  0.500000  1
  Ho  Ho2  1  0.999952  0.534503  0.240424  1
  Ho  Ho3  1  0.998502  0.466199  0.745887  1
  Ho  Ho4  1  0.534503  0.999952  0.759576  1
  Ho  Ho5  1  0.466199  0.998502  0.254113  1
  Ta  Ta6  1  0.001500  0.001500  0.500000  1
  Ta  Ta7  1  0.997010  0.997010  0.000000  1
  O  O8  1  0.933128  0.067194  0.749614  1
  O  O9  1  0.067194  0.933128  0.250386  1
  O  O10  1  0.356997  0.642975  0.240431  1
  O  O11  1  0.642975  0.356997  0.759569  1
  O  O12  1  0.365303  0.633658  0.759101  1
  O  O13  1  0.633658  0.365303  0.240899  1
  O  O14  1  0.326569  0.079837  0.974158  1
  O  O15  1  0.675252  0.926367  0.472801  1
  O  O16  1  0.314498  0.060692  0.541614  1
  O  O17  1  0.691512  0.950639  0.042345  1
  O  O18  1  0.060692  0.314498  0.458386  1
  O  O19  1  0.950639  0.691512  0.957655  1
  O  O20  1  0.926367  0.675252  0.527199  1
  O  O21  1  0.079837  0.326569  0.025842  1
