# generated using pymatgen
data_Dy2TmSc3FeBi2
_symmetry_space_group_name_H-M   'P 1'
_cell_length_a   7.96038611
_cell_length_b   7.96490390
_cell_length_c   4.17084400
_cell_angle_alpha   90.00000000
_cell_angle_beta   90.00000000
_cell_angle_gamma   119.97861353
_symmetry_Int_Tables_number   1
_chemical_formula_structural   Dy2TmSc3FeBi2
_chemical_formula_sum   'Dy2 Tm1 Sc3 Fe1 Bi2'
_cell_volume   229.06714529
_cell_formula_units_Z   1
loop_
 _symmetry_equiv_pos_site_id
 _symmetry_equiv_pos_as_xyz
  1  'x, y, z'
loop_
 _atom_site_type_symbol
 _atom_site_label
 _atom_site_symmetry_multiplicity
 _atom_site_fract_x
 _atom_site_fract_y
 _atom_site_fract_z
 _atom_site_occupancy
  Dy  Dy0  1  0.000263  0.614125  0.000000  1
  Dy  Dy1  1  0.386060  0.385792  0.000000  1
  Tm  Tm2  1  0.615330  0.999992  0.000000  1
  Sc  Sc3  1  0.221066  0.000005  0.500000  1
  Sc  Sc4  1  0.999199  0.220716  0.500000  1
  Sc  Sc5  1  0.778542  0.779349  0.500000  1
  Fe  Fe6  1  0.998526  0.000000  0.000000  1
  Bi  Bi7  1  0.334441  0.667835  0.500000  1
  Bi  Bi8  1  0.666575  0.332186  0.500000  1
