# generated using pymatgen
data_TmMnF7
_symmetry_space_group_name_H-M   'P 1'
_cell_length_a   5.44167500
_cell_length_b   5.79459326
_cell_length_c   7.92052512
_cell_angle_alpha   102.56026665
_cell_angle_beta   90.00000000
_cell_angle_gamma   90.00000000
_symmetry_Int_Tables_number   1
_chemical_formula_structural   TmMnF7
_chemical_formula_sum   'Tm2 Mn2 F14'
_cell_volume   243.77519975
_cell_formula_units_Z   2
loop_
 _symmetry_equiv_pos_site_id
 _symmetry_equiv_pos_as_xyz
  1  'x, y, z'
loop_
 _atom_site_type_symbol
 _atom_site_label
 _atom_site_symmetry_multiplicity
 _atom_site_fract_x
 _atom_site_fract_y
 _atom_site_fract_z
 _atom_site_occupancy
  Tm  Tm0  1  0.698100  0.658339  0.689746  1
  Tm  Tm1  1  0.198100  0.341661  0.310254  1
  Mn  Mn2  1  0.710348  0.812717  0.224618  1
  Mn  Mn3  1  0.210348  0.187283  0.775382  1
  F  F4  1  0.887197  0.448949  0.477035  1
  F  F5  1  0.387197  0.551051  0.522965  1
  F  F6  1  0.419248  0.936698  0.773026  1
  F  F7  1  0.919248  0.063302  0.226974  1
  F  F8  1  0.949806  0.976971  0.763050  1
  F  F9  1  0.449806  0.023029  0.236950  1
  F  F10  1  0.006130  0.443979  0.791422  1
  F  F11  1  0.506130  0.556021  0.208578  1
  F  F12  1  0.703992  0.761410  0.986624  1
  F  F13  1  0.203992  0.238590  0.013376  1
  F  F14  1  0.714090  0.871368  0.461457  1
  F  F15  1  0.214090  0.128632  0.538543  1
  F  F16  1  0.487450  0.376274  0.788508  1
  F  F17  1  0.987450  0.623726  0.211492  1
