# generated using pymatgen
data_Yb2CeThH11
_symmetry_space_group_name_H-M   'P 1'
_cell_length_a   6.64516949
_cell_length_b   6.64516869
_cell_length_c   6.64516798
_cell_angle_alpha   133.37393793
_cell_angle_beta   133.37392842
_cell_angle_gamma   68.06750899
_symmetry_Int_Tables_number   1
_chemical_formula_structural   Yb2CeThH11
_chemical_formula_sum   'Yb2 Ce1 Th1 H11'
_cell_volume   152.34601402
_cell_formula_units_Z   1
loop_
 _symmetry_equiv_pos_site_id
 _symmetry_equiv_pos_as_xyz
  1  'x, y, z'
loop_
 _atom_site_type_symbol
 _atom_site_label
 _atom_site_symmetry_multiplicity
 _atom_site_fract_x
 _atom_site_fract_y
 _atom_site_fract_z
 _atom_site_occupancy
  Yb  Yb0  1  0.500771  0.000771  0.500000  1
  Yb  Yb1  1  0.000771  0.500771  0.500000  1
  Ce  Ce2  1  0.738054  0.738054  0.000000  1
  Th  Th3  1  0.262441  0.262441  0.000000  1
  H  H4  1  0.643708  0.112487  0.000000  1
  H  H5  1  0.351511  0.351511  0.458854  1
  H  H6  1  0.112487  0.643708  0.000000  1
  H  H7  1  0.892656  0.892656  0.541146  1
  H  H8  1  0.892656  0.351511  0.000000  1
  H  H9  1  0.643708  0.643708  0.531222  1
  H  H10  1  0.351511  0.892656  0.000000  1
  H  H11  1  0.112487  0.112487  0.468778  1
  H  H12  1  0.749649  0.249649  0.500000  1
  H  H13  1  0.497937  0.497937  0.000000  1
  H  H14  1  0.249649  0.749649  0.500000  1
