# generated using pymatgen
data_Ho5ErPtI10
_symmetry_space_group_name_H-M   'P 1'
_cell_length_a   7.72904246
_cell_length_b   9.72070505
_cell_length_c   9.75175175
_cell_angle_alpha   106.96920690
_cell_angle_beta   96.89059290
_cell_angle_gamma   104.41094274
_symmetry_Int_Tables_number   1
_chemical_formula_structural   Ho5ErPtI10
_chemical_formula_sum   'Ho5 Er1 Pt1 I10'
_cell_volume   663.88516315
_cell_formula_units_Z   1
loop_
 _symmetry_equiv_pos_site_id
 _symmetry_equiv_pos_as_xyz
  1  'x, y, z'
loop_
 _atom_site_type_symbol
 _atom_site_label
 _atom_site_symmetry_multiplicity
 _atom_site_fract_x
 _atom_site_fract_y
 _atom_site_fract_z
 _atom_site_occupancy
  Ho  Ho0  1  0.345803  0.123061  0.164254  1
  Ho  Ho1  1  0.654404  0.876998  0.835482  1
  Ho  Ho2  1  0.969120  0.284406  0.084686  1
  Ho  Ho3  1  0.030978  0.715048  0.914625  1
  Ho  Ho4  1  0.885924  0.959090  0.240678  1
  Er  Er5  1  0.113809  0.040613  0.760037  1
  Pt  Pt6  1  0.000115  0.999850  0.999914  1
  I  I7  1  0.349800  0.449338  0.271700  1
  I  I8  1  0.649634  0.550626  0.728483  1
  I  I9  1  0.774173  0.255654  0.343612  1
  I  I10  1  0.225807  0.745224  0.656090  1
  I  I11  1  0.544814  0.184275  0.906935  1
  I  I12  1  0.454854  0.815695  0.092954  1
  I  I13  1  0.743961  0.913415  0.538176  1
  I  I14  1  0.256724  0.087371  0.462831  1
  I  I15  1  0.914883  0.627503  0.179842  1
  I  I16  1  0.085196  0.371832  0.819699  1
