# generated using pymatgen
data_YUTeN2
_symmetry_space_group_name_H-M   'P 1'
_cell_length_a   6.89271175
_cell_length_b   6.89271105
_cell_length_c   6.89271189
_cell_angle_alpha   146.98393044
_cell_angle_beta   146.98392357
_cell_angle_gamma   47.38758301
_symmetry_Int_Tables_number   1
_chemical_formula_structural   YUTeN2
_chemical_formula_sum   'Y1 U1 Te1 N2'
_cell_volume   96.84589852
_cell_formula_units_Z   1
loop_
 _symmetry_equiv_pos_site_id
 _symmetry_equiv_pos_as_xyz
  1  'x, y, z'
loop_
 _atom_site_type_symbol
 _atom_site_label
 _atom_site_symmetry_multiplicity
 _atom_site_fract_x
 _atom_site_fract_y
 _atom_site_fract_z
 _atom_site_occupancy
  Y  Y0  1  0.340445  0.340445  0.000000  1
  U  U1  1  0.667547  0.667547  0.000000  1
  Te  Te2  1  0.005092  0.005092  0.000000  1
  N  N3  1  0.743458  0.243458  0.500000  1
  N  N4  1  0.243458  0.743458  0.500000  1
