# generated using pymatgen
data_Dy6Cd23S
_symmetry_space_group_name_H-M   'P 1'
_cell_length_a   9.95629081
_cell_length_b   9.95629121
_cell_length_c   9.95629200
_cell_angle_alpha   60.00000403
_cell_angle_beta   60.00000268
_cell_angle_gamma   60.00000121
_symmetry_Int_Tables_number   1
_chemical_formula_structural   Dy6Cd23S
_chemical_formula_sum   'Dy6 Cd23 S1'
_cell_volume   697.87528361
_cell_formula_units_Z   1
loop_
 _symmetry_equiv_pos_site_id
 _symmetry_equiv_pos_as_xyz
  1  'x, y, z'
loop_
 _atom_site_type_symbol
 _atom_site_label
 _atom_site_symmetry_multiplicity
 _atom_site_fract_x
 _atom_site_fract_y
 _atom_site_fract_z
 _atom_site_occupancy
  Dy  Dy0  1  0.697391  0.302609  0.302610  1
  Dy  Dy1  1  0.697391  0.302609  0.697390  1
  Dy  Dy2  1  0.697389  0.697390  0.302610  1
  Dy  Dy3  1  0.302609  0.697391  0.697390  1
  Dy  Dy4  1  0.302609  0.697391  0.302610  1
  Dy  Dy5  1  0.302611  0.302610  0.697390  1
  Cd  Cd6  1  0.634642  0.121786  0.121786  1
  Cd  Cd7  1  0.121786  0.634641  0.121786  1
  Cd  Cd8  1  0.121786  0.121785  0.634641  1
  Cd  Cd9  1  0.121787  0.121785  0.121786  1
  Cd  Cd10  1  0.365358  0.878214  0.878214  1
  Cd  Cd11  1  0.878214  0.365359  0.878214  1
  Cd  Cd12  1  0.878214  0.878215  0.365359  1
  Cd  Cd13  1  0.878213  0.878215  0.878214  1
  Cd  Cd14  1  0.500000  0.000000  0.000000  1
  Cd  Cd15  1  0.500000  0.000000  0.500000  1
  Cd  Cd16  1  0.500000  0.500000  0.000000  1
  Cd  Cd17  1  0.000000  0.500000  0.500000  1
  Cd  Cd18  1  0.000000  0.500000  0.000000  1
  Cd  Cd19  1  0.000000  0.000000  0.500000  1
  Cd  Cd20  1  0.000000  0.000000  0.000000  1
  Cd  Cd21  1  0.989418  0.336861  0.336861  1
  Cd  Cd22  1  0.336860  0.989417  0.336861  1
  Cd  Cd23  1  0.336861  0.336860  0.989418  1
  Cd  Cd24  1  0.336861  0.336861  0.336861  1
  Cd  Cd25  1  0.010582  0.663139  0.663139  1
  Cd  Cd26  1  0.663140  0.010583  0.663139  1
  Cd  Cd27  1  0.663139  0.663140  0.010582  1
  Cd  Cd28  1  0.663139  0.663139  0.663139  1
  S  S29  1  0.500000  0.500000  0.500000  1
