# generated using pymatgen
data_Ba18Sr2Si11Au
_symmetry_space_group_name_H-M   'P 1'
_cell_length_a   8.44238600
_cell_length_b   8.44238600
_cell_length_c   16.88557000
_cell_angle_alpha   90.00000000
_cell_angle_beta   90.00000000
_cell_angle_gamma   90.00000000
_symmetry_Int_Tables_number   1
_chemical_formula_structural   Ba18Sr2Si11Au
_chemical_formula_sum   'Ba18 Sr2 Si11 Au1'
_cell_volume   1203.50011310
_cell_formula_units_Z   1
loop_
 _symmetry_equiv_pos_site_id
 _symmetry_equiv_pos_as_xyz
  1  'x, y, z'
loop_
 _atom_site_type_symbol
 _atom_site_label
 _atom_site_symmetry_multiplicity
 _atom_site_fract_x
 _atom_site_fract_y
 _atom_site_fract_z
 _atom_site_occupancy
  Ba  Ba0  1  0.312082  0.673701  0.109727  1
  Ba  Ba1  1  0.173701  0.187918  0.109727  1
  Ba  Ba2  1  0.331571  0.695639  0.392313  1
  Ba  Ba3  1  0.664788  0.696224  0.890100  1
  Ba  Ba4  1  0.195639  0.168429  0.392313  1
  Ba  Ba5  1  0.668429  0.304361  0.392313  1
  Ba  Ba6  1  0.173261  0.808520  0.607056  1
  Ba  Ba7  1  0.335212  0.303776  0.890100  1
  Ba  Ba8  1  0.196224  0.835212  0.890100  1
  Ba  Ba9  1  0.826739  0.191480  0.607056  1
  Ba  Ba10  1  0.308520  0.326739  0.607056  1
  Ba  Ba11  1  0.804361  0.831571  0.392313  1
  Ba  Ba12  1  0.803776  0.164788  0.890100  1
  Ba  Ba13  1  0.826299  0.812082  0.109727  1
  Ba  Ba14  1  0.000000  0.500000  0.276967  1
  Ba  Ba15  1  0.000000  0.500000  0.769723  1
  Ba  Ba16  1  0.687918  0.326299  0.109727  1
  Ba  Ba17  1  0.691480  0.673261  0.607056  1
  Sr  Sr18  1  0.500000  0.000000  0.725707  1
  Sr  Sr19  1  0.500000  0.000000  0.229504  1
  Si  Si20  1  0.104356  0.100826  0.749706  1
  Si  Si21  1  0.399174  0.604356  0.749706  1
  Si  Si22  1  0.598444  0.606606  0.249485  1
  Si  Si23  1  0.500000  0.000000  0.014828  1
  Si  Si24  1  0.106606  0.901556  0.249485  1
  Si  Si25  1  0.600826  0.395644  0.749706  1
  Si  Si26  1  0.895644  0.899174  0.749706  1
  Si  Si27  1  0.401556  0.393394  0.249485  1
  Si  Si28  1  0.893394  0.098444  0.249485  1
  Si  Si29  1  0.500000  0.000000  0.515096  1
  Si  Si30  1  0.000000  0.500000  0.487254  1
  Au  Au31  1  0.000000  0.500000  0.987380  1
