# generated using pymatgen
data_Ba5Sc4CO13
_symmetry_space_group_name_H-M   'P 1'
_cell_length_a   4.08059700
_cell_length_b   9.47360010
_cell_length_c   9.45689084
_cell_angle_alpha   90.06302828
_cell_angle_beta   90.00000000
_cell_angle_gamma   90.00000000
_symmetry_Int_Tables_number   1
_chemical_formula_structural   Ba5Sc4CO13
_chemical_formula_sum   'Ba5 Sc4 C1 O13'
_cell_volume   365.58373665
_cell_formula_units_Z   1
loop_
 _symmetry_equiv_pos_site_id
 _symmetry_equiv_pos_as_xyz
  1  'x, y, z'
loop_
 _atom_site_type_symbol
 _atom_site_label
 _atom_site_symmetry_multiplicity
 _atom_site_fract_x
 _atom_site_fract_y
 _atom_site_fract_z
 _atom_site_occupancy
  Ba  Ba0  1  0.000000  0.999556  0.998640  1
  Ba  Ba1  1  0.000000  0.181919  0.399740  1
  Ba  Ba2  1  0.000000  0.816603  0.605802  1
  Ba  Ba3  1  0.000000  0.402148  0.812735  1
  Ba  Ba4  1  0.000000  0.608172  0.181866  1
  Sc  Sc5  1  0.500000  0.297290  0.088457  1
  Sc  Sc6  1  0.500000  0.706150  0.909713  1
  Sc  Sc7  1  0.500000  0.091011  0.705401  1
  Sc  Sc8  1  0.500000  0.913159  0.294386  1
  C  C9  1  0.500000  0.506861  0.521767  1
  O  O10  1  0.500000  0.103077  0.204563  1
  O  O11  1  0.500000  0.902512  0.797442  1
  O  O12  1  0.500000  0.208128  0.899247  1
  O  O13  1  0.500000  0.798618  0.100527  1
  O  O14  1  0.000000  0.320866  0.141311  1
  O  O15  1  0.000000  0.690394  0.873374  1
  O  O16  1  0.000000  0.133047  0.687563  1
  O  O17  1  0.000000  0.869190  0.317070  1
  O  O18  1  0.500000  0.500712  0.999140  1
  O  O19  1  0.500000  0.999049  0.501398  1
  O  O20  1  0.500000  0.579305  0.640543  1
  O  O21  1  0.500000  0.369012  0.527815  1
  O  O22  1  0.500000  0.573219  0.401499  1
