# generated using pymatgen
data_Yb8ErLuIr4
_symmetry_space_group_name_H-M   'P 1'
_cell_length_a   8.49416968
_cell_length_b   8.49416917
_cell_length_c   7.28455332
_cell_angle_alpha   82.66699141
_cell_angle_beta   82.66699346
_cell_angle_gamma   45.03131554
_symmetry_Int_Tables_number   1
_chemical_formula_structural   Yb8ErLuIr4
_chemical_formula_sum   'Yb8 Er1 Lu1 Ir4'
_cell_volume   368.28285957
_cell_formula_units_Z   1
loop_
 _symmetry_equiv_pos_site_id
 _symmetry_equiv_pos_as_xyz
  1  'x, y, z'
loop_
 _atom_site_type_symbol
 _atom_site_label
 _atom_site_symmetry_multiplicity
 _atom_site_fract_x
 _atom_site_fract_y
 _atom_site_fract_z
 _atom_site_occupancy
  Yb  Yb0  1  0.358481  0.205219  0.320362  1
  Yb  Yb1  1  0.199825  0.971270  0.077719  1
  Yb  Yb2  1  0.799541  0.029463  0.923606  1
  Yb  Yb3  1  0.970537  0.200459  0.576394  1
  Yb  Yb4  1  0.641487  0.795090  0.679352  1
  Yb  Yb5  1  0.204910  0.358513  0.820648  1
  Yb  Yb6  1  0.794781  0.641519  0.179638  1
  Yb  Yb7  1  0.028730  0.800175  0.422281  1
  Er  Er8  1  0.435661  0.564339  0.750000  1
  Lu  Lu9  1  0.562904  0.437096  0.250000  1
  Ir  Ir10  1  0.400291  0.810228  0.424158  1
  Ir  Ir11  1  0.189772  0.599709  0.075842  1
  Ir  Ir12  1  0.810967  0.397886  0.927552  1
  Ir  Ir13  1  0.602114  0.189033  0.572448  1
