# generated using pymatgen
data_Sc10CuPPb6
_symmetry_space_group_name_H-M   'P 1'
_cell_length_a   8.71060700
_cell_length_b   8.71060780
_cell_length_c   6.29117600
_cell_angle_alpha   90.00000000
_cell_angle_beta   90.00000000
_cell_angle_gamma   120.00000836
_symmetry_Int_Tables_number   1
_chemical_formula_structural   Sc10CuPPb6
_chemical_formula_sum   'Sc10 Cu1 P1 Pb6'
_cell_volume   413.38937471
_cell_formula_units_Z   1
loop_
 _symmetry_equiv_pos_site_id
 _symmetry_equiv_pos_as_xyz
  1  'x, y, z'
loop_
 _atom_site_type_symbol
 _atom_site_label
 _atom_site_symmetry_multiplicity
 _atom_site_fract_x
 _atom_site_fract_y
 _atom_site_fract_z
 _atom_site_occupancy
  Sc  Sc0  1  0.245905  0.000000  0.235324  1
  Sc  Sc1  1  0.754095  0.000000  0.764676  1
  Sc  Sc2  1  0.000000  0.245905  0.235324  1
  Sc  Sc3  1  0.000000  0.754095  0.764676  1
  Sc  Sc4  1  0.754095  0.754095  0.235324  1
  Sc  Sc5  1  0.245905  0.245905  0.764676  1
  Sc  Sc6  1  0.333333  0.666667  0.000000  1
  Sc  Sc7  1  0.666667  0.333333  0.000000  1
  Sc  Sc8  1  0.666667  0.333333  0.500000  1
  Sc  Sc9  1  0.333333  0.666667  0.500000  1
  Cu  Cu10  1  0.000000  0.000000  0.500000  1
  P  P11  1  0.000000  0.000000  0.000000  1
  Pb  Pb12  1  0.606150  0.000000  0.251376  1
  Pb  Pb13  1  0.393850  0.000000  0.748624  1
  Pb  Pb14  1  0.000000  0.606150  0.251376  1
  Pb  Pb15  1  0.000000  0.393850  0.748624  1
  Pb  Pb16  1  0.393850  0.393850  0.251376  1
  Pb  Pb17  1  0.606150  0.606150  0.748624  1
