# generated using pymatgen
data_Tb3Er9Ga2Co3Ni
_symmetry_space_group_name_H-M   'P 1'
_cell_length_a   8.21658546
_cell_length_b   8.23535384
_cell_length_c   8.23535402
_cell_angle_alpha   112.58201311
_cell_angle_beta   109.33849340
_cell_angle_gamma   106.63377648
_symmetry_Int_Tables_number   1
_chemical_formula_structural   Tb3Er9Ga2Co3Ni
_chemical_formula_sum   'Tb3 Er9 Ga2 Co3 Ni1'
_cell_volume   427.36166201
_cell_formula_units_Z   1
loop_
 _symmetry_equiv_pos_site_id
 _symmetry_equiv_pos_as_xyz
  1  'x, y, z'
loop_
 _atom_site_type_symbol
 _atom_site_label
 _atom_site_symmetry_multiplicity
 _atom_site_fract_x
 _atom_site_fract_y
 _atom_site_fract_z
 _atom_site_occupancy
  Tb  Tb0  1  0.041402  0.738386  0.303016  1
  Tb  Tb1  1  0.957688  0.260664  0.697025  1
  Tb  Tb2  1  0.563760  0.260097  0.303662  1
  Er  Er3  1  0.436523  0.738623  0.697900  1
  Er  Er4  1  0.672370  0.859748  0.185779  1
  Er  Er5  1  0.332282  0.521039  0.189720  1
  Er  Er6  1  0.332282  0.142561  0.811243  1
  Er  Er7  1  0.672370  0.486590  0.812623  1
  Er  Er8  1  0.178255  0.220325  0.401201  1
  Er  Er9  1  0.817716  0.218279  0.040191  1
  Er  Er10  1  0.178255  0.777055  0.957930  1
  Er  Er11  1  0.817716  0.777525  0.599436  1
  Ga  Ga12  1  0.001786  0.500900  0.500885  1
  Ga  Ga13  1  0.499806  0.998350  0.501456  1
  Co  Co14  1  0.660583  0.498360  0.162222  1
  Co  Co15  1  0.336192  0.499288  0.836904  1
  Co  Co16  1  0.882294  0.884395  0.997898  1
  Ni  Ni17  1  0.118722  0.117815  0.000905  1
