# generated using pymatgen
data_Er4Sc6SiSn7
_symmetry_space_group_name_H-M   'P 1'
_cell_length_a   7.58355010
_cell_length_b   7.85407148
_cell_length_c   14.73823200
_cell_angle_alpha   90.00000000
_cell_angle_beta   90.00000000
_cell_angle_gamma   89.29216567
_symmetry_Int_Tables_number   1
_chemical_formula_structural   Er4Sc6SiSn7
_chemical_formula_sum   'Er8 Sc12 Si2 Sn14'
_cell_volume   877.76782187
_cell_formula_units_Z   2
loop_
 _symmetry_equiv_pos_site_id
 _symmetry_equiv_pos_as_xyz
  1  'x, y, z'
loop_
 _atom_site_type_symbol
 _atom_site_label
 _atom_site_symmetry_multiplicity
 _atom_site_fract_x
 _atom_site_fract_y
 _atom_site_fract_z
 _atom_site_occupancy
  Er  Er0  1  0.992547  0.169561  0.097506  1
  Er  Er1  1  0.007453  0.830439  0.902494  1
  Er  Er2  1  0.504941  0.679142  0.905812  1
  Er  Er3  1  0.007453  0.830439  0.597506  1
  Er  Er4  1  0.495059  0.320858  0.094188  1
  Er  Er5  1  0.992547  0.169561  0.402494  1
  Er  Er6  1  0.495059  0.320858  0.405812  1
  Er  Er7  1  0.504941  0.679142  0.594188  1
  Sc  Sc8  1  0.165044  0.489898  0.750000  1
  Sc  Sc9  1  0.834956  0.510102  0.250000  1
  Sc  Sc10  1  0.321199  0.992724  0.250000  1
  Sc  Sc11  1  0.678801  0.007276  0.750000  1
  Sc  Sc12  1  0.323993  0.159345  0.629474  1
  Sc  Sc13  1  0.676007  0.840655  0.370526  1
  Sc  Sc14  1  0.148704  0.673200  0.367523  1
  Sc  Sc15  1  0.676007  0.840655  0.129474  1
  Sc  Sc16  1  0.851296  0.326800  0.632477  1
  Sc  Sc17  1  0.323993  0.159345  0.870526  1
  Sc  Sc18  1  0.851296  0.326800  0.867523  1
  Sc  Sc19  1  0.148704  0.673200  0.132477  1
  Si  Si20  1  0.034999  0.126792  0.750000  1
  Si  Si21  1  0.965001  0.873208  0.250000  1
  Sn  Sn22  1  0.470469  0.624531  0.250000  1
  Sn  Sn23  1  0.529531  0.375469  0.750000  1
  Sn  Sn24  1  0.307443  0.851484  0.750000  1
  Sn  Sn25  1  0.692557  0.148516  0.250000  1
  Sn  Sn26  1  0.191404  0.350255  0.250000  1
  Sn  Sn27  1  0.808596  0.649745  0.750000  1
  Sn  Sn28  1  0.180489  0.460365  0.539578  1
  Sn  Sn29  1  0.819511  0.539635  0.460422  1
  Sn  Sn30  1  0.319515  0.955410  0.457971  1
  Sn  Sn31  1  0.819511  0.539635  0.039578  1
  Sn  Sn32  1  0.680485  0.044590  0.542029  1
  Sn  Sn33  1  0.180489  0.460365  0.960422  1
  Sn  Sn34  1  0.680485  0.044590  0.957971  1
  Sn  Sn35  1  0.319515  0.955410  0.042029  1
