# generated using pymatgen
data_Pr4Ga7(GeRh2)3
_symmetry_space_group_name_H-M   'P 1'
_cell_length_a   8.65286192
_cell_length_b   8.70089183
_cell_length_c   8.70089131
_cell_angle_alpha   140.89625156
_cell_angle_beta   108.26755478
_cell_angle_gamma   84.93897590
_symmetry_Int_Tables_number   1
_chemical_formula_structural   Pr4Ga7(GeRh2)3
_chemical_formula_sum   'Pr4 Ga7 Ge3 Rh6'
_cell_volume   378.97675785
_cell_formula_units_Z   1
loop_
 _symmetry_equiv_pos_site_id
 _symmetry_equiv_pos_as_xyz
  1  'x, y, z'
loop_
 _atom_site_type_symbol
 _atom_site_label
 _atom_site_symmetry_multiplicity
 _atom_site_fract_x
 _atom_site_fract_y
 _atom_site_fract_z
 _atom_site_occupancy
  Pr  Pr0  1  0.862606  0.631746  0.230860  1
  Pr  Pr1  1  0.136939  0.364957  0.771982  1
  Pr  Pr2  1  0.408868  0.137709  0.271159  1
  Pr  Pr3  1  0.594122  0.865004  0.729118  1
  Ga  Ga4  1  0.498795  0.752716  0.250625  1
  Ga  Ga5  1  0.498795  0.248172  0.746080  1
  Ga  Ga6  1  0.214675  0.962794  0.749310  1
  Ga  Ga7  1  0.786933  0.533928  0.747917  1
  Ga  Ga8  1  0.786933  0.039017  0.253005  1
  Ga  Ga9  1  0.214675  0.465366  0.251882  1
  Ga  Ga10  1  0.073269  0.907927  0.165341  1
  Ge  Ge11  1  0.930078  0.093804  0.836274  1
  Ge  Ge12  1  0.735947  0.402022  0.333925  1
  Ge  Ge13  1  0.259297  0.593672  0.665624  1
  Rh  Rh14  1  0.997699  0.748278  0.745541  1
  Rh  Rh15  1  0.997699  0.252158  0.249421  1
  Rh  Rh16  1  0.256624  0.855529  0.401095  1
  Rh  Rh17  1  0.745638  0.143263  0.602375  1
  Rh  Rh18  1  0.454058  0.357228  0.096830  1
  Rh  Rh19  1  0.546347  0.644711  0.901636  1
