# generated using pymatgen
data_SmPN3
_symmetry_space_group_name_H-M   'P 1'
_cell_length_a   7.30406703
_cell_length_b   7.30406731
_cell_length_c   4.91359610
_cell_angle_alpha   88.04119894
_cell_angle_beta   88.04118825
_cell_angle_gamma   102.87420315
_symmetry_Int_Tables_number   1
_chemical_formula_structural   SmPN3
_chemical_formula_sum   'Sm4 P4 N12'
_cell_volume   255.16322768
_cell_formula_units_Z   4
loop_
 _symmetry_equiv_pos_site_id
 _symmetry_equiv_pos_as_xyz
  1  'x, y, z'
loop_
 _atom_site_type_symbol
 _atom_site_label
 _atom_site_symmetry_multiplicity
 _atom_site_fract_x
 _atom_site_fract_y
 _atom_site_fract_z
 _atom_site_occupancy
  Sm  Sm0  1  0.293062  0.706938  0.750000  1
  Sm  Sm1  1  0.706938  0.293062  0.250000  1
  Sm  Sm2  1  0.094461  0.905539  0.250000  1
  Sm  Sm3  1  0.905539  0.094461  0.750000  1
  P  P4  1  0.376889  0.232563  0.819763  1
  P  P5  1  0.623111  0.767437  0.180237  1
  P  P6  1  0.767437  0.623111  0.680237  1
  P  P7  1  0.232563  0.376889  0.319763  1
  N  N8  1  0.970013  0.759162  0.716174  1
  N  N9  1  0.770245  0.395520  0.766593  1
  N  N10  1  0.759162  0.970013  0.216174  1
  N  N11  1  0.229755  0.604480  0.233407  1
  N  N12  1  0.029987  0.240838  0.283826  1
  N  N13  1  0.240838  0.029987  0.783826  1
  N  N14  1  0.604480  0.229755  0.733407  1
  N  N15  1  0.610288  0.705669  0.858931  1
  N  N16  1  0.389712  0.294331  0.141069  1
  N  N17  1  0.395520  0.770245  0.266593  1
  N  N18  1  0.705669  0.610288  0.358931  1
  N  N19  1  0.294331  0.389712  0.641069  1
