# generated using pymatgen
data_Tm12Fe5Bi
_symmetry_space_group_name_H-M   'P 1'
_cell_length_a   8.22199363
_cell_length_b   8.22199393
_cell_length_c   8.22199374
_cell_angle_alpha   111.13416792
_cell_angle_beta   110.98066725
_cell_angle_gamma   106.34342185
_symmetry_Int_Tables_number   1
_chemical_formula_structural   Tm12Fe5Bi
_chemical_formula_sum   'Tm12 Fe5 Bi1'
_cell_volume   426.91724265
_cell_formula_units_Z   1
loop_
 _symmetry_equiv_pos_site_id
 _symmetry_equiv_pos_as_xyz
  1  'x, y, z'
loop_
 _atom_site_type_symbol
 _atom_site_label
 _atom_site_symmetry_multiplicity
 _atom_site_fract_x
 _atom_site_fract_y
 _atom_site_fract_z
 _atom_site_occupancy
  Tm  Tm0  1  0.278450  0.183229  0.461678  1
  Tm  Tm1  1  0.721550  0.816771  0.538322  1
  Tm  Tm2  1  0.278450  0.816771  0.095220  1
  Tm  Tm3  1  0.721550  0.183229  0.904780  1
  Tm  Tm4  1  0.616592  0.310035  0.306557  1
  Tm  Tm5  1  0.383408  0.689965  0.693443  1
  Tm  Tm6  1  0.003477  0.310035  0.693443  1
  Tm  Tm7  1  0.996523  0.689965  0.306557  1
  Tm  Tm8  1  0.212234  0.407569  0.195336  1
  Tm  Tm9  1  0.787766  0.592431  0.804664  1
  Tm  Tm10  1  0.212234  0.016899  0.804664  1
  Tm  Tm11  1  0.787766  0.983101  0.195336  1
  Fe  Fe12  1  0.000000  0.382314  0.382314  1
  Fe  Fe13  1  0.000000  0.617686  0.617686  1
  Fe  Fe14  1  0.393235  0.893235  0.500000  1
  Fe  Fe15  1  0.606765  0.106765  0.500000  1
  Fe  Fe16  1  0.000000  0.000000  0.000000  1
  Bi  Bi17  1  0.500000  0.500000  0.000000  1
