# generated using pymatgen
data_TmNbB6Os
_symmetry_space_group_name_H-M   'P 1'
_cell_length_a   3.49156200
_cell_length_b   8.98122900
_cell_length_c   11.25650500
_cell_angle_alpha   90.00000000
_cell_angle_beta   90.00000000
_cell_angle_gamma   90.00000000
_symmetry_Int_Tables_number   1
_chemical_formula_structural   TmNbB6Os
_chemical_formula_sum   'Tm4 Nb4 B24 Os4'
_cell_volume   352.98731342
_cell_formula_units_Z   4
loop_
 _symmetry_equiv_pos_site_id
 _symmetry_equiv_pos_as_xyz
  1  'x, y, z'
loop_
 _atom_site_type_symbol
 _atom_site_label
 _atom_site_symmetry_multiplicity
 _atom_site_fract_x
 _atom_site_fract_y
 _atom_site_fract_z
 _atom_site_occupancy
  Tm  Tm0  1  0.000000  0.322989  0.412509  1
  Tm  Tm1  1  0.000000  0.677011  0.587491  1
  Tm  Tm2  1  0.000000  0.822989  0.087491  1
  Tm  Tm3  1  0.000000  0.177011  0.912509  1
  Nb  Nb4  1  0.000000  0.946226  0.377388  1
  Nb  Nb5  1  0.000000  0.053774  0.622612  1
  Nb  Nb6  1  0.000000  0.446226  0.122612  1
  Nb  Nb7  1  0.000000  0.553774  0.877388  1
  B  B8  1  0.500000  0.553884  0.434757  1
  B  B9  1  0.500000  0.446116  0.565243  1
  B  B10  1  0.500000  0.053884  0.065243  1
  B  B11  1  0.500000  0.946116  0.934757  1
  B  B12  1  0.500000  0.752925  0.420187  1
  B  B13  1  0.500000  0.247075  0.579813  1
  B  B14  1  0.500000  0.252925  0.079813  1
  B  B15  1  0.500000  0.747075  0.920187  1
  B  B16  1  0.500000  0.797127  0.263142  1
  B  B17  1  0.500000  0.202873  0.736857  1
  B  B18  1  0.500000  0.297127  0.236858  1
  B  B19  1  0.500000  0.702873  0.763143  1
  B  B20  1  0.500000  0.629310  0.181617  1
  B  B21  1  0.500000  0.370690  0.818383  1
  B  B22  1  0.500000  0.129310  0.318383  1
  B  B23  1  0.500000  0.870690  0.681617  1
  B  B24  1  0.500000  0.979648  0.213196  1
  B  B25  1  0.500000  0.020352  0.786804  1
  B  B26  1  0.500000  0.479648  0.286804  1
  B  B27  1  0.500000  0.520352  0.713196  1
  B  B28  1  0.500000  0.601890  0.027524  1
  B  B29  1  0.500000  0.398110  0.972476  1
  B  B30  1  0.500000  0.101890  0.472476  1
  B  B31  1  0.500000  0.898110  0.527524  1
  Os  Os32  1  0.000000  0.642344  0.318345  1
  Os  Os33  1  0.000000  0.357656  0.681655  1
  Os  Os34  1  0.000000  0.142344  0.181655  1
  Os  Os35  1  0.000000  0.857656  0.818345  1
