# generated using pymatgen
data_Tb2Mn2Co10P7
_symmetry_space_group_name_H-M   'P 1'
_cell_length_a   9.02543539
_cell_length_b   9.04425248
_cell_length_c   3.59855900
_cell_angle_alpha   90.00000000
_cell_angle_beta   90.00000000
_cell_angle_gamma   120.03033361
_symmetry_Int_Tables_number   1
_chemical_formula_structural   Tb2Mn2Co10P7
_chemical_formula_sum   'Tb2 Mn2 Co10 P7'
_cell_volume   254.31224391
_cell_formula_units_Z   1
loop_
 _symmetry_equiv_pos_site_id
 _symmetry_equiv_pos_as_xyz
  1  'x, y, z'
loop_
 _atom_site_type_symbol
 _atom_site_label
 _atom_site_symmetry_multiplicity
 _atom_site_fract_x
 _atom_site_fract_y
 _atom_site_fract_z
 _atom_site_occupancy
  Tb  Tb0  1  0.668589  0.334144  0.000000  1
  Tb  Tb1  1  0.333542  0.667048  0.500000  1
  Mn  Mn2  1  0.778955  0.899264  0.500000  1
  Mn  Mn3  1  0.120731  0.220338  0.500000  1
  Co  Co4  1  0.059945  0.631352  0.000000  1
  Co  Co5  1  0.568844  0.939643  0.000000  1
  Co  Co6  1  0.370230  0.430419  0.000000  1
  Co  Co7  1  0.274150  0.117102  0.000000  1
  Co  Co8  1  0.844394  0.725895  0.000000  1
  Co  Co9  1  0.883447  0.157843  0.000000  1
  Co  Co10  1  0.434069  0.049077  0.500000  1
  Co  Co11  1  0.615563  0.564168  0.500000  1
  Co  Co12  1  0.950016  0.386649  0.500000  1
  Co  Co13  1  0.094914  0.874373  0.500000  1
  P  P14  1  0.297414  0.888716  0.000000  1
  P  P15  1  0.589674  0.700994  0.000000  1
  P  P16  1  0.111518  0.412203  0.000000  1
  P  P17  1  0.406752  0.290486  0.500000  1
  P  P18  1  0.887588  0.598592  0.500000  1
  P  P19  1  0.710066  0.112964  0.500000  1
  P  P20  1  0.999598  0.998730  0.000000  1
