# generated using pymatgen
data_Pr3Gd3(CBr3)2
_symmetry_space_group_name_H-M   'P 1'
_cell_length_a   3.84636500
_cell_length_b   8.59331359
_cell_length_c   11.62386400
_cell_angle_alpha   92.62273718
_cell_angle_beta   90.00000000
_cell_angle_gamma   90.00000000
_symmetry_Int_Tables_number   1
_chemical_formula_structural   Pr3Gd3(CBr3)2
_chemical_formula_sum   'Pr3 Gd3 C2 Br6'
_cell_volume   383.80135885
_cell_formula_units_Z   1
loop_
 _symmetry_equiv_pos_site_id
 _symmetry_equiv_pos_as_xyz
  1  'x, y, z'
loop_
 _atom_site_type_symbol
 _atom_site_label
 _atom_site_symmetry_multiplicity
 _atom_site_fract_x
 _atom_site_fract_y
 _atom_site_fract_z
 _atom_site_occupancy
  Pr  Pr0  1  0.250000  0.905963  0.607366  1
  Pr  Pr1  1  0.750000  0.091575  0.392288  1
  Pr  Pr2  1  0.250000  0.884239  0.165492  1
  Gd  Gd3  1  0.750000  0.119198  0.830427  1
  Gd  Gd4  1  0.250000  0.307376  0.619682  1
  Gd  Gd5  1  0.750000  0.690475  0.379663  1
  C  C6  1  0.250000  0.868927  0.380522  1
  C  C7  1  0.750000  0.128685  0.625155  1
  Br  Br8  1  0.250000  0.870482  0.877844  1
  Br  Br9  1  0.750000  0.146823  0.119551  1
  Br  Br10  1  0.250000  0.370014  0.868329  1
  Br  Br11  1  0.750000  0.619054  0.132160  1
  Br  Br12  1  0.250000  0.389913  0.373852  1
  Br  Br13  1  0.750000  0.607275  0.627669  1
