# generated using pymatgen
data_Dy10(RuAu)3
_symmetry_space_group_name_H-M   'P 1'
_cell_length_a   11.17449565
_cell_length_b   11.10721900
_cell_length_c   6.42222819
_cell_angle_alpha   90.00000000
_cell_angle_beta   90.34608810
_cell_angle_gamma   90.00000000
_symmetry_Int_Tables_number   1
_chemical_formula_structural   Dy10(RuAu)3
_chemical_formula_sum   'Dy20 Ru6 Au6'
_cell_volume   797.09681698
_cell_formula_units_Z   2
loop_
 _symmetry_equiv_pos_site_id
 _symmetry_equiv_pos_as_xyz
  1  'x, y, z'
loop_
 _atom_site_type_symbol
 _atom_site_label
 _atom_site_symmetry_multiplicity
 _atom_site_fract_x
 _atom_site_fract_y
 _atom_site_fract_z
 _atom_site_occupancy
  Dy  Dy0  1  0.305444  0.084485  0.364541  1
  Dy  Dy1  1  0.305444  0.915515  0.864541  1
  Dy  Dy2  1  0.713534  0.081445  0.867524  1
  Dy  Dy3  1  0.713534  0.918555  0.367524  1
  Dy  Dy4  1  0.597083  0.800896  0.857986  1
  Dy  Dy5  1  0.597083  0.199104  0.357986  1
  Dy  Dy6  1  0.422391  0.802282  0.360990  1
  Dy  Dy7  1  0.422391  0.197718  0.860990  1
  Dy  Dy8  1  0.193840  0.417793  0.642792  1
  Dy  Dy9  1  0.193840  0.582207  0.142792  1
  Dy  Dy10  1  0.798957  0.409862  0.137019  1
  Dy  Dy11  1  0.798957  0.590138  0.637019  1
  Dy  Dy12  1  0.909941  0.703852  0.126004  1
  Dy  Dy13  1  0.909941  0.296148  0.626004  1
  Dy  Dy14  1  0.072442  0.709617  0.641493  1
  Dy  Dy15  1  0.072442  0.290383  0.141493  1
  Dy  Dy16  1  0.992928  0.004517  0.500089  1
  Dy  Dy17  1  0.992928  0.995483  0.000089  1
  Dy  Dy18  1  0.495946  0.502408  0.000793  1
  Dy  Dy19  1  0.495946  0.497592  0.500793  1
  Ru  Ru20  1  0.848012  0.153672  0.247293  1
  Ru  Ru21  1  0.848012  0.846328  0.747293  1
  Ru  Ru22  1  0.503170  0.999930  0.114291  1
  Ru  Ru23  1  0.503170  0.000070  0.614291  1
  Ru  Ru24  1  0.997595  0.500009  0.885934  1
  Ru  Ru25  1  0.997595  0.499991  0.385934  1
  Au  Au26  1  0.156592  0.154501  0.753716  1
  Au  Au27  1  0.156592  0.845499  0.253716  1
  Au  Au28  1  0.652914  0.344761  0.752726  1
  Au  Au29  1  0.652914  0.655239  0.252726  1
  Au  Au30  1  0.339209  0.345003  0.246808  1
  Au  Au31  1  0.339209  0.654997  0.746808  1
