# generated using pymatgen
data_Tb7HoReMo(OsC4)2
_symmetry_space_group_name_H-M   'P 1'
_cell_length_a   5.13890900
_cell_length_b   6.58699527
_cell_length_c   9.90260696
_cell_angle_alpha   90.21988975
_cell_angle_beta   90.00000000
_cell_angle_gamma   90.00000000
_symmetry_Int_Tables_number   1
_chemical_formula_structural   Tb7HoReMo(OsC4)2
_chemical_formula_sum   'Tb7 Ho1 Re1 Mo1 Os2 C8'
_cell_volume   335.20047254
_cell_formula_units_Z   1
loop_
 _symmetry_equiv_pos_site_id
 _symmetry_equiv_pos_as_xyz
  1  'x, y, z'
loop_
 _atom_site_type_symbol
 _atom_site_label
 _atom_site_symmetry_multiplicity
 _atom_site_fract_x
 _atom_site_fract_y
 _atom_site_fract_z
 _atom_site_occupancy
  Tb  Tb0  1  0.250000  0.678133  0.555646  1
  Tb  Tb1  1  0.750000  0.318817  0.443856  1
  Tb  Tb2  1  0.250000  0.181605  0.943959  1
  Tb  Tb3  1  0.750000  0.468713  0.783932  1
  Tb  Tb4  1  0.250000  0.033368  0.281662  1
  Tb  Tb5  1  0.750000  0.968177  0.714861  1
  Tb  Tb6  1  0.250000  0.530176  0.214351  1
  Ho  Ho7  1  0.750000  0.822330  0.055226  1
  Re  Re8  1  0.250000  0.723910  0.864167  1
  Mo  Mo9  1  0.750000  0.777886  0.364995  1
  Os  Os10  1  0.750000  0.276574  0.134371  1
  Os  Os11  1  0.250000  0.222676  0.636388  1
  C  C12  1  0.750000  0.176037  0.951920  1
  C  C13  1  0.250000  0.822056  0.048638  1
  C  C14  1  0.750000  0.675937  0.552028  1
  C  C15  1  0.250000  0.321346  0.454340  1
  C  C16  1  0.750000  0.045983  0.257563  1
  C  C17  1  0.250000  0.456836  0.760268  1
  C  C18  1  0.750000  0.541306  0.238975  1
  C  C19  1  0.250000  0.958130  0.742853  1
