# generated using pymatgen
data_Lu4MnV3B16
_symmetry_space_group_name_H-M   'P 1'
_cell_length_a   3.38925600
_cell_length_b   5.91801974
_cell_length_c   11.44777502
_cell_angle_alpha   89.93101313
_cell_angle_beta   90.00000000
_cell_angle_gamma   90.00000000
_symmetry_Int_Tables_number   1
_chemical_formula_structural   Lu4MnV3B16
_chemical_formula_sum   'Lu4 Mn1 V3 B16'
_cell_volume   229.61568638
_cell_formula_units_Z   1
loop_
 _symmetry_equiv_pos_site_id
 _symmetry_equiv_pos_as_xyz
  1  'x, y, z'
loop_
 _atom_site_type_symbol
 _atom_site_label
 _atom_site_symmetry_multiplicity
 _atom_site_fract_x
 _atom_site_fract_y
 _atom_site_fract_z
 _atom_site_occupancy
  Lu  Lu0  1  0.000000  0.625204  0.350979  1
  Lu  Lu1  1  0.000000  0.375665  0.650053  1
  Lu  Lu2  1  0.000000  0.124408  0.152186  1
  Lu  Lu3  1  0.000000  0.875938  0.846885  1
  Mn  Mn4  1  0.000000  0.874762  0.581206  1
  V  V5  1  0.000000  0.628025  0.083241  1
  V  V6  1  0.000000  0.372176  0.914250  1
  V  V7  1  0.000000  0.125979  0.420149  1
  B  B8  1  0.500000  0.787184  0.187349  1
  B  B9  1  0.500000  0.211783  0.811490  1
  B  B10  1  0.500000  0.285561  0.315588  1
  B  B11  1  0.500000  0.718774  0.682258  1
  B  B12  1  0.500000  0.866288  0.032521  1
  B  B13  1  0.500000  0.133628  0.966799  1
  B  B14  1  0.500000  0.365974  0.469582  1
  B  B15  1  0.500000  0.637293  0.533310  1
  B  B16  1  0.500000  0.883091  0.454990  1
  B  B17  1  0.500000  0.110735  0.549562  1
  B  B18  1  0.500000  0.383233  0.047958  1
  B  B19  1  0.500000  0.616455  0.951181  1
  B  B20  1  0.500000  0.975791  0.308476  1
  B  B21  1  0.500000  0.020385  0.691273  1
  B  B22  1  0.500000  0.475238  0.194229  1
  B  B23  1  0.500000  0.526433  0.804486  1
