# generated using pymatgen
data_Hf18TiRe7SiGe
_symmetry_space_group_name_H-M   'P 1'
_cell_length_a   8.61423900
_cell_length_b   8.61423942
_cell_length_c   8.65813600
_cell_angle_alpha   90.00000000
_cell_angle_beta   90.00000000
_cell_angle_gamma   120.00000224
_symmetry_Int_Tables_number   1
_chemical_formula_structural   Hf18TiRe7SiGe
_chemical_formula_sum   'Hf18 Ti1 Re7 Si1 Ge1'
_cell_volume   556.40225336
_cell_formula_units_Z   1
loop_
 _symmetry_equiv_pos_site_id
 _symmetry_equiv_pos_as_xyz
  1  'x, y, z'
loop_
 _atom_site_type_symbol
 _atom_site_label
 _atom_site_symmetry_multiplicity
 _atom_site_fract_x
 _atom_site_fract_y
 _atom_site_fract_z
 _atom_site_occupancy
  Hf  Hf0  1  0.194883  0.805117  0.453677  1
  Hf  Hf1  1  0.194883  0.389764  0.453677  1
  Hf  Hf2  1  0.610236  0.805117  0.453677  1
  Hf  Hf3  1  0.803963  0.196037  0.547424  1
  Hf  Hf4  1  0.803963  0.607926  0.547424  1
  Hf  Hf5  1  0.392074  0.196037  0.547424  1
  Hf  Hf6  1  0.805667  0.194333  0.951148  1
  Hf  Hf7  1  0.805667  0.611334  0.951148  1
  Hf  Hf8  1  0.388666  0.194333  0.951148  1
  Hf  Hf9  1  0.192940  0.807060  0.047529  1
  Hf  Hf10  1  0.192940  0.385881  0.047529  1
  Hf  Hf11  1  0.614119  0.807060  0.047529  1
  Hf  Hf12  1  0.540769  0.459231  0.248391  1
  Hf  Hf13  1  0.540769  0.081536  0.248391  1
  Hf  Hf14  1  0.918464  0.459231  0.248391  1
  Hf  Hf15  1  0.460248  0.539752  0.751349  1
  Hf  Hf16  1  0.460248  0.920496  0.751349  1
  Hf  Hf17  1  0.079504  0.539752  0.751349  1
  Ti  Ti18  1  0.000000  0.000000  0.500238  1
  Re  Re19  1  0.889646  0.110354  0.252372  1
  Re  Re20  1  0.889646  0.779290  0.252372  1
  Re  Re21  1  0.220710  0.110354  0.252372  1
  Re  Re22  1  0.110018  0.889982  0.748117  1
  Re  Re23  1  0.110018  0.220037  0.748117  1
  Re  Re24  1  0.779963  0.889982  0.748117  1
  Re  Re25  1  0.000000  0.000000  0.000299  1
  Si  Si26  1  0.666667  0.333333  0.751239  1
  Ge  Ge27  1  0.333333  0.666667  0.248199  1
