# generated using pymatgen
data_Th2Pa(GaPt)3
_symmetry_space_group_name_H-M   'P 1'
_cell_length_a   7.24624759
_cell_length_b   7.24624784
_cell_length_c   4.15416900
_cell_angle_alpha   90.00000000
_cell_angle_beta   90.00000000
_cell_angle_gamma   119.83061250
_symmetry_Int_Tables_number   1
_chemical_formula_structural   Th2Pa(GaPt)3
_chemical_formula_sum   'Th2 Pa1 Ga3 Pt3'
_cell_volume   189.22560277
_cell_formula_units_Z   1
loop_
 _symmetry_equiv_pos_site_id
 _symmetry_equiv_pos_as_xyz
  1  'x, y, z'
loop_
 _atom_site_type_symbol
 _atom_site_label
 _atom_site_symmetry_multiplicity
 _atom_site_fract_x
 _atom_site_fract_y
 _atom_site_fract_z
 _atom_site_occupancy
  Th  Th0  1  0.582888  0.998683  0.500000  1
  Th  Th1  1  0.998683  0.582888  0.500000  1
  Pa  Pa2  1  0.415878  0.415878  0.500000  1
  Ga  Ga3  1  0.756301  0.756301  0.000000  1
  Ga  Ga4  1  0.242997  0.000835  0.000000  1
  Ga  Ga5  1  0.000835  0.242997  0.000000  1
  Pt  Pt6  1  0.656272  0.335950  0.000000  1
  Pt  Pt7  1  0.335950  0.656272  0.000000  1
  Pt  Pt8  1  0.010196  0.010196  0.500000  1
