# generated using pymatgen
data_Hf4Zr2Mn5Si6Os
_symmetry_space_group_name_H-M   'P 1'
_cell_length_a   7.56684856
_cell_length_b   7.56356018
_cell_length_c   7.56356045
_cell_angle_alpha   126.96641024
_cell_angle_beta   126.00267737
_cell_angle_gamma   79.08555434
_symmetry_Int_Tables_number   1
_chemical_formula_structural   Hf4Zr2Mn5Si6Os
_chemical_formula_sum   'Hf4 Zr2 Mn5 Si6 Os1'
_cell_volume   270.62982315
_cell_formula_units_Z   1
loop_
 _symmetry_equiv_pos_site_id
 _symmetry_equiv_pos_as_xyz
  1  'x, y, z'
loop_
 _atom_site_type_symbol
 _atom_site_label
 _atom_site_symmetry_multiplicity
 _atom_site_fract_x
 _atom_site_fract_y
 _atom_site_fract_z
 _atom_site_occupancy
  Hf  Hf0  1  0.953641  0.496855  0.043607  1
  Hf  Hf1  1  0.046359  0.089966  0.543215  1
  Hf  Hf2  1  0.748216  0.900269  0.649158  1
  Hf  Hf3  1  0.251784  0.900942  0.152053  1
  Zr  Zr4  1  0.545759  0.089037  0.042745  1
  Zr  Zr5  1  0.454241  0.496987  0.543278  1
  Mn  Mn6  1  0.121946  0.746510  0.620664  1
  Mn  Mn7  1  0.878054  0.498718  0.624564  1
  Mn  Mn8  1  0.627313  0.748114  0.124519  1
  Mn  Mn9  1  0.372687  0.497206  0.120800  1
  Mn  Mn10  1  0.500000  0.247109  0.747109  1
  Si  Si11  1  0.332363  0.830720  0.495604  1
  Si  Si12  1  0.667637  0.163240  0.498356  1
  Si  Si13  1  0.834102  0.826512  0.994991  1
  Si  Si14  1  0.165898  0.160889  0.992409  1
  Si  Si15  1  0.744176  0.500932  0.244939  1
  Si  Si16  1  0.255824  0.500764  0.756758  1
  Os  Os17  1  0.000000  0.249228  0.249228  1
