# generated using pymatgen
data_Lu6Zr4GaSb5
_symmetry_space_group_name_H-M   'P 1'
_cell_length_a   8.65211965
_cell_length_b   8.65212104
_cell_length_c   5.94805800
_cell_angle_alpha   90.00000000
_cell_angle_beta   90.00000000
_cell_angle_gamma   120.11875652
_symmetry_Int_Tables_number   1
_chemical_formula_structural   Lu6Zr4GaSb5
_chemical_formula_sum   'Lu6 Zr4 Ga1 Sb5'
_cell_volume   385.15006663
_cell_formula_units_Z   1
loop_
 _symmetry_equiv_pos_site_id
 _symmetry_equiv_pos_as_xyz
  1  'x, y, z'
loop_
 _atom_site_type_symbol
 _atom_site_label
 _atom_site_symmetry_multiplicity
 _atom_site_fract_x
 _atom_site_fract_y
 _atom_site_fract_z
 _atom_site_occupancy
  Lu  Lu0  1  0.746486  0.746486  0.750000  1
  Lu  Lu1  1  0.249584  0.010856  0.750000  1
  Lu  Lu2  1  0.010856  0.249584  0.750000  1
  Lu  Lu3  1  0.246364  0.246364  0.250000  1
  Lu  Lu4  1  0.752629  0.997891  0.250000  1
  Lu  Lu5  1  0.997891  0.752629  0.250000  1
  Zr  Zr6  1  0.663246  0.333873  0.997298  1
  Zr  Zr7  1  0.333873  0.663246  0.997298  1
  Zr  Zr8  1  0.333873  0.663246  0.502702  1
  Zr  Zr9  1  0.663246  0.333873  0.502702  1
  Ga  Ga10  1  0.397170  0.397170  0.750000  1
  Sb  Sb11  1  0.609392  0.001744  0.750000  1
  Sb  Sb12  1  0.001744  0.609392  0.750000  1
  Sb  Sb13  1  0.602666  0.602666  0.250000  1
  Sb  Sb14  1  0.392738  0.998243  0.250000  1
  Sb  Sb15  1  0.998243  0.392738  0.250000  1
