# generated using pymatgen
data_ZrCoP3Ru4
_symmetry_space_group_name_H-M   'P 1'
_cell_length_a   3.82146800
_cell_length_b   10.58161100
_cell_length_c   12.21467400
_cell_angle_alpha   90.00000000
_cell_angle_beta   90.00000000
_cell_angle_gamma   90.00000000
_symmetry_Int_Tables_number   1
_chemical_formula_structural   ZrCoP3Ru4
_chemical_formula_sum   'Zr4 Co4 P12 Ru16'
_cell_volume   493.92828823
_cell_formula_units_Z   4
loop_
 _symmetry_equiv_pos_site_id
 _symmetry_equiv_pos_as_xyz
  1  'x, y, z'
loop_
 _atom_site_type_symbol
 _atom_site_label
 _atom_site_symmetry_multiplicity
 _atom_site_fract_x
 _atom_site_fract_y
 _atom_site_fract_z
 _atom_site_occupancy
  Zr  Zr0  1  0.250000  0.584282  0.706069  1
  Zr  Zr1  1  0.250000  0.915718  0.206069  1
  Zr  Zr2  1  0.750000  0.415718  0.293931  1
  Zr  Zr3  1  0.750000  0.084282  0.793931  1
  Co  Co4  1  0.250000  0.462777  0.936566  1
  Co  Co5  1  0.250000  0.037223  0.436566  1
  Co  Co6  1  0.750000  0.537223  0.063434  1
  Co  Co7  1  0.750000  0.962777  0.563434  1
  P  P8  1  0.250000  0.423730  0.110468  1
  P  P9  1  0.250000  0.076270  0.610468  1
  P  P10  1  0.750000  0.576270  0.889532  1
  P  P11  1  0.750000  0.923730  0.389532  1
  P  P12  1  0.250000  0.269210  0.868164  1
  P  P13  1  0.250000  0.230790  0.368164  1
  P  P14  1  0.750000  0.730790  0.131836  1
  P  P15  1  0.750000  0.769210  0.631836  1
  P  P16  1  0.250000  0.598541  0.390589  1
  P  P17  1  0.250000  0.901459  0.890589  1
  P  P18  1  0.750000  0.401459  0.609411  1
  P  P19  1  0.750000  0.098541  0.109411  1
  Ru  Ru20  1  0.250000  0.708998  0.987022  1
  Ru  Ru21  1  0.250000  0.791002  0.487022  1
  Ru  Ru22  1  0.750000  0.291002  0.012978  1
  Ru  Ru23  1  0.750000  0.208998  0.512978  1
  Ru  Ru24  1  0.250000  0.405091  0.482534  1
  Ru  Ru25  1  0.250000  0.094909  0.982534  1
  Ru  Ru26  1  0.750000  0.594909  0.517466  1
  Ru  Ru27  1  0.750000  0.905091  0.017466  1
  Ru  Ru28  1  0.250000  0.229067  0.177735  1
  Ru  Ru29  1  0.250000  0.270933  0.677735  1
  Ru  Ru30  1  0.750000  0.770933  0.822265  1
  Ru  Ru31  1  0.750000  0.729067  0.322265  1
  Ru  Ru32  1  0.250000  0.889992  0.700472  1
  Ru  Ru33  1  0.250000  0.610008  0.200472  1
  Ru  Ru34  1  0.750000  0.110008  0.299528  1
  Ru  Ru35  1  0.750000  0.389992  0.799528  1
