# generated using pymatgen
data_Be8IrPt7
_symmetry_space_group_name_H-M   'P 1'
_cell_length_a   5.67823200
_cell_length_b   5.67823200
_cell_length_c   5.67823200
_cell_angle_alpha   90.00000000
_cell_angle_beta   90.00000000
_cell_angle_gamma   90.00000000
_symmetry_Int_Tables_number   1
_chemical_formula_structural   Be8IrPt7
_chemical_formula_sum   'Be8 Ir1 Pt7'
_cell_volume   183.07936549
_cell_formula_units_Z   1
loop_
 _symmetry_equiv_pos_site_id
 _symmetry_equiv_pos_as_xyz
  1  'x, y, z'
loop_
 _atom_site_type_symbol
 _atom_site_label
 _atom_site_symmetry_multiplicity
 _atom_site_fract_x
 _atom_site_fract_y
 _atom_site_fract_z
 _atom_site_occupancy
  Be  Be0  1  0.254972  0.254972  0.254972  1
  Be  Be1  1  0.745029  0.254972  0.254972  1
  Be  Be2  1  0.254972  0.745029  0.254972  1
  Be  Be3  1  0.745029  0.745029  0.254972  1
  Be  Be4  1  0.254972  0.254972  0.745029  1
  Be  Be5  1  0.745029  0.254972  0.745029  1
  Be  Be6  1  0.254972  0.745029  0.745029  1
  Be  Be7  1  0.745029  0.745029  0.745029  1
  Ir  Ir8  1  0.500000  0.500000  0.500000  1
  Pt  Pt9  1  0.000000  0.000000  0.000000  1
  Pt  Pt10  1  0.500000  0.000000  0.000000  1
  Pt  Pt11  1  0.000000  0.500000  0.000000  1
  Pt  Pt12  1  0.500000  0.500000  0.000000  1
  Pt  Pt13  1  0.000000  0.000000  0.500000  1
  Pt  Pt14  1  0.500000  0.000000  0.500000  1
  Pt  Pt15  1  0.000000  0.500000  0.500000  1
