# generated using pymatgen
data_DyY18Er(CoSb2)4
_symmetry_space_group_name_H-M   'P 1'
_cell_length_a   7.91819937
_cell_length_b   8.77872709
_cell_length_c   12.21807055
_cell_angle_alpha   90.01341870
_cell_angle_beta   89.96824892
_cell_angle_gamma   89.98780564
_symmetry_Int_Tables_number   1
_chemical_formula_structural   DyY18Er(CoSb2)4
_chemical_formula_sum   'Dy1 Y18 Er1 Co4 Sb8'
_cell_volume   849.29882033
_cell_formula_units_Z   1
loop_
 _symmetry_equiv_pos_site_id
 _symmetry_equiv_pos_as_xyz
  1  'x, y, z'
loop_
 _atom_site_type_symbol
 _atom_site_label
 _atom_site_symmetry_multiplicity
 _atom_site_fract_x
 _atom_site_fract_y
 _atom_site_fract_z
 _atom_site_occupancy
  Dy  Dy0  1  0.677563  0.533978  0.565184  1
  Y  Y1  1  0.154524  0.750514  0.203412  1
  Y  Y2  1  0.345123  0.749760  0.703560  1
  Y  Y3  1  0.845016  0.249827  0.796371  1
  Y  Y4  1  0.655227  0.249944  0.295891  1
  Y  Y5  1  0.458591  0.750766  0.998508  1
  Y  Y6  1  0.042021  0.749510  0.498483  1
  Y  Y7  1  0.544399  0.248937  0.001854  1
  Y  Y8  1  0.956424  0.250651  0.501753  1
  Y  Y9  1  0.623930  0.750167  0.305592  1
  Y  Y10  1  0.875669  0.750168  0.806021  1
  Y  Y11  1  0.376055  0.250249  0.694424  1
  Y  Y12  1  0.123390  0.249456  0.193957  1
  Y  Y13  1  0.821414  0.533911  0.065761  1
  Y  Y14  1  0.678530  0.966085  0.565755  1
  Y  Y15  1  0.178267  0.033396  0.934418  1
  Y  Y16  1  0.321343  0.466536  0.434153  1
  Y  Y17  1  0.178574  0.466394  0.934586  1
  Y  Y18  1  0.321470  0.033804  0.434373  1
  Er  Er19  1  0.824164  0.965932  0.065264  1
  Co  Co20  1  0.437663  0.749675  0.490817  1
  Co  Co21  1  0.061074  0.750939  0.991211  1
  Co  Co22  1  0.563945  0.251284  0.509498  1
  Co  Co23  1  0.935608  0.248376  0.009522  1
  Sb  Sb24  1  0.929139  0.508011  0.326877  1
  Sb  Sb25  1  0.570591  0.991979  0.826843  1
  Sb  Sb26  1  0.071003  0.007877  0.672740  1
  Sb  Sb27  1  0.428870  0.492043  0.172618  1
  Sb  Sb28  1  0.071080  0.492028  0.673208  1
  Sb  Sb29  1  0.429532  0.007860  0.172868  1
  Sb  Sb30  1  0.928807  0.992075  0.327084  1
  Sb  Sb31  1  0.570994  0.507871  0.827391  1
