# generated using pymatgen
data_YbCo3As2
_symmetry_space_group_name_H-M   'P 1'
_cell_length_a   3.80544800
_cell_length_b   10.85857900
_cell_length_c   12.61076900
_cell_angle_alpha   90.00000000
_cell_angle_beta   90.00000000
_cell_angle_gamma   90.00000000
_symmetry_Int_Tables_number   1
_chemical_formula_structural   YbCo3As2
_chemical_formula_sum   'Yb6 Co18 As12'
_cell_volume   521.09914151
_cell_formula_units_Z   6
loop_
 _symmetry_equiv_pos_site_id
 _symmetry_equiv_pos_as_xyz
  1  'x, y, z'
loop_
 _atom_site_type_symbol
 _atom_site_label
 _atom_site_symmetry_multiplicity
 _atom_site_fract_x
 _atom_site_fract_y
 _atom_site_fract_z
 _atom_site_occupancy
  Yb  Yb0  1  0.000000  0.500000  0.524767  1
  Yb  Yb1  1  0.500000  0.000000  0.475233  1
  Yb  Yb2  1  0.500000  0.819647  0.206364  1
  Yb  Yb3  1  0.500000  0.180353  0.206364  1
  Yb  Yb4  1  0.000000  0.680353  0.793636  1
  Yb  Yb5  1  0.000000  0.319647  0.793636  1
  Co  Co6  1  0.000000  0.500000  0.986462  1
  Co  Co7  1  0.500000  0.000000  0.013538  1
  Co  Co8  1  0.500000  0.298865  0.431001  1
  Co  Co9  1  0.500000  0.701135  0.431001  1
  Co  Co10  1  0.000000  0.201135  0.568999  1
  Co  Co11  1  0.000000  0.798865  0.568999  1
  Co  Co12  1  0.500000  0.880819  0.706835  1
  Co  Co13  1  0.500000  0.119181  0.706835  1
  Co  Co14  1  0.000000  0.619181  0.293165  1
  Co  Co15  1  0.000000  0.380819  0.293165  1
  Co  Co16  1  0.500000  0.332704  0.995979  1
  Co  Co17  1  0.500000  0.667296  0.995979  1
  Co  Co18  1  0.000000  0.167296  0.004021  1
  Co  Co19  1  0.000000  0.832704  0.004021  1
  Co  Co20  1  0.500000  0.500000  0.154216  1
  Co  Co21  1  0.000000  0.000000  0.845784  1
  Co  Co22  1  0.500000  0.500000  0.699305  1
  Co  Co23  1  0.000000  0.000000  0.300695  1
  As  As24  1  0.500000  0.310132  0.617220  1
  As  As25  1  0.500000  0.689868  0.617220  1
  As  As26  1  0.000000  0.189868  0.382780  1
  As  As27  1  0.000000  0.810132  0.382780  1
  As  As28  1  0.500000  0.500000  0.880134  1
  As  As29  1  0.000000  0.000000  0.119866  1
  As  As30  1  0.500000  0.846124  0.890563  1
  As  As31  1  0.500000  0.153876  0.890563  1
  As  As32  1  0.000000  0.653876  0.109437  1
  As  As33  1  0.000000  0.346124  0.109437  1
  As  As34  1  0.500000  0.500000  0.343769  1
  As  As35  1  0.000000  0.000000  0.656231  1
