# generated using pymatgen
data_CeTm3(VB4)4
_symmetry_space_group_name_H-M   'P 1'
_cell_length_a   3.44864500
_cell_length_b   5.99500871
_cell_length_c   11.60225786
_cell_angle_alpha   89.89604956
_cell_angle_beta   90.00000000
_cell_angle_gamma   90.00000000
_symmetry_Int_Tables_number   1
_chemical_formula_structural   CeTm3(VB4)4
_chemical_formula_sum   'Ce1 Tm3 V4 B16'
_cell_volume   239.87230463
_cell_formula_units_Z   1
loop_
 _symmetry_equiv_pos_site_id
 _symmetry_equiv_pos_as_xyz
  1  'x, y, z'
loop_
 _atom_site_type_symbol
 _atom_site_label
 _atom_site_symmetry_multiplicity
 _atom_site_fract_x
 _atom_site_fract_y
 _atom_site_fract_z
 _atom_site_occupancy
  Ce  Ce0  1  0.500000  0.374492  0.151124  1
  Tm  Tm1  1  0.500000  0.124252  0.651188  1
  Tm  Tm2  1  0.500000  0.876169  0.349913  1
  Tm  Tm3  1  0.500000  0.625400  0.847958  1
  V  V4  1  0.500000  0.127883  0.916251  1
  V  V5  1  0.500000  0.871440  0.083062  1
  V  V6  1  0.500000  0.627530  0.583300  1
  V  V7  1  0.500000  0.373002  0.417358  1
  B  B8  1  0.000000  0.477073  0.693009  1
  B  B9  1  0.000000  0.524744  0.309253  1
  B  B10  1  0.000000  0.976924  0.806373  1
  B  B11  1  0.000000  0.022329  0.192495  1
  B  B12  1  0.000000  0.286852  0.813368  1
  B  B13  1  0.000000  0.716314  0.186241  1
  B  B14  1  0.000000  0.787102  0.685996  1
  B  B15  1  0.000000  0.212353  0.316056  1
  B  B16  1  0.000000  0.364117  0.965996  1
  B  B17  1  0.000000  0.635671  0.031066  1
  B  B18  1  0.000000  0.865380  0.532878  1
  B  B19  1  0.000000  0.134217  0.468379  1
  B  B20  1  0.000000  0.384590  0.548227  1
  B  B21  1  0.000000  0.615913  0.453231  1
  B  B22  1  0.000000  0.884302  0.951104  1
  B  B23  1  0.000000  0.111951  0.046172  1
