# generated using pymatgen
data_Eu4CoCuH12
_symmetry_space_group_name_H-M   'P 1'
_cell_length_a   7.25483212
_cell_length_b   7.25483102
_cell_length_c   5.25653002
_cell_angle_alpha   90.02289183
_cell_angle_beta   90.02289087
_cell_angle_gamma   137.53933943
_symmetry_Int_Tables_number   1
_chemical_formula_structural   Eu4CoCuH12
_chemical_formula_sum   'Eu4 Co1 Cu1 H12'
_cell_volume   186.77178086
_cell_formula_units_Z   1
loop_
 _symmetry_equiv_pos_site_id
 _symmetry_equiv_pos_as_xyz
  1  'x, y, z'
loop_
 _atom_site_type_symbol
 _atom_site_label
 _atom_site_symmetry_multiplicity
 _atom_site_fract_x
 _atom_site_fract_y
 _atom_site_fract_z
 _atom_site_occupancy
  Eu  Eu0  1  0.143046  0.856954  0.500000  1
  Eu  Eu1  1  0.642445  0.357555  0.000000  1
  Eu  Eu2  1  0.856954  0.143046  0.500000  1
  Eu  Eu3  1  0.357555  0.642445  0.000000  1
  Co  Co4  1  0.500000  0.500000  0.500000  1
  Cu  Cu5  1  0.000000  0.000000  0.000000  1
  H  H6  1  0.999775  0.500144  0.751440  1
  H  H7  1  0.499856  0.000225  0.248560  1
  H  H8  1  0.000225  0.499856  0.248560  1
  H  H9  1  0.500144  0.999775  0.751440  1
  H  H10  1  0.382202  0.617798  0.500000  1
  H  H11  1  0.880781  0.119219  0.000000  1
  H  H12  1  0.617798  0.382202  0.500000  1
  H  H13  1  0.119219  0.880781  0.000000  1
  H  H14  1  0.279156  0.279156  0.721018  1
  H  H15  1  0.720844  0.720844  0.278982  1
  H  H16  1  0.278550  0.278550  0.278624  1
  H  H17  1  0.721450  0.721450  0.721376  1
