# generated using pymatgen
data_K4(SnSe2)3
_symmetry_space_group_name_H-M   'P 1'
_cell_length_a   7.91211160
_cell_length_b   7.91211104
_cell_length_c   8.64267800
_cell_angle_alpha   82.89542890
_cell_angle_beta   82.89542940
_cell_angle_gamma   117.88138229
_symmetry_Int_Tables_number   1
_chemical_formula_structural   K4(SnSe2)3
_chemical_formula_sum   'K4 Sn3 Se6'
_cell_volume   464.29374819
_cell_formula_units_Z   1
loop_
 _symmetry_equiv_pos_site_id
 _symmetry_equiv_pos_as_xyz
  1  'x, y, z'
loop_
 _atom_site_type_symbol
 _atom_site_label
 _atom_site_symmetry_multiplicity
 _atom_site_fract_x
 _atom_site_fract_y
 _atom_site_fract_z
 _atom_site_occupancy
  K  K0  1  0.513818  0.486182  0.000000  1
  K  K1  1  0.677487  0.322513  0.500000  1
  K  K2  1  0.329663  0.670337  0.500000  1
  K  K3  1  0.185221  0.814779  0.000000  1
  Sn  Sn4  1  0.839298  0.160702  0.000000  1
  Sn  Sn5  1  0.063068  0.067506  0.332860  1
  Sn  Sn6  1  0.932494  0.936932  0.667140  1
  Se  Se7  1  0.080395  0.394347  0.229029  1
  Se  Se8  1  0.389685  0.077905  0.260715  1
  Se  Se9  1  0.922095  0.610315  0.739285  1
  Se  Se10  1  0.605653  0.919605  0.770971  1
  Se  Se11  1  0.786842  0.825717  0.207121  1
  Se  Se12  1  0.174283  0.213158  0.792879  1
