# generated using pymatgen
data_LiTb19Ir12
_symmetry_space_group_name_H-M   'P 1'
_cell_length_a   10.90445400
_cell_length_b   10.90445400
_cell_length_c   6.33395100
_cell_angle_alpha   90.00000000
_cell_angle_beta   90.00000000
_cell_angle_gamma   90.00000000
_symmetry_Int_Tables_number   1
_chemical_formula_structural   LiTb19Ir12
_chemical_formula_sum   'Li1 Tb19 Ir12'
_cell_volume   753.15185287
_cell_formula_units_Z   1
loop_
 _symmetry_equiv_pos_site_id
 _symmetry_equiv_pos_as_xyz
  1  'x, y, z'
loop_
 _atom_site_type_symbol
 _atom_site_label
 _atom_site_symmetry_multiplicity
 _atom_site_fract_x
 _atom_site_fract_y
 _atom_site_fract_z
 _atom_site_occupancy
  Li  Li0  1  0.000000  0.000000  0.500000  1
  Tb  Tb1  1  0.279853  0.083578  0.381395  1
  Tb  Tb2  1  0.291350  0.911433  0.880911  1
  Tb  Tb3  1  0.708650  0.088567  0.880911  1
  Tb  Tb4  1  0.720147  0.916422  0.381395  1
  Tb  Tb5  1  0.589913  0.791959  0.880394  1
  Tb  Tb6  1  0.587104  0.207651  0.379069  1
  Tb  Tb7  1  0.412896  0.792349  0.379069  1
  Tb  Tb8  1  0.410087  0.208041  0.880394  1
  Tb  Tb9  1  0.207651  0.412896  0.620931  1
  Tb  Tb10  1  0.208041  0.589913  0.119606  1
  Tb  Tb11  1  0.791959  0.410087  0.119606  1
  Tb  Tb12  1  0.792349  0.587104  0.620931  1
  Tb  Tb13  1  0.911433  0.708650  0.119089  1
  Tb  Tb14  1  0.916422  0.279853  0.618605  1
  Tb  Tb15  1  0.083578  0.720147  0.618605  1
  Tb  Tb16  1  0.088567  0.291350  0.119089  1
  Tb  Tb17  1  0.000000  0.000000  0.000000  1
  Tb  Tb18  1  0.500000  0.500000  0.000000  1
  Tb  Tb19  1  0.500000  0.500000  0.500000  1
  Ir  Ir20  1  0.845082  0.155525  0.244037  1
  Ir  Ir21  1  0.844475  0.845082  0.755963  1
  Ir  Ir22  1  0.155525  0.154918  0.755963  1
  Ir  Ir23  1  0.154918  0.844475  0.244037  1
  Ir  Ir24  1  0.654421  0.345705  0.747840  1
  Ir  Ir25  1  0.654295  0.654421  0.252160  1
  Ir  Ir26  1  0.345705  0.345579  0.252160  1
  Ir  Ir27  1  0.345579  0.654295  0.747840  1
  Ir  Ir28  1  0.500000  0.000000  0.125204  1
  Ir  Ir29  1  0.500000  0.000000  0.618391  1
  Ir  Ir30  1  0.000000  0.500000  0.874796  1
  Ir  Ir31  1  0.000000  0.500000  0.381609  1
