# generated using pymatgen
data_Eu6MnCrN6
_symmetry_space_group_name_H-M   'P 1'
_cell_length_a   7.47767700
_cell_length_b   7.47767754
_cell_length_c   5.16606300
_cell_angle_alpha   90.00000000
_cell_angle_beta   90.00000000
_cell_angle_gamma   120.00001089
_symmetry_Int_Tables_number   1
_chemical_formula_structural   Eu6MnCrN6
_chemical_formula_sum   'Eu6 Mn1 Cr1 N6'
_cell_volume   250.16336900
_cell_formula_units_Z   1
loop_
 _symmetry_equiv_pos_site_id
 _symmetry_equiv_pos_as_xyz
  1  'x, y, z'
loop_
 _atom_site_type_symbol
 _atom_site_label
 _atom_site_symmetry_multiplicity
 _atom_site_fract_x
 _atom_site_fract_y
 _atom_site_fract_z
 _atom_site_occupancy
  Eu  Eu0  1  0.638499  0.726029  0.750000  1
  Eu  Eu1  1  0.910630  0.638539  0.250000  1
  Eu  Eu2  1  0.727909  0.089370  0.250000  1
  Eu  Eu3  1  0.273971  0.912470  0.750000  1
  Eu  Eu4  1  0.087530  0.361501  0.750000  1
  Eu  Eu5  1  0.361461  0.272091  0.250000  1
  Mn  Mn6  1  0.666667  0.333333  0.750000  1
  Cr  Cr7  1  0.333333  0.666667  0.250000  1
  N  N8  1  0.890613  0.584335  0.750000  1
  N  N9  1  0.307916  0.889274  0.250000  1
  N  N10  1  0.581358  0.692084  0.250000  1
  N  N11  1  0.415665  0.306279  0.750000  1
  N  N12  1  0.693721  0.109387  0.750000  1
  N  N13  1  0.110726  0.418642  0.250000  1
