# generated using pymatgen
data_La15Lu5Ir12
_symmetry_space_group_name_H-M   'P 1'
_cell_length_a   11.34549372
_cell_length_b   11.30611611
_cell_length_c   6.51857877
_cell_angle_alpha   89.67589961
_cell_angle_beta   90.08854765
_cell_angle_gamma   90.34004837
_symmetry_Int_Tables_number   1
_chemical_formula_structural   La15Lu5Ir12
_chemical_formula_sum   'La15 Lu5 Ir12'
_cell_volume   836.13165478
_cell_formula_units_Z   1
loop_
 _symmetry_equiv_pos_site_id
 _symmetry_equiv_pos_as_xyz
  1  'x, y, z'
loop_
 _atom_site_type_symbol
 _atom_site_label
 _atom_site_symmetry_multiplicity
 _atom_site_fract_x
 _atom_site_fract_y
 _atom_site_fract_z
 _atom_site_occupancy
  La  La0  1  0.281063  0.091404  0.382570  1
  La  La1  1  0.286136  0.912951  0.886544  1
  La  La2  1  0.714151  0.087634  0.892761  1
  La  La3  1  0.713668  0.911950  0.390754  1
  La  La4  1  0.588307  0.786325  0.889804  1
  La  La5  1  0.585769  0.212530  0.390196  1
  La  La6  1  0.410933  0.786880  0.389482  1
  La  La7  1  0.410205  0.213215  0.890057  1
  La  La8  1  0.211048  0.408285  0.611207  1
  La  La9  1  0.212629  0.580929  0.109221  1
  La  La10  1  0.789781  0.411982  0.108670  1
  La  La11  1  0.786779  0.585921  0.608401  1
  La  La12  1  0.914680  0.715765  0.110097  1
  La  La13  1  0.917424  0.284583  0.608270  1
  La  La14  1  0.086827  0.711832  0.608973  1
  Lu  Lu15  1  0.082440  0.291020  0.104676  1
  Lu  Lu16  1  0.999868  0.999907  0.502091  1
  Lu  Lu17  1  0.004133  0.005474  0.003833  1
  Lu  Lu18  1  0.499902  0.498156  0.003891  1
  Lu  Lu19  1  0.498234  0.499099  0.503348  1
  Ir  Ir20  1  0.862603  0.152586  0.242183  1
  Ir  Ir21  1  0.853663  0.854691  0.752655  1
  Ir  Ir22  1  0.146765  0.148494  0.755467  1
  Ir  Ir23  1  0.147571  0.855216  0.253320  1
  Ir  Ir24  1  0.645298  0.353317  0.750727  1
  Ir  Ir25  1  0.644474  0.647544  0.253495  1
  Ir  Ir26  1  0.349579  0.351706  0.250159  1
  Ir  Ir27  1  0.354247  0.645922  0.752227  1
  Ir  Ir28  1  0.499529  0.000778  0.124223  1
  Ir  Ir29  1  0.499992  0.000471  0.622670  1
  Ir  Ir30  1  0.001919  0.495435  0.877132  1
  Ir  Ir31  1  0.000382  0.497999  0.370895  1
