# generated using pymatgen
data_Sr2TmC2(O2F)3
_symmetry_space_group_name_H-M   'P 1'
_cell_length_a   9.41658500
_cell_length_b   6.73452900
_cell_length_c   11.27516300
_cell_angle_alpha   90.00000000
_cell_angle_beta   90.00000000
_cell_angle_gamma   90.00000000
_symmetry_Int_Tables_number   1
_chemical_formula_structural   Sr2TmC2(O2F)3
_chemical_formula_sum   'Sr8 Tm4 C8 O24 F12'
_cell_volume   715.02872206
_cell_formula_units_Z   4
loop_
 _symmetry_equiv_pos_site_id
 _symmetry_equiv_pos_as_xyz
  1  'x, y, z'
loop_
 _atom_site_type_symbol
 _atom_site_label
 _atom_site_symmetry_multiplicity
 _atom_site_fract_x
 _atom_site_fract_y
 _atom_site_fract_z
 _atom_site_occupancy
  Sr  Sr0  1  0.382302  0.237106  0.070980  1
  Sr  Sr1  1  0.117698  0.737106  0.070980  1
  Sr  Sr2  1  0.617698  0.237106  0.429021  1
  Sr  Sr3  1  0.882302  0.737106  0.429021  1
  Sr  Sr4  1  0.117698  0.262894  0.570980  1
  Sr  Sr5  1  0.382302  0.762894  0.570980  1
  Sr  Sr6  1  0.882302  0.262894  0.929020  1
  Sr  Sr7  1  0.617698  0.762894  0.929020  1
  Tm  Tm8  1  0.000000  0.272969  0.250000  1
  Tm  Tm9  1  0.500000  0.772969  0.250000  1
  Tm  Tm10  1  0.500000  0.227031  0.750000  1
  Tm  Tm11  1  0.000000  0.727031  0.750000  1
  C  C12  1  0.694478  0.476460  0.177039  1
  C  C13  1  0.805523  0.976460  0.177039  1
  C  C14  1  0.305523  0.476460  0.322960  1
  C  C15  1  0.194477  0.976460  0.322960  1
  C  C16  1  0.805523  0.023540  0.677040  1
  C  C17  1  0.694478  0.523540  0.677040  1
  C  C18  1  0.194477  0.023540  0.822960  1
  C  C19  1  0.305523  0.523540  0.822960  1
  O  O20  1  0.913186  0.017192  0.108748  1
  O  O21  1  0.586814  0.517192  0.108748  1
  O  O22  1  0.801661  0.379310  0.138610  1
  O  O23  1  0.698339  0.879310  0.138610  1
  O  O24  1  0.187106  0.040369  0.213402  1
  O  O25  1  0.312895  0.540369  0.213402  1
  O  O26  1  0.812895  0.040369  0.286597  1
  O  O27  1  0.687106  0.540369  0.286597  1
  O  O28  1  0.198339  0.379310  0.361390  1
  O  O29  1  0.301661  0.879310  0.361390  1
  O  O30  1  0.086814  0.017192  0.391252  1
  O  O31  1  0.413186  0.517192  0.391252  1
  O  O32  1  0.586814  0.482808  0.608748  1
  O  O33  1  0.913186  0.982808  0.608748  1
  O  O34  1  0.698339  0.120690  0.638610  1
  O  O35  1  0.801661  0.620690  0.638610  1
  O  O36  1  0.312895  0.459631  0.713403  1
  O  O37  1  0.187106  0.959631  0.713403  1
  O  O38  1  0.687106  0.459631  0.786598  1
  O  O39  1  0.812895  0.959631  0.786598  1
  O  O40  1  0.301661  0.120690  0.861390  1
  O  O41  1  0.198339  0.620690  0.861390  1
  O  O42  1  0.413186  0.482808  0.891252  1
  O  O43  1  0.086814  0.982808  0.891252  1
  F  F44  1  0.093494  0.355764  0.072838  1
  F  F45  1  0.406506  0.855762  0.072838  1
  F  F46  1  0.500000  0.111778  0.250000  1
  F  F47  1  0.000000  0.611778  0.250000  1
  F  F48  1  0.906506  0.355764  0.427162  1
  F  F49  1  0.593494  0.855762  0.427162  1
  F  F50  1  0.406506  0.144236  0.572838  1
  F  F51  1  0.093494  0.644236  0.572838  1
  F  F52  1  0.000000  0.388220  0.750000  1
  F  F53  1  0.500000  0.888220  0.750000  1
  F  F54  1  0.593494  0.144236  0.927162  1
  F  F55  1  0.906506  0.644236  0.927162  1
