# generated using pymatgen
data_Sm6Ni16As13Pd3Pt
_symmetry_space_group_name_H-M   'P 1'
_cell_length_a   13.32617600
_cell_length_b   13.32617691
_cell_length_c   3.96326300
_cell_angle_alpha   90.00000000
_cell_angle_beta   90.00000000
_cell_angle_gamma   119.99999775
_symmetry_Int_Tables_number   1
_chemical_formula_structural   Sm6Ni16As13Pd3Pt
_chemical_formula_sum   'Sm6 Ni16 As13 Pd3 Pt1'
_cell_volume   609.52939338
_cell_formula_units_Z   1
loop_
 _symmetry_equiv_pos_site_id
 _symmetry_equiv_pos_as_xyz
  1  'x, y, z'
loop_
 _atom_site_type_symbol
 _atom_site_label
 _atom_site_symmetry_multiplicity
 _atom_site_fract_x
 _atom_site_fract_y
 _atom_site_fract_z
 _atom_site_occupancy
  Sm  Sm0  1  0.186819  0.469504  0.000000  1
  Sm  Sm1  1  0.530496  0.717316  0.000000  1
  Sm  Sm2  1  0.282684  0.813181  0.000000  1
  Sm  Sm3  1  0.719650  0.187847  0.500000  1
  Sm  Sm4  1  0.812153  0.531803  0.500000  1
  Sm  Sm5  1  0.468197  0.280350  0.500000  1
  Ni  Ni6  1  0.089974  0.200281  0.000000  1
  Ni  Ni7  1  0.799719  0.889691  0.000000  1
  Ni  Ni8  1  0.110309  0.910026  0.000000  1
  Ni  Ni9  1  0.666667  0.333333  0.000000  1
  Ni  Ni10  1  0.421398  0.440819  0.000000  1
  Ni  Ni11  1  0.559181  0.980578  0.000000  1
  Ni  Ni12  1  0.019422  0.578602  0.000000  1
  Ni  Ni13  1  0.241869  0.315149  0.500000  1
  Ni  Ni14  1  0.684851  0.926720  0.500000  1
  Ni  Ni15  1  0.073280  0.758131  0.500000  1
  Ni  Ni16  1  0.438715  0.027205  0.500000  1
  Ni  Ni17  1  0.972795  0.411510  0.500000  1
  Ni  Ni18  1  0.588490  0.561285  0.500000  1
  Ni  Ni19  1  0.922645  0.244180  0.000000  1
  Ni  Ni20  1  0.755820  0.678465  0.000000  1
  Ni  Ni21  1  0.321535  0.077355  0.000000  1
  As  As22  1  0.388508  0.514720  0.500000  1
  As  As23  1  0.485280  0.873788  0.500000  1
  As  As24  1  0.126212  0.611492  0.500000  1
  As  As25  1  0.047890  0.285615  0.500000  1
  As  As26  1  0.714385  0.762274  0.500000  1
  As  As27  1  0.237726  0.952110  0.500000  1
  As  As28  1  0.524122  0.140088  0.000000  1
  As  As29  1  0.859912  0.384034  0.000000  1
  As  As30  1  0.615966  0.475878  0.000000  1
  As  As31  1  0.760598  0.045105  0.000000  1
  As  As32  1  0.954895  0.715494  0.000000  1
  As  As33  1  0.284506  0.239402  0.000000  1
  As  As34  1  0.000000  0.000000  0.000000  1
  Pd  Pd35  1  0.917564  0.070958  0.500000  1
  Pd  Pd36  1  0.929042  0.846606  0.500000  1
  Pd  Pd37  1  0.153394  0.082436  0.500000  1
  Pt  Pt38  1  0.333333  0.666667  0.500000  1
