# generated using pymatgen
data_ErTmLu3Co19P12
_symmetry_space_group_name_H-M   'P 1'
_cell_length_a   11.92046100
_cell_length_b   11.92046121
_cell_length_c   3.63852200
_cell_angle_alpha   90.00000000
_cell_angle_beta   90.00000000
_cell_angle_gamma   120.00000220
_symmetry_Int_Tables_number   1
_chemical_formula_structural   ErTmLu3Co19P12
_chemical_formula_sum   'Er1 Tm1 Lu3 Co19 P12'
_cell_volume   447.75633298
_cell_formula_units_Z   1
loop_
 _symmetry_equiv_pos_site_id
 _symmetry_equiv_pos_as_xyz
  1  'x, y, z'
loop_
 _atom_site_type_symbol
 _atom_site_label
 _atom_site_symmetry_multiplicity
 _atom_site_fract_x
 _atom_site_fract_y
 _atom_site_fract_z
 _atom_site_occupancy
  Er  Er0  1  0.666667  0.333333  0.500000  1
  Tm  Tm1  1  0.333333  0.666667  0.500000  1
  Lu  Lu2  1  0.185898  0.000014  0.000000  1
  Lu  Lu3  1  0.999986  0.185884  0.000000  1
  Lu  Lu4  1  0.814116  0.814102  0.000000  1
  Co  Co5  1  0.198349  0.376383  0.500000  1
  Co  Co6  1  0.623617  0.821965  0.500000  1
  Co  Co7  1  0.178035  0.801651  0.500000  1
  Co  Co8  1  0.822038  0.623735  0.500000  1
  Co  Co9  1  0.801696  0.177962  0.500000  1
  Co  Co10  1  0.376265  0.198304  0.500000  1
  Co  Co11  1  0.551748  0.000004  0.500000  1
  Co  Co12  1  0.999996  0.551744  0.500000  1
  Co  Co13  1  0.448256  0.448252  0.500000  1
  Co  Co14  1  0.125745  0.483307  0.000000  1
  Co  Co15  1  0.516693  0.642438  0.000000  1
  Co  Co16  1  0.357562  0.874255  0.000000  1
  Co  Co17  1  0.642444  0.516898  0.000000  1
  Co  Co18  1  0.874455  0.357556  0.000000  1
  Co  Co19  1  0.483102  0.125545  0.000000  1
  Co  Co20  1  0.715835  0.999993  0.000000  1
  Co  Co21  1  0.000007  0.715842  0.000000  1
  Co  Co22  1  0.284158  0.284165  0.000000  1
  Co  Co23  1  0.000000  0.000000  0.500000  1
  P  P24  1  0.365937  0.000033  0.500000  1
  P  P25  1  0.999967  0.365905  0.500000  1
  P  P26  1  0.634095  0.634063  0.500000  1
  P  P27  1  0.315078  0.480871  0.000000  1
  P  P28  1  0.519129  0.834207  0.000000  1
  P  P29  1  0.165793  0.684922  0.000000  1
  P  P30  1  0.834453  0.519452  0.000000  1
  P  P31  1  0.684999  0.165547  0.000000  1
  P  P32  1  0.480548  0.315001  0.000000  1
  P  P33  1  0.820930  0.000018  0.500000  1
  P  P34  1  0.999982  0.820912  0.500000  1
  P  P35  1  0.179088  0.179070  0.500000  1
