# generated using pymatgen
data_U2SiRu5
_symmetry_space_group_name_H-M   'P 1'
_cell_length_a   4.03179900
_cell_length_b   5.70361100
_cell_length_c   11.10269500
_cell_angle_alpha   90.00000000
_cell_angle_beta   90.00000000
_cell_angle_gamma   90.00000000
_symmetry_Int_Tables_number   1
_chemical_formula_structural   U2SiRu5
_chemical_formula_sum   'U4 Si2 Ru10'
_cell_volume   255.31549942
_cell_formula_units_Z   2
loop_
 _symmetry_equiv_pos_site_id
 _symmetry_equiv_pos_as_xyz
  1  'x, y, z'
loop_
 _atom_site_type_symbol
 _atom_site_label
 _atom_site_symmetry_multiplicity
 _atom_site_fract_x
 _atom_site_fract_y
 _atom_site_fract_z
 _atom_site_occupancy
  U  U0  1  0.500000  0.824437  0.360813  1
  U  U1  1  0.500000  0.175563  0.639187  1
  U  U2  1  0.500000  0.324437  0.139187  1
  U  U3  1  0.500000  0.675563  0.860813  1
  Si  Si4  1  0.000000  0.500000  0.500000  1
  Si  Si5  1  0.000000  0.000000  0.000000  1
  Ru  Ru6  1  0.000000  0.500000  0.000000  1
  Ru  Ru7  1  0.000000  0.000000  0.500000  1
  Ru  Ru8  1  0.000000  0.573314  0.256599  1
  Ru  Ru9  1  0.000000  0.426686  0.743401  1
  Ru  Ru10  1  0.000000  0.073314  0.243401  1
  Ru  Ru11  1  0.000000  0.926686  0.756599  1
  Ru  Ru12  1  0.500000  0.822302  0.105491  1
  Ru  Ru13  1  0.500000  0.177698  0.894509  1
  Ru  Ru14  1  0.500000  0.322302  0.394509  1
  Ru  Ru15  1  0.500000  0.677698  0.605491  1
