# generated using pymatgen
data_HoU7(B6W)4
_symmetry_space_group_name_H-M   'P 1'
_cell_length_a   3.68233200
_cell_length_b   9.29212636
_cell_length_c   11.38595536
_cell_angle_alpha   89.96559163
_cell_angle_beta   90.00000000
_cell_angle_gamma   90.00000000
_symmetry_Int_Tables_number   1
_chemical_formula_structural   HoU7(B6W)4
_chemical_formula_sum   'Ho1 U7 B24 W4'
_cell_volume   389.58968304
_cell_formula_units_Z   1
loop_
 _symmetry_equiv_pos_site_id
 _symmetry_equiv_pos_as_xyz
  1  'x, y, z'
loop_
 _atom_site_type_symbol
 _atom_site_label
 _atom_site_symmetry_multiplicity
 _atom_site_fract_x
 _atom_site_fract_y
 _atom_site_fract_z
 _atom_site_occupancy
  Ho  Ho0  1  0.000000  0.335179  0.408009  1
  U  U1  1  0.000000  0.664272  0.592116  1
  U  U2  1  0.000000  0.834491  0.092650  1
  U  U3  1  0.000000  0.165273  0.907295  1
  U  U4  1  0.000000  0.956897  0.394819  1
  U  U5  1  0.000000  0.044555  0.604769  1
  U  U6  1  0.000000  0.456053  0.105413  1
  U  U7  1  0.000000  0.543509  0.895097  1
  B  B8  1  0.500000  0.552521  0.433701  1
  B  B9  1  0.500000  0.451346  0.568825  1
  B  B10  1  0.500000  0.049651  0.066360  1
  B  B11  1  0.500000  0.949970  0.932877  1
  B  B12  1  0.500000  0.743197  0.424865  1
  B  B13  1  0.500000  0.255655  0.576516  1
  B  B14  1  0.500000  0.243782  0.075589  1
  B  B15  1  0.500000  0.756302  0.924307  1
  B  B16  1  0.500000  0.804049  0.273003  1
  B  B17  1  0.500000  0.196047  0.727469  1
  B  B18  1  0.500000  0.303128  0.225155  1
  B  B19  1  0.500000  0.695945  0.772465  1
  B  B20  1  0.500000  0.644537  0.187627  1
  B  B21  1  0.500000  0.354978  0.812855  1
  B  B22  1  0.500000  0.143420  0.311907  1
  B  B23  1  0.500000  0.854964  0.687354  1
  B  B24  1  0.500000  0.985927  0.218222  1
  B  B25  1  0.500000  0.014145  0.781246  1
  B  B26  1  0.500000  0.487460  0.280284  1
  B  B27  1  0.500000  0.514979  0.718289  1
  B  B28  1  0.500000  0.642451  0.039519  1
  B  B29  1  0.500000  0.357908  0.960745  1
  B  B30  1  0.500000  0.138723  0.461372  1
  B  B31  1  0.500000  0.857369  0.539803  1
  W  W32  1  0.000000  0.648119  0.319371  1
  W  W33  1  0.000000  0.354944  0.682493  1
  W  W34  1  0.000000  0.143443  0.177442  1
  W  W35  1  0.000000  0.854811  0.820174  1
