# generated using pymatgen
data_Ac(MgAu2)2
_symmetry_space_group_name_H-M   'P 1'
_cell_length_a   5.88013716
_cell_length_b   5.88011826
_cell_length_c   5.88013936
_cell_angle_alpha   103.81505269
_cell_angle_beta   103.81539185
_cell_angle_gamma   121.49469373
_symmetry_Int_Tables_number   1
_chemical_formula_structural   Ac(MgAu2)2
_chemical_formula_sum   'Ac1 Mg2 Au4'
_cell_volume   151.25266499
_cell_formula_units_Z   1
loop_
 _symmetry_equiv_pos_site_id
 _symmetry_equiv_pos_as_xyz
  1  'x, y, z'
loop_
 _atom_site_type_symbol
 _atom_site_label
 _atom_site_symmetry_multiplicity
 _atom_site_fract_x
 _atom_site_fract_y
 _atom_site_fract_z
 _atom_site_occupancy
  Ac  Ac0  1  0.000000  0.000000  0.000000  1
  Mg  Mg1  1  0.249998  0.749998  0.500000  1
  Mg  Mg2  1  0.750002  0.250002  0.500000  1
  Au  Au3  1  0.302929  0.302925  0.605854  1
  Au  Au4  1  0.697071  0.697075  0.394146  1
  Au  Au5  1  0.697071  0.302925  0.999995  1
  Au  Au6  1  0.302929  0.697075  0.000005  1
