# generated using pymatgen
data_Y16Tm4Ir11Au
_symmetry_space_group_name_H-M   'P 1'
_cell_length_a   10.96794571
_cell_length_b   10.96794571
_cell_length_c   6.34772445
_cell_angle_alpha   89.97010988
_cell_angle_beta   89.97010988
_cell_angle_gamma   89.62942051
_symmetry_Int_Tables_number   1
_chemical_formula_structural   Y16Tm4Ir11Au
_chemical_formula_sum   'Y16 Tm4 Ir11 Au1'
_cell_volume   763.58862223
_cell_formula_units_Z   1
loop_
 _symmetry_equiv_pos_site_id
 _symmetry_equiv_pos_as_xyz
  1  'x, y, z'
loop_
 _atom_site_type_symbol
 _atom_site_label
 _atom_site_symmetry_multiplicity
 _atom_site_fract_x
 _atom_site_fract_y
 _atom_site_fract_z
 _atom_site_occupancy
  Y  Y0  1  0.289825  0.087756  0.376938  1
  Y  Y1  1  0.292068  0.911698  0.875730  1
  Y  Y2  1  0.705103  0.084253  0.865822  1
  Y  Y3  1  0.706618  0.905195  0.379539  1
  Y  Y4  1  0.587209  0.790056  0.879065  1
  Y  Y5  1  0.579290  0.211225  0.378663  1
  Y  Y6  1  0.411419  0.790280  0.377441  1
  Y  Y7  1  0.410952  0.209588  0.877749  1
  Y  Y8  1  0.209944  0.412791  0.620935  1
  Y  Y9  1  0.209720  0.588581  0.122559  1
  Y  Y10  1  0.788775  0.420710  0.121337  1
  Y  Y11  1  0.790412  0.589048  0.622251  1
  Y  Y12  1  0.912244  0.710175  0.123062  1
  Y  Y13  1  0.915747  0.294897  0.634178  1
  Y  Y14  1  0.088302  0.707932  0.624270  1
  Y  Y15  1  0.094805  0.293382  0.120461  1
  Tm  Tm16  1  0.004200  0.995952  0.501763  1
  Tm  Tm17  1  0.004048  0.995800  0.998237  1
  Tm  Tm18  1  0.499350  0.499987  0.999001  1
  Tm  Tm19  1  0.500013  0.500650  0.500999  1
  Ir  Ir20  1  0.848854  0.850415  0.749716  1
  Ir  Ir21  1  0.149585  0.151146  0.750284  1
  Ir  Ir22  1  0.152609  0.847391  0.250000  1
  Ir  Ir23  1  0.652700  0.347300  0.750000  1
  Ir  Ir24  1  0.651387  0.650582  0.249182  1
  Ir  Ir25  1  0.349418  0.348613  0.250818  1
  Ir  Ir26  1  0.348589  0.651411  0.750000  1
  Ir  Ir27  1  0.500556  0.000181  0.126591  1
  Ir  Ir28  1  0.499633  0.000223  0.622916  1
  Ir  Ir29  1  0.999777  0.500367  0.877084  1
  Ir  Ir30  1  0.999819  0.499444  0.373409  1
  Au  Au31  1  0.847030  0.152970  0.250000  1
