# generated using pymatgen
data_Pu5P12Ir19
_symmetry_space_group_name_H-M   'P 1'
_cell_length_a   12.85023800
_cell_length_b   12.85023889
_cell_length_c   4.04629700
_cell_angle_alpha   90.00000000
_cell_angle_beta   90.00000000
_cell_angle_gamma   120.00000286
_symmetry_Int_Tables_number   1
_chemical_formula_structural   Pu5P12Ir19
_chemical_formula_sum   'Pu5 P12 Ir19'
_cell_volume   578.64306012
_cell_formula_units_Z   1
loop_
 _symmetry_equiv_pos_site_id
 _symmetry_equiv_pos_as_xyz
  1  'x, y, z'
loop_
 _atom_site_type_symbol
 _atom_site_label
 _atom_site_symmetry_multiplicity
 _atom_site_fract_x
 _atom_site_fract_y
 _atom_site_fract_z
 _atom_site_occupancy
  Pu  Pu0  1  0.000000  0.817470  0.500000  1
  Pu  Pu1  1  0.182530  0.182530  0.500000  1
  Pu  Pu2  1  0.817470  0.000000  0.500000  1
  Pu  Pu3  1  0.333333  0.666667  0.000000  1
  Pu  Pu4  1  0.666667  0.333333  0.000000  1
  P  P5  1  0.000000  0.183073  0.000000  1
  P  P6  1  0.816927  0.816927  0.000000  1
  P  P7  1  0.183073  0.000000  0.000000  1
  P  P8  1  0.513691  0.687207  0.500000  1
  P  P9  1  0.312793  0.826485  0.500000  1
  P  P10  1  0.173515  0.486309  0.500000  1
  P  P11  1  0.486309  0.173515  0.500000  1
  P  P12  1  0.687207  0.513691  0.500000  1
  P  P13  1  0.826485  0.312793  0.500000  1
  P  P14  1  0.000000  0.646469  0.000000  1
  P  P15  1  0.353531  0.353531  0.000000  1
  P  P16  1  0.646469  0.000000  0.000000  1
  Ir  Ir17  1  0.000000  0.292670  0.500000  1
  Ir  Ir18  1  0.707330  0.707330  0.500000  1
  Ir  Ir19  1  0.292670  0.000000  0.500000  1
  Ir  Ir20  1  0.620865  0.801522  0.000000  1
  Ir  Ir21  1  0.198478  0.819343  0.000000  1
  Ir  Ir22  1  0.180657  0.379135  0.000000  1
  Ir  Ir23  1  0.379135  0.180657  0.000000  1
  Ir  Ir24  1  0.801522  0.620865  0.000000  1
  Ir  Ir25  1  0.819343  0.198478  0.000000  1
  Ir  Ir26  1  0.509981  0.868790  0.500000  1
  Ir  Ir27  1  0.131210  0.641191  0.500000  1
  Ir  Ir28  1  0.358809  0.490019  0.500000  1
  Ir  Ir29  1  0.490019  0.358809  0.500000  1
  Ir  Ir30  1  0.868790  0.509981  0.500000  1
  Ir  Ir31  1  0.641191  0.131210  0.500000  1
  Ir  Ir32  1  0.000000  0.000000  0.000000  1
  Ir  Ir33  1  0.000000  0.467855  0.000000  1
  Ir  Ir34  1  0.532145  0.532145  0.000000  1
  Ir  Ir35  1  0.467855  0.000000  0.000000  1
