# generated using pymatgen
data_Tb8Sc12Si15Tc
_symmetry_space_group_name_H-M   'P 1'
_cell_length_a   7.10300677
_cell_length_b   7.46268990
_cell_length_c   13.97893700
_cell_angle_alpha   90.00000000
_cell_angle_beta   90.00000000
_cell_angle_gamma   90.24643411
_symmetry_Int_Tables_number   1
_chemical_formula_structural   Tb8Sc12Si15Tc
_chemical_formula_sum   'Tb8 Sc12 Si15 Tc1'
_cell_volume   740.98216454
_cell_formula_units_Z   1
loop_
 _symmetry_equiv_pos_site_id
 _symmetry_equiv_pos_as_xyz
  1  'x, y, z'
loop_
 _atom_site_type_symbol
 _atom_site_label
 _atom_site_symmetry_multiplicity
 _atom_site_fract_x
 _atom_site_fract_y
 _atom_site_fract_z
 _atom_site_occupancy
  Tb  Tb0  1  0.011508  0.177999  0.096226  1
  Tb  Tb1  1  0.990950  0.827664  0.903172  1
  Tb  Tb2  1  0.488720  0.675380  0.903665  1
  Tb  Tb3  1  0.990950  0.827664  0.596828  1
  Tb  Tb4  1  0.510858  0.323385  0.096304  1
  Tb  Tb5  1  0.011508  0.177999  0.403774  1
  Tb  Tb6  1  0.510858  0.323385  0.403696  1
  Tb  Tb7  1  0.488720  0.675380  0.596335  1
  Sc  Sc8  1  0.155925  0.497633  0.750000  1
  Sc  Sc9  1  0.838443  0.495170  0.250000  1
  Sc  Sc10  1  0.338413  0.004871  0.250000  1
  Sc  Sc11  1  0.667607  0.999780  0.750000  1
  Sc  Sc12  1  0.317198  0.171844  0.627751  1
  Sc  Sc13  1  0.671790  0.825921  0.373990  1
  Sc  Sc14  1  0.171426  0.677920  0.374050  1
  Sc  Sc15  1  0.671790  0.825921  0.126010  1
  Sc  Sc16  1  0.837428  0.319374  0.627235  1
  Sc  Sc17  1  0.317198  0.171844  0.872249  1
  Sc  Sc18  1  0.837428  0.319374  0.872765  1
  Sc  Sc19  1  0.171426  0.677920  0.125950  1
  Si  Si20  1  0.967639  0.882616  0.250000  1
  Si  Si21  1  0.469622  0.615454  0.250000  1
  Si  Si22  1  0.530032  0.387440  0.750000  1
  Si  Si23  1  0.287601  0.869576  0.750000  1
  Si  Si24  1  0.712855  0.127530  0.250000  1
  Si  Si25  1  0.213743  0.371184  0.250000  1
  Si  Si26  1  0.780011  0.627177  0.750000  1
  Si  Si27  1  0.159137  0.468738  0.536890  1
  Si  Si28  1  0.845381  0.536360  0.461537  1
  Si  Si29  1  0.345186  0.965177  0.459929  1
  Si  Si30  1  0.845381  0.536360  0.038463  1
  Si  Si31  1  0.654596  0.033911  0.538842  1
  Si  Si32  1  0.159137  0.468738  0.963110  1
  Si  Si33  1  0.654596  0.033911  0.961158  1
  Si  Si34  1  0.345186  0.965177  0.040071  1
  Tc  Tc35  1  0.029751  0.114222  0.750000  1
