# generated using pymatgen
data_NdInCu5
_symmetry_space_group_name_H-M   'P 1'
_cell_length_a   5.10553200
_cell_length_b   5.10553251
_cell_length_c   20.22898200
_cell_angle_alpha   90.00000000
_cell_angle_beta   90.00000000
_cell_angle_gamma   119.99999670
_symmetry_Int_Tables_number   1
_chemical_formula_structural   NdInCu5
_chemical_formula_sum   'Nd4 In4 Cu20'
_cell_volume   456.65342843
_cell_formula_units_Z   4
loop_
 _symmetry_equiv_pos_site_id
 _symmetry_equiv_pos_as_xyz
  1  'x, y, z'
loop_
 _atom_site_type_symbol
 _atom_site_label
 _atom_site_symmetry_multiplicity
 _atom_site_fract_x
 _atom_site_fract_y
 _atom_site_fract_z
 _atom_site_occupancy
  Nd  Nd0  1  0.333333  0.666667  0.750000  1
  Nd  Nd1  1  0.666667  0.333333  0.250000  1
  Nd  Nd2  1  0.000000  0.000000  0.000000  1
  Nd  Nd3  1  0.000000  0.000000  0.500000  1
  In  In4  1  0.333333  0.666667  0.584585  1
  In  In5  1  0.666667  0.333333  0.415415  1
  In  In6  1  0.666667  0.333333  0.084585  1
  In  In7  1  0.333333  0.666667  0.915415  1
  Cu  Cu8  1  0.333333  0.666667  0.047522  1
  Cu  Cu9  1  0.666667  0.333333  0.952478  1
  Cu  Cu10  1  0.666667  0.333333  0.547522  1
  Cu  Cu11  1  0.333333  0.666667  0.452478  1
  Cu  Cu12  1  0.000000  0.000000  0.250000  1
  Cu  Cu13  1  0.000000  0.000000  0.750000  1
  Cu  Cu14  1  0.333333  0.666667  0.250000  1
  Cu  Cu15  1  0.666667  0.333333  0.750000  1
  Cu  Cu16  1  0.165456  0.330912  0.147916  1
  Cu  Cu17  1  0.834544  0.669088  0.852084  1
  Cu  Cu18  1  0.669088  0.834544  0.147916  1
  Cu  Cu19  1  0.834544  0.669088  0.647916  1
  Cu  Cu20  1  0.330912  0.165456  0.852084  1
  Cu  Cu21  1  0.165456  0.330912  0.352084  1
  Cu  Cu22  1  0.165456  0.834544  0.147916  1
  Cu  Cu23  1  0.330912  0.165456  0.647916  1
  Cu  Cu24  1  0.834544  0.165456  0.852084  1
  Cu  Cu25  1  0.669088  0.834544  0.352084  1
  Cu  Cu26  1  0.834544  0.165456  0.647916  1
  Cu  Cu27  1  0.165456  0.834544  0.352084  1
