# generated using pymatgen
data_Ho2TmPaN4
_symmetry_space_group_name_H-M   'P 1'
_cell_length_a   5.92039218
_cell_length_b   5.92039270
_cell_length_c   5.92039200
_cell_angle_alpha   131.53933370
_cell_angle_beta   131.53932522
_cell_angle_gamma   70.95758698
_symmetry_Int_Tables_number   1
_chemical_formula_structural   Ho2TmPaN4
_chemical_formula_sum   'Ho2 Tm1 Pa1 N4'
_cell_volume   113.85163669
_cell_formula_units_Z   1
loop_
 _symmetry_equiv_pos_site_id
 _symmetry_equiv_pos_as_xyz
  1  'x, y, z'
loop_
 _atom_site_type_symbol
 _atom_site_label
 _atom_site_symmetry_multiplicity
 _atom_site_fract_x
 _atom_site_fract_y
 _atom_site_fract_z
 _atom_site_occupancy
  Ho  Ho0  1  0.000000  0.000000  0.000000  1
  Ho  Ho1  1  0.750000  0.250000  0.500000  1
  Tm  Tm2  1  0.500000  0.500000  0.000000  1
  Pa  Pa3  1  0.250000  0.750000  0.500000  1
  N  N4  1  0.748160  0.748160  0.000000  1
  N  N5  1  0.251840  0.251840  0.000000  1
  N  N6  1  0.010086  0.510086  0.500000  1
  N  N7  1  0.489914  0.989914  0.500000  1
