# generated using pymatgen
data_Ca3Eu2(GaSb3)2
_symmetry_space_group_name_H-M   'P 1'
_cell_length_a   4.55313300
_cell_length_b   12.24028400
_cell_length_c   14.03975400
_cell_angle_alpha   90.00000000
_cell_angle_beta   90.00000000
_cell_angle_gamma   90.00000000
_symmetry_Int_Tables_number   1
_chemical_formula_structural   Ca3Eu2(GaSb3)2
_chemical_formula_sum   'Ca6 Eu4 Ga4 Sb12'
_cell_volume   782.45852979
_cell_formula_units_Z   2
loop_
 _symmetry_equiv_pos_site_id
 _symmetry_equiv_pos_as_xyz
  1  'x, y, z'
loop_
 _atom_site_type_symbol
 _atom_site_label
 _atom_site_symmetry_multiplicity
 _atom_site_fract_x
 _atom_site_fract_y
 _atom_site_fract_z
 _atom_site_occupancy
  Ca  Ca0  1  0.500000  0.000000  0.500000  1
  Ca  Ca1  1  0.500000  0.500000  0.000000  1
  Ca  Ca2  1  0.500000  0.908931  0.252768  1
  Ca  Ca3  1  0.500000  0.091069  0.747232  1
  Ca  Ca4  1  0.500000  0.408931  0.247232  1
  Ca  Ca5  1  0.500000  0.591069  0.752768  1
  Eu  Eu6  1  0.500000  0.668957  0.476797  1
  Eu  Eu7  1  0.500000  0.331043  0.523203  1
  Eu  Eu8  1  0.500000  0.831043  0.976797  1
  Eu  Eu9  1  0.500000  0.168957  0.023203  1
  Ga  Ga10  1  0.000000  0.328639  0.712201  1
  Ga  Ga11  1  0.000000  0.671361  0.287799  1
  Ga  Ga12  1  0.000000  0.828639  0.787799  1
  Ga  Ga13  1  0.000000  0.171361  0.212201  1
  Sb  Sb14  1  0.000000  0.975003  0.101327  1
  Sb  Sb15  1  0.000000  0.024997  0.898673  1
  Sb  Sb16  1  0.000000  0.475003  0.398673  1
  Sb  Sb17  1  0.000000  0.524997  0.601327  1
  Sb  Sb18  1  0.500000  0.162701  0.321702  1
  Sb  Sb19  1  0.500000  0.837299  0.678298  1
  Sb  Sb20  1  0.500000  0.662701  0.178298  1
  Sb  Sb21  1  0.500000  0.337299  0.821702  1
  Sb  Sb22  1  0.000000  0.348800  0.092897  1
  Sb  Sb23  1  0.000000  0.651200  0.907103  1
  Sb  Sb24  1  0.000000  0.848800  0.407103  1
  Sb  Sb25  1  0.000000  0.151200  0.592897  1
