# generated using pymatgen
data_Ho3Er5(CdIr)2
_symmetry_space_group_name_H-M   'P 1'
_cell_length_a   9.56135447
_cell_length_b   9.56135489
_cell_length_c   9.56135500
_cell_angle_alpha   60.00000310
_cell_angle_beta   60.00000162
_cell_angle_gamma   60.00000455
_symmetry_Int_Tables_number   1
_chemical_formula_structural   Ho3Er5(CdIr)2
_chemical_formula_sum   'Ho6 Er10 Cd4 Ir4'
_cell_volume   618.07806824
_cell_formula_units_Z   2
loop_
 _symmetry_equiv_pos_site_id
 _symmetry_equiv_pos_as_xyz
  1  'x, y, z'
loop_
 _atom_site_type_symbol
 _atom_site_label
 _atom_site_symmetry_multiplicity
 _atom_site_fract_x
 _atom_site_fract_y
 _atom_site_fract_z
 _atom_site_occupancy
  Ho  Ho0  1  0.187670  0.812330  0.812330  1
  Ho  Ho1  1  0.812330  0.187670  0.187670  1
  Ho  Ho2  1  0.812330  0.187670  0.812330  1
  Ho  Ho3  1  0.187670  0.812330  0.187670  1
  Ho  Ho4  1  0.812330  0.812330  0.187670  1
  Ho  Ho5  1  0.187670  0.187670  0.812330  1
  Er  Er6  1  0.599460  0.599460  0.599460  1
  Er  Er7  1  0.599460  0.599460  0.201620  1
  Er  Er8  1  0.599460  0.201620  0.599460  1
  Er  Er9  1  0.201620  0.599460  0.599460  1
  Er  Er10  1  0.060702  0.439298  0.439298  1
  Er  Er11  1  0.439298  0.060702  0.060702  1
  Er  Er12  1  0.439298  0.060702  0.439298  1
  Er  Er13  1  0.060702  0.439298  0.060702  1
  Er  Er14  1  0.439298  0.439298  0.060702  1
  Er  Er15  1  0.060702  0.060702  0.439298  1
  Cd  Cd16  1  0.831146  0.831146  0.831146  1
  Cd  Cd17  1  0.831146  0.831146  0.506561  1
  Cd  Cd18  1  0.831146  0.506561  0.831146  1
  Cd  Cd19  1  0.506561  0.831146  0.831146  1
  Ir  Ir20  1  0.391928  0.391928  0.391928  1
  Ir  Ir21  1  0.391928  0.391928  0.824216  1
  Ir  Ir22  1  0.391928  0.824216  0.391928  1
  Ir  Ir23  1  0.824216  0.391928  0.391928  1
