# generated using pymatgen
data_ErTa5(SiTc)6
_symmetry_space_group_name_H-M   'P 1'
_cell_length_a   7.61752119
_cell_length_b   7.57541258
_cell_length_c   7.61752106
_cell_angle_alpha   126.99790165
_cell_angle_beta   124.97403029
_cell_angle_gamma   80.05989865
_symmetry_Int_Tables_number   1
_chemical_formula_structural   ErTa5(SiTc)6
_chemical_formula_sum   'Er1 Ta5 Si6 Tc6'
_cell_volume   277.51849713
_cell_formula_units_Z   1
loop_
 _symmetry_equiv_pos_site_id
 _symmetry_equiv_pos_as_xyz
  1  'x, y, z'
loop_
 _atom_site_type_symbol
 _atom_site_label
 _atom_site_symmetry_multiplicity
 _atom_site_fract_x
 _atom_site_fract_y
 _atom_site_fract_z
 _atom_site_occupancy
  Er  Er0  1  0.535116  0.062167  0.027052  1
  Ta  Ta1  1  0.462854  0.494741  0.531887  1
  Ta  Ta2  1  0.944073  0.484362  0.040289  1
  Ta  Ta3  1  0.053892  0.102908  0.549015  1
  Ta  Ta4  1  0.744659  0.904369  0.659710  1
  Ta  Ta5  1  0.252945  0.911910  0.158964  1
  Si  Si6  1  0.733277  0.481113  0.247836  1
  Si  Si7  1  0.278185  0.546311  0.768126  1
  Si  Si8  1  0.319950  0.821263  0.476797  1
  Si  Si9  1  0.674065  0.161643  0.506648  1
  Si  Si10  1  0.844465  0.821263  0.001313  1
  Si  Si11  1  0.154994  0.161643  0.987577  1
  Tc  Tc12  1  0.486105  0.247474  0.731486  1
  Tc  Tc13  1  0.015989  0.247474  0.261369  1
  Tc  Tc14  1  0.086791  0.749193  0.585315  1
  Tc  Tc15  1  0.900904  0.497587  0.649727  1
  Tc  Tc16  1  0.663878  0.749193  0.162402  1
  Tc  Tc17  1  0.347860  0.497587  0.096684  1
