# generated using pymatgen
data_Th8Sc12Si15Tc
_symmetry_space_group_name_H-M   'P 1'
_cell_length_a   7.24707993
_cell_length_b   7.54327198
_cell_length_c   14.12735000
_cell_angle_alpha   90.00000000
_cell_angle_beta   90.00000000
_cell_angle_gamma   90.14298106
_symmetry_Int_Tables_number   1
_chemical_formula_structural   Th8Sc12Si15Tc
_chemical_formula_sum   'Th8 Sc12 Si15 Tc1'
_cell_volume   772.29312809
_cell_formula_units_Z   1
loop_
 _symmetry_equiv_pos_site_id
 _symmetry_equiv_pos_as_xyz
  1  'x, y, z'
loop_
 _atom_site_type_symbol
 _atom_site_label
 _atom_site_symmetry_multiplicity
 _atom_site_fract_x
 _atom_site_fract_y
 _atom_site_fract_z
 _atom_site_occupancy
  Th  Th0  1  0.008330  0.175957  0.095613  1
  Th  Th1  1  0.995500  0.829772  0.901222  1
  Th  Th2  1  0.494520  0.672365  0.903740  1
  Th  Th3  1  0.995500  0.829772  0.598778  1
  Th  Th4  1  0.507144  0.327158  0.095622  1
  Th  Th5  1  0.008330  0.175957  0.404387  1
  Th  Th6  1  0.507144  0.327158  0.404378  1
  Th  Th7  1  0.494520  0.672365  0.596260  1
  Sc  Sc8  1  0.155611  0.498132  0.750000  1
  Sc  Sc9  1  0.839860  0.497661  0.250000  1
  Sc  Sc10  1  0.339361  0.004632  0.250000  1
  Sc  Sc11  1  0.665248  0.001995  0.750000  1
  Sc  Sc12  1  0.319990  0.171850  0.627335  1
  Sc  Sc13  1  0.670112  0.826768  0.373503  1
  Sc  Sc14  1  0.169203  0.675723  0.374836  1
  Sc  Sc15  1  0.670112  0.826768  0.126497  1
  Sc  Sc16  1  0.837389  0.319481  0.626699  1
  Sc  Sc17  1  0.319990  0.171850  0.872665  1
  Sc  Sc18  1  0.837389  0.319481  0.873301  1
  Sc  Sc19  1  0.169203  0.675723  0.125164  1
  Si  Si20  1  0.968508  0.880437  0.250000  1
  Si  Si21  1  0.465945  0.621247  0.250000  1
  Si  Si22  1  0.532382  0.382784  0.750000  1
  Si  Si23  1  0.292506  0.871996  0.750000  1
  Si  Si24  1  0.710240  0.125294  0.250000  1
  Si  Si25  1  0.210485  0.377125  0.250000  1
  Si  Si26  1  0.783096  0.621412  0.750000  1
  Si  Si27  1  0.160699  0.468016  0.539140  1
  Si  Si28  1  0.841885  0.537637  0.460526  1
  Si  Si29  1  0.344269  0.964273  0.460595  1
  Si  Si30  1  0.841885  0.537637  0.039474  1
  Si  Si31  1  0.654631  0.034968  0.537989  1
  Si  Si32  1  0.160699  0.468016  0.960860  1
  Si  Si33  1  0.654631  0.034968  0.962011  1
  Si  Si34  1  0.344269  0.964273  0.039405  1
  Tc  Tc35  1  0.029417  0.109345  0.750000  1
