# generated using pymatgen
data_Ba6HoPd4O15
_symmetry_space_group_name_H-M   'P 1'
_cell_length_a   7.59742072
_cell_length_b   7.53081347
_cell_length_c   7.47059198
_cell_angle_alpha   86.07574744
_cell_angle_beta   86.29539043
_cell_angle_gamma   85.18036884
_symmetry_Int_Tables_number   1
_chemical_formula_structural   Ba6HoPd4O15
_chemical_formula_sum   'Ba6 Ho1 Pd4 O15'
_cell_volume   424.17267641
_cell_formula_units_Z   1
loop_
 _symmetry_equiv_pos_site_id
 _symmetry_equiv_pos_as_xyz
  1  'x, y, z'
loop_
 _atom_site_type_symbol
 _atom_site_label
 _atom_site_symmetry_multiplicity
 _atom_site_fract_x
 _atom_site_fract_y
 _atom_site_fract_z
 _atom_site_occupancy
  Ba  Ba0  1  0.325442  0.669223  0.999027  1
  Ba  Ba1  1  0.002074  0.331221  0.670908  1
  Ba  Ba2  1  0.668082  0.995952  0.327237  1
  Ba  Ba3  1  0.138814  0.859941  0.504235  1
  Ba  Ba4  1  0.502142  0.135913  0.858095  1
  Ba  Ba5  1  0.853383  0.502306  0.136588  1
  Ho  Ho6  1  0.501950  0.499063  0.499287  1
  Pd  Pd7  1  0.294449  0.295872  0.295848  1
  Pd  Pd8  1  0.701182  0.704377  0.707040  1
  Pd  Pd9  1  0.101631  0.098728  0.096472  1
  Pd  Pd10  1  0.902961  0.904717  0.901003  1
  O  O11  1  0.177367  0.009209  0.851244  1
  O  O12  1  0.857376  0.155691  0.998156  1
  O  O13  1  0.005739  0.853493  0.152155  1
  O  O14  1  0.038599  0.205187  0.344588  1
  O  O15  1  0.342620  0.037666  0.205745  1
  O  O16  1  0.199755  0.342927  0.036374  1
  O  O17  1  0.791244  0.961889  0.655287  1
  O  O18  1  0.636871  0.786750  0.967631  1
  O  O19  1  0.958504  0.655516  0.797138  1
  O  O20  1  0.375917  0.235514  0.547316  1
  O  O21  1  0.545037  0.369553  0.232948  1
  O  O22  1  0.235174  0.548148  0.375979  1
  O  O23  1  0.764103  0.624973  0.450996  1
  O  O24  1  0.451391  0.765070  0.622831  1
  O  O25  1  0.628194  0.451100  0.765870  1
