# generated using pymatgen
data_Pr4Cu3Ge2Pd25
_symmetry_space_group_name_H-M   'P 1'
_cell_length_a   8.93981619
_cell_length_b   8.93981619
_cell_length_c   7.20903327
_cell_angle_alpha   90.06408166
_cell_angle_beta   90.06408166
_cell_angle_gamma   90.90657776
_symmetry_Int_Tables_number   1
_chemical_formula_structural   Pr4Cu3Ge2Pd25
_chemical_formula_sum   'Pr4 Cu3 Ge2 Pd25'
_cell_volume   576.07534638
_cell_formula_units_Z   1
loop_
 _symmetry_equiv_pos_site_id
 _symmetry_equiv_pos_as_xyz
  1  'x, y, z'
loop_
 _atom_site_type_symbol
 _atom_site_label
 _atom_site_symmetry_multiplicity
 _atom_site_fract_x
 _atom_site_fract_y
 _atom_site_fract_z
 _atom_site_occupancy
  Pr  Pr0  1  0.503347  0.003347  0.933092  1
  Pr  Pr1  1  0.996653  0.496653  0.066908  1
  Pr  Pr2  1  0.001307  0.998693  0.500000  1
  Pr  Pr3  1  0.498693  0.501307  0.500000  1
  Cu  Cu4  1  0.250000  0.750000  0.000000  1
  Cu  Cu5  1  0.250000  0.250000  0.000000  1
  Cu  Cu6  1  0.750000  0.750000  0.000000  1
  Ge  Ge7  1  0.500441  0.000441  0.448064  1
  Ge  Ge8  1  0.999559  0.499559  0.551936  1
  Pd  Pd9  1  0.328079  0.828079  0.627188  1
  Pd  Pd10  1  0.329594  0.168709  0.621034  1
  Pd  Pd11  1  0.668709  0.829594  0.621034  1
  Pd  Pd12  1  0.671283  0.171283  0.625728  1
  Pd  Pd13  1  0.171921  0.671921  0.372812  1
  Pd  Pd14  1  0.170406  0.331291  0.378966  1
  Pd  Pd15  1  0.831291  0.670406  0.378966  1
  Pd  Pd16  1  0.828717  0.328717  0.374272  1
  Pd  Pd17  1  0.496937  0.766628  0.249150  1
  Pd  Pd18  1  0.497083  0.235555  0.250350  1
  Pd  Pd19  1  0.266628  0.996937  0.249150  1
  Pd  Pd20  1  0.735555  0.997083  0.250350  1
  Pd  Pd21  1  0.003063  0.733372  0.750850  1
  Pd  Pd22  1  0.002917  0.264445  0.749650  1
  Pd  Pd23  1  0.233372  0.503063  0.750850  1
  Pd  Pd24  1  0.764445  0.502917  0.749650  1
  Pd  Pd25  1  0.493505  0.348131  0.861981  1
  Pd  Pd26  1  0.499469  0.660371  0.867621  1
  Pd  Pd27  1  0.848131  0.993505  0.861981  1
  Pd  Pd28  1  0.160371  0.999469  0.867621  1
  Pd  Pd29  1  0.006495  0.151869  0.138019  1
  Pd  Pd30  1  0.000531  0.839629  0.132379  1
  Pd  Pd31  1  0.651869  0.506495  0.138019  1
  Pd  Pd32  1  0.339629  0.500531  0.132379  1
  Pd  Pd33  1  0.750000  0.250000  0.000000  1
