# generated using pymatgen
data_Li3Ac8Si12Ir
_symmetry_space_group_name_H-M   'P 1'
_cell_length_a   11.74592112
_cell_length_b   10.06437654
_cell_length_c   8.55987000
_cell_angle_alpha   77.68994309
_cell_angle_beta   56.79358982
_cell_angle_gamma   45.45424482
_symmetry_Int_Tables_number   1
_chemical_formula_structural   Li3Ac8Si12Ir
_chemical_formula_sum   'Li3 Ac8 Si12 Ir1'
_cell_volume   578.07867270
_cell_formula_units_Z   1
loop_
 _symmetry_equiv_pos_site_id
 _symmetry_equiv_pos_as_xyz
  1  'x, y, z'
loop_
 _atom_site_type_symbol
 _atom_site_label
 _atom_site_symmetry_multiplicity
 _atom_site_fract_x
 _atom_site_fract_y
 _atom_site_fract_z
 _atom_site_occupancy
  Li  Li0  1  0.833392  0.166382  0.833323  1
  Li  Li1  1  0.167083  0.832821  0.167423  1
  Li  Li2  1  0.416926  0.083375  0.416683  1
  Ac  Ac3  1  0.371471  0.379143  0.631066  1
  Ac  Ac4  1  0.631044  0.618490  0.371897  1
  Ac  Ac5  1  0.873841  0.871251  0.625646  1
  Ac  Ac6  1  0.626068  0.628829  0.874293  1
  Ac  Ac7  1  0.883163  0.863828  0.122398  1
  Ac  Ac8  1  0.121802  0.130436  0.882855  1
  Ac  Ac9  1  0.368486  0.378073  0.123253  1
  Ac  Ac10  1  0.121272  0.131858  0.369570  1
  Si  Si11  1  0.663933  0.336584  0.663642  1
  Si  Si12  1  0.335821  0.663984  0.336511  1
  Si  Si13  1  0.587399  0.911570  0.588525  1
  Si  Si14  1  0.918330  0.580948  0.918545  1
  Si  Si15  1  0.335525  0.665203  0.828409  1
  Si  Si16  1  0.174880  0.831491  0.660703  1
  Si  Si17  1  0.828145  0.170082  0.336131  1
  Si  Si18  1  0.661528  0.334389  0.174254  1
  Si  Si19  1  0.921973  0.586009  0.409928  1
  Si  Si20  1  0.071200  0.422195  0.590883  1
  Si  Si21  1  0.411025  0.083270  0.920553  1
  Si  Si22  1  0.591418  0.913986  0.070673  1
  Ir  Ir23  1  0.084275  0.415802  0.082839  1
