# generated using pymatgen
data_CuCl23
_symmetry_space_group_name_H-M   'P 1'
_cell_length_a   5.99812200
_cell_length_b   10.61635912
_cell_length_c   17.10938000
_cell_angle_alpha   90.01422092
_cell_angle_beta   86.54388368
_cell_angle_gamma   90.73422030
_symmetry_Int_Tables_number   1
_chemical_formula_structural   CuCl23
_chemical_formula_sum   'Cu1 Cl23'
_cell_volume   1087.42387216
_cell_formula_units_Z   1
loop_
 _symmetry_equiv_pos_site_id
 _symmetry_equiv_pos_as_xyz
  1  'x, y, z'
loop_
 _atom_site_type_symbol
 _atom_site_label
 _atom_site_symmetry_multiplicity
 _atom_site_fract_x
 _atom_site_fract_y
 _atom_site_fract_z
 _atom_site_occupancy
  Cu  Cu0  1  0.514425  0.239349  0.405266  1
  Cl  Cl1  1  0.436697  0.862280  0.400390  1
  Cl  Cl2  1  0.113006  0.297809  0.101075  1
  Cl  Cl3  1  0.795936  0.198789  0.463380  1
  Cl  Cl4  1  0.180023  0.831179  0.477946  1
  Cl  Cl5  1  0.380072  0.341233  0.030099  1
  Cl  Cl6  1  0.770758  0.608579  0.007630  1
  Cl  Cl7  1  0.220960  0.287402  0.356925  1
  Cl  Cl8  1  0.812160  0.571529  0.322321  1
  Cl  Cl9  1  0.711768  0.161547  0.228347  1
  Cl  Cl10  1  0.168156  0.815133  0.183189  1
  Cl  Cl11  1  0.867980  0.561417  0.678276  1
  Cl  Cl12  1  0.170262  0.312711  0.613017  1
  Cl  Cl13  1  0.281033  0.823361  0.822525  1
  Cl  Cl14  1  0.818315  0.220253  0.831376  1
  Cl  Cl15  1  0.970978  0.709234  0.095071  1
  Cl  Cl16  1  0.598864  0.912433  0.646811  1
  Cl  Cl17  1  0.358691  0.160083  0.626258  1
  Cl  Cl18  1  0.085660  0.736894  0.906840  1
  Cl  Cl19  1  0.830106  0.368913  0.903863  1
  Cl  Cl20  1  0.591547  0.528608  0.243799  1
  Cl  Cl21  1  0.915521  0.006309  0.211047  1
  Cl  Cl22  1  0.563075  0.517978  0.723811  1
  Cl  Cl23  1  0.844005  0.926977  0.720741  1
