# generated using pymatgen
data_Zr6Zn21Cu2Si
_symmetry_space_group_name_H-M   'P 1'
_cell_length_a   8.74747030
_cell_length_b   8.77938189
_cell_length_c   8.74747034
_cell_angle_alpha   59.87924848
_cell_angle_beta   59.99069481
_cell_angle_gamma   59.87923752
_symmetry_Int_Tables_number   1
_chemical_formula_structural   Zr6Zn21Cu2Si
_chemical_formula_sum   'Zr6 Zn21 Cu2 Si1'
_cell_volume   474.12008215
_cell_formula_units_Z   1
loop_
 _symmetry_equiv_pos_site_id
 _symmetry_equiv_pos_as_xyz
  1  'x, y, z'
loop_
 _atom_site_type_symbol
 _atom_site_label
 _atom_site_symmetry_multiplicity
 _atom_site_fract_x
 _atom_site_fract_y
 _atom_site_fract_z
 _atom_site_occupancy
  Zr  Zr0  1  0.711927  0.288998  0.288073  1
  Zr  Zr1  1  0.288073  0.711002  0.711927  1
  Zr  Zr2  1  0.286326  0.713674  0.286326  1
  Zr  Zr3  1  0.713674  0.286326  0.713674  1
  Zr  Zr4  1  0.288073  0.288998  0.711927  1
  Zr  Zr5  1  0.711927  0.711002  0.288073  1
  Zn  Zn6  1  0.121388  0.121339  0.121388  1
  Zn  Zn7  1  0.878612  0.878661  0.878612  1
  Zn  Zn8  1  0.128676  0.118304  0.634718  1
  Zn  Zn9  1  0.121388  0.635886  0.121388  1
  Zn  Zn10  1  0.871324  0.881696  0.365282  1
  Zn  Zn11  1  0.878612  0.364114  0.878612  1
  Zn  Zn12  1  0.634718  0.118304  0.128676  1
  Zn  Zn13  1  0.365282  0.881696  0.871324  1
  Zn  Zn14  1  0.500000  0.000000  0.000000  1
  Zn  Zn15  1  0.000000  0.500000  0.500000  1
  Zn  Zn16  1  0.000000  0.500000  0.000000  1
  Zn  Zn17  1  0.000000  0.000000  0.500000  1
  Zn  Zn18  1  0.500000  0.500000  0.000000  1
  Zn  Zn19  1  0.339320  0.332409  0.339320  1
  Zn  Zn20  1  0.660680  0.667591  0.660680  1
  Zn  Zn21  1  0.338029  0.336174  0.989625  1
  Zn  Zn22  1  0.339320  0.988952  0.339320  1
  Zn  Zn23  1  0.661971  0.663826  0.010375  1
  Zn  Zn24  1  0.660680  0.011048  0.660680  1
  Zn  Zn25  1  0.989625  0.336174  0.338029  1
  Zn  Zn26  1  0.010375  0.663826  0.661971  1
  Cu  Cu27  1  0.500000  0.000000  0.500000  1
  Cu  Cu28  1  0.000000  0.000000  0.000000  1
  Si  Si29  1  0.500000  0.500000  0.500000  1
