# generated using pymatgen
data_Sm3YSi8(CN6)2
_symmetry_space_group_name_H-M   'P 1'
_cell_length_a   6.00409628
_cell_length_b   10.04247328
_cell_length_c   12.03984527
_cell_angle_alpha   90.12375543
_cell_angle_beta   119.55155674
_cell_angle_gamma   90.12541100
_symmetry_Int_Tables_number   1
_chemical_formula_structural   Sm3YSi8(CN6)2
_chemical_formula_sum   'Sm6 Y2 Si16 C4 N24'
_cell_volume   631.51057894
_cell_formula_units_Z   2
loop_
 _symmetry_equiv_pos_site_id
 _symmetry_equiv_pos_as_xyz
  1  'x, y, z'
loop_
 _atom_site_type_symbol
 _atom_site_label
 _atom_site_symmetry_multiplicity
 _atom_site_fract_x
 _atom_site_fract_y
 _atom_site_fract_z
 _atom_site_occupancy
  Sm  Sm0  1  0.329824  0.917216  0.074433  1
  Sm  Sm1  1  0.325774  0.565848  0.095188  1
  Sm  Sm2  1  0.660105  0.056681  0.401404  1
  Sm  Sm3  1  0.659038  0.413283  0.418824  1
  Sm  Sm4  1  0.337240  0.584683  0.579286  1
  Sm  Sm5  1  0.338051  0.941316  0.600866  1
  Y  Y6  1  0.669875  0.431827  0.905642  1
  Y  Y7  1  0.660069  0.089348  0.920142  1
  Si  Si8  1  0.831200  0.710123  0.078424  1
  Si  Si9  1  0.675797  0.228969  0.158752  1
  Si  Si10  1  0.196600  0.208771  0.175250  1
  Si  Si11  1  0.002404  0.482096  0.249857  1
  Si  Si12  1  0.990025  0.981805  0.247998  1
  Si  Si13  1  0.800496  0.710537  0.324056  1
  Si  Si14  1  0.322814  0.731760  0.339817  1
  Si  Si15  1  0.164701  0.212472  0.420980  1
  Si  Si16  1  0.834393  0.787502  0.579615  1
  Si  Si17  1  0.678365  0.269792  0.659751  1
  Si  Si18  1  0.203005  0.291910  0.677940  1
  Si  Si19  1  0.010310  0.018853  0.752495  1
  Si  Si20  1  0.995767  0.517751  0.750777  1
  Si  Si21  1  0.805596  0.789113  0.826016  1
  Si  Si22  1  0.326125  0.771733  0.839126  1
  Si  Si23  1  0.163432  0.287406  0.920279  1
  C  C24  1  0.976001  0.793927  0.245348  1
  C  C25  1  0.022923  0.294235  0.254240  1
  C  C26  1  0.979076  0.706290  0.746234  1
  C  C27  1  0.023986  0.206149  0.753736  1
  N  N28  1  0.502193  0.289739  0.001458  1
  N  N29  1  0.038663  0.216777  0.009799  1
  N  N30  1  0.925454  0.542027  0.099555  1
  N  N31  1  0.700753  0.056728  0.136565  1
  N  N32  1  0.226952  0.039470  0.216599  1
  N  N33  1  0.513882  0.262882  0.242993  1
  N  N34  1  0.487328  0.770638  0.257075  1
  N  N35  1  0.765959  0.540829  0.281594  1
  N  N36  1  0.296756  0.558233  0.356562  1
  N  N37  1  0.057718  0.045825  0.396847  1
  N  N38  1  0.957274  0.718235  0.489411  1
  N  N39  1  0.495581  0.792177  0.497515  1
  N  N40  1  0.503545  0.206000  0.503508  1
  N  N41  1  0.050202  0.287558  0.512669  1
  N  N42  1  0.935846  0.954523  0.603536  1
  N  N43  1  0.704792  0.442531  0.638630  1
  N  N44  1  0.242942  0.460200  0.725865  1
  N  N45  1  0.518156  0.233705  0.745446  1
  N  N46  1  0.487231  0.736294  0.754950  1
  N  N47  1  0.783883  0.961174  0.792354  1
  N  N48  1  0.307971  0.946227  0.856876  1
  N  N49  1  0.054550  0.453098  0.897326  1
  N  N50  1  0.965215  0.771013  0.990089  1
  N  N51  1  0.494163  0.712732  0.996304  1
