# generated using pymatgen
data_HoMg(Si7Rh3)2
_symmetry_space_group_name_H-M   'P 1'
_cell_length_a   7.96542194
_cell_length_b   7.96542216
_cell_length_c   7.96542310
_cell_angle_alpha   57.00670658
_cell_angle_beta   57.00670596
_cell_angle_gamma   57.00670208
_symmetry_Int_Tables_number   1
_chemical_formula_structural   HoMg(Si7Rh3)2
_chemical_formula_sum   'Ho1 Mg1 Si14 Rh6'
_cell_volume   332.70057242
_cell_formula_units_Z   1
loop_
 _symmetry_equiv_pos_site_id
 _symmetry_equiv_pos_as_xyz
  1  'x, y, z'
loop_
 _atom_site_type_symbol
 _atom_site_label
 _atom_site_symmetry_multiplicity
 _atom_site_fract_x
 _atom_site_fract_y
 _atom_site_fract_z
 _atom_site_occupancy
  Ho  Ho0  1  0.500000  0.500000  0.500000  1
  Mg  Mg1  1  0.000000  0.000000  0.000000  1
  Si  Si2  1  0.749819  0.749819  0.749819  1
  Si  Si3  1  0.250181  0.250181  0.250181  1
  Si  Si4  1  0.852212  0.064771  0.673739  1
  Si  Si5  1  0.673739  0.852212  0.064771  1
  Si  Si6  1  0.064771  0.673739  0.852212  1
  Si  Si7  1  0.649329  0.828794  0.433820  1
  Si  Si8  1  0.433820  0.649329  0.828794  1
  Si  Si9  1  0.828794  0.433820  0.649329  1
  Si  Si10  1  0.171206  0.566180  0.350671  1
  Si  Si11  1  0.566180  0.350671  0.171206  1
  Si  Si12  1  0.350671  0.171206  0.566180  1
  Si  Si13  1  0.935229  0.326261  0.147788  1
  Si  Si14  1  0.326261  0.147788  0.935229  1
  Si  Si15  1  0.147788  0.935229  0.326261  1
  Rh  Rh16  1  0.071641  0.427689  0.750332  1
  Rh  Rh17  1  0.249668  0.928359  0.572311  1
  Rh  Rh18  1  0.572311  0.249668  0.928359  1
  Rh  Rh19  1  0.928359  0.572311  0.249668  1
  Rh  Rh20  1  0.427689  0.750332  0.071641  1
  Rh  Rh21  1  0.750332  0.071641  0.427689  1
