# generated using pymatgen
data_Er4Al18Ir4PtAu
_symmetry_space_group_name_H-M   'P 1'
_cell_length_a   7.56840197
_cell_length_b   7.56840310
_cell_length_c   9.43922500
_cell_angle_alpha   89.94921023
_cell_angle_beta   89.94921022
_cell_angle_gamma   119.60463577
_symmetry_Int_Tables_number   1
_chemical_formula_structural   Er4Al18Ir4PtAu
_chemical_formula_sum   'Er4 Al18 Ir4 Pt1 Au1'
_cell_volume   470.10102677
_cell_formula_units_Z   1
loop_
 _symmetry_equiv_pos_site_id
 _symmetry_equiv_pos_as_xyz
  1  'x, y, z'
loop_
 _atom_site_type_symbol
 _atom_site_label
 _atom_site_symmetry_multiplicity
 _atom_site_fract_x
 _atom_site_fract_y
 _atom_site_fract_z
 _atom_site_occupancy
  Er  Er0  1  0.995127  0.672503  0.249411  1
  Er  Er1  1  0.004635  0.327318  0.750623  1
  Er  Er2  1  0.672681  0.995353  0.249401  1
  Er  Er3  1  0.327485  0.004883  0.750570  1
  Al  Al4  1  0.134232  0.133549  0.244257  1
  Al  Al5  1  0.866452  0.865766  0.755745  1
  Al  Al6  1  0.002735  0.335425  0.074325  1
  Al  Al7  1  0.003566  0.668243  0.925769  1
  Al  Al8  1  0.999548  0.656212  0.577958  1
  Al  Al9  1  0.343792  0.000476  0.422044  1
  Al  Al10  1  0.000871  0.343397  0.421411  1
  Al  Al11  1  0.656594  0.999103  0.578597  1
  Al  Al12  1  0.664565  0.997279  0.925667  1
  Al  Al13  1  0.331766  0.996421  0.074235  1
  Al  Al14  1  0.340944  0.340773  0.558681  1
  Al  Al15  1  0.659210  0.659068  0.441319  1
  Al  Al16  1  0.666518  0.669668  0.055956  1
  Al  Al17  1  0.330320  0.333505  0.944042  1
  Al  Al18  1  0.339837  0.550631  0.249186  1
  Al  Al19  1  0.660606  0.451632  0.748699  1
  Al  Al20  1  0.548370  0.339387  0.251319  1
  Al  Al21  1  0.449366  0.660171  0.750792  1
  Ir  Ir22  1  0.328097  0.671921  0.999993  1
  Ir  Ir23  1  0.328343  0.671644  0.499990  1
  Ir  Ir24  1  0.672088  0.327931  0.500008  1
  Ir  Ir25  1  0.999775  0.000227  0.999998  1
  Pt  Pt26  1  0.672255  0.327732  0.000003  1
  Au  Au27  1  0.000220  0.999784  0.499999  1
