# generated using pymatgen
data_K3(RuO4)2
_symmetry_space_group_name_H-M   'P 1'
_cell_length_a   6.10735100
_cell_length_b   8.05761669
_cell_length_c   10.09978539
_cell_angle_alpha   110.02804177
_cell_angle_beta   90.00000000
_cell_angle_gamma   90.00000000
_symmetry_Int_Tables_number   1
_chemical_formula_structural   K3(RuO4)2
_chemical_formula_sum   'K6 Ru4 O16'
_cell_volume   466.96036976
_cell_formula_units_Z   2
loop_
 _symmetry_equiv_pos_site_id
 _symmetry_equiv_pos_as_xyz
  1  'x, y, z'
loop_
 _atom_site_type_symbol
 _atom_site_label
 _atom_site_symmetry_multiplicity
 _atom_site_fract_x
 _atom_site_fract_y
 _atom_site_fract_z
 _atom_site_occupancy
  K  K0  1  0.750000  0.147075  0.551003  1
  K  K1  1  0.250000  0.852925  0.448997  1
  K  K2  1  0.750000  0.349542  0.949638  1
  K  K3  1  0.250000  0.650458  0.050362  1
  K  K4  1  0.750000  0.760760  0.758209  1
  K  K5  1  0.250000  0.239240  0.241791  1
  Ru  Ru6  1  0.250000  0.065912  0.844546  1
  Ru  Ru7  1  0.750000  0.934088  0.155454  1
  Ru  Ru8  1  0.250000  0.446660  0.653480  1
  Ru  Ru9  1  0.750000  0.553340  0.346520  1
  O  O10  1  0.250000  0.611055  0.574589  1
  O  O11  1  0.750000  0.388945  0.425411  1
  O  O12  1  0.250000  0.233004  0.522440  1
  O  O13  1  0.750000  0.766996  0.477560  1
  O  O14  1  0.013566  0.469823  0.760889  1
  O  O15  1  0.513566  0.530177  0.239111  1
  O  O16  1  0.986434  0.530177  0.239111  1
  O  O17  1  0.486434  0.469823  0.760889  1
  O  O18  1  0.250000  0.281664  0.973268  1
  O  O19  1  0.750000  0.718336  0.026732  1
  O  O20  1  0.250000  0.907426  0.929825  1
  O  O21  1  0.750000  0.092574  0.070175  1
  O  O22  1  0.012663  0.042153  0.737628  1
  O  O23  1  0.512663  0.957847  0.262372  1
  O  O24  1  0.987337  0.957847  0.262372  1
  O  O25  1  0.487337  0.042153  0.737628  1
