# generated using pymatgen
data_Ho6Al21Si3Os8
_symmetry_space_group_name_H-M   'P 1'
_cell_length_a   8.70709200
_cell_length_b   8.70709125
_cell_length_c   9.64130900
_cell_angle_alpha   90.00000000
_cell_angle_beta   90.00000000
_cell_angle_gamma   120.00000285
_symmetry_Int_Tables_number   1
_chemical_formula_structural   Ho6Al21Si3Os8
_chemical_formula_sum   'Ho6 Al21 Si3 Os8'
_cell_volume   633.01332270
_cell_formula_units_Z   1
loop_
 _symmetry_equiv_pos_site_id
 _symmetry_equiv_pos_as_xyz
  1  'x, y, z'
loop_
 _atom_site_type_symbol
 _atom_site_label
 _atom_site_symmetry_multiplicity
 _atom_site_fract_x
 _atom_site_fract_y
 _atom_site_fract_z
 _atom_site_occupancy
  Ho  Ho0  1  0.195237  0.390474  0.247537  1
  Ho  Ho1  1  0.804239  0.608477  0.752680  1
  Ho  Ho2  1  0.609526  0.804763  0.247537  1
  Ho  Ho3  1  0.391523  0.195761  0.752680  1
  Ho  Ho4  1  0.195237  0.804763  0.247537  1
  Ho  Ho5  1  0.804239  0.195761  0.752680  1
  Al  Al6  1  0.333333  0.666667  0.475728  1
  Al  Al7  1  0.164263  0.328526  0.574230  1
  Al  Al8  1  0.835033  0.670065  0.423625  1
  Al  Al9  1  0.671474  0.835737  0.574230  1
  Al  Al10  1  0.834868  0.669736  0.076624  1
  Al  Al11  1  0.329935  0.164967  0.423625  1
  Al  Al12  1  0.165496  0.330993  0.922774  1
  Al  Al13  1  0.164263  0.835737  0.574230  1
  Al  Al14  1  0.330264  0.165132  0.076624  1
  Al  Al15  1  0.835033  0.164967  0.423625  1
  Al  Al16  1  0.669007  0.834504  0.922774  1
  Al  Al17  1  0.834868  0.165132  0.076624  1
  Al  Al18  1  0.165496  0.834504  0.922774  1
  Al  Al19  1  0.563450  0.126901  0.248899  1
  Al  Al20  1  0.436883  0.873766  0.748828  1
  Al  Al21  1  0.873099  0.436550  0.248899  1
  Al  Al22  1  0.126234  0.563117  0.748828  1
  Al  Al23  1  0.563450  0.436550  0.248899  1
  Al  Al24  1  0.436883  0.563117  0.748828  1
  Al  Al25  1  0.000000  0.000000  0.248809  1
  Al  Al26  1  0.000000  0.000000  0.749365  1
  Si  Si27  1  0.333333  0.666667  0.039885  1
  Si  Si28  1  0.666667  0.333333  0.961442  1
  Si  Si29  1  0.666667  0.333333  0.539801  1
  Os  Os30  1  0.499983  0.999967  0.998858  1
  Os  Os31  1  0.000033  0.500017  0.998858  1
  Os  Os32  1  0.504319  0.008637  0.501602  1
  Os  Os33  1  0.499983  0.500017  0.998858  1
  Os  Os34  1  0.991363  0.495681  0.501602  1
  Os  Os35  1  0.504319  0.495681  0.501602  1
  Os  Os36  1  0.000000  0.000000  0.998790  1
  Os  Os37  1  0.000000  0.000000  0.499208  1
