# generated using pymatgen
data_Dy4Tm(TcO6)2
_symmetry_space_group_name_H-M   'P 1'
_cell_length_a   6.81175526
_cell_length_b   6.81175651
_cell_length_c   7.50283601
_cell_angle_alpha   73.74554394
_cell_angle_beta   73.74553937
_cell_angle_gamma   49.20004040
_symmetry_Int_Tables_number   1
_chemical_formula_structural   Dy4Tm(TcO6)2
_chemical_formula_sum   'Dy4 Tm1 Tc2 O12'
_cell_volume   250.73602455
_cell_formula_units_Z   1
loop_
 _symmetry_equiv_pos_site_id
 _symmetry_equiv_pos_as_xyz
  1  'x, y, z'
loop_
 _atom_site_type_symbol
 _atom_site_label
 _atom_site_symmetry_multiplicity
 _atom_site_fract_x
 _atom_site_fract_y
 _atom_site_fract_z
 _atom_site_occupancy
  Dy  Dy0  1  0.804014  0.804014  0.357755  1
  Dy  Dy1  1  0.195986  0.195986  0.642245  1
  Dy  Dy2  1  0.183780  0.183780  0.176911  1
  Dy  Dy3  1  0.816220  0.816220  0.823089  1
  Tm  Tm4  1  0.500000  0.500000  0.500000  1
  Tc  Tc5  1  0.286388  0.713612  0.000000  1
  Tc  Tc6  1  0.713612  0.286388  0.000000  1
  O  O7  1  0.413559  0.916812  0.914717  1
  O  O8  1  0.083188  0.586441  0.085283  1
  O  O9  1  0.586441  0.083188  0.085283  1
  O  O10  1  0.916812  0.413559  0.914717  1
  O  O11  1  0.598518  0.097922  0.571921  1
  O  O12  1  0.902078  0.401482  0.428079  1
  O  O13  1  0.401482  0.902078  0.428079  1
  O  O14  1  0.001150  0.001150  0.822296  1
  O  O15  1  0.998850  0.998850  0.177704  1
  O  O16  1  0.497992  0.497992  0.794527  1
  O  O17  1  0.502008  0.502008  0.205473  1
  O  O18  1  0.097922  0.598518  0.571921  1
