# generated using pymatgen
data_Ce(PaRh2)5
_symmetry_space_group_name_H-M   'P 1'
_cell_length_a   5.80553631
_cell_length_b   5.80553641
_cell_length_c   9.35572889
_cell_angle_alpha   86.73768532
_cell_angle_beta   86.73768614
_cell_angle_gamma   104.40341595
_symmetry_Int_Tables_number   1
_chemical_formula_structural   Ce(PaRh2)5
_chemical_formula_sum   'Ce1 Pa5 Rh10'
_cell_volume   304.09714907
_cell_formula_units_Z   1
loop_
 _symmetry_equiv_pos_site_id
 _symmetry_equiv_pos_as_xyz
  1  'x, y, z'
loop_
 _atom_site_type_symbol
 _atom_site_label
 _atom_site_symmetry_multiplicity
 _atom_site_fract_x
 _atom_site_fract_y
 _atom_site_fract_z
 _atom_site_occupancy
  Ce  Ce0  1  0.804148  0.195852  0.500000  1
  Pa  Pa1  1  0.612186  0.608786  0.730635  1
  Pa  Pa2  1  0.391214  0.387814  0.269365  1
  Pa  Pa3  1  0.208789  0.791211  0.000000  1
  Pa  Pa4  1  0.190953  0.809047  0.500000  1
  Pa  Pa5  1  0.789931  0.210069  0.000000  1
  Rh  Rh6  1  0.699177  0.701701  0.016100  1
  Rh  Rh7  1  0.692626  0.688107  0.436452  1
  Rh  Rh8  1  0.298299  0.300823  0.983900  1
  Rh  Rh9  1  0.311893  0.307374  0.563548  1
  Rh  Rh10  1  0.498473  0.033443  0.769879  1
  Rh  Rh11  1  0.489885  0.952945  0.238089  1
  Rh  Rh12  1  0.997991  0.999175  0.231057  1
  Rh  Rh13  1  0.000825  0.002009  0.768943  1
  Rh  Rh14  1  0.047055  0.510115  0.761911  1
  Rh  Rh15  1  0.966557  0.501527  0.230121  1
