# generated using pymatgen
data_Ca2LuSc5(ReB6)4
_symmetry_space_group_name_H-M   'P 1'
_cell_length_a   3.54856600
_cell_length_b   9.01601019
_cell_length_c   11.33832418
_cell_angle_alpha   89.99869686
_cell_angle_beta   90.00000000
_cell_angle_gamma   90.00000000
_symmetry_Int_Tables_number   1
_chemical_formula_structural   Ca2LuSc5(ReB6)4
_chemical_formula_sum   'Ca2 Lu1 Sc5 Re4 B24'
_cell_volume   362.75729170
_cell_formula_units_Z   1
loop_
 _symmetry_equiv_pos_site_id
 _symmetry_equiv_pos_as_xyz
  1  'x, y, z'
loop_
 _atom_site_type_symbol
 _atom_site_label
 _atom_site_symmetry_multiplicity
 _atom_site_fract_x
 _atom_site_fract_y
 _atom_site_fract_z
 _atom_site_occupancy
  Ca  Ca0  1  0.000000  0.322512  0.414328  1
  Ca  Ca1  1  0.000000  0.677197  0.586094  1
  Lu  Lu2  1  0.000000  0.822442  0.085312  1
  Sc  Sc3  1  0.000000  0.177322  0.913776  1
  Sc  Sc4  1  0.000000  0.943756  0.367150  1
  Sc  Sc5  1  0.000000  0.056792  0.633369  1
  Sc  Sc6  1  0.000000  0.444368  0.128961  1
  Sc  Sc7  1  0.000000  0.554925  0.870697  1
  Re  Re8  1  0.000000  0.644622  0.316311  1
  Re  Re9  1  0.000000  0.354536  0.685267  1
  Re  Re10  1  0.000000  0.140331  0.178437  1
  Re  Re11  1  0.000000  0.860934  0.820203  1
  B  B12  1  0.500000  0.553941  0.432193  1
  B  B13  1  0.500000  0.445366  0.568578  1
  B  B14  1  0.500000  0.054210  0.064480  1
  B  B15  1  0.500000  0.946974  0.934320  1
  B  B16  1  0.500000  0.755141  0.418503  1
  B  B17  1  0.500000  0.244875  0.582160  1
  B  B18  1  0.500000  0.253500  0.077756  1
  B  B19  1  0.500000  0.746448  0.920336  1
  B  B20  1  0.500000  0.796608  0.262399  1
  B  B21  1  0.500000  0.203155  0.738774  1
  B  B22  1  0.500000  0.295698  0.233594  1
  B  B23  1  0.500000  0.704466  0.765899  1
  B  B24  1  0.500000  0.630148  0.181419  1
  B  B25  1  0.500000  0.368808  0.819624  1
  B  B26  1  0.500000  0.129289  0.315904  1
  B  B27  1  0.500000  0.871320  0.683677  1
  B  B28  1  0.500000  0.980999  0.211381  1
  B  B29  1  0.500000  0.020069  0.788976  1
  B  B30  1  0.500000  0.481627  0.285395  1
  B  B31  1  0.500000  0.517848  0.714869  1
  B  B32  1  0.500000  0.595603  0.026023  1
  B  B33  1  0.500000  0.403674  0.973627  1
  B  B34  1  0.500000  0.092318  0.474810  1
  B  B35  1  0.500000  0.908178  0.525397  1
