# generated using pymatgen
data_Yb5Ag6
_symmetry_space_group_name_H-M   'P 1'
_cell_length_a   16.17468194
_cell_length_b   16.17468236
_cell_length_c   3.97334400
_cell_angle_alpha   90.00000000
_cell_angle_beta   90.00000000
_cell_angle_gamma   164.11758332
_symmetry_Int_Tables_number   1
_chemical_formula_structural   Yb5Ag6
_chemical_formula_sum   'Yb5 Ag6'
_cell_volume   284.47587548
_cell_formula_units_Z   1
loop_
 _symmetry_equiv_pos_site_id
 _symmetry_equiv_pos_as_xyz
  1  'x, y, z'
loop_
 _atom_site_type_symbol
 _atom_site_label
 _atom_site_symmetry_multiplicity
 _atom_site_fract_x
 _atom_site_fract_y
 _atom_site_fract_z
 _atom_site_occupancy
  Yb  Yb0  1  0.000000  0.000000  0.000000  1
  Yb  Yb1  1  0.618336  0.381662  0.000000  1
  Yb  Yb2  1  0.381662  0.618336  0.000000  1
  Yb  Yb3  1  0.802550  0.197448  0.500001  1
  Yb  Yb4  1  0.197448  0.802550  0.500001  1
  Ag  Ag5  1  0.720417  0.279581  0.000000  1
  Ag  Ag6  1  0.279581  0.720417  0.000000  1
  Ag  Ag7  1  0.904287  0.095712  0.500001  1
  Ag  Ag8  1  0.542703  0.457295  0.500001  1
  Ag  Ag9  1  0.457295  0.542703  0.500001  1
  Ag  Ag10  1  0.095712  0.904287  0.500001  1
