# generated using pymatgen
data_HoSn6RuRh3
_symmetry_space_group_name_H-M   'P 1'
_cell_length_a   6.97855792
_cell_length_b   6.97855744
_cell_length_c   6.92501620
_cell_angle_alpha   119.86108933
_cell_angle_beta   119.86108651
_cell_angle_gamma   90.77110946
_symmetry_Int_Tables_number   1
_chemical_formula_structural   HoSn6RuRh3
_chemical_formula_sum   'Ho1 Sn6 Ru1 Rh3'
_cell_volume   237.83661687
_cell_formula_units_Z   1
loop_
 _symmetry_equiv_pos_site_id
 _symmetry_equiv_pos_as_xyz
  1  'x, y, z'
loop_
 _atom_site_type_symbol
 _atom_site_label
 _atom_site_symmetry_multiplicity
 _atom_site_fract_x
 _atom_site_fract_y
 _atom_site_fract_z
 _atom_site_occupancy
  Ho  Ho0  1  0.996293  0.996293  0.990703  1
  Sn  Sn1  1  0.873867  0.538785  0.004933  1
  Sn  Sn2  1  0.538785  0.873867  0.004933  1
  Sn  Sn3  1  0.127164  0.127164  0.663343  1
  Sn  Sn4  1  0.002621  0.503884  0.500481  1
  Sn  Sn5  1  0.465262  0.465262  0.338141  1
  Sn  Sn6  1  0.503884  0.002621  0.500481  1
  Ru  Ru7  1  0.755480  0.755480  0.360428  1
  Rh  Rh8  1  0.236282  0.605666  0.998726  1
  Rh  Rh9  1  0.394694  0.394694  0.639106  1
  Rh  Rh10  1  0.605666  0.236282  0.998726  1
