# generated using pymatgen
data_Lu4ReB12Os
_symmetry_space_group_name_H-M   'P 1'
_cell_length_a   3.60799400
_cell_length_b   9.04822174
_cell_length_c   11.41223824
_cell_angle_alpha   90.12907645
_cell_angle_beta   90.00000000
_cell_angle_gamma   90.00000000
_symmetry_Int_Tables_number   1
_chemical_formula_structural   Lu4ReB12Os
_chemical_formula_sum   'Lu8 Re2 B24 Os2'
_cell_volume   372.56218245
_cell_formula_units_Z   2
loop_
 _symmetry_equiv_pos_site_id
 _symmetry_equiv_pos_as_xyz
  1  'x, y, z'
loop_
 _atom_site_type_symbol
 _atom_site_label
 _atom_site_symmetry_multiplicity
 _atom_site_fract_x
 _atom_site_fract_y
 _atom_site_fract_z
 _atom_site_occupancy
  Lu  Lu0  1  0.000000  0.319785  0.412068  1
  Lu  Lu1  1  0.000000  0.680215  0.587932  1
  Lu  Lu2  1  0.000000  0.824231  0.084586  1
  Lu  Lu3  1  0.000000  0.175769  0.915414  1
  Lu  Lu4  1  0.000000  0.943759  0.371065  1
  Lu  Lu5  1  0.000000  0.056241  0.628935  1
  Lu  Lu6  1  0.000000  0.443016  0.128331  1
  Lu  Lu7  1  0.000000  0.556984  0.871669  1
  Re  Re8  1  0.000000  0.138913  0.179721  1
  Re  Re9  1  0.000000  0.861087  0.820279  1
  B  B10  1  0.500000  0.553510  0.433921  1
  B  B11  1  0.500000  0.446490  0.566079  1
  B  B12  1  0.500000  0.052933  0.066235  1
  B  B13  1  0.500000  0.947067  0.933765  1
  B  B14  1  0.500000  0.749995  0.419654  1
  B  B15  1  0.500000  0.250005  0.580346  1
  B  B16  1  0.500000  0.250105  0.080053  1
  B  B17  1  0.500000  0.749895  0.919947  1
  B  B18  1  0.500000  0.792076  0.265203  1
  B  B19  1  0.500000  0.207924  0.734797  1
  B  B20  1  0.500000  0.293166  0.235231  1
  B  B21  1  0.500000  0.706834  0.764769  1
  B  B22  1  0.500000  0.630784  0.184965  1
  B  B23  1  0.500000  0.369216  0.815035  1
  B  B24  1  0.500000  0.131200  0.315937  1
  B  B25  1  0.500000  0.868800  0.684063  1
  B  B26  1  0.500000  0.981376  0.212656  1
  B  B27  1  0.500000  0.018624  0.787344  1
  B  B28  1  0.500000  0.481931  0.287913  1
  B  B29  1  0.500000  0.518069  0.712087  1
  B  B30  1  0.500000  0.602250  0.028626  1
  B  B31  1  0.500000  0.397750  0.971374  1
  B  B32  1  0.500000  0.102378  0.471927  1
  B  B33  1  0.500000  0.897622  0.528073  1
  Os  Os34  1  0.000000  0.638006  0.321739  1
  Os  Os35  1  0.000000  0.361994  0.678261  1
