# generated using pymatgen
data_Tb2Nd3Y3(CdPd)2
_symmetry_space_group_name_H-M   'P 1'
_cell_length_a   9.83272693
_cell_length_b   9.83272786
_cell_length_c   9.83272700
_cell_angle_alpha   59.99999952
_cell_angle_beta   59.99999640
_cell_angle_gamma   60.00000461
_symmetry_Int_Tables_number   1
_chemical_formula_structural   Tb2Nd3Y3(CdPd)2
_chemical_formula_sum   'Tb4 Nd6 Y6 Cd4 Pd4'
_cell_volume   672.21311721
_cell_formula_units_Z   2
loop_
 _symmetry_equiv_pos_site_id
 _symmetry_equiv_pos_as_xyz
  1  'x, y, z'
loop_
 _atom_site_type_symbol
 _atom_site_label
 _atom_site_symmetry_multiplicity
 _atom_site_fract_x
 _atom_site_fract_y
 _atom_site_fract_z
 _atom_site_occupancy
  Tb  Tb0  1  0.352275  0.352275  0.352275  1
  Tb  Tb1  1  0.352275  0.352275  0.943175  1
  Tb  Tb2  1  0.352275  0.943175  0.352275  1
  Tb  Tb3  1  0.943175  0.352275  0.352275  1
  Nd  Nd4  1  0.936549  0.563451  0.563451  1
  Nd  Nd5  1  0.563451  0.936549  0.936549  1
  Nd  Nd6  1  0.563451  0.936549  0.563451  1
  Nd  Nd7  1  0.936549  0.563451  0.936549  1
  Nd  Nd8  1  0.563451  0.563451  0.936549  1
  Nd  Nd9  1  0.936549  0.936549  0.563451  1
  Y  Y10  1  0.811762  0.188238  0.188238  1
  Y  Y11  1  0.188238  0.811762  0.811762  1
  Y  Y12  1  0.188238  0.811762  0.188238  1
  Y  Y13  1  0.811762  0.188238  0.811762  1
  Y  Y14  1  0.188238  0.188238  0.811762  1
  Y  Y15  1  0.811762  0.811762  0.188238  1
  Cd  Cd16  1  0.580125  0.580125  0.580125  1
  Cd  Cd17  1  0.580125  0.580125  0.259625  1
  Cd  Cd18  1  0.580125  0.259625  0.580125  1
  Cd  Cd19  1  0.259625  0.580125  0.580125  1
  Pd  Pd20  1  0.144294  0.144294  0.144294  1
  Pd  Pd21  1  0.144294  0.144294  0.567117  1
  Pd  Pd22  1  0.144294  0.567117  0.144294  1
  Pd  Pd23  1  0.567117  0.144294  0.144294  1
