# generated using pymatgen
data_TaB2W
_symmetry_space_group_name_H-M   'P 1'
_cell_length_a   3.13608100
_cell_length_b   3.25653300
_cell_length_c   8.59035200
_cell_angle_alpha   90.00000000
_cell_angle_beta   90.00000000
_cell_angle_gamma   90.00000000
_symmetry_Int_Tables_number   1
_chemical_formula_structural   TaB2W
_chemical_formula_sum   'Ta2 B4 W2'
_cell_volume   87.73112827
_cell_formula_units_Z   2
loop_
 _symmetry_equiv_pos_site_id
 _symmetry_equiv_pos_as_xyz
  1  'x, y, z'
loop_
 _atom_site_type_symbol
 _atom_site_label
 _atom_site_symmetry_multiplicity
 _atom_site_fract_x
 _atom_site_fract_y
 _atom_site_fract_z
 _atom_site_occupancy
  Ta  Ta0  1  0.000000  0.000000  0.146549  1
  Ta  Ta1  1  0.000000  0.500000  0.646398  1
  B  B2  1  0.000000  0.000000  0.439041  1
  B  B3  1  0.000000  0.500000  0.939531  1
  B  B4  1  0.500000  0.500000  0.059609  1
  B  B5  1  0.500000  0.000000  0.558641  1
  W  W6  1  0.500000  0.500000  0.355058  1
  W  W7  1  0.500000  0.000000  0.855175  1
