# generated using pymatgen
data_Pr4IrAu3
_symmetry_space_group_name_H-M   'P 1'
_cell_length_a   4.77138800
_cell_length_b   5.88224418
_cell_length_c   7.49554129
_cell_angle_alpha   88.58047368
_cell_angle_beta   90.00000000
_cell_angle_gamma   90.00000000
_symmetry_Int_Tables_number   1
_chemical_formula_structural   Pr4IrAu3
_chemical_formula_sum   'Pr4 Ir1 Au3'
_cell_volume   210.30881703
_cell_formula_units_Z   1
loop_
 _symmetry_equiv_pos_site_id
 _symmetry_equiv_pos_as_xyz
  1  'x, y, z'
loop_
 _atom_site_type_symbol
 _atom_site_label
 _atom_site_symmetry_multiplicity
 _atom_site_fract_x
 _atom_site_fract_y
 _atom_site_fract_z
 _atom_site_occupancy
  Pr  Pr0  1  0.250000  0.365230  0.677961  1
  Pr  Pr1  1  0.250000  0.136125  0.191891  1
  Pr  Pr2  1  0.750000  0.652226  0.329171  1
  Pr  Pr3  1  0.750000  0.854687  0.800514  1
  Ir  Ir4  1  0.250000  0.840784  0.539685  1
  Au  Au5  1  0.250000  0.649005  0.041375  1
  Au  Au6  1  0.750000  0.152608  0.457693  1
  Au  Au7  1  0.750000  0.349336  0.961710  1
