# generated using pymatgen
data_GeAsH7
_symmetry_space_group_name_H-M   'P 1'
_cell_length_a   3.80149331
_cell_length_b   3.81187049
_cell_length_c   12.69496427
_cell_angle_alpha   90.16147773
_cell_angle_beta   99.57982147
_cell_angle_gamma   60.02625386
_symmetry_Int_Tables_number   1
_chemical_formula_structural   GeAsH7
_chemical_formula_sum   'Ge1 As1 H7'
_cell_volume   156.43770841
_cell_formula_units_Z   1
loop_
 _symmetry_equiv_pos_site_id
 _symmetry_equiv_pos_as_xyz
  1  'x, y, z'
loop_
 _atom_site_type_symbol
 _atom_site_label
 _atom_site_symmetry_multiplicity
 _atom_site_fract_x
 _atom_site_fract_y
 _atom_site_fract_z
 _atom_site_occupancy
  Ge  Ge0  1  0.374686  0.360556  0.443197  1
  As  As1  1  0.107537  0.994858  0.532976  1
  H  H2  1  0.577631  0.864307  0.115804  1
  H  H3  1  0.602711  0.438453  0.937975  1
  H  H4  1  0.575323  0.937292  0.170851  1
  H  H5  1  0.721142  0.369374  0.994436  1
  H  H6  1  0.872152  0.779266  0.833830  1
  H  H7  1  0.282574  0.402920  0.318628  1
  H  H8  1  0.931128  0.859762  0.790148  1
