# generated using pymatgen
data_La8TbSmCo4
_symmetry_space_group_name_H-M   'P 1'
_cell_length_a   9.11733195
_cell_length_b   9.11733208
_cell_length_c   7.07548300
_cell_angle_alpha   86.09273733
_cell_angle_beta   86.09273098
_cell_angle_gamma   42.51769325
_symmetry_Int_Tables_number   1
_chemical_formula_structural   La8TbSmCo4
_chemical_formula_sum   'La8 Tb1 Sm1 Co4'
_cell_volume   396.42157006
_cell_formula_units_Z   1
loop_
 _symmetry_equiv_pos_site_id
 _symmetry_equiv_pos_as_xyz
  1  'x, y, z'
loop_
 _atom_site_type_symbol
 _atom_site_label
 _atom_site_symmetry_multiplicity
 _atom_site_fract_x
 _atom_site_fract_y
 _atom_site_fract_z
 _atom_site_occupancy
  La  La0  1  0.014275  0.799398  0.899579  1
  La  La1  1  0.200602  0.985725  0.600421  1
  La  La2  1  0.984830  0.201935  0.099173  1
  La  La3  1  0.798065  0.015170  0.400827  1
  La  La4  1  0.361213  0.219369  0.831801  1
  La  La5  1  0.780631  0.638787  0.668199  1
  La  La6  1  0.639517  0.781657  0.167796  1
  La  La7  1  0.218343  0.360483  0.332204  1
  Tb  Tb8  1  0.569106  0.430894  0.750000  1
  Sm  Sm9  1  0.430319  0.569681  0.250000  1
  Co  Co10  1  0.180521  0.601378  0.582675  1
  Co  Co11  1  0.398622  0.819479  0.917325  1
  Co  Co12  1  0.821059  0.397104  0.420494  1
  Co  Co13  1  0.602896  0.178941  0.079506  1
