# generated using pymatgen
data_Ta7Co8Si14Tc
_symmetry_space_group_name_H-M   'P 1'
_cell_length_a   9.19050429
_cell_length_b   9.19050443
_cell_length_c   9.18999841
_cell_angle_alpha   94.19539674
_cell_angle_beta   94.19539211
_cell_angle_gamma   148.61551903
_symmetry_Int_Tables_number   1
_chemical_formula_structural   Ta7Co8Si14Tc
_chemical_formula_sum   'Ta7 Co8 Si14 Tc1'
_cell_volume   389.17866389
_cell_formula_units_Z   1
loop_
 _symmetry_equiv_pos_site_id
 _symmetry_equiv_pos_as_xyz
  1  'x, y, z'
loop_
 _atom_site_type_symbol
 _atom_site_label
 _atom_site_symmetry_multiplicity
 _atom_site_fract_x
 _atom_site_fract_y
 _atom_site_fract_z
 _atom_site_occupancy
  Ta  Ta0  1  0.867689  0.867689  0.735379  1
  Ta  Ta1  1  0.865252  0.132539  0.997792  1
  Ta  Ta2  1  0.132539  0.865252  0.997792  1
  Ta  Ta3  1  0.499588  0.311859  0.811448  1
  Ta  Ta4  1  0.498079  0.692410  0.190488  1
  Ta  Ta5  1  0.692410  0.498079  0.190488  1
  Ta  Ta6  1  0.311859  0.499588  0.811448  1
  Co  Co7  1  0.398631  0.898631  0.797263  1
  Co  Co8  1  0.101322  0.601322  0.202645  1
  Co  Co9  1  0.100681  0.899756  0.499841  1
  Co  Co10  1  0.399160  0.600085  0.499841  1
  Co  Co11  1  0.600085  0.399160  0.499841  1
  Co  Co12  1  0.899756  0.100681  0.499841  1
  Co  Co13  1  0.898631  0.398631  0.797263  1
  Co  Co14  1  0.601322  0.101322  0.202645  1
  Si  Si15  1  0.499196  0.094249  0.593444  1
  Si  Si16  1  0.500189  0.906966  0.407156  1
  Si  Si17  1  0.906966  0.500189  0.407156  1
  Si  Si18  1  0.094249  0.499196  0.593444  1
  Si  Si19  1  0.753297  0.753297  0.004968  1
  Si  Si20  1  0.251671  0.251671  0.004968  1
  Si  Si21  1  0.290913  0.290913  0.581825  1
  Si  Si22  1  0.706882  0.706882  0.413765  1
  Si  Si23  1  0.708532  0.291089  0.999621  1
  Si  Si24  1  0.291089  0.708532  0.999621  1
  Si  Si25  1  0.002743  0.293654  0.296397  1
  Si  Si26  1  0.999084  0.702042  0.701126  1
  Si  Si27  1  0.702042  0.999084  0.701126  1
  Si  Si28  1  0.293654  0.002743  0.296397  1
  Tc  Tc29  1  0.132486  0.132486  0.264973  1
