# generated using pymatgen
data_Dy2Y6Sc12Si15As
_symmetry_space_group_name_H-M   'P 1'
_cell_length_a   7.13775920
_cell_length_b   7.37987608
_cell_length_c   13.98386381
_cell_angle_alpha   90.07152596
_cell_angle_beta   88.95852145
_cell_angle_gamma   90.16842150
_symmetry_Int_Tables_number   1
_chemical_formula_structural   Dy2Y6Sc12Si15As
_chemical_formula_sum   'Dy2 Y6 Sc12 Si15 As1'
_cell_volume   736.48551381
_cell_formula_units_Z   1
loop_
 _symmetry_equiv_pos_site_id
 _symmetry_equiv_pos_as_xyz
  1  'x, y, z'
loop_
 _atom_site_type_symbol
 _atom_site_label
 _atom_site_symmetry_multiplicity
 _atom_site_fract_x
 _atom_site_fract_y
 _atom_site_fract_z
 _atom_site_occupancy
  Dy  Dy0  1  0.505808  0.322120  0.402071  1
  Dy  Dy1  1  0.498774  0.676709  0.597603  1
  Y  Y2  1  0.012556  0.175791  0.097204  1
  Y  Y3  1  0.988032  0.824730  0.902534  1
  Y  Y4  1  0.488029  0.675475  0.902653  1
  Y  Y5  1  0.991906  0.822293  0.595798  1
  Y  Y6  1  0.512395  0.325091  0.097386  1
  Y  Y7  1  0.006684  0.177731  0.403856  1
  Sc  Sc8  1  0.163688  0.500753  0.749844  1
  Sc  Sc9  1  0.836137  0.499012  0.252788  1
  Sc  Sc10  1  0.336622  0.000635  0.251133  1
  Sc  Sc11  1  0.663503  0.999284  0.749259  1
  Sc  Sc12  1  0.338915  0.171819  0.626758  1
  Sc  Sc13  1  0.662282  0.826677  0.373771  1
  Sc  Sc14  1  0.159613  0.672968  0.376961  1
  Sc  Sc15  1  0.668986  0.823302  0.125556  1
  Sc  Sc16  1  0.837277  0.327954  0.622832  1
  Sc  Sc17  1  0.330738  0.176171  0.873915  1
  Sc  Sc18  1  0.831748  0.322911  0.874401  1
  Sc  Sc19  1  0.168286  0.677067  0.125138  1
  Si  Si20  1  0.034973  0.117371  0.749223  1
  Si  Si21  1  0.964759  0.883041  0.249776  1
  Si  Si22  1  0.461162  0.617622  0.249126  1
  Si  Si23  1  0.537776  0.382798  0.750648  1
  Si  Si24  1  0.287640  0.871562  0.749864  1
  Si  Si25  1  0.713273  0.126916  0.249558  1
  Si  Si26  1  0.211784  0.374642  0.250003  1
  Si  Si27  1  0.789670  0.626174  0.750136  1
  Si  Si28  1  0.814528  0.539752  0.457121  1
  Si  Si29  1  0.335122  0.962759  0.460810  1
  Si  Si30  1  0.843944  0.535450  0.039529  1
  Si  Si31  1  0.664704  0.037150  0.539917  1
  Si  Si32  1  0.155755  0.465083  0.960109  1
  Si  Si33  1  0.655367  0.034976  0.959783  1
  Si  Si34  1  0.344618  0.965628  0.040079  1
  As  As35  1  0.182944  0.460584  0.542857  1
