# generated using pymatgen
data_Er3LuBCl6
_symmetry_space_group_name_H-M   'P 1'
_cell_length_a   3.80730700
_cell_length_b   12.51764098
_cell_length_c   12.95892570
_cell_angle_alpha   89.71340744
_cell_angle_beta   90.00000000
_cell_angle_gamma   90.00000000
_symmetry_Int_Tables_number   1
_chemical_formula_structural   Er3LuBCl6
_chemical_formula_sum   'Er6 Lu2 B2 Cl12'
_cell_volume   617.59526206
_cell_formula_units_Z   2
loop_
 _symmetry_equiv_pos_site_id
 _symmetry_equiv_pos_as_xyz
  1  'x, y, z'
loop_
 _atom_site_type_symbol
 _atom_site_label
 _atom_site_symmetry_multiplicity
 _atom_site_fract_x
 _atom_site_fract_y
 _atom_site_fract_z
 _atom_site_occupancy
  Er  Er0  1  0.000000  0.105946  0.083904  1
  Er  Er1  1  0.000000  0.894054  0.916096  1
  Er  Er2  1  0.500000  0.126608  0.851077  1
  Er  Er3  1  0.500000  0.873392  0.148923  1
  Er  Er4  1  0.500000  0.625552  0.647906  1
  Er  Er5  1  0.500000  0.374448  0.352094  1
  Lu  Lu6  1  0.000000  0.603791  0.417584  1
  Lu  Lu7  1  0.000000  0.396209  0.582416  1
  B  B8  1  0.500000  0.000000  0.000000  1
  B  B9  1  0.500000  0.500000  0.500000  1
  Cl  Cl10  1  0.500000  0.271179  0.680717  1
  Cl  Cl11  1  0.500000  0.728821  0.319283  1
  Cl  Cl12  1  0.500000  0.766979  0.816470  1
  Cl  Cl13  1  0.500000  0.233021  0.183530  1
  Cl  Cl14  1  0.000000  0.258016  0.928681  1
  Cl  Cl15  1  0.000000  0.741984  0.071319  1
  Cl  Cl16  1  0.000000  0.481322  0.243815  1
  Cl  Cl17  1  0.000000  0.518678  0.756185  1
  Cl  Cl18  1  0.000000  0.977743  0.258184  1
  Cl  Cl19  1  0.000000  0.022257  0.741816  1
  Cl  Cl20  1  0.000000  0.243609  0.432375  1
  Cl  Cl21  1  0.000000  0.756391  0.567625  1
