# generated using pymatgen
data_CeSm3Co4(SnH)4
_symmetry_space_group_name_H-M   'P 1'
_cell_length_a   4.33102200
_cell_length_b   7.18955667
_cell_length_c   8.31782307
_cell_angle_alpha   90.09858943
_cell_angle_beta   90.00000000
_cell_angle_gamma   90.00000000
_symmetry_Int_Tables_number   1
_chemical_formula_structural   CeSm3Co4(SnH)4
_chemical_formula_sum   'Ce1 Sm3 Co4 Sn4 H4'
_cell_volume   259.00105684
_cell_formula_units_Z   1
loop_
 _symmetry_equiv_pos_site_id
 _symmetry_equiv_pos_as_xyz
  1  'x, y, z'
loop_
 _atom_site_type_symbol
 _atom_site_label
 _atom_site_symmetry_multiplicity
 _atom_site_fract_x
 _atom_site_fract_y
 _atom_site_fract_z
 _atom_site_occupancy
  Ce  Ce0  1  0.750000  0.013250  0.690381  1
  Sm  Sm1  1  0.250000  0.987644  0.311091  1
  Sm  Sm2  1  0.250000  0.487593  0.188770  1
  Sm  Sm3  1  0.750000  0.513412  0.811335  1
  Co  Co4  1  0.750000  0.776689  0.100196  1
  Co  Co5  1  0.250000  0.218641  0.890236  1
  Co  Co6  1  0.250000  0.727593  0.603934  1
  Co  Co7  1  0.750000  0.275932  0.401830  1
  Sn  Sn8  1  0.750000  0.657415  0.428454  1
  Sn  Sn9  1  0.250000  0.343913  0.571664  1
  Sn  Sn10  1  0.250000  0.842011  0.929320  1
  Sn  Sn11  1  0.750000  0.157469  0.071650  1
  H  H12  1  0.250000  0.437721  0.918721  1
  H  H13  1  0.750000  0.557185  0.081639  1
  H  H14  1  0.750000  0.056156  0.417999  1
  H  H15  1  0.250000  0.947375  0.582780  1
