# generated using pymatgen
data_LaLuP7Ru12
_symmetry_space_group_name_H-M   'P 1'
_cell_length_a   9.45834200
_cell_length_b   9.45834111
_cell_length_c   3.95929100
_cell_angle_alpha   90.00000000
_cell_angle_beta   90.00000000
_cell_angle_gamma   119.99999612
_symmetry_Int_Tables_number   1
_chemical_formula_structural   LaLuP7Ru12
_chemical_formula_sum   'La1 Lu1 P7 Ru12'
_cell_volume   306.74539909
_cell_formula_units_Z   1
loop_
 _symmetry_equiv_pos_site_id
 _symmetry_equiv_pos_as_xyz
  1  'x, y, z'
loop_
 _atom_site_type_symbol
 _atom_site_label
 _atom_site_symmetry_multiplicity
 _atom_site_fract_x
 _atom_site_fract_y
 _atom_site_fract_z
 _atom_site_occupancy
  La  La0  1  0.333333  0.666667  0.000000  1
  Lu  Lu1  1  0.666667  0.333333  0.500000  1
  P  P2  1  0.606984  0.719083  0.500000  1
  P  P3  1  0.000000  0.000000  0.000000  1
  P  P4  1  0.280917  0.887902  0.500000  1
  P  P5  1  0.112098  0.393016  0.500000  1
  P  P6  1  0.886535  0.570441  0.000000  1
  P  P7  1  0.429559  0.316093  0.000000  1
  P  P8  1  0.683907  0.113465  0.000000  1
  Ru  Ru9  1  0.560189  0.957888  0.500000  1
  Ru  Ru10  1  0.397699  0.439811  0.500000  1
  Ru  Ru11  1  0.914758  0.118986  0.500000  1
  Ru  Ru12  1  0.204228  0.085242  0.500000  1
  Ru  Ru13  1  0.881014  0.795772  0.500000  1
  Ru  Ru14  1  0.728299  0.892560  0.000000  1
  Ru  Ru15  1  0.107440  0.835737  0.000000  1
  Ru  Ru16  1  0.164263  0.271701  0.000000  1
  Ru  Ru17  1  0.422434  0.071466  0.000000  1
  Ru  Ru18  1  0.928534  0.350970  0.000000  1
  Ru  Ru19  1  0.649030  0.577566  0.000000  1
  Ru  Ru20  1  0.042112  0.602301  0.500000  1
