# generated using pymatgen
data_TbEu3P28
_symmetry_space_group_name_H-M   'P 1'
_cell_length_a   5.67911856
_cell_length_b   10.65862467
_cell_length_c   13.19562603
_cell_angle_alpha   55.58006884
_cell_angle_beta   89.71949875
_cell_angle_gamma   89.72080745
_symmetry_Int_Tables_number   1
_chemical_formula_structural   TbEu3P28
_chemical_formula_sum   'Tb1 Eu3 P28'
_cell_volume   658.89421404
_cell_formula_units_Z   1
loop_
 _symmetry_equiv_pos_site_id
 _symmetry_equiv_pos_as_xyz
  1  'x, y, z'
loop_
 _atom_site_type_symbol
 _atom_site_label
 _atom_site_symmetry_multiplicity
 _atom_site_fract_x
 _atom_site_fract_y
 _atom_site_fract_z
 _atom_site_occupancy
  Tb  Tb0  1  0.104636  0.752607  0.782486  1
  Eu  Eu1  1  0.394532  0.753416  0.281447  1
  Eu  Eu2  1  0.893203  0.245799  0.217338  1
  Eu  Eu3  1  0.606782  0.246571  0.715952  1
  P  P4  1  0.455746  0.992750  0.587800  1
  P  P5  1  0.045403  0.999570  0.081160  1
  P  P6  1  0.543490  0.002777  0.417969  1
  P  P7  1  0.953911  0.003465  0.913635  1
  P  P8  1  0.278280  0.585293  0.059453  1
  P  P9  1  0.221114  0.584832  0.564019  1
  P  P10  1  0.716928  0.417208  0.940095  1
  P  P11  1  0.777654  0.414210  0.437022  1
  P  P12  1  0.294957  0.218330  0.531592  1
  P  P13  1  0.206554  0.221869  0.030402  1
  P  P14  1  0.708680  0.781967  0.471233  1
  P  P15  1  0.797931  0.780216  0.966756  1
  P  P16  1  0.289863  0.957158  0.855695  1
  P  P17  1  0.205366  0.959615  0.364099  1
  P  P18  1  0.705426  0.040988  0.137537  1
  P  P19  1  0.799516  0.032761  0.643686  1
  P  P20  1  0.430895  0.416883  0.358208  1
  P  P21  1  0.066161  0.423629  0.859161  1
  P  P22  1  0.567706  0.583012  0.642038  1
  P  P23  1  0.931665  0.581073  0.139588  1
  P  P24  1  0.403868  0.363911  0.218401  1
  P  P25  1  0.094801  0.366129  0.721950  1
  P  P26  1  0.595956  0.641512  0.781165  1
  P  P27  1  0.906051  0.634329  0.279391  1
  P  P28  1  0.447336  0.789283  0.037846  1
  P  P29  1  0.054286  0.787027  0.546374  1
  P  P30  1  0.551935  0.214280  0.956208  1
  P  P31  1  0.949369  0.207531  0.460294  1
