# generated using pymatgen
data_Li8Ho7TmSn7Sb
_symmetry_space_group_name_H-M   'P 1'
_cell_length_a   9.37780514
_cell_length_b   9.37780534
_cell_length_c   7.18192501
_cell_angle_alpha   90.06340282
_cell_angle_beta   89.93659663
_cell_angle_gamma   119.98517374
_symmetry_Int_Tables_number   1
_chemical_formula_structural   Li8Ho7TmSn7Sb
_chemical_formula_sum   'Li8 Ho7 Tm1 Sn7 Sb1'
_cell_volume   547.06436302
_cell_formula_units_Z   1
loop_
 _symmetry_equiv_pos_site_id
 _symmetry_equiv_pos_as_xyz
  1  'x, y, z'
loop_
 _atom_site_type_symbol
 _atom_site_label
 _atom_site_symmetry_multiplicity
 _atom_site_fract_x
 _atom_site_fract_y
 _atom_site_fract_z
 _atom_site_occupancy
  Li  Li0  1  0.832483  0.666110  0.712332  1
  Li  Li1  1  0.833274  0.166726  0.712683  1
  Li  Li2  1  0.333742  0.666258  0.821513  1
  Li  Li3  1  0.666740  0.333260  0.321277  1
  Li  Li4  1  0.666535  0.833476  0.212621  1
  Li  Li5  1  0.166524  0.333465  0.212621  1
  Li  Li6  1  0.166747  0.833253  0.212867  1
  Li  Li7  1  0.333890  0.167517  0.712332  1
  Ho  Ho8  1  0.999142  0.000858  0.002569  1
  Ho  Ho9  1  0.999321  0.000679  0.499376  1
  Ho  Ho10  1  0.511304  0.488696  0.006423  1
  Ho  Ho11  1  0.021477  0.509810  0.504929  1
  Ho  Ho12  1  0.490190  0.978523  0.504929  1
  Ho  Ho13  1  0.513192  0.023196  0.008292  1
  Ho  Ho14  1  0.976804  0.486808  0.008292  1
  Tm  Tm15  1  0.488706  0.511294  0.506080  1
  Sn  Sn16  1  0.666678  0.333322  0.740352  1
  Sn  Sn17  1  0.333127  0.666873  0.240717  1
  Sn  Sn18  1  0.833331  0.166669  0.269505  1
  Sn  Sn19  1  0.166624  0.333434  0.769833  1
  Sn  Sn20  1  0.333268  0.166320  0.269920  1
  Sn  Sn21  1  0.833680  0.666732  0.269920  1
  Sn  Sn22  1  0.666566  0.833376  0.769833  1
  Sb  Sb23  1  0.166656  0.833344  0.768779  1
