# generated using pymatgen
data_Tm4TcOs5Ru2
_symmetry_space_group_name_H-M   'P 1'
_cell_length_a   5.20548501
_cell_length_b   5.33484349
_cell_length_c   8.96597000
_cell_angle_alpha   90.00000000
_cell_angle_beta   90.00000000
_cell_angle_gamma   120.82550649
_symmetry_Int_Tables_number   1
_chemical_formula_structural   Tm4TcOs5Ru2
_chemical_formula_sum   'Tm4 Tc1 Os5 Ru2'
_cell_volume   213.81478988
_cell_formula_units_Z   1
loop_
 _symmetry_equiv_pos_site_id
 _symmetry_equiv_pos_as_xyz
  1  'x, y, z'
loop_
 _atom_site_type_symbol
 _atom_site_label
 _atom_site_symmetry_multiplicity
 _atom_site_fract_x
 _atom_site_fract_y
 _atom_site_fract_z
 _atom_site_occupancy
  Tm  Tm0  1  0.333629  0.666815  0.433532  1
  Tm  Tm1  1  0.662210  0.331105  0.565739  1
  Tm  Tm2  1  0.662210  0.331105  0.934261  1
  Tm  Tm3  1  0.333629  0.666815  0.066468  1
  Tc  Tc4  1  0.667029  0.833514  0.750000  1
  Os  Os5  1  0.830712  0.171207  0.250000  1
  Os  Os6  1  0.830712  0.659505  0.250000  1
  Os  Os7  1  0.342360  0.171180  0.250000  1
  Os  Os8  1  0.173060  0.828747  0.750000  1
  Os  Os9  1  0.173060  0.344313  0.750000  1
  Ru  Ru10  1  0.995694  0.997847  0.499310  1
  Ru  Ru11  1  0.995694  0.997847  0.000690  1
