# generated using pymatgen
data_CaSm6CoI12
_symmetry_space_group_name_H-M   'P 1'
_cell_length_a   9.90753404
_cell_length_b   9.90753416
_cell_length_c   9.90753427
_cell_angle_alpha   107.02937644
_cell_angle_beta   107.02938507
_cell_angle_gamma   107.02938590
_symmetry_Int_Tables_number   1
_chemical_formula_structural   CaSm6CoI12
_chemical_formula_sum   'Ca1 Sm6 Co1 I12'
_cell_volume   809.27055044
_cell_formula_units_Z   1
loop_
 _symmetry_equiv_pos_site_id
 _symmetry_equiv_pos_as_xyz
  1  'x, y, z'
loop_
 _atom_site_type_symbol
 _atom_site_label
 _atom_site_symmetry_multiplicity
 _atom_site_fract_x
 _atom_site_fract_y
 _atom_site_fract_z
 _atom_site_occupancy
  Ca  Ca0  1  0.500000  0.500000  0.500000  1
  Sm  Sm1  1  0.022237  0.094694  0.295449  1
  Sm  Sm2  1  0.094694  0.295449  0.022237  1
  Sm  Sm3  1  0.295449  0.022237  0.094694  1
  Sm  Sm4  1  0.977763  0.905306  0.704551  1
  Sm  Sm5  1  0.905306  0.704551  0.977763  1
  Sm  Sm6  1  0.704551  0.977763  0.905306  1
  Co  Co7  1  0.000000  0.000000  0.000000  1
  I  I8  1  0.152382  0.457671  0.379198  1
  I  I9  1  0.457671  0.379198  0.152382  1
  I  I10  1  0.379198  0.152382  0.457671  1
  I  I11  1  0.847618  0.542329  0.620802  1
  I  I12  1  0.542329  0.620802  0.847618  1
  I  I13  1  0.620802  0.847618  0.542329  1
  I  I14  1  0.679496  0.072686  0.225034  1
  I  I15  1  0.072686  0.225034  0.679496  1
  I  I16  1  0.225034  0.679496  0.072686  1
  I  I17  1  0.320504  0.927314  0.774966  1
  I  I18  1  0.927314  0.774966  0.320504  1
  I  I19  1  0.774966  0.320504  0.927314  1
