# generated using pymatgen
data_CeNdInCuRh
_symmetry_space_group_name_H-M   'P 1'
_cell_length_a   7.73538107
_cell_length_b   7.73538041
_cell_length_c   3.79081100
_cell_angle_alpha   90.00000000
_cell_angle_beta   90.00000000
_cell_angle_gamma   87.44655656
_symmetry_Int_Tables_number   1
_chemical_formula_structural   CeNdInCuRh
_chemical_formula_sum   'Ce2 Nd2 In2 Cu2 Rh2'
_cell_volume   226.60218671
_cell_formula_units_Z   2
loop_
 _symmetry_equiv_pos_site_id
 _symmetry_equiv_pos_as_xyz
  1  'x, y, z'
loop_
 _atom_site_type_symbol
 _atom_site_label
 _atom_site_symmetry_multiplicity
 _atom_site_fract_x
 _atom_site_fract_y
 _atom_site_fract_z
 _atom_site_occupancy
  Ce  Ce0  1  0.182062  0.317938  0.500000  1
  Ce  Ce1  1  0.817938  0.682062  0.500000  1
  Nd  Nd2  1  0.672041  0.172041  0.500000  1
  Nd  Nd3  1  0.327959  0.827959  0.500000  1
  In  In4  1  0.000000  0.000000  0.000000  1
  In  In5  1  0.500000  0.500000  0.000000  1
  Cu  Cu6  1  0.114178  0.614178  0.000000  1
  Cu  Cu7  1  0.885822  0.385822  0.000000  1
  Rh  Rh8  1  0.643588  0.856412  0.000000  1
  Rh  Rh9  1  0.356412  0.143588  0.000000  1
