# generated using pymatgen
data_La2Mn3Tc14C3
_symmetry_space_group_name_H-M   'P 1'
_cell_length_a   6.96509498
_cell_length_b   6.96509473
_cell_length_c   6.96509435
_cell_angle_alpha   82.85276820
_cell_angle_beta   82.85276938
_cell_angle_gamma   82.85277723
_symmetry_Int_Tables_number   1
_chemical_formula_structural   La2Mn3Tc14C3
_chemical_formula_sum   'La2 Mn3 Tc14 C3'
_cell_volume   330.62096986
_cell_formula_units_Z   1
loop_
 _symmetry_equiv_pos_site_id
 _symmetry_equiv_pos_as_xyz
  1  'x, y, z'
loop_
 _atom_site_type_symbol
 _atom_site_label
 _atom_site_symmetry_multiplicity
 _atom_site_fract_x
 _atom_site_fract_y
 _atom_site_fract_z
 _atom_site_occupancy
  La  La0  1  0.648949  0.648949  0.648949  1
  La  La1  1  0.351051  0.351051  0.351051  1
  Mn  Mn2  1  0.000000  0.000000  0.500000  1
  Mn  Mn3  1  0.500000  0.000000  0.000000  1
  Mn  Mn4  1  0.000000  0.500000  0.000000  1
  Tc  Tc5  1  0.723710  0.276290  0.000000  1
  Tc  Tc6  1  0.000000  0.723710  0.276290  1
  Tc  Tc7  1  0.276290  0.000000  0.723710  1
  Tc  Tc8  1  0.000000  0.276290  0.723710  1
  Tc  Tc9  1  0.723710  0.000000  0.276290  1
  Tc  Tc10  1  0.276290  0.723710  0.000000  1
  Tc  Tc11  1  0.345149  0.866183  0.345149  1
  Tc  Tc12  1  0.345149  0.345149  0.866183  1
  Tc  Tc13  1  0.866183  0.345149  0.345149  1
  Tc  Tc14  1  0.654851  0.133817  0.654851  1
  Tc  Tc15  1  0.654851  0.654851  0.133817  1
  Tc  Tc16  1  0.133817  0.654851  0.654851  1
  Tc  Tc17  1  0.902251  0.902251  0.902251  1
  Tc  Tc18  1  0.097749  0.097749  0.097749  1
  C  C19  1  0.500000  0.500000  0.000000  1
  C  C20  1  0.000000  0.500000  0.500000  1
  C  C21  1  0.500000  0.000000  0.500000  1
