# generated using pymatgen
data_Tm8Cd2NiOs
_symmetry_space_group_name_H-M   'P 1'
_cell_length_a   9.45539740
_cell_length_b   9.45539819
_cell_length_c   9.55985500
_cell_angle_alpha   59.63388326
_cell_angle_beta   59.63388046
_cell_angle_gamma   59.30415740
_symmetry_Int_Tables_number   1
_chemical_formula_structural   Tm8Cd2NiOs
_chemical_formula_sum   'Tm16 Cd4 Ni2 Os2'
_cell_volume   597.80500140
_cell_formula_units_Z   2
loop_
 _symmetry_equiv_pos_site_id
 _symmetry_equiv_pos_as_xyz
  1  'x, y, z'
loop_
 _atom_site_type_symbol
 _atom_site_label
 _atom_site_symmetry_multiplicity
 _atom_site_fract_x
 _atom_site_fract_y
 _atom_site_fract_z
 _atom_site_occupancy
  Tm  Tm0  1  0.350289  0.350289  0.341546  1
  Tm  Tm1  1  0.350289  0.350289  0.957877  1
  Tm  Tm2  1  0.353934  0.955742  0.345162  1
  Tm  Tm3  1  0.955742  0.353934  0.345162  1
  Tm  Tm4  1  0.810843  0.185894  0.190093  1
  Tm  Tm5  1  0.185894  0.810843  0.813171  1
  Tm  Tm6  1  0.185894  0.810843  0.190093  1
  Tm  Tm7  1  0.810843  0.185894  0.813171  1
  Tm  Tm8  1  0.187837  0.187837  0.812163  1
  Tm  Tm9  1  0.810433  0.810433  0.189567  1
  Tm  Tm10  1  0.938661  0.556559  0.567106  1
  Tm  Tm11  1  0.556559  0.938661  0.937674  1
  Tm  Tm12  1  0.556559  0.938661  0.567106  1
  Tm  Tm13  1  0.938661  0.556559  0.937674  1
  Tm  Tm14  1  0.565450  0.565450  0.934550  1
  Tm  Tm15  1  0.943167  0.943167  0.556833  1
  Cd  Cd16  1  0.578838  0.578838  0.583670  1
  Cd  Cd17  1  0.578838  0.578838  0.258656  1
  Cd  Cd18  1  0.579180  0.255818  0.582501  1
  Cd  Cd19  1  0.255818  0.579180  0.582501  1
  Ni  Ni20  1  0.141645  0.577954  0.140201  1
  Ni  Ni21  1  0.577954  0.141645  0.140201  1
  Os  Os22  1  0.143337  0.143337  0.139753  1
  Os  Os23  1  0.143337  0.143337  0.573574  1
