# generated using pymatgen
data_MnFe3Hg4(AsO5)4
_symmetry_space_group_name_H-M   'P 1'
_cell_length_a   6.32214199
_cell_length_b   8.27050967
_cell_length_c   8.60462868
_cell_angle_alpha   90.81636197
_cell_angle_beta   89.23579414
_cell_angle_gamma   91.30152502
_symmetry_Int_Tables_number   1
_chemical_formula_structural   MnFe3Hg4(AsO5)4
_chemical_formula_sum   'Mn1 Fe3 Hg4 As4 O20'
_cell_volume   449.71326924
_cell_formula_units_Z   1
loop_
 _symmetry_equiv_pos_site_id
 _symmetry_equiv_pos_as_xyz
  1  'x, y, z'
loop_
 _atom_site_type_symbol
 _atom_site_label
 _atom_site_symmetry_multiplicity
 _atom_site_fract_x
 _atom_site_fract_y
 _atom_site_fract_z
 _atom_site_occupancy
  Mn  Mn0  1  0.749334  0.749684  0.000385  1
  Fe  Fe1  1  0.249400  0.750364  0.999681  1
  Fe  Fe2  1  0.250810  0.249853  0.499705  1
  Fe  Fe3  1  0.750686  0.250039  0.500425  1
  Hg  Hg4  1  0.994118  0.825802  0.661923  1
  Hg  Hg5  1  0.501424  0.177604  0.157852  1
  Hg  Hg6  1  0.999065  0.322857  0.842022  1
  Hg  Hg7  1  0.504978  0.673744  0.338120  1
  As  As8  1  0.489747  0.070363  0.788391  1
  As  As9  1  0.001004  0.929200  0.290431  1
  As  As10  1  0.499835  0.570705  0.709571  1
  As  As11  1  0.009222  0.429717  0.211623  1
  O  O12  1  0.484142  0.891491  0.891142  1
  O  O13  1  0.998663  0.112523  0.393960  1
  O  O14  1  0.501738  0.387425  0.606102  1
  O  O15  1  0.015503  0.608531  0.108797  1
  O  O16  1  0.494744  0.229490  0.923513  1
  O  O17  1  0.001063  0.774862  0.425429  1
  O  O18  1  0.507147  0.725117  0.574543  1
  O  O19  1  0.997130  0.270781  0.076472  1
  O  O20  1  0.717330  0.085846  0.677338  1
  O  O21  1  0.774464  0.907630  0.181695  1
  O  O22  1  0.271833  0.586193  0.818651  1
  O  O23  1  0.234604  0.410198  0.319441  1
  O  O24  1  0.266362  0.087917  0.678210  1
  O  O25  1  0.227219  0.915521  0.179169  1
  O  O26  1  0.724540  0.590519  0.820460  1
  O  O27  1  0.783789  0.415955  0.325057  1
  O  O28  1  0.996784  0.845743  0.901691  1
  O  O29  1  0.500645  0.152325  0.395940  1
  O  O30  1  0.001799  0.347767  0.603925  1
  O  O31  1  0.500874  0.654233  0.098336  1
