# generated using pymatgen
data_DyHoTm3Ir2
_symmetry_space_group_name_H-M   'P 1'
_cell_length_a   6.42949791
_cell_length_b   7.17167199
_cell_length_c   8.43305532
_cell_angle_alpha   96.67912560
_cell_angle_beta   112.40852172
_cell_angle_gamma   89.99999726
_symmetry_Int_Tables_number   1
_chemical_formula_structural   DyHoTm3Ir2
_chemical_formula_sum   'Dy2 Ho2 Tm6 Ir4'
_cell_volume   356.63164220
_cell_formula_units_Z   2
loop_
 _symmetry_equiv_pos_site_id
 _symmetry_equiv_pos_as_xyz
  1  'x, y, z'
loop_
 _atom_site_type_symbol
 _atom_site_label
 _atom_site_symmetry_multiplicity
 _atom_site_fract_x
 _atom_site_fract_y
 _atom_site_fract_z
 _atom_site_occupancy
  Dy  Dy0  1  0.971702  0.919072  0.184580  1
  Dy  Dy1  1  0.787121  0.580928  0.815420  1
  Ho  Ho2  1  0.028349  0.081111  0.815513  1
  Ho  Ho3  1  0.212837  0.418889  0.184487  1
  Tm  Tm4  1  0.652193  0.817474  0.440806  1
  Tm  Tm5  1  0.211387  0.682526  0.559194  1
  Tm  Tm6  1  0.347776  0.182611  0.559329  1
  Tm  Tm7  1  0.788447  0.317389  0.440671  1
  Tm  Tm8  1  0.427463  0.750000  0.000000  1
  Tm  Tm9  1  0.572272  0.250000  0.000000  1
  Ir  Ir10  1  0.823723  0.572909  0.220079  1
  Ir  Ir11  1  0.603645  0.927091  0.779921  1
  Ir  Ir12  1  0.176577  0.426576  0.780068  1
  Ir  Ir13  1  0.396508  0.073424  0.219932  1
