# generated using pymatgen
data_Tb4DyTi3(P3Ir4)4
_symmetry_space_group_name_H-M   'P 1'
_cell_length_a   12.76121800
_cell_length_b   12.76090366
_cell_length_c   3.95791100
_cell_angle_alpha   90.00000000
_cell_angle_beta   90.00000000
_cell_angle_gamma   120.00081486
_symmetry_Int_Tables_number   1
_chemical_formula_structural   Tb4DyTi3(P3Ir4)4
_chemical_formula_sum   'Tb4 Dy1 Ti3 P12 Ir16'
_cell_volume   558.17020144
_cell_formula_units_Z   1
loop_
 _symmetry_equiv_pos_site_id
 _symmetry_equiv_pos_as_xyz
  1  'x, y, z'
loop_
 _atom_site_type_symbol
 _atom_site_label
 _atom_site_symmetry_multiplicity
 _atom_site_fract_x
 _atom_site_fract_y
 _atom_site_fract_z
 _atom_site_occupancy
  Tb  Tb0  1  0.333334  0.666666  0.500000  1
  Tb  Tb1  1  0.666670  0.333334  0.500000  1
  Tb  Tb2  1  0.000001  0.812361  0.000000  1
  Tb  Tb3  1  0.187640  0.187639  0.000000  1
  Dy  Dy4  1  0.812335  0.000000  0.000000  1
  Ti  Ti5  1  0.999995  0.447776  0.500000  1
  Ti  Ti6  1  0.552219  0.552224  0.500000  1
  Ti  Ti7  1  0.447814  0.000000  0.500000  1
  P  P8  1  0.999999  0.640168  0.500000  1
  P  P9  1  0.359832  0.359832  0.500000  1
  P  P10  1  0.640361  0.000000  0.500000  1
  P  P11  1  0.517186  0.684393  0.000000  1
  P  P12  1  0.315595  0.832802  0.000000  1
  P  P13  1  0.167195  0.482775  0.000000  1
  P  P14  1  0.482794  0.167198  0.000000  1
  P  P15  1  0.684420  0.517225  0.000000  1
  P  P16  1  0.832793  0.315607  0.000000  1
  P  P17  1  0.999888  0.176683  0.500000  1
  P  P18  1  0.823205  0.823317  0.500000  1
  P  P19  1  0.176754  0.000000  0.500000  1
  Ir  Ir20  1  0.509270  0.866705  0.000000  1
  Ir  Ir21  1  0.133259  0.642506  0.000000  1
  Ir  Ir22  1  0.357477  0.490739  0.000000  1
  Ir  Ir23  1  0.490755  0.357494  0.000000  1
  Ir  Ir24  1  0.866739  0.509261  0.000000  1
  Ir  Ir25  1  0.642566  0.133295  0.000000  1
  Ir  Ir26  1  0.999906  0.283110  0.000000  1
  Ir  Ir27  1  0.716796  0.716890  0.000000  1
  Ir  Ir28  1  0.283222  0.000000  0.000000  1
  Ir  Ir29  1  0.626807  0.805164  0.500000  1
  Ir  Ir30  1  0.195097  0.821643  0.500000  1
  Ir  Ir31  1  0.178331  0.373451  0.500000  1
  Ir  Ir32  1  0.373454  0.178357  0.500000  1
  Ir  Ir33  1  0.804880  0.626549  0.500000  1
  Ir  Ir34  1  0.821643  0.194836  0.500000  1
  Ir  Ir35  1  0.999769  0.000000  0.500000  1
