# generated using pymatgen
data_Ac4Pd3Au
_symmetry_space_group_name_H-M   'P 1'
_cell_length_a   4.68436500
_cell_length_b   6.27299405
_cell_length_c   7.93313712
_cell_angle_alpha   89.98004450
_cell_angle_beta   90.00000000
_cell_angle_gamma   90.00000000
_symmetry_Int_Tables_number   1
_chemical_formula_structural   Ac4Pd3Au
_chemical_formula_sum   'Ac4 Pd3 Au1'
_cell_volume   233.11517085
_cell_formula_units_Z   1
loop_
 _symmetry_equiv_pos_site_id
 _symmetry_equiv_pos_as_xyz
  1  'x, y, z'
loop_
 _atom_site_type_symbol
 _atom_site_label
 _atom_site_symmetry_multiplicity
 _atom_site_fract_x
 _atom_site_fract_y
 _atom_site_fract_z
 _atom_site_occupancy
  Ac  Ac0  1  0.250000  0.143761  0.184731  1
  Ac  Ac1  1  0.750000  0.861148  0.810846  1
  Ac  Ac2  1  0.750000  0.645938  0.324753  1
  Ac  Ac3  1  0.250000  0.355450  0.681393  1
  Pd  Pd4  1  0.750000  0.348059  0.954745  1
  Pd  Pd5  1  0.750000  0.148780  0.456258  1
  Pd  Pd6  1  0.250000  0.853008  0.544187  1
  Au  Au7  1  0.250000  0.643856  0.043087  1
