# generated using pymatgen
data_Nd3Sc3GaTe2
_symmetry_space_group_name_H-M   'P 1'
_cell_length_a   8.04920200
_cell_length_b   8.04914206
_cell_length_c   4.25415800
_cell_angle_alpha   90.00000000
_cell_angle_beta   90.00000000
_cell_angle_gamma   119.99975095
_symmetry_Int_Tables_number   1
_chemical_formula_structural   Nd3Sc3GaTe2
_chemical_formula_sum   'Nd3 Sc3 Ga1 Te2'
_cell_volume   238.69743723
_cell_formula_units_Z   1
loop_
 _symmetry_equiv_pos_site_id
 _symmetry_equiv_pos_as_xyz
  1  'x, y, z'
loop_
 _atom_site_type_symbol
 _atom_site_label
 _atom_site_symmetry_multiplicity
 _atom_site_fract_x
 _atom_site_fract_y
 _atom_site_fract_z
 _atom_site_occupancy
  Nd  Nd0  1  0.400136  0.999991  0.000000  1
  Nd  Nd1  1  0.000000  0.400103  0.000000  1
  Nd  Nd2  1  0.599864  0.599855  0.000000  1
  Sc  Sc3  1  0.768082  0.000001  0.500000  1
  Sc  Sc4  1  0.231918  0.231918  0.500000  1
  Sc  Sc5  1  0.000000  0.768119  0.500000  1
  Ga  Ga6  1  0.000000  0.000035  0.000000  1
  Te  Te7  1  0.666659  0.333318  0.500000  1
  Te  Te8  1  0.333341  0.666661  0.500000  1
