# generated using pymatgen
data_La3Ho3Er2(CdIr)2
_symmetry_space_group_name_H-M   'P 1'
_cell_length_a   9.79585897
_cell_length_b   9.79546928
_cell_length_c   9.79546901
_cell_angle_alpha   60.00262953
_cell_angle_beta   59.99868722
_cell_angle_gamma   59.99868376
_symmetry_Int_Tables_number   1
_chemical_formula_structural   La3Ho3Er2(CdIr)2
_chemical_formula_sum   'La6 Ho6 Er4 Cd4 Ir4'
_cell_volume   664.62704282
_cell_formula_units_Z   2
loop_
 _symmetry_equiv_pos_site_id
 _symmetry_equiv_pos_as_xyz
  1  'x, y, z'
loop_
 _atom_site_type_symbol
 _atom_site_label
 _atom_site_symmetry_multiplicity
 _atom_site_fract_x
 _atom_site_fract_y
 _atom_site_fract_z
 _atom_site_occupancy
  La  La0  1  0.193420  0.806580  0.806580  1
  La  La1  1  0.806580  0.193420  0.193420  1
  La  La2  1  0.806568  0.193432  0.806568  1
  La  La3  1  0.193432  0.806568  0.193432  1
  La  La4  1  0.806568  0.806568  0.193432  1
  La  La5  1  0.193432  0.193432  0.806568  1
  Ho  Ho6  1  0.596290  0.596580  0.596580  1
  Ho  Ho7  1  0.596580  0.596290  0.210548  1
  Ho  Ho8  1  0.596580  0.210548  0.596290  1
  Ho  Ho9  1  0.210548  0.596580  0.596580  1
  Ho  Ho10  1  0.063852  0.436148  0.436148  1
  Ho  Ho11  1  0.436148  0.063852  0.063852  1
  Er  Er12  1  0.436280  0.063720  0.436280  1
  Er  Er13  1  0.063720  0.436280  0.063720  1
  Er  Er14  1  0.436280  0.436280  0.063720  1
  Er  Er15  1  0.063720  0.063720  0.436280  1
  Cd  Cd16  1  0.828595  0.828542  0.828542  1
  Cd  Cd17  1  0.828542  0.828595  0.514319  1
  Cd  Cd18  1  0.828542  0.514319  0.828595  1
  Cd  Cd19  1  0.514319  0.828542  0.828542  1
  Ir  Ir20  1  0.391108  0.390774  0.390774  1
  Ir  Ir21  1  0.390774  0.391108  0.827344  1
  Ir  Ir22  1  0.390774  0.827344  0.391108  1
  Ir  Ir23  1  0.827344  0.390774  0.390774  1
