# generated using pymatgen
data_Ac2Pr(CdPd)3
_symmetry_space_group_name_H-M   'P 1'
_cell_length_a   7.90464500
_cell_length_b   7.95339469
_cell_length_c   4.18761100
_cell_angle_alpha   90.00000000
_cell_angle_beta   90.00000000
_cell_angle_gamma   119.79745087
_symmetry_Int_Tables_number   1
_chemical_formula_structural   Ac2Pr(CdPd)3
_chemical_formula_sum   'Ac2 Pr1 Cd3 Pd3'
_cell_volume   228.46236027
_cell_formula_units_Z   1
loop_
 _symmetry_equiv_pos_site_id
 _symmetry_equiv_pos_as_xyz
  1  'x, y, z'
loop_
 _atom_site_type_symbol
 _atom_site_label
 _atom_site_symmetry_multiplicity
 _atom_site_fract_x
 _atom_site_fract_y
 _atom_site_fract_z
 _atom_site_occupancy
  Ac  Ac0  1  0.408513  0.410419  0.500000  1
  Ac  Ac1  1  0.998094  0.589581  0.500000  1
  Pr  Pr2  1  0.595845  0.000000  0.500000  1
  Cd  Cd3  1  0.752532  0.761042  0.000000  1
  Cd  Cd4  1  0.252996  0.000000  0.000000  1
  Cd  Cd5  1  0.991489  0.238958  0.000000  1
  Pd  Pd6  1  0.664983  0.329658  0.000000  1
  Pd  Pd7  1  0.000225  0.000000  0.500000  1
  Pd  Pd8  1  0.335324  0.670342  0.000000  1
