# generated using pymatgen
data_Er6Al24Os5PdPt2
_symmetry_space_group_name_H-M   'P 1'
_cell_length_a   8.79762420
_cell_length_b   8.81620143
_cell_length_c   9.54799405
_cell_angle_alpha   90.06888027
_cell_angle_beta   89.78011416
_cell_angle_gamma   119.47580024
_symmetry_Int_Tables_number   1
_chemical_formula_structural   Er6Al24Os5PdPt2
_chemical_formula_sum   'Er6 Al24 Os5 Pd1 Pt2'
_cell_volume   644.69785022
_cell_formula_units_Z   1
loop_
 _symmetry_equiv_pos_site_id
 _symmetry_equiv_pos_as_xyz
  1  'x, y, z'
loop_
 _atom_site_type_symbol
 _atom_site_label
 _atom_site_symmetry_multiplicity
 _atom_site_fract_x
 _atom_site_fract_y
 _atom_site_fract_z
 _atom_site_occupancy
  Er  Er0  1  0.187633  0.384382  0.251159  1
  Er  Er1  1  0.812367  0.615618  0.748841  1
  Er  Er2  1  0.612735  0.814336  0.251961  1
  Er  Er3  1  0.387265  0.185664  0.748039  1
  Er  Er4  1  0.196131  0.808639  0.251252  1
  Er  Er5  1  0.803869  0.191361  0.748748  1
  Al  Al6  1  0.335503  0.670959  0.029657  1
  Al  Al7  1  0.664497  0.329041  0.970343  1
  Al  Al8  1  0.669307  0.331214  0.528054  1
  Al  Al9  1  0.330693  0.668786  0.471946  1
  Al  Al10  1  0.157500  0.324871  0.576673  1
  Al  Al11  1  0.842500  0.675129  0.423327  1
  Al  Al12  1  0.674051  0.841353  0.576718  1
  Al  Al13  1  0.837081  0.676434  0.078418  1
  Al  Al14  1  0.325949  0.158647  0.423282  1
  Al  Al15  1  0.162919  0.323566  0.921582  1
  Al  Al16  1  0.163831  0.835091  0.576479  1
  Al  Al17  1  0.325507  0.158843  0.076654  1
  Al  Al18  1  0.836169  0.164909  0.423521  1
  Al  Al19  1  0.674493  0.841157  0.923346  1
  Al  Al20  1  0.832093  0.159332  0.077798  1
  Al  Al21  1  0.167907  0.840668  0.922202  1
  Al  Al22  1  0.560880  0.124602  0.249598  1
  Al  Al23  1  0.439120  0.875398  0.750402  1
  Al  Al24  1  0.874302  0.438031  0.252527  1
  Al  Al25  1  0.125698  0.561969  0.747473  1
  Al  Al26  1  0.562285  0.437314  0.249948  1
  Al  Al27  1  0.437715  0.562686  0.750052  1
  Al  Al28  1  0.999005  0.002329  0.250134  1
  Al  Al29  1  0.000995  0.997671  0.749866  1
  Os  Os30  1  0.500000  0.000000  0.000000  1
  Os  Os31  1  0.500000  0.000000  0.500000  1
  Os  Os32  1  0.000000  0.500000  0.500000  1
  Os  Os33  1  0.000000  0.000000  0.000000  1
  Os  Os34  1  0.000000  0.000000  0.500000  1
  Pd  Pd35  1  0.500000  0.500000  0.500000  1
  Pt  Pt36  1  0.000000  0.500000  0.000000  1
  Pt  Pt37  1  0.500000  0.500000  0.000000  1
