# generated using pymatgen
data_PrYMg(Si3Pd10)2
_symmetry_space_group_name_H-M   'P 1'
_cell_length_a   8.70432066
_cell_length_b   8.70431965
_cell_length_c   8.70432100
_cell_angle_alpha   59.99999867
_cell_angle_beta   60.00000249
_cell_angle_gamma   59.99999783
_symmetry_Int_Tables_number   1
_chemical_formula_structural   PrYMg(Si3Pd10)2
_chemical_formula_sum   'Pr1 Y1 Mg1 Si6 Pd20'
_cell_volume   466.32597859
_cell_formula_units_Z   1
loop_
 _symmetry_equiv_pos_site_id
 _symmetry_equiv_pos_as_xyz
  1  'x, y, z'
loop_
 _atom_site_type_symbol
 _atom_site_label
 _atom_site_symmetry_multiplicity
 _atom_site_fract_x
 _atom_site_fract_y
 _atom_site_fract_z
 _atom_site_occupancy
  Pr  Pr0  1  0.750000  0.750000  0.750000  1
  Y  Y1  1  0.250000  0.250000  0.250000  1
  Mg  Mg2  1  0.000000  0.000000  0.000000  1
  Si  Si3  1  0.733777  0.266223  0.266223  1
  Si  Si4  1  0.266223  0.733777  0.733777  1
  Si  Si5  1  0.266223  0.733777  0.266223  1
  Si  Si6  1  0.733777  0.266223  0.733777  1
  Si  Si7  1  0.266223  0.266223  0.733777  1
  Si  Si8  1  0.733777  0.733777  0.266223  1
  Pd  Pd9  1  0.383100  0.383100  0.383100  1
  Pd  Pd10  1  0.614133  0.614133  0.614133  1
  Pd  Pd11  1  0.383100  0.383100  0.850700  1
  Pd  Pd12  1  0.383100  0.850700  0.383100  1
  Pd  Pd13  1  0.614133  0.614133  0.157599  1
  Pd  Pd14  1  0.614133  0.157599  0.614133  1
  Pd  Pd15  1  0.850700  0.383100  0.383100  1
  Pd  Pd16  1  0.157599  0.614133  0.614133  1
  Pd  Pd17  1  0.342816  0.000994  0.000994  1
  Pd  Pd18  1  0.655196  0.000994  0.000994  1
  Pd  Pd19  1  0.000994  0.342816  0.655196  1
  Pd  Pd20  1  0.000994  0.655196  0.342816  1
  Pd  Pd21  1  0.000994  0.342816  0.000994  1
  Pd  Pd22  1  0.655196  0.000994  0.342816  1
  Pd  Pd23  1  0.000994  0.655196  0.000994  1
  Pd  Pd24  1  0.342816  0.000994  0.655196  1
  Pd  Pd25  1  0.000994  0.000994  0.342816  1
  Pd  Pd26  1  0.000994  0.000994  0.655196  1
  Pd  Pd27  1  0.655196  0.342816  0.000994  1
  Pd  Pd28  1  0.342816  0.655196  0.000994  1
