# generated using pymatgen
data_La17Pr3(Ir3Ru)3
_symmetry_space_group_name_H-M   'P 1'
_cell_length_a   11.41063801
_cell_length_b   11.41151501
_cell_length_c   6.65201700
_cell_angle_alpha   90.00000000
_cell_angle_beta   90.00000000
_cell_angle_gamma   89.99440653
_symmetry_Int_Tables_number   1
_chemical_formula_structural   La17Pr3(Ir3Ru)3
_chemical_formula_sum   'La17 Pr3 Ir9 Ru3'
_cell_volume   866.17687042
_cell_formula_units_Z   1
loop_
 _symmetry_equiv_pos_site_id
 _symmetry_equiv_pos_as_xyz
  1  'x, y, z'
loop_
 _atom_site_type_symbol
 _atom_site_label
 _atom_site_symmetry_multiplicity
 _atom_site_fract_x
 _atom_site_fract_y
 _atom_site_fract_z
 _atom_site_occupancy
  La  La0  1  0.294085  0.089063  0.385044  1
  La  La1  1  0.293839  0.911125  0.886599  1
  La  La2  1  0.706161  0.088875  0.886599  1
  La  La3  1  0.705915  0.910937  0.385044  1
  La  La4  1  0.588854  0.793467  0.886086  1
  La  La5  1  0.589095  0.206404  0.386161  1
  La  La6  1  0.410905  0.793596  0.386161  1
  La  La7  1  0.411146  0.206533  0.886086  1
  La  La8  1  0.208459  0.409526  0.616334  1
  La  La9  1  0.208135  0.590972  0.113447  1
  La  La10  1  0.791865  0.409028  0.113447  1
  La  La11  1  0.791541  0.590474  0.616334  1
  La  La12  1  0.908869  0.707877  0.112725  1
  La  La13  1  0.909563  0.292188  0.617348  1
  La  La14  1  0.090437  0.707812  0.617348  1
  La  La15  1  0.091131  0.292123  0.112725  1
  La  La16  1  0.000000  0.000000  0.497707  1
  Pr  Pr17  1  0.000000  0.000000  0.998421  1
  Pr  Pr18  1  0.500000  0.500000  0.998364  1
  Pr  Pr19  1  0.500000  0.500000  0.498099  1
  Ir  Ir20  1  0.846945  0.153942  0.251343  1
  Ir  Ir21  1  0.846863  0.845894  0.748502  1
  Ir  Ir22  1  0.153137  0.154106  0.748502  1
  Ir  Ir23  1  0.153055  0.846058  0.251343  1
  Ir  Ir24  1  0.654482  0.346052  0.749758  1
  Ir  Ir25  1  0.654710  0.653354  0.249748  1
  Ir  Ir26  1  0.345290  0.346646  0.249748  1
  Ir  Ir27  1  0.345518  0.653948  0.749758  1
  Ir  Ir28  1  0.000000  0.500000  0.383047  1
  Ru  Ru29  1  0.500000  0.000000  0.115888  1
  Ru  Ru30  1  0.500000  0.000000  0.615679  1
  Ru  Ru31  1  0.000000  0.500000  0.886608  1
