# generated using pymatgen
data_Er3Tm7Os3Rh
_symmetry_space_group_name_H-M   'P 1'
_cell_length_a   6.31010148
_cell_length_b   7.30555462
_cell_length_c   8.28817900
_cell_angle_alpha   96.89037603
_cell_angle_beta   112.24804574
_cell_angle_gamma   89.95520933
_symmetry_Int_Tables_number   1
_chemical_formula_structural   Er3Tm7Os3Rh
_chemical_formula_sum   'Er3 Tm7 Os3 Rh1'
_cell_volume   350.66219406
_cell_formula_units_Z   1
loop_
 _symmetry_equiv_pos_site_id
 _symmetry_equiv_pos_as_xyz
  1  'x, y, z'
loop_
 _atom_site_type_symbol
 _atom_site_label
 _atom_site_symmetry_multiplicity
 _atom_site_fract_x
 _atom_site_fract_y
 _atom_site_fract_z
 _atom_site_occupancy
  Er  Er0  1  0.970856  0.915232  0.180582  1
  Er  Er1  1  0.789247  0.581771  0.817189  1
  Er  Er2  1  0.024040  0.083329  0.812801  1
  Tm  Tm3  1  0.208091  0.419076  0.180575  1
  Tm  Tm4  1  0.647236  0.816517  0.438920  1
  Tm  Tm5  1  0.208716  0.681448  0.562424  1
  Tm  Tm6  1  0.353144  0.182026  0.564859  1
  Tm  Tm7  1  0.795676  0.320681  0.438970  1
  Tm  Tm8  1  0.421257  0.748404  0.999097  1
  Tm  Tm9  1  0.578795  0.250862  0.999143  1
  Os  Os10  1  0.822814  0.576397  0.218087  1
  Os  Os11  1  0.606050  0.924039  0.781873  1
  Os  Os12  1  0.177247  0.422840  0.783315  1
  Rh  Rh13  1  0.396829  0.077377  0.222164  1
