# generated using pymatgen
data_Ce(Al5Os)2
_symmetry_space_group_name_H-M   'P 1'
_cell_length_a   6.89461492
_cell_length_b   6.89461467
_cell_length_c   9.19295700
_cell_angle_alpha   90.00000000
_cell_angle_beta   90.00000000
_cell_angle_gamma   97.18385147
_symmetry_Int_Tables_number   1
_chemical_formula_structural   Ce(Al5Os)2
_chemical_formula_sum   'Ce2 Al20 Os4'
_cell_volume   433.56335970
_cell_formula_units_Z   2
loop_
 _symmetry_equiv_pos_site_id
 _symmetry_equiv_pos_as_xyz
  1  'x, y, z'
loop_
 _atom_site_type_symbol
 _atom_site_label
 _atom_site_symmetry_multiplicity
 _atom_site_fract_x
 _atom_site_fract_y
 _atom_site_fract_z
 _atom_site_occupancy
  Ce  Ce0  1  0.873374  0.126626  0.750000  1
  Ce  Ce1  1  0.126626  0.873374  0.250000  1
  Al  Al2  1  0.517149  0.781882  0.750000  1
  Al  Al3  1  0.781882  0.517149  0.250000  1
  Al  Al4  1  0.482851  0.218118  0.250000  1
  Al  Al5  1  0.218118  0.482851  0.750000  1
  Al  Al6  1  0.623978  0.376022  0.954049  1
  Al  Al7  1  0.376022  0.623978  0.045951  1
  Al  Al8  1  0.623978  0.376022  0.545951  1
  Al  Al9  1  0.376022  0.623978  0.454049  1
  Al  Al10  1  0.414265  0.146862  0.750000  1
  Al  Al11  1  0.146862  0.414265  0.250000  1
  Al  Al12  1  0.585735  0.853138  0.250000  1
  Al  Al13  1  0.853138  0.585735  0.750000  1
  Al  Al14  1  0.843352  0.156648  0.397393  1
  Al  Al15  1  0.156648  0.843352  0.602607  1
  Al  Al16  1  0.843352  0.156648  0.102607  1
  Al  Al17  1  0.156648  0.843352  0.897393  1
  Al  Al18  1  0.775854  0.775854  0.000000  1
  Al  Al19  1  0.775854  0.775854  0.500000  1
  Al  Al20  1  0.224146  0.224146  0.000000  1
  Al  Al21  1  0.224146  0.224146  0.500000  1
  Os  Os22  1  0.500000  0.000000  0.000000  1
  Os  Os23  1  0.000000  0.500000  0.000000  1
  Os  Os24  1  0.500000  0.000000  0.500000  1
  Os  Os25  1  0.000000  0.500000  0.500000  1
