# generated using pymatgen
data_Ho3Er12Tm5Bi12
_symmetry_space_group_name_H-M   'P 1'
_cell_length_a   8.19642815
_cell_length_b   9.46701700
_cell_length_c   11.94149213
_cell_angle_alpha   89.99883819
_cell_angle_beta   90.00246751
_cell_angle_gamma   89.99660686
_symmetry_Int_Tables_number   1
_chemical_formula_structural   Ho3Er12Tm5Bi12
_chemical_formula_sum   'Ho3 Er12 Tm5 Bi12'
_cell_volume   926.60873220
_cell_formula_units_Z   1
loop_
 _symmetry_equiv_pos_site_id
 _symmetry_equiv_pos_as_xyz
  1  'x, y, z'
loop_
 _atom_site_type_symbol
 _atom_site_label
 _atom_site_symmetry_multiplicity
 _atom_site_fract_x
 _atom_site_fract_y
 _atom_site_fract_z
 _atom_site_occupancy
  Ho  Ho0  1  0.813731  0.249961  0.282039  1
  Ho  Ho1  1  0.686146  0.750045  0.782028  1
  Ho  Ho2  1  0.186150  0.749961  0.718015  1
  Er  Er3  1  0.353656  0.749945  0.217187  1
  Er  Er4  1  0.853579  0.749993  0.282632  1
  Er  Er5  1  0.646389  0.249945  0.782990  1
  Er  Er6  1  0.146422  0.249940  0.717189  1
  Er  Er7  1  0.692241  0.565413  0.059327  1
  Er  Er8  1  0.192129  0.934619  0.440564  1
  Er  Er9  1  0.307908  0.065289  0.940775  1
  Er  Er10  1  0.807976  0.434640  0.559314  1
  Er  Er11  1  0.307953  0.434716  0.940809  1
  Er  Er12  1  0.476587  0.249976  0.488941  1
  Er  Er13  1  0.976643  0.249977  0.011021  1
  Er  Er14  1  0.313655  0.249999  0.217686  1
  Tm  Tm15  1  0.807977  0.065483  0.559263  1
  Tm  Tm16  1  0.692273  0.934514  0.059343  1
  Tm  Tm17  1  0.192107  0.565511  0.440617  1
  Tm  Tm18  1  0.523175  0.749946  0.510760  1
  Tm  Tm19  1  0.023238  0.750040  0.989289  1
  Bi  Bi20  1  0.404484  0.750097  0.958071  1
  Bi  Bi21  1  0.904333  0.750187  0.541957  1
  Bi  Bi22  1  0.595084  0.249717  0.042447  1
  Bi  Bi23  1  0.095633  0.250196  0.457837  1
  Bi  Bi24  1  0.565847  0.995838  0.325732  1
  Bi  Bi25  1  0.066662  0.504070  0.174177  1
  Bi  Bi26  1  0.433957  0.495840  0.674054  1
  Bi  Bi27  1  0.933833  0.004174  0.825984  1
  Bi  Bi28  1  0.433990  0.004111  0.674077  1
  Bi  Bi29  1  0.933844  0.495822  0.825977  1
  Bi  Bi30  1  0.565812  0.504121  0.325743  1
  Bi  Bi31  1  0.066582  0.995915  0.174158  1
