# generated using pymatgen
data_Zr10TlGa2Sn5
_symmetry_space_group_name_H-M   'P 1'
_cell_length_a   8.74749100
_cell_length_b   8.73513078
_cell_length_c   5.88756600
_cell_angle_alpha   90.00000000
_cell_angle_beta   90.00000000
_cell_angle_gamma   120.04681510
_symmetry_Int_Tables_number   1
_chemical_formula_structural   Zr10TlGa2Sn5
_chemical_formula_sum   'Zr10 Tl1 Ga2 Sn5'
_cell_volume   389.41642814
_cell_formula_units_Z   1
loop_
 _symmetry_equiv_pos_site_id
 _symmetry_equiv_pos_as_xyz
  1  'x, y, z'
loop_
 _atom_site_type_symbol
 _atom_site_label
 _atom_site_symmetry_multiplicity
 _atom_site_fract_x
 _atom_site_fract_y
 _atom_site_fract_z
 _atom_site_occupancy
  Zr  Zr0  1  0.003260  0.268539  0.250000  1
  Zr  Zr1  1  0.733573  0.000000  0.750000  1
  Zr  Zr2  1  0.734721  0.731461  0.250000  1
  Zr  Zr3  1  0.666953  0.335308  0.500961  1
  Zr  Zr4  1  0.000014  0.732909  0.750000  1
  Zr  Zr5  1  0.267104  0.267091  0.750000  1
  Zr  Zr6  1  0.331644  0.664692  0.999039  1
  Zr  Zr7  1  0.666953  0.335308  0.999039  1
  Zr  Zr8  1  0.331644  0.664692  0.500961  1
  Zr  Zr9  1  0.264314  0.000000  0.250000  1
  Tl  Tl10  1  0.613914  0.000000  0.250000  1
  Ga  Ga11  1  0.999035  0.000000  0.999743  1
  Ga  Ga12  1  0.999035  0.000000  0.500257  1
  Sn  Sn13  1  0.387463  0.000000  0.750000  1
  Sn  Sn14  1  0.387779  0.387409  0.250000  1
  Sn  Sn15  1  0.000370  0.612591  0.250000  1
  Sn  Sn16  1  0.999294  0.386366  0.750000  1
  Sn  Sn17  1  0.612927  0.613634  0.750000  1
