# generated using pymatgen
data_LiY4Bi3C
_symmetry_space_group_name_H-M   'P 1'
_cell_length_a   8.99938500
_cell_length_b   8.99938438
_cell_length_c   6.47804100
_cell_angle_alpha   89.99924227
_cell_angle_beta   89.99924687
_cell_angle_gamma   119.99549839
_symmetry_Int_Tables_number   1
_chemical_formula_structural   LiY4Bi3C
_chemical_formula_sum   'Li2 Y8 Bi6 C2'
_cell_volume   454.38046903
_cell_formula_units_Z   2
loop_
 _symmetry_equiv_pos_site_id
 _symmetry_equiv_pos_as_xyz
  1  'x, y, z'
loop_
 _atom_site_type_symbol
 _atom_site_label
 _atom_site_symmetry_multiplicity
 _atom_site_fract_x
 _atom_site_fract_y
 _atom_site_fract_z
 _atom_site_occupancy
  Li  Li0  1  0.666608  0.333391  0.499994  1
  Li  Li1  1  0.333391  0.666608  0.499994  1
  Y  Y2  1  0.333368  0.666634  0.999996  1
  Y  Y3  1  0.666634  0.333368  0.999996  1
  Y  Y4  1  0.788276  0.788276  0.251284  1
  Y  Y5  1  0.211710  0.999950  0.251269  1
  Y  Y6  1  0.999950  0.211710  0.251269  1
  Y  Y7  1  0.211726  0.211726  0.748715  1
  Y  Y8  1  0.788288  0.000049  0.748737  1
  Y  Y9  1  0.000049  0.788288  0.748737  1
  Bi  Bi10  1  0.406326  0.406326  0.260447  1
  Bi  Bi11  1  0.593607  0.999984  0.260390  1
  Bi  Bi12  1  0.999984  0.593607  0.260390  1
  Bi  Bi13  1  0.593675  0.593675  0.739548  1
  Bi  Bi14  1  0.406393  0.000017  0.739609  1
  Bi  Bi15  1  0.000017  0.406393  0.739609  1
  C  C16  1  0.000000  0.000000  0.500006  1
  C  C17  1  0.000002  0.000002  0.000005  1
