# generated using pymatgen
data_Al4CrGa3Ru8
_symmetry_space_group_name_H-M   'P 1'
_cell_length_a   6.02189900
_cell_length_b   6.01630700
_cell_length_c   6.02169400
_cell_angle_alpha   90.00173251
_cell_angle_beta   90.00384396
_cell_angle_gamma   89.99872442
_symmetry_Int_Tables_number   1
_chemical_formula_structural   Al4CrGa3Ru8
_chemical_formula_sum   'Al4 Cr1 Ga3 Ru8'
_cell_volume   218.16352311
_cell_formula_units_Z   1
loop_
 _symmetry_equiv_pos_site_id
 _symmetry_equiv_pos_as_xyz
  1  'x, y, z'
loop_
 _atom_site_type_symbol
 _atom_site_label
 _atom_site_symmetry_multiplicity
 _atom_site_fract_x
 _atom_site_fract_y
 _atom_site_fract_z
 _atom_site_occupancy
  Al  Al0  1  0.000081  0.249993  0.000017  1
  Al  Al1  1  0.000105  0.750007  0.000016  1
  Al  Al2  1  0.499949  0.249994  0.499975  1
  Al  Al3  1  0.499890  0.750007  0.499976  1
  Cr  Cr4  1  0.999803  0.749972  0.500049  1
  Ga  Ga5  1  0.499907  0.250002  0.000012  1
  Ga  Ga6  1  0.499981  0.749999  0.000008  1
  Ga  Ga7  1  0.000109  0.249998  0.499984  1
  Ru  Ru8  1  0.248670  0.501569  0.251340  1
  Ru  Ru9  1  0.248683  0.998447  0.251322  1
  Ru  Ru10  1  0.751357  0.501552  0.251341  1
  Ru  Ru11  1  0.751363  0.998458  0.251341  1
  Ru  Ru12  1  0.248684  0.501556  0.748658  1
  Ru  Ru13  1  0.248682  0.998435  0.748654  1
  Ru  Ru14  1  0.751366  0.501552  0.748652  1
  Ru  Ru15  1  0.751366  0.998458  0.748651  1
