# generated using pymatgen
data_Tb4Co19Si12Ni
_symmetry_space_group_name_H-M   'P 1'
_cell_length_a   3.71547800
_cell_length_b   6.85951575
_cell_length_c   18.19669103
_cell_angle_alpha   89.94356384
_cell_angle_beta   90.00000000
_cell_angle_gamma   90.00000000
_symmetry_Int_Tables_number   1
_chemical_formula_structural   Tb4Co19Si12Ni
_chemical_formula_sum   'Tb4 Co19 Si12 Ni1'
_cell_volume   463.76755462
_cell_formula_units_Z   1
loop_
 _symmetry_equiv_pos_site_id
 _symmetry_equiv_pos_as_xyz
  1  'x, y, z'
loop_
 _atom_site_type_symbol
 _atom_site_label
 _atom_site_symmetry_multiplicity
 _atom_site_fract_x
 _atom_site_fract_y
 _atom_site_fract_z
 _atom_site_occupancy
  Tb  Tb0  1  0.250000  0.875562  0.358451  1
  Tb  Tb1  1  0.750000  0.122922  0.642125  1
  Tb  Tb2  1  0.750000  0.377187  0.140836  1
  Tb  Tb3  1  0.250000  0.622794  0.858855  1
  Co  Co4  1  0.250000  0.058260  0.204739  1
  Co  Co5  1  0.750000  0.941468  0.795150  1
  Co  Co6  1  0.750000  0.558355  0.295338  1
  Co  Co7  1  0.250000  0.441451  0.705272  1
  Co  Co8  1  0.250000  0.620507  0.490888  1
  Co  Co9  1  0.750000  0.375660  0.509360  1
  Co  Co10  1  0.750000  0.119950  0.008875  1
  Co  Co11  1  0.250000  0.879719  0.991001  1
  Co  Co12  1  0.250000  0.681062  0.201635  1
  Co  Co13  1  0.750000  0.318508  0.798524  1
  Co  Co14  1  0.750000  0.181871  0.297445  1
  Co  Co15  1  0.250000  0.818807  0.701562  1
  Co  Co16  1  0.250000  0.364615  0.389586  1
  Co  Co17  1  0.750000  0.635969  0.610051  1
  Co  Co18  1  0.750000  0.864758  0.109737  1
  Co  Co19  1  0.250000  0.135348  0.890481  1
  Co  Co20  1  0.250000  0.370538  0.005523  1
  Co  Co21  1  0.750000  0.629411  0.994677  1
  Co  Co22  1  0.750000  0.874007  0.494522  1
  Si  Si23  1  0.250000  0.093964  0.081816  1
  Si  Si24  1  0.750000  0.905413  0.918123  1
  Si  Si25  1  0.750000  0.594179  0.418932  1
  Si  Si26  1  0.250000  0.409625  0.582501  1
  Si  Si27  1  0.250000  0.648290  0.074592  1
  Si  Si28  1  0.750000  0.352093  0.925498  1
  Si  Si29  1  0.750000  0.150025  0.423310  1
  Si  Si30  1  0.250000  0.848901  0.574961  1
  Si  Si31  1  0.250000  0.369640  0.263519  1
  Si  Si32  1  0.750000  0.630645  0.736457  1
  Si  Si33  1  0.750000  0.869140  0.235878  1
  Si  Si34  1  0.250000  0.130291  0.764359  1
  Ni  Ni35  1  0.250000  0.129063  0.505424  1
