# generated using pymatgen
data_Ti3Ga3CuIr2
_symmetry_space_group_name_H-M   'P 1'
_cell_length_a   7.24293500
_cell_length_b   7.24293414
_cell_length_c   2.98497200
_cell_angle_alpha   90.00000000
_cell_angle_beta   90.00000000
_cell_angle_gamma   119.99999937
_symmetry_Int_Tables_number   1
_chemical_formula_structural   Ti3Ga3CuIr2
_chemical_formula_sum   'Ti3 Ga3 Cu1 Ir2'
_cell_volume   135.61259294
_cell_formula_units_Z   1
loop_
 _symmetry_equiv_pos_site_id
 _symmetry_equiv_pos_as_xyz
  1  'x, y, z'
loop_
 _atom_site_type_symbol
 _atom_site_label
 _atom_site_symmetry_multiplicity
 _atom_site_fract_x
 _atom_site_fract_y
 _atom_site_fract_z
 _atom_site_occupancy
  Ti  Ti0  1  0.383821  0.383821  0.500000  1
  Ti  Ti1  1  0.616179  0.000000  0.500000  1
  Ti  Ti2  1  0.000000  0.616179  0.500000  1
  Ga  Ga3  1  0.721380  0.721380  0.000000  1
  Ga  Ga4  1  0.278620  0.000000  0.000000  1
  Ga  Ga5  1  0.000000  0.278620  0.000000  1
  Cu  Cu6  1  0.000000  0.000000  0.500000  1
  Ir  Ir7  1  0.666667  0.333333  0.000000  1
  Ir  Ir8  1  0.333333  0.666667  0.000000  1
