# generated using pymatgen
data_Y4Ir2PdRhO14
_symmetry_space_group_name_H-M   'P 1'
_cell_length_a   7.27775549
_cell_length_b   7.23179513
_cell_length_c   7.27775578
_cell_angle_alpha   59.93467848
_cell_angle_beta   60.10422003
_cell_angle_gamma   59.93467906
_symmetry_Int_Tables_number   1
_chemical_formula_structural   Y4Ir2PdRhO14
_chemical_formula_sum   'Y4 Ir2 Pd1 Rh1 O14'
_cell_volume   270.79259229
_cell_formula_units_Z   1
loop_
 _symmetry_equiv_pos_site_id
 _symmetry_equiv_pos_as_xyz
  1  'x, y, z'
loop_
 _atom_site_type_symbol
 _atom_site_label
 _atom_site_symmetry_multiplicity
 _atom_site_fract_x
 _atom_site_fract_y
 _atom_site_fract_z
 _atom_site_occupancy
  Y  Y0  1  0.625000  0.125000  0.125000  1
  Y  Y1  1  0.125000  0.625000  0.125000  1
  Y  Y2  1  0.125000  0.125000  0.625000  1
  Y  Y3  1  0.125000  0.125000  0.125000  1
  Ir  Ir4  1  0.125000  0.625000  0.625000  1
  Ir  Ir5  1  0.625000  0.625000  0.125000  1
  Pd  Pd6  1  0.625000  0.125000  0.625000  1
  Rh  Rh7  1  0.625000  0.625000  0.625000  1
  O  O8  1  0.716625  0.704735  0.286600  1
  O  O9  1  0.282011  0.290076  0.717368  1
  O  O10  1  0.718645  0.282583  0.718645  1
  O  O11  1  0.291291  0.706461  0.291291  1
  O  O12  1  0.286600  0.704735  0.716625  1
  O  O13  1  0.717368  0.290076  0.282011  1
  O  O14  1  0.533375  0.545265  0.963400  1
  O  O15  1  0.967989  0.959924  0.532632  1
  O  O16  1  0.531355  0.967417  0.531355  1
  O  O17  1  0.958709  0.543539  0.958709  1
  O  O18  1  0.963400  0.545265  0.533375  1
  O  O19  1  0.532632  0.959924  0.967989  1
  O  O20  1  0.249140  0.250172  0.249140  1
  O  O21  1  0.000860  0.999828  0.000860  1
