# generated using pymatgen
data_Sm3Th11(TcOs2)2
_symmetry_space_group_name_H-M   'P 1'
_cell_length_a   9.88690253
_cell_length_b   9.99843829
_cell_length_c   6.39988788
_cell_angle_alpha   89.78071357
_cell_angle_beta   90.31086095
_cell_angle_gamma   120.24556665
_symmetry_Int_Tables_number   1
_chemical_formula_structural   Sm3Th11(TcOs2)2
_chemical_formula_sum   'Sm3 Th11 Tc2 Os4'
_cell_volume   546.52331503
_cell_formula_units_Z   1
loop_
 _symmetry_equiv_pos_site_id
 _symmetry_equiv_pos_as_xyz
  1  'x, y, z'
loop_
 _atom_site_type_symbol
 _atom_site_label
 _atom_site_symmetry_multiplicity
 _atom_site_fract_x
 _atom_site_fract_y
 _atom_site_fract_z
 _atom_site_occupancy
  Sm  Sm0  1  0.463483  0.536383  0.295310  1
  Sm  Sm1  1  0.073416  0.535629  0.297667  1
  Sm  Sm2  1  0.924926  0.460422  0.795017  1
  Th  Th3  1  0.250965  0.126979  0.510325  1
  Th  Th4  1  0.541761  0.079607  0.799271  1
  Th  Th5  1  0.749574  0.873446  0.012228  1
  Th  Th6  1  0.666807  0.334477  0.271778  1
  Th  Th7  1  0.123762  0.869815  0.008122  1
  Th  Th8  1  0.464367  0.923625  0.300326  1
  Th  Th9  1  0.537040  0.465192  0.798206  1
  Th  Th10  1  0.875587  0.128993  0.509790  1
  Th  Th11  1  0.122434  0.249867  0.011953  1
  Th  Th12  1  0.875369  0.751428  0.510262  1
  Th  Th13  1  0.332721  0.665678  0.771645  1
  Tc  Tc14  1  0.810602  0.636413  0.043259  1
  Tc  Tc15  1  0.808938  0.172211  0.048421  1
  Os  Os16  1  0.629475  0.815932  0.551063  1
  Os  Os17  1  0.370053  0.185429  0.043800  1
  Os  Os18  1  0.187857  0.367734  0.558427  1
  Os  Os19  1  0.190863  0.820742  0.547128  1
