# generated using pymatgen
data_Lu12Fe2TcNi2Sn
_symmetry_space_group_name_H-M   'P 1'
_cell_length_a   8.12866661
_cell_length_b   8.12866672
_cell_length_c   8.12866666
_cell_angle_alpha   112.32779042
_cell_angle_beta   111.27013925
_cell_angle_gamma   104.91166413
_symmetry_Int_Tables_number   1
_chemical_formula_structural   Lu12Fe2TcNi2Sn
_chemical_formula_sum   'Lu12 Fe2 Tc1 Ni2 Sn1'
_cell_volume   411.48099702
_cell_formula_units_Z   1
loop_
 _symmetry_equiv_pos_site_id
 _symmetry_equiv_pos_as_xyz
  1  'x, y, z'
loop_
 _atom_site_type_symbol
 _atom_site_label
 _atom_site_symmetry_multiplicity
 _atom_site_fract_x
 _atom_site_fract_y
 _atom_site_fract_z
 _atom_site_occupancy
  Lu  Lu0  1  0.683473  0.880146  0.196673  1
  Lu  Lu1  1  0.316527  0.513201  0.196673  1
  Lu  Lu2  1  0.814154  0.771650  0.585803  1
  Lu  Lu3  1  0.185846  0.771650  0.957496  1
  Lu  Lu4  1  0.814154  0.228350  0.042504  1
  Lu  Lu5  1  0.185846  0.228350  0.414197  1
  Lu  Lu6  1  0.683473  0.486799  0.803327  1
  Lu  Lu7  1  0.316527  0.119854  0.803327  1
  Lu  Lu8  1  0.580080  0.277688  0.302391  1
  Lu  Lu9  1  0.419920  0.722312  0.697609  1
  Lu  Lu10  1  0.024703  0.722312  0.302391  1
  Lu  Lu11  1  0.975297  0.277688  0.697609  1
  Fe  Fe12  1  0.378952  0.500000  0.878952  1
  Fe  Fe13  1  0.621048  0.500000  0.121048  1
  Tc  Tc14  1  0.000000  0.500000  0.500000  1
  Ni  Ni15  1  0.884816  0.884816  0.000000  1
  Ni  Ni16  1  0.115184  0.115184  0.000000  1
  Sn  Sn17  1  0.500000  0.000000  0.500000  1
