# generated using pymatgen
data_V2ZnFe4Si
_symmetry_space_group_name_H-M   'P 1'
_cell_length_a   6.93527580
_cell_length_b   6.93527539
_cell_length_c   6.93527630
_cell_angle_alpha   33.53802237
_cell_angle_beta   33.53802490
_cell_angle_gamma   33.53803042
_symmetry_Int_Tables_number   1
_chemical_formula_structural   V2ZnFe4Si
_chemical_formula_sum   'V2 Zn1 Fe4 Si1'
_cell_volume   90.69214731
_cell_formula_units_Z   1
loop_
 _symmetry_equiv_pos_site_id
 _symmetry_equiv_pos_as_xyz
  1  'x, y, z'
loop_
 _atom_site_type_symbol
 _atom_site_label
 _atom_site_symmetry_multiplicity
 _atom_site_fract_x
 _atom_site_fract_y
 _atom_site_fract_z
 _atom_site_occupancy
  V  V0  1  0.251167  0.251167  0.251167  1
  V  V1  1  0.748833  0.748833  0.748833  1
  Zn  Zn2  1  0.000000  0.000000  0.000000  1
  Fe  Fe3  1  0.871787  0.871787  0.871787  1
  Fe  Fe4  1  0.378804  0.378804  0.378804  1
  Fe  Fe5  1  0.128213  0.128213  0.128213  1
  Fe  Fe6  1  0.621196  0.621196  0.621196  1
  Si  Si7  1  0.500000  0.500000  0.500000  1
