# generated using pymatgen
data_Ac3YbPd4
_symmetry_space_group_name_H-M   'P 1'
_cell_length_a   4.62067800
_cell_length_b   6.04517540
_cell_length_c   7.80315267
_cell_angle_alpha   89.69144322
_cell_angle_beta   90.00000000
_cell_angle_gamma   90.00000000
_symmetry_Int_Tables_number   1
_chemical_formula_structural   Ac3YbPd4
_chemical_formula_sum   'Ac3 Yb1 Pd4'
_cell_volume   217.96081226
_cell_formula_units_Z   1
loop_
 _symmetry_equiv_pos_site_id
 _symmetry_equiv_pos_as_xyz
  1  'x, y, z'
loop_
 _atom_site_type_symbol
 _atom_site_label
 _atom_site_symmetry_multiplicity
 _atom_site_fract_x
 _atom_site_fract_y
 _atom_site_fract_z
 _atom_site_occupancy
  Ac  Ac0  1  0.250000  0.357738  0.685505  1
  Ac  Ac1  1  0.250000  0.136867  0.175917  1
  Ac  Ac2  1  0.750000  0.640821  0.317677  1
  Yb  Yb3  1  0.750000  0.858710  0.816575  1
  Pd  Pd4  1  0.250000  0.851255  0.551972  1
  Pd  Pd5  1  0.250000  0.651217  0.037195  1
  Pd  Pd6  1  0.750000  0.145018  0.461952  1
  Pd  Pd7  1  0.750000  0.358373  0.953208  1
