# generated using pymatgen
data_Li27Mg2Si8Hg
_symmetry_space_group_name_H-M   'P 1'
_cell_length_a   9.20884817
_cell_length_b   9.19545842
_cell_length_c   9.19629340
_cell_angle_alpha   109.45348834
_cell_angle_beta   109.55729121
_cell_angle_gamma   109.40674669
_symmetry_Int_Tables_number   1
_chemical_formula_structural   Li27Mg2Si8Hg
_chemical_formula_sum   'Li27 Mg2 Si8 Hg1'
_cell_volume   599.44359299
_cell_formula_units_Z   1
loop_
 _symmetry_equiv_pos_site_id
 _symmetry_equiv_pos_as_xyz
  1  'x, y, z'
loop_
 _atom_site_type_symbol
 _atom_site_label
 _atom_site_symmetry_multiplicity
 _atom_site_fract_x
 _atom_site_fract_y
 _atom_site_fract_z
 _atom_site_occupancy
  Li  Li0  1  0.259611  0.786115  0.714943  1
  Li  Li1  1  0.183888  0.960925  0.972523  1
  Li  Li2  1  0.987021  0.208826  0.025926  1
  Li  Li3  1  0.040352  0.013071  0.222843  1
  Li  Li4  1  0.789051  0.816154  0.776789  1
  Li  Li5  1  0.454549  0.736536  0.526618  1
  Li  Li6  1  0.213308  0.931166  0.474485  1
  Li  Li7  1  0.717874  0.342818  0.058749  1
  Li  Li8  1  0.965375  0.404276  0.872698  1
  Li  Li9  1  0.286326  0.660316  0.938934  1
  Li  Li10  1  0.530245  0.091494  0.126793  1
  Li  Li11  1  0.687374  0.857428  0.086298  1
  Li  Li12  1  0.483932  0.893050  0.333925  1
  Li  Li13  1  0.558958  0.149605  0.667642  1
  Li  Li14  1  0.768633  0.599738  0.907981  1
  Li  Li15  1  0.847140  0.518156  0.411612  1
  Li  Li16  1  0.400311  0.308024  0.168247  1
  Li  Li17  1  0.140257  0.230081  0.830134  1
  Li  Li18  1  0.108827  0.444007  0.588398  1
  Li  Li19  1  0.913081  0.039451  0.445574  1
  Li  Li20  1  0.339757  0.278183  0.624427  1
  Li  Li21  1  0.595664  0.467606  0.560960  1
  Li  Li22  1  0.653341  0.713880  0.377365  1
  Li  Li23  1  0.000623  0.876474  0.628918  1
  Li  Li24  1  0.251685  0.375528  0.376986  1
  Li  Li25  1  0.127336  0.754681  0.123400  1
  Li  Li26  1  0.622879  0.998353  0.871906  1
  Mg  Mg27  1  0.499119  0.493557  0.992769  1
  Mg  Mg28  1  0.749782  0.251012  0.502211  1
  Si  Si29  1  0.297337  0.537348  0.163576  1
  Si  Si30  1  0.372726  0.126821  0.834140  1
  Si  Si31  1  0.955922  0.623088  0.747012  1
  Si  Si32  1  0.875082  0.206200  0.253446  1
  Si  Si33  1  0.377353  0.122273  0.333715  1
  Si  Si34  1  0.788806  0.043679  0.666895  1
  Si  Si35  1  0.461878  0.625814  0.755453  1
  Si  Si36  1  0.868216  0.709403  0.244895  1
  Hg  Hg37  1  0.076381  0.554863  0.290815  1
