# generated using pymatgen
data_Rh(O2F7)2
_symmetry_space_group_name_H-M   'P 1'
_cell_length_a   12.67110800
_cell_length_b   6.48583809
_cell_length_c   8.69551646
_cell_angle_alpha   68.84308412
_cell_angle_beta   90.00000000
_cell_angle_gamma   90.00000000
_symmetry_Int_Tables_number   1
_chemical_formula_structural   Rh(O2F7)2
_chemical_formula_sum   'Rh2 O8 F28'
_cell_volume   666.45276812
_cell_formula_units_Z   2
loop_
 _symmetry_equiv_pos_site_id
 _symmetry_equiv_pos_as_xyz
  1  'x, y, z'
loop_
 _atom_site_type_symbol
 _atom_site_label
 _atom_site_symmetry_multiplicity
 _atom_site_fract_x
 _atom_site_fract_y
 _atom_site_fract_z
 _atom_site_occupancy
  Rh  Rh0  1  0.500000  0.500000  0.500000  1
  Rh  Rh1  1  0.000000  0.500000  0.000000  1
  O  O2  1  0.367346  0.778714  0.908762  1
  O  O3  1  0.632654  0.221286  0.091238  1
  O  O4  1  0.867346  0.221286  0.591238  1
  O  O5  1  0.132654  0.778714  0.408762  1
  O  O6  1  0.733830  0.748434  0.875294  1
  O  O7  1  0.266170  0.251566  0.124706  1
  O  O8  1  0.233830  0.251566  0.624706  1
  O  O9  1  0.766170  0.748434  0.375294  1
  F  F10  1  0.446297  0.856382  0.785470  1
  F  F11  1  0.553703  0.143618  0.214530  1
  F  F12  1  0.946297  0.143618  0.714530  1
  F  F13  1  0.053703  0.856382  0.285470  1
  F  F14  1  0.436112  0.767002  0.488159  1
  F  F15  1  0.563888  0.232998  0.511841  1
  F  F16  1  0.936112  0.232998  0.011841  1
  F  F17  1  0.063888  0.767002  0.988159  1
  F  F18  1  0.429252  0.350571  0.700045  1
  F  F19  1  0.570748  0.649429  0.299955  1
  F  F20  1  0.929252  0.649429  0.799955  1
  F  F21  1  0.070748  0.350571  0.200045  1
  F  F22  1  0.088543  0.804637  0.551133  1
  F  F23  1  0.911457  0.195363  0.448867  1
  F  F24  1  0.588543  0.195363  0.948867  1
  F  F25  1  0.411457  0.804637  0.051133  1
  F  F26  1  0.345967  0.293789  0.001816  1
  F  F27  1  0.654033  0.706211  0.998184  1
  F  F28  1  0.845967  0.706211  0.498184  1
  F  F29  1  0.154033  0.293789  0.501816  1
  F  F30  1  0.114242  0.445435  0.881199  1
  F  F31  1  0.885758  0.554565  0.118801  1
  F  F32  1  0.614242  0.554565  0.618801  1
  F  F33  1  0.385758  0.445435  0.381199  1
  F  F34  1  0.187437  0.097716  0.769838  1
  F  F35  1  0.812563  0.902284  0.230162  1
  F  F36  1  0.687437  0.902284  0.730162  1
  F  F37  1  0.312563  0.097716  0.269838  1
