# generated using pymatgen
data_La2SnPdI2
_symmetry_space_group_name_H-M   'P 1'
_cell_length_a   4.65221400
_cell_length_b   4.65221406
_cell_length_c   12.17536800
_cell_angle_alpha   90.00000000
_cell_angle_beta   90.00000000
_cell_angle_gamma   120.00001379
_symmetry_Int_Tables_number   1
_chemical_formula_structural   La2SnPdI2
_chemical_formula_sum   'La2 Sn1 Pd1 I2'
_cell_volume   228.20861821
_cell_formula_units_Z   1
loop_
 _symmetry_equiv_pos_site_id
 _symmetry_equiv_pos_as_xyz
  1  'x, y, z'
loop_
 _atom_site_type_symbol
 _atom_site_label
 _atom_site_symmetry_multiplicity
 _atom_site_fract_x
 _atom_site_fract_y
 _atom_site_fract_z
 _atom_site_occupancy
  La  La0  1  0.000000  0.000000  0.163086  1
  La  La1  1  0.000000  0.000000  0.841210  1
  Sn  Sn2  1  0.666667  0.333333  0.010651  1
  Pd  Pd3  1  0.333333  0.666667  0.988753  1
  I  I4  1  0.666667  0.333333  0.669610  1
  I  I5  1  0.333333  0.666667  0.326690  1
