# generated using pymatgen
data_Cs8Ga11I
_symmetry_space_group_name_H-M   'P 1'
_cell_length_a   10.33125693
_cell_length_b   10.33125845
_cell_length_c   18.28608917
_cell_angle_alpha   90.00000025
_cell_angle_beta   106.40884612
_cell_angle_gamma   59.99999711
_symmetry_Int_Tables_number   1
_chemical_formula_structural   Cs8Ga11I
_chemical_formula_sum   'Cs16 Ga22 I2'
_cell_volume   1597.82534073
_cell_formula_units_Z   2
loop_
 _symmetry_equiv_pos_site_id
 _symmetry_equiv_pos_as_xyz
  1  'x, y, z'
loop_
 _atom_site_type_symbol
 _atom_site_label
 _atom_site_symmetry_multiplicity
 _atom_site_fract_x
 _atom_site_fract_y
 _atom_site_fract_z
 _atom_site_occupancy
  Cs  Cs0  1  0.970314  0.678113  0.070691  1
  Cs  Cs1  1  0.748805  0.351572  0.070691  1
  Cs  Cs2  1  0.422264  0.899623  0.070691  1
  Cs  Cs3  1  0.150915  0.924542  0.226372  1
  Cs  Cs4  1  0.849086  0.575458  0.273628  1
  Cs  Cs5  1  0.577736  0.821886  0.429309  1
  Cs  Cs6  1  0.251196  0.600376  0.429309  1
  Cs  Cs7  1  0.029686  0.148428  0.429309  1
  Cs  Cs8  1  0.970314  0.851572  0.570691  1
  Cs  Cs9  1  0.748805  0.399623  0.570691  1
  Cs  Cs10  1  0.422264  0.178113  0.570691  1
  Cs  Cs11  1  0.150914  0.424542  0.726372  1
  Cs  Cs12  1  0.849086  0.075457  0.773628  1
  Cs  Cs13  1  0.577736  0.100377  0.929309  1
  Cs  Cs14  1  0.251196  0.648428  0.929309  1
  Cs  Cs15  1  0.029686  0.321886  0.929309  1
  Ga  Ga16  1  0.412565  0.293717  0.118847  1
  Ga  Ga17  1  0.694883  0.030506  0.169646  1
  Ga  Ga18  1  0.444257  0.525237  0.169646  1
  Ga  Ga19  1  0.200151  0.274611  0.169646  1
  Ga  Ga20  1  0.685950  0.250001  0.250000  1
  Ga  Ga21  1  0.500000  0.064049  0.250000  1
  Ga  Ga22  1  0.314050  0.435951  0.250000  1
  Ga  Ga23  1  0.799848  0.974762  0.330354  1
  Ga  Ga24  1  0.555743  0.469495  0.330354  1
  Ga  Ga25  1  0.305117  0.225389  0.330354  1
  Ga  Ga26  1  0.587435  0.206282  0.381152  1
  Ga  Ga27  1  0.412565  0.793717  0.618848  1
  Ga  Ga28  1  0.694883  0.774611  0.669646  1
  Ga  Ga29  1  0.444257  0.530505  0.669646  1
  Ga  Ga30  1  0.200152  0.025237  0.669646  1
  Ga  Ga31  1  0.685950  0.564050  0.750000  1
  Ga  Ga32  1  0.500000  0.935950  0.750000  1
  Ga  Ga33  1  0.314050  0.750000  0.750000  1
  Ga  Ga34  1  0.799849  0.725389  0.830354  1
  Ga  Ga35  1  0.555743  0.474762  0.830354  1
  Ga  Ga36  1  0.305117  0.969494  0.830354  1
  Ga  Ga37  1  0.587435  0.706283  0.881152  1
  I  I38  1  0.000000  0.000000  0.000000  1
  I  I39  1  0.000000  0.500000  0.500000  1
