# generated using pymatgen
data_Nb3VSi3Os2
_symmetry_space_group_name_H-M   'P 1'
_cell_length_a   7.50988289
_cell_length_b   7.50988346
_cell_length_c   7.50988376
_cell_angle_alpha   127.09402348
_cell_angle_beta   124.35923149
_cell_angle_gamma   80.35724690
_symmetry_Int_Tables_number   1
_chemical_formula_structural   Nb3VSi3Os2
_chemical_formula_sum   'Nb6 V2 Si6 Os4'
_cell_volume   269.10691570
_cell_formula_units_Z   2
loop_
 _symmetry_equiv_pos_site_id
 _symmetry_equiv_pos_as_xyz
  1  'x, y, z'
loop_
 _atom_site_type_symbol
 _atom_site_label
 _atom_site_symmetry_multiplicity
 _atom_site_fract_x
 _atom_site_fract_y
 _atom_site_fract_z
 _atom_site_occupancy
  Nb  Nb0  1  0.561442  0.096593  0.035150  1
  Nb  Nb1  1  0.438558  0.473709  0.535150  1
  Nb  Nb2  1  0.959923  0.487255  0.027334  1
  Nb  Nb3  1  0.040077  0.067410  0.527334  1
  Nb  Nb4  1  0.754416  0.922478  0.668061  1
  Nb  Nb5  1  0.245584  0.913645  0.168061  1
  V  V6  1  0.500000  0.249632  0.749632  1
  V  V7  1  0.000000  0.249632  0.249632  1
  Si  Si8  1  0.780153  0.545155  0.265002  1
  Si  Si9  1  0.219847  0.484849  0.765002  1
  Si  Si10  1  0.338249  0.822806  0.497940  1
  Si  Si11  1  0.661751  0.159691  0.484557  1
  Si  Si12  1  0.824866  0.822806  0.984557  1
  Si  Si13  1  0.175134  0.159691  0.997940  1
  Os  Os14  1  0.163568  0.748027  0.658965  1
  Os  Os15  1  0.836432  0.495397  0.584459  1
  Os  Os16  1  0.589063  0.748027  0.084459  1
  Os  Os17  1  0.410937  0.495397  0.158965  1
