# generated using pymatgen
data_Th8Nb12Si15Ge
_symmetry_space_group_name_H-M   'P 1'
_cell_length_a   7.04853089
_cell_length_b   7.25680591
_cell_length_c   13.62382742
_cell_angle_alpha   90.03288079
_cell_angle_beta   89.91564010
_cell_angle_gamma   90.02694425
_symmetry_Int_Tables_number   1
_chemical_formula_structural   Th8Nb12Si15Ge
_chemical_formula_sum   'Th8 Nb12 Si15 Ge1'
_cell_volume   696.85538230
_cell_formula_units_Z   1
loop_
 _symmetry_equiv_pos_site_id
 _symmetry_equiv_pos_as_xyz
  1  'x, y, z'
loop_
 _atom_site_type_symbol
 _atom_site_label
 _atom_site_symmetry_multiplicity
 _atom_site_fract_x
 _atom_site_fract_y
 _atom_site_fract_z
 _atom_site_occupancy
  Th  Th0  1  0.500432  0.330505  0.095813  1
  Th  Th1  1  0.999315  0.169358  0.403491  1
  Th  Th2  1  0.502982  0.671469  0.596599  1
  Th  Th3  1  0.999338  0.830598  0.904544  1
  Th  Th4  1  0.499486  0.669655  0.904348  1
  Th  Th5  1  0.999865  0.831174  0.595911  1
  Th  Th6  1  0.500974  0.329327  0.403098  1
  Th  Th7  1  0.000570  0.169865  0.095633  1
  Nb  Nb8  1  0.663345  0.007284  0.750299  1
  Nb  Nb9  1  0.163561  0.492259  0.751670  1
  Nb  Nb10  1  0.336403  0.992674  0.249835  1
  Nb  Nb11  1  0.836829  0.507642  0.249746  1
  Nb  Nb12  1  0.835195  0.326897  0.625602  1
  Nb  Nb13  1  0.337246  0.171679  0.875271  1
  Nb  Nb14  1  0.162469  0.672540  0.124804  1
  Nb  Nb15  1  0.661881  0.828527  0.374573  1
  Nb  Nb16  1  0.160848  0.674949  0.373195  1
  Nb  Nb17  1  0.662009  0.827688  0.124988  1
  Nb  Nb18  1  0.837288  0.327382  0.875207  1
  Nb  Nb19  1  0.340193  0.168007  0.626364  1
  Si  Si20  1  0.802264  0.614031  0.750407  1
  Si  Si21  1  0.301129  0.884514  0.750642  1
  Si  Si22  1  0.198566  0.386215  0.249876  1
  Si  Si23  1  0.698537  0.114169  0.249358  1
  Si  Si24  1  0.540801  0.369466  0.750349  1
  Si  Si25  1  0.040925  0.131001  0.750039  1
  Si  Si26  1  0.458654  0.630694  0.249853  1
  Si  Si27  1  0.958269  0.869690  0.249307  1
  Si  Si28  1  0.660889  0.043677  0.543016  1
  Si  Si29  1  0.159955  0.456816  0.956531  1
  Si  Si30  1  0.339985  0.956908  0.043606  1
  Si  Si31  1  0.836310  0.544599  0.455279  1
  Si  Si32  1  0.339273  0.956288  0.456695  1
  Si  Si33  1  0.840055  0.543187  0.043633  1
  Si  Si34  1  0.659643  0.043120  0.956566  1
  Ge  Ge35  1  0.164512  0.456150  0.543851  1
