# generated using pymatgen
data_Sc3Ni8Ir
_symmetry_space_group_name_H-M   'P 1'
_cell_length_a   4.79725928
_cell_length_b   4.79725936
_cell_length_c   8.57875038
_cell_angle_alpha   73.76359793
_cell_angle_beta   73.76358621
_cell_angle_gamma   60.00000221
_symmetry_Int_Tables_number   1
_chemical_formula_structural   Sc3Ni8Ir
_chemical_formula_sum   'Sc3 Ni8 Ir1'
_cell_volume   161.82212830
_cell_formula_units_Z   1
loop_
 _symmetry_equiv_pos_site_id
 _symmetry_equiv_pos_as_xyz
  1  'x, y, z'
loop_
 _atom_site_type_symbol
 _atom_site_label
 _atom_site_symmetry_multiplicity
 _atom_site_fract_x
 _atom_site_fract_y
 _atom_site_fract_z
 _atom_site_occupancy
  Sc  Sc0  1  0.138391  0.138391  0.584830  1
  Sc  Sc1  1  0.861609  0.861609  0.415170  1
  Sc  Sc2  1  0.000000  0.000000  0.000000  1
  Ni  Ni3  1  0.077193  0.583180  0.756446  1
  Ni  Ni4  1  0.583180  0.583180  0.756446  1
  Ni  Ni5  1  0.583180  0.077193  0.756446  1
  Ni  Ni6  1  0.922807  0.416820  0.243554  1
  Ni  Ni7  1  0.416820  0.416820  0.243554  1
  Ni  Ni8  1  0.416820  0.922807  0.243554  1
  Ni  Ni9  1  0.333629  0.333629  0.999112  1
  Ni  Ni10  1  0.666371  0.666371  0.000888  1
  Ir  Ir11  1  0.500000  0.500000  0.500000  1
