# generated using pymatgen
data_Zr6Zn17Ir6Se
_symmetry_space_group_name_H-M   'P 1'
_cell_length_a   8.82902840
_cell_length_b   8.82902790
_cell_length_c   8.82902900
_cell_angle_alpha   59.99999963
_cell_angle_beta   60.00000150
_cell_angle_gamma   59.99999913
_symmetry_Int_Tables_number   1
_chemical_formula_structural   Zr6Zn17Ir6Se
_chemical_formula_sum   'Zr6 Zn17 Ir6 Se1'
_cell_volume   486.65786823
_cell_formula_units_Z   1
loop_
 _symmetry_equiv_pos_site_id
 _symmetry_equiv_pos_as_xyz
  1  'x, y, z'
loop_
 _atom_site_type_symbol
 _atom_site_label
 _atom_site_symmetry_multiplicity
 _atom_site_fract_x
 _atom_site_fract_y
 _atom_site_fract_z
 _atom_site_occupancy
  Zr  Zr0  1  0.719547  0.280453  0.280453  1
  Zr  Zr1  1  0.280453  0.719547  0.719547  1
  Zr  Zr2  1  0.280453  0.719547  0.280453  1
  Zr  Zr3  1  0.719547  0.280453  0.719547  1
  Zr  Zr4  1  0.280453  0.280453  0.719547  1
  Zr  Zr5  1  0.719547  0.719547  0.280453  1
  Zn  Zn6  1  0.123912  0.123912  0.123912  1
  Zn  Zn7  1  0.876088  0.876088  0.876088  1
  Zn  Zn8  1  0.123912  0.123912  0.628265  1
  Zn  Zn9  1  0.123912  0.628265  0.123912  1
  Zn  Zn10  1  0.876088  0.876088  0.371735  1
  Zn  Zn11  1  0.876088  0.371735  0.876088  1
  Zn  Zn12  1  0.628265  0.123912  0.123912  1
  Zn  Zn13  1  0.371735  0.876088  0.876088  1
  Zn  Zn14  1  0.338353  0.338353  0.338353  1
  Zn  Zn15  1  0.661647  0.661647  0.661647  1
  Zn  Zn16  1  0.338353  0.338353  0.984943  1
  Zn  Zn17  1  0.338353  0.984943  0.338353  1
  Zn  Zn18  1  0.661647  0.661647  0.015057  1
  Zn  Zn19  1  0.661647  0.015057  0.661647  1
  Zn  Zn20  1  0.984943  0.338353  0.338353  1
  Zn  Zn21  1  0.015057  0.661647  0.661647  1
  Zn  Zn22  1  0.000000  0.000000  0.000000  1
  Ir  Ir23  1  0.500000  0.000000  0.000000  1
  Ir  Ir24  1  0.000000  0.500000  0.500000  1
  Ir  Ir25  1  0.000000  0.500000  0.000000  1
  Ir  Ir26  1  0.500000  0.000000  0.500000  1
  Ir  Ir27  1  0.000000  0.000000  0.500000  1
  Ir  Ir28  1  0.500000  0.500000  0.000000  1
  Se  Se29  1  0.500000  0.500000  0.500000  1
