# generated using pymatgen
data_Pr3NdTl4
_symmetry_space_group_name_H-M   'P 1'
_cell_length_a   6.77533559
_cell_length_b   6.77533601
_cell_length_c   11.24120700
_cell_angle_alpha   90.00000000
_cell_angle_beta   90.00000000
_cell_angle_gamma   109.58277574
_symmetry_Int_Tables_number   1
_chemical_formula_structural   Pr3NdTl4
_chemical_formula_sum   'Pr6 Nd2 Tl8'
_cell_volume   486.18152540
_cell_formula_units_Z   2
loop_
 _symmetry_equiv_pos_site_id
 _symmetry_equiv_pos_as_xyz
  1  'x, y, z'
loop_
 _atom_site_type_symbol
 _atom_site_label
 _atom_site_symmetry_multiplicity
 _atom_site_fract_x
 _atom_site_fract_y
 _atom_site_fract_z
 _atom_site_occupancy
  Pr  Pr0  1  0.505665  0.505665  0.250000  1
  Pr  Pr1  1  0.494335  0.494335  0.750000  1
  Pr  Pr2  1  0.247723  0.752277  0.500000  1
  Pr  Pr3  1  0.247723  0.752277  0.000000  1
  Pr  Pr4  1  0.752277  0.247723  0.500000  1
  Pr  Pr5  1  0.752277  0.247723  0.000000  1
  Nd  Nd6  1  0.993912  0.993912  0.250000  1
  Nd  Nd7  1  0.006088  0.006088  0.750000  1
  Tl  Tl8  1  0.251478  0.251478  0.003889  1
  Tl  Tl9  1  0.748522  0.748522  0.996111  1
  Tl  Tl10  1  0.251478  0.251478  0.496111  1
  Tl  Tl11  1  0.748522  0.748522  0.503889  1
  Tl  Tl12  1  0.495752  0.003289  0.250000  1
  Tl  Tl13  1  0.996711  0.504248  0.750000  1
  Tl  Tl14  1  0.504248  0.996711  0.750000  1
  Tl  Tl15  1  0.003289  0.495752  0.250000  1
