# generated using pymatgen
data_Dy11Y5Cd3Ni4Ag
_symmetry_space_group_name_H-M   'P 1'
_cell_length_a   9.51323086
_cell_length_b   9.51617640
_cell_length_c   9.51617524
_cell_angle_alpha   60.18211347
_cell_angle_beta   60.17999760
_cell_angle_gamma   60.17999118
_symmetry_Int_Tables_number   1
_chemical_formula_structural   Dy11Y5Cd3Ni4Ag
_chemical_formula_sum   'Dy11 Y5 Cd3 Ni4 Ag1'
_cell_volume   611.66209196
_cell_formula_units_Z   1
loop_
 _symmetry_equiv_pos_site_id
 _symmetry_equiv_pos_as_xyz
  1  'x, y, z'
loop_
 _atom_site_type_symbol
 _atom_site_label
 _atom_site_symmetry_multiplicity
 _atom_site_fract_x
 _atom_site_fract_y
 _atom_site_fract_z
 _atom_site_occupancy
  Dy  Dy0  1  0.595967  0.596393  0.596393  1
  Dy  Dy1  1  0.600399  0.600482  0.199721  1
  Dy  Dy2  1  0.600399  0.199721  0.600482  1
  Dy  Dy3  1  0.199820  0.600503  0.600503  1
  Dy  Dy4  1  0.062450  0.440122  0.440122  1
  Dy  Dy5  1  0.438708  0.061818  0.061818  1
  Dy  Dy6  1  0.439827  0.062403  0.440239  1
  Dy  Dy7  1  0.061949  0.438892  0.061736  1
  Dy  Dy8  1  0.439827  0.440239  0.062403  1
  Dy  Dy9  1  0.061949  0.061736  0.438892  1
  Dy  Dy10  1  0.185056  0.812636  0.812636  1
  Y  Y11  1  0.811741  0.186927  0.186927  1
  Y  Y12  1  0.813116  0.184884  0.812781  1
  Y  Y13  1  0.186732  0.812008  0.186551  1
  Y  Y14  1  0.813116  0.812781  0.184884  1
  Y  Y15  1  0.186732  0.186551  0.812008  1
  Cd  Cd16  1  0.831178  0.831065  0.507468  1
  Cd  Cd17  1  0.831178  0.507468  0.831065  1
  Cd  Cd18  1  0.507281  0.831159  0.831159  1
  Ni  Ni19  1  0.394049  0.394097  0.394097  1
  Ni  Ni20  1  0.391453  0.391631  0.822807  1
  Ni  Ni21  1  0.391453  0.822807  0.391631  1
  Ni  Ni22  1  0.822836  0.391423  0.391423  1
  Ag  Ag23  1  0.832783  0.832257  0.832257  1
