# generated using pymatgen
data_NaDy9Se10
_symmetry_space_group_name_H-M   'P 1'
_cell_length_a   7.04132244
_cell_length_b   8.17627731
_cell_length_c   9.18950402
_cell_angle_alpha   103.49678847
_cell_angle_beta   97.06527840
_cell_angle_gamma   106.64640968
_symmetry_Int_Tables_number   1
_chemical_formula_structural   NaDy9Se10
_chemical_formula_sum   'Na1 Dy9 Se10'
_cell_volume   482.54190522
_cell_formula_units_Z   1
loop_
 _symmetry_equiv_pos_site_id
 _symmetry_equiv_pos_as_xyz
  1  'x, y, z'
loop_
 _atom_site_type_symbol
 _atom_site_label
 _atom_site_symmetry_multiplicity
 _atom_site_fract_x
 _atom_site_fract_y
 _atom_site_fract_z
 _atom_site_occupancy
  Na  Na0  1  0.000000  0.500000  0.000000  1
  Dy  Dy1  1  0.798670  0.601201  0.599698  1
  Dy  Dy2  1  0.603680  0.201582  0.207832  1
  Dy  Dy3  1  0.396320  0.798418  0.792168  1
  Dy  Dy4  1  0.601400  0.705746  0.207405  1
  Dy  Dy5  1  0.201330  0.398799  0.400302  1
  Dy  Dy6  1  0.398600  0.294254  0.792595  1
  Dy  Dy7  1  0.000000  0.000000  0.000000  1
  Dy  Dy8  1  0.203473  0.903323  0.406671  1
  Dy  Dy9  1  0.796527  0.096677  0.593329  1
  Se  Se10  1  0.695132  0.649958  0.902153  1
  Se  Se11  1  0.501792  0.252069  0.500126  1
  Se  Se12  1  0.698310  0.149035  0.901371  1
  Se  Se13  1  0.301690  0.850965  0.098629  1
  Se  Se14  1  0.498208  0.747931  0.499874  1
  Se  Se15  1  0.096568  0.448399  0.700169  1
  Se  Se16  1  0.304868  0.350042  0.097847  1
  Se  Se17  1  0.905372  0.050023  0.298399  1
  Se  Se18  1  0.094628  0.949977  0.701601  1
  Se  Se19  1  0.903432  0.551601  0.299831  1
