# generated using pymatgen
data_Y4Si8Tc5Ru
_symmetry_space_group_name_H-M   'P 1'
_cell_length_a   6.78987905
_cell_length_b   6.84057922
_cell_length_c   6.77539573
_cell_angle_alpha   69.63209281
_cell_angle_beta   89.79044662
_cell_angle_gamma   89.52152263
_symmetry_Int_Tables_number   1
_chemical_formula_structural   Y4Si8Tc5Ru
_chemical_formula_sum   'Y4 Si8 Tc5 Ru1'
_cell_volume   295.00879233
_cell_formula_units_Z   1
loop_
 _symmetry_equiv_pos_site_id
 _symmetry_equiv_pos_as_xyz
  1  'x, y, z'
loop_
 _atom_site_type_symbol
 _atom_site_label
 _atom_site_symmetry_multiplicity
 _atom_site_fract_x
 _atom_site_fract_y
 _atom_site_fract_z
 _atom_site_occupancy
  Y  Y0  1  0.171586  0.944674  0.190456  1
  Y  Y1  1  0.331690  0.439172  0.192528  1
  Y  Y2  1  0.834854  0.060887  0.807643  1
  Y  Y3  1  0.669860  0.556405  0.809806  1
  Si  Si4  1  0.564554  0.111203  0.111010  1
  Si  Si5  1  0.351469  0.627031  0.521874  1
  Si  Si6  1  0.850130  0.872764  0.472097  1
  Si  Si7  1  0.058218  0.385343  0.894470  1
  Si  Si8  1  0.138703  0.132122  0.509859  1
  Si  Si9  1  0.640005  0.367976  0.491226  1
  Si  Si10  1  0.947681  0.630294  0.102714  1
  Si  Si11  1  0.450639  0.873772  0.897515  1
  Tc  Tc12  1  0.851648  0.255279  0.246545  1
  Tc  Tc13  1  0.352101  0.247260  0.755375  1
  Tc  Tc14  1  0.148317  0.766865  0.766133  1
  Tc  Tc15  1  0.500100  0.991290  0.499672  1
  Tc  Tc16  1  0.000343  0.511968  0.500257  1
  Ru  Ru17  1  0.638099  0.725697  0.230820  1
