# generated using pymatgen
data_Ho4Zr3TcF28
_symmetry_space_group_name_H-M   'P 1'
_cell_length_a   5.67589097
_cell_length_b   9.02010632
_cell_length_c   12.16606377
_cell_angle_alpha   62.58635434
_cell_angle_beta   90.00109349
_cell_angle_gamma   90.03174540
_symmetry_Int_Tables_number   1
_chemical_formula_structural   Ho4Zr3TcF28
_chemical_formula_sum   'Ho4 Zr3 Tc1 F28'
_cell_volume   552.92311306
_cell_formula_units_Z   1
loop_
 _symmetry_equiv_pos_site_id
 _symmetry_equiv_pos_as_xyz
  1  'x, y, z'
loop_
 _atom_site_type_symbol
 _atom_site_label
 _atom_site_symmetry_multiplicity
 _atom_site_fract_x
 _atom_site_fract_y
 _atom_site_fract_z
 _atom_site_occupancy
  Ho  Ho0  1  0.755998  0.813976  0.766032  1
  Ho  Ho1  1  0.257117  0.183742  0.737813  1
  Ho  Ho2  1  0.242751  0.184213  0.233171  1
  Ho  Ho3  1  0.743181  0.817588  0.264627  1
  Zr  Zr4  1  0.256104  0.725297  0.544054  1
  Zr  Zr5  1  0.244215  0.725897  0.043241  1
  Zr  Zr6  1  0.743202  0.273535  0.456778  1
  Tc  Tc7  1  0.758443  0.273233  0.956329  1
  F  F8  1  0.458111  0.709355  0.915797  1
  F  F9  1  0.955602  0.290131  0.585331  1
  F  F10  1  0.549587  0.291278  0.078241  1
  F  F11  1  0.042651  0.708479  0.416190  1
  F  F12  1  0.440576  0.272698  0.549869  1
  F  F13  1  0.941855  0.723876  0.951212  1
  F  F14  1  0.558747  0.726347  0.450691  1
  F  F15  1  0.044099  0.276959  0.048193  1
  F  F16  1  0.773038  0.518194  0.860508  1
  F  F17  1  0.279339  0.471952  0.642354  1
  F  F18  1  0.227269  0.472376  0.140152  1
  F  F19  1  0.721497  0.527120  0.358728  1
  F  F20  1  0.756942  0.029088  0.053366  1
  F  F21  1  0.259256  0.978144  0.440409  1
  F  F22  1  0.241515  0.978874  0.941393  1
  F  F23  1  0.741651  0.020568  0.558890  1
  F  F24  1  0.974913  0.730040  0.646725  1
  F  F25  1  0.484598  0.269134  0.858361  1
  F  F26  1  0.025151  0.268422  0.354221  1
  F  F27  1  0.526271  0.734412  0.144014  1
  F  F28  1  0.038385  0.750080  0.173095  1
  F  F29  1  0.539970  0.251903  0.324416  1
  F  F30  1  0.961448  0.255040  0.830569  1
  F  F31  1  0.459626  0.747867  0.674922  1
  F  F32  1  0.423458  0.971989  0.232489  1
  F  F33  1  0.924514  0.028168  0.267010  1
  F  F34  1  0.574603  0.027602  0.766145  1
  F  F35  1  0.074316  0.972420  0.734666  1
