# generated using pymatgen
data_Ca9Pr11Pb16
_symmetry_space_group_name_H-M   'P 1'
_cell_length_a   8.16255402
_cell_length_b   8.68189349
_cell_length_c   16.35543780
_cell_angle_alpha   89.98688726
_cell_angle_beta   89.87971756
_cell_angle_gamma   90.06608768
_symmetry_Int_Tables_number   1
_chemical_formula_structural   Ca9Pr11Pb16
_chemical_formula_sum   'Ca9 Pr11 Pb16'
_cell_volume   1159.04804477
_cell_formula_units_Z   1
loop_
 _symmetry_equiv_pos_site_id
 _symmetry_equiv_pos_as_xyz
  1  'x, y, z'
loop_
 _atom_site_type_symbol
 _atom_site_label
 _atom_site_symmetry_multiplicity
 _atom_site_fract_x
 _atom_site_fract_y
 _atom_site_fract_z
 _atom_site_occupancy
  Ca  Ca0  1  0.669199  0.164355  0.621881  1
  Ca  Ca1  1  0.169053  0.335581  0.877340  1
  Ca  Ca2  1  0.332142  0.834865  0.122820  1
  Ca  Ca3  1  0.829250  0.664808  0.376826  1
  Ca  Ca4  1  0.333998  0.833259  0.376834  1
  Ca  Ca5  1  0.835645  0.501445  0.749905  1
  Ca  Ca6  1  0.336258  0.998996  0.749882  1
  Ca  Ca7  1  0.164130  0.500577  0.251306  1
  Ca  Ca8  1  0.663713  0.999731  0.251089  1
  Pr  Pr9  1  0.835965  0.670450  0.125182  1
  Pr  Pr10  1  0.665816  0.170291  0.876130  1
  Pr  Pr11  1  0.165621  0.331181  0.623754  1
  Pr  Pr12  1  0.503685  0.688581  0.593552  1
  Pr  Pr13  1  0.004952  0.813509  0.905225  1
  Pr  Pr14  1  0.493726  0.312844  0.094596  1
  Pr  Pr15  1  0.995249  0.186904  0.403856  1
  Pr  Pr16  1  0.495906  0.312372  0.405777  1
  Pr  Pr17  1  0.999915  0.185132  0.095337  1
  Pr  Pr18  1  0.502535  0.685255  0.906210  1
  Pr  Pr19  1  0.003309  0.814103  0.594365  1
  Pb  Pb20  1  0.679934  0.961875  0.458966  1
  Pb  Pb21  1  0.181568  0.537822  0.040808  1
  Pb  Pb22  1  0.318828  0.037601  0.959094  1
  Pb  Pb23  1  0.819474  0.463443  0.540600  1
  Pb  Pb24  1  0.322075  0.036714  0.538912  1
  Pb  Pb25  1  0.820728  0.462596  0.961326  1
  Pb  Pb26  1  0.680857  0.962652  0.039951  1
  Pb  Pb27  1  0.176929  0.537444  0.459382  1
  Pb  Pb28  1  0.469271  0.391836  0.748403  1
  Pb  Pb29  1  0.969797  0.106026  0.750633  1
  Pb  Pb30  1  0.529516  0.604788  0.249034  1
  Pb  Pb31  1  0.032208  0.891929  0.251157  1
  Pb  Pb32  1  0.703683  0.852877  0.751252  1
  Pb  Pb33  1  0.204936  0.647541  0.749551  1
  Pb  Pb34  1  0.295259  0.147520  0.250243  1
  Pb  Pb35  1  0.794872  0.353097  0.248821  1
