# generated using pymatgen
data_Nd3Cd2CuHgAu2
_symmetry_space_group_name_H-M   'P 1'
_cell_length_a   7.97219000
_cell_length_b   7.94446210
_cell_length_c   3.93607800
_cell_angle_alpha   90.00000000
_cell_angle_beta   90.00000000
_cell_angle_gamma   120.11552277
_symmetry_Int_Tables_number   1
_chemical_formula_structural   Nd3Cd2CuHgAu2
_chemical_formula_sum   'Nd3 Cd2 Cu1 Hg1 Au2'
_cell_volume   215.64020347
_cell_formula_units_Z   1
loop_
 _symmetry_equiv_pos_site_id
 _symmetry_equiv_pos_as_xyz
  1  'x, y, z'
loop_
 _atom_site_type_symbol
 _atom_site_label
 _atom_site_symmetry_multiplicity
 _atom_site_fract_x
 _atom_site_fract_y
 _atom_site_fract_z
 _atom_site_occupancy
  Nd  Nd0  1  0.586245  0.000000  0.000000  1
  Nd  Nd1  1  0.004413  0.597216  0.000000  1
  Nd  Nd2  1  0.407197  0.402784  0.000000  1
  Cd  Cd3  1  0.996804  0.243376  0.500000  1
  Cd  Cd4  1  0.753428  0.756624  0.500000  1
  Cu  Cu5  1  0.997296  0.000000  0.000000  1
  Hg  Hg6  1  0.247451  0.000000  0.500000  1
  Au  Au7  1  0.333891  0.660616  0.500000  1
  Au  Au8  1  0.673276  0.339384  0.500000  1
