# generated using pymatgen
data_BaNi7B6Rh5
_symmetry_space_group_name_H-M   'P 1'
_cell_length_a   6.34479478
_cell_length_b   6.40159784
_cell_length_c   6.29106200
_cell_angle_alpha   103.44905514
_cell_angle_beta   103.47679370
_cell_angle_gamma   105.00205066
_symmetry_Int_Tables_number   1
_chemical_formula_structural   BaNi7B6Rh5
_chemical_formula_sum   'Ba1 Ni7 B6 Rh5'
_cell_volume   228.04999793
_cell_formula_units_Z   1
loop_
 _symmetry_equiv_pos_site_id
 _symmetry_equiv_pos_as_xyz
  1  'x, y, z'
loop_
 _atom_site_type_symbol
 _atom_site_label
 _atom_site_symmetry_multiplicity
 _atom_site_fract_x
 _atom_site_fract_y
 _atom_site_fract_z
 _atom_site_occupancy
  Ba  Ba0  1  0.997824  0.995524  0.998816  1
  Ni  Ni1  1  0.140011  0.509111  0.860666  1
  Ni  Ni2  1  0.201211  0.467856  0.473002  1
  Ni  Ni3  1  0.493387  0.862320  0.133037  1
  Ni  Ni4  1  0.464416  0.203894  0.464085  1
  Ni  Ni5  1  0.533029  0.803282  0.534880  1
  Ni  Ni6  1  0.802973  0.534331  0.541108  1
  Ni  Ni7  1  0.530626  0.534009  0.804225  1
  B  B8  1  0.765990  0.765825  0.356278  1
  B  B9  1  0.232138  0.656813  0.231497  1
  B  B10  1  0.233823  0.232872  0.648400  1
  B  B11  1  0.650453  0.223421  0.229832  1
  B  B12  1  0.356470  0.765988  0.771106  1
  B  B13  1  0.771239  0.353616  0.767096  1
  Rh  Rh14  1  0.502406  0.128590  0.862237  1
  Rh  Rh15  1  0.871260  0.497171  0.130143  1
  Rh  Rh16  1  0.134896  0.864119  0.499603  1
  Rh  Rh17  1  0.455807  0.463553  0.193250  1
  Rh  Rh18  1  0.862040  0.137709  0.500738  1
