# generated using pymatgen
data_Er3Tm5Re3B24Ir
_symmetry_space_group_name_H-M   'P 1'
_cell_length_a   3.64229100
_cell_length_b   9.10649323
_cell_length_c   11.48082302
_cell_angle_alpha   90.12331023
_cell_angle_beta   90.00000000
_cell_angle_gamma   90.00000000
_symmetry_Int_Tables_number   1
_chemical_formula_structural   Er3Tm5Re3B24Ir
_chemical_formula_sum   'Er3 Tm5 Re3 B24 Ir1'
_cell_volume   380.80077741
_cell_formula_units_Z   1
loop_
 _symmetry_equiv_pos_site_id
 _symmetry_equiv_pos_as_xyz
  1  'x, y, z'
loop_
 _atom_site_type_symbol
 _atom_site_label
 _atom_site_symmetry_multiplicity
 _atom_site_fract_x
 _atom_site_fract_y
 _atom_site_fract_z
 _atom_site_occupancy
  Er  Er0  1  0.000000  0.317474  0.415555  1
  Er  Er1  1  0.000000  0.679043  0.591507  1
  Er  Er2  1  0.000000  0.826930  0.081150  1
  Tm  Tm3  1  0.000000  0.177570  0.912543  1
  Tm  Tm4  1  0.000000  0.944389  0.370679  1
  Tm  Tm5  1  0.000000  0.055792  0.628879  1
  Tm  Tm6  1  0.000000  0.441012  0.127958  1
  Tm  Tm7  1  0.000000  0.556531  0.871682  1
  Re  Re8  1  0.000000  0.362399  0.677782  1
  Re  Re9  1  0.000000  0.138484  0.180027  1
  Re  Re10  1  0.000000  0.861721  0.820861  1
  B  B11  1  0.500000  0.553890  0.433977  1
  B  B12  1  0.500000  0.446803  0.566382  1
  B  B13  1  0.500000  0.053298  0.066292  1
  B  B14  1  0.500000  0.947275  0.932985  1
  B  B15  1  0.500000  0.749765  0.420382  1
  B  B16  1  0.500000  0.249813  0.580783  1
  B  B17  1  0.500000  0.249626  0.080743  1
  B  B18  1  0.500000  0.750940  0.919160  1
  B  B19  1  0.500000  0.791741  0.264957  1
  B  B20  1  0.500000  0.207775  0.734494  1
  B  B21  1  0.500000  0.292342  0.235225  1
  B  B22  1  0.500000  0.707605  0.765729  1
  B  B23  1  0.500000  0.631544  0.183884  1
  B  B24  1  0.500000  0.369403  0.814760  1
  B  B25  1  0.500000  0.130728  0.315300  1
  B  B26  1  0.500000  0.868737  0.685053  1
  B  B27  1  0.500000  0.982251  0.212264  1
  B  B28  1  0.500000  0.018186  0.786989  1
  B  B29  1  0.500000  0.482392  0.287697  1
  B  B30  1  0.500000  0.518652  0.712583  1
  B  B31  1  0.500000  0.603078  0.029092  1
  B  B32  1  0.500000  0.397606  0.971982  1
  B  B33  1  0.500000  0.101382  0.471414  1
  B  B34  1  0.500000  0.895923  0.528136  1
  Ir  Ir35  1  0.000000  0.637902  0.321115  1
