# generated using pymatgen
data_YFeIrO6
_symmetry_space_group_name_H-M   'P 1'
_cell_length_a   5.24425200
_cell_length_b   7.39866000
_cell_length_c   10.99591500
_cell_angle_alpha   90.00000000
_cell_angle_beta   90.00000000
_cell_angle_gamma   90.00000000
_symmetry_Int_Tables_number   1
_chemical_formula_structural   YFeIrO6
_chemical_formula_sum   'Y4 Fe4 Ir4 O24'
_cell_volume   426.64631274
_cell_formula_units_Z   4
loop_
 _symmetry_equiv_pos_site_id
 _symmetry_equiv_pos_as_xyz
  1  'x, y, z'
loop_
 _atom_site_type_symbol
 _atom_site_label
 _atom_site_symmetry_multiplicity
 _atom_site_fract_x
 _atom_site_fract_y
 _atom_site_fract_z
 _atom_site_occupancy
  Y  Y0  1  0.541779  0.250446  0.046542  1
  Y  Y1  1  0.041778  0.750446  0.453458  1
  Y  Y2  1  0.958221  0.250446  0.546542  1
  Y  Y3  1  0.458220  0.750446  0.953458  1
  Fe  Fe4  1  0.049108  0.506801  0.142774  1
  Fe  Fe5  1  0.549109  0.006802  0.357226  1
  Fe  Fe6  1  0.450891  0.506801  0.642774  1
  Fe  Fe7  1  0.950891  0.006802  0.857225  1
  Ir  Ir8  1  0.053660  0.998595  0.138614  1
  Ir  Ir9  1  0.553659  0.498595  0.361386  1
  Ir  Ir10  1  0.446340  0.998595  0.638614  1
  Ir  Ir11  1  0.946341  0.498595  0.861386  1
  O  O12  1  0.762082  0.542666  0.020677  1
  O  O13  1  0.758312  0.957714  0.028884  1
  O  O14  1  0.179626  0.755522  0.117813  1
  O  O15  1  0.931885  0.246695  0.144403  1
  O  O16  1  0.373237  0.072360  0.210363  1
  O  O17  1  0.394540  0.439299  0.210007  1
  O  O18  1  0.894539  0.939298  0.289993  1
  O  O19  1  0.873238  0.572361  0.289637  1
  O  O20  1  0.431885  0.746695  0.355597  1
  O  O21  1  0.679627  0.255522  0.382187  1
  O  O22  1  0.258313  0.457715  0.471115  1
  O  O23  1  0.262083  0.042667  0.479323  1
  O  O24  1  0.737918  0.542666  0.520677  1
  O  O25  1  0.741689  0.957714  0.528884  1
  O  O26  1  0.320374  0.755522  0.617813  1
  O  O27  1  0.568115  0.246695  0.644403  1
  O  O28  1  0.126761  0.072360  0.710363  1
  O  O29  1  0.105461  0.439299  0.710007  1
  O  O30  1  0.605461  0.939298  0.789993  1
  O  O31  1  0.626762  0.572361  0.789637  1
  O  O32  1  0.068114  0.746695  0.855597  1
  O  O33  1  0.820373  0.255522  0.882187  1
  O  O34  1  0.241688  0.457715  0.971115  1
  O  O35  1  0.237917  0.042667  0.979323  1
