# generated using pymatgen
data_Ac12Ir(OsBr4)3
_symmetry_space_group_name_H-M   'P 1'
_cell_length_a   11.06419333
_cell_length_b   11.06419352
_cell_length_c   11.06419398
_cell_angle_alpha   109.49527675
_cell_angle_beta   109.49527837
_cell_angle_gamma   109.49527903
_symmetry_Int_Tables_number   1
_chemical_formula_structural   Ac12Ir(OsBr4)3
_chemical_formula_sum   'Ac12 Ir1 Os3 Br12'
_cell_volume   1041.71754504
_cell_formula_units_Z   1
loop_
 _symmetry_equiv_pos_site_id
 _symmetry_equiv_pos_as_xyz
  1  'x, y, z'
loop_
 _atom_site_type_symbol
 _atom_site_label
 _atom_site_symmetry_multiplicity
 _atom_site_fract_x
 _atom_site_fract_y
 _atom_site_fract_z
 _atom_site_occupancy
  Ac  Ac0  1  0.466258  0.484983  0.231353  1
  Ac  Ac1  1  0.750000  0.233161  0.266839  1
  Ac  Ac2  1  0.750000  0.017285  0.482715  1
  Ac  Ac3  1  0.231353  0.466258  0.484983  1
  Ac  Ac4  1  0.266839  0.750000  0.233161  1
  Ac  Ac5  1  0.033742  0.268647  0.015017  1
  Ac  Ac6  1  0.015017  0.033742  0.268647  1
  Ac  Ac7  1  0.482715  0.750000  0.017285  1
  Ac  Ac8  1  0.484983  0.231353  0.466258  1
  Ac  Ac9  1  0.017285  0.482715  0.750000  1
  Ac  Ac10  1  0.268647  0.015017  0.033742  1
  Ac  Ac11  1  0.233161  0.266839  0.750000  1
  Ir  Ir12  1  0.250000  0.250000  0.250000  1
  Os  Os13  1  0.498946  0.001054  0.250000  1
  Os  Os14  1  0.001054  0.250000  0.498946  1
  Os  Os15  1  0.250000  0.498946  0.001054  1
  Br  Br16  1  0.250000  0.754090  0.745910  1
  Br  Br17  1  0.507564  0.504053  0.753871  1
  Br  Br18  1  0.992436  0.746129  0.995947  1
  Br  Br19  1  0.745910  0.250000  0.754090  1
  Br  Br20  1  0.995947  0.992436  0.746129  1
  Br  Br21  1  0.250000  0.996176  0.503824  1
  Br  Br22  1  0.753871  0.507564  0.504053  1
  Br  Br23  1  0.503824  0.250000  0.996176  1
  Br  Br24  1  0.754090  0.745910  0.250000  1
  Br  Br25  1  0.746129  0.995947  0.992436  1
  Br  Br26  1  0.996176  0.503824  0.250000  1
  Br  Br27  1  0.504053  0.753871  0.507564  1
