# generated using pymatgen
data_AcSmSbTe
_symmetry_space_group_name_H-M   'P 1'
_cell_length_a   8.10118359
_cell_length_b   8.10118447
_cell_length_c   8.10118300
_cell_angle_alpha   33.24561941
_cell_angle_beta   33.24560994
_cell_angle_gamma   33.24561839
_symmetry_Int_Tables_number   1
_chemical_formula_structural   AcSmSbTe
_chemical_formula_sum   'Ac1 Sm1 Sb1 Te1'
_cell_volume   142.26271517
_cell_formula_units_Z   1
loop_
 _symmetry_equiv_pos_site_id
 _symmetry_equiv_pos_as_xyz
  1  'x, y, z'
loop_
 _atom_site_type_symbol
 _atom_site_label
 _atom_site_symmetry_multiplicity
 _atom_site_fract_x
 _atom_site_fract_y
 _atom_site_fract_z
 _atom_site_occupancy
  Ac  Ac0  1  0.253677  0.253677  0.253677  1
  Sm  Sm1  1  0.746066  0.746066  0.746066  1
  Sb  Sb2  1  0.005974  0.005974  0.005974  1
  Te  Te3  1  0.494283  0.494283  0.494283  1
