# generated using pymatgen
data_Hf7Pt10
_symmetry_space_group_name_H-M   'P 1'
_cell_length_a   8.17832245
_cell_length_b   8.17832208
_cell_length_c   9.62989400
_cell_angle_alpha   90.00000000
_cell_angle_beta   90.00000000
_cell_angle_gamma   107.87260630
_symmetry_Int_Tables_number   1
_chemical_formula_structural   Hf7Pt10
_chemical_formula_sum   'Hf14 Pt20'
_cell_volume   613.01180370
_cell_formula_units_Z   2
loop_
 _symmetry_equiv_pos_site_id
 _symmetry_equiv_pos_as_xyz
  1  'x, y, z'
loop_
 _atom_site_type_symbol
 _atom_site_label
 _atom_site_symmetry_multiplicity
 _atom_site_fract_x
 _atom_site_fract_y
 _atom_site_fract_z
 _atom_site_occupancy
  Hf  Hf0  1  0.689759  0.310241  0.000000  1
  Hf  Hf1  1  0.310241  0.689759  0.000000  1
  Hf  Hf2  1  0.810241  0.189759  0.500000  1
  Hf  Hf3  1  0.189759  0.810241  0.500000  1
  Hf  Hf4  1  0.000000  0.000000  0.000000  1
  Hf  Hf5  1  0.500000  0.500000  0.500000  1
  Hf  Hf6  1  0.002390  0.502390  0.250000  1
  Hf  Hf7  1  0.997610  0.497610  0.750000  1
  Hf  Hf8  1  0.497610  0.997610  0.750000  1
  Hf  Hf9  1  0.502390  0.002390  0.250000  1
  Hf  Hf10  1  0.318596  0.318596  0.182816  1
  Hf  Hf11  1  0.681404  0.681404  0.817184  1
  Hf  Hf12  1  0.181404  0.181404  0.682816  1
  Hf  Hf13  1  0.818596  0.818596  0.317184  1
  Pt  Pt14  1  0.851951  0.143740  0.209416  1
  Pt  Pt15  1  0.148049  0.856260  0.790584  1
  Pt  Pt16  1  0.648049  0.356260  0.709416  1
  Pt  Pt17  1  0.643740  0.351951  0.290584  1
  Pt  Pt18  1  0.351951  0.643740  0.290584  1
  Pt  Pt19  1  0.356260  0.648049  0.709416  1
  Pt  Pt20  1  0.856260  0.148049  0.790584  1
  Pt  Pt21  1  0.143740  0.851951  0.209416  1
  Pt  Pt22  1  0.936532  0.644545  0.997864  1
  Pt  Pt23  1  0.063468  0.355455  0.002136  1
  Pt  Pt24  1  0.563468  0.855455  0.497864  1
  Pt  Pt25  1  0.144545  0.436532  0.502136  1
  Pt  Pt26  1  0.436532  0.144545  0.502136  1
  Pt  Pt27  1  0.855455  0.563468  0.497864  1
  Pt  Pt28  1  0.355455  0.063468  0.002136  1
  Pt  Pt29  1  0.644545  0.936532  0.997864  1
  Pt  Pt30  1  0.108133  0.108133  0.393050  1
  Pt  Pt31  1  0.891867  0.891867  0.606950  1
  Pt  Pt32  1  0.391867  0.391867  0.893050  1
  Pt  Pt33  1  0.608133  0.608133  0.106950  1
