# generated using pymatgen
data_Yb3(YSi2)2
_symmetry_space_group_name_H-M   'P 1'
_cell_length_a   7.43157000
_cell_length_b   7.81054400
_cell_length_c   15.14287800
_cell_angle_alpha   90.00000000
_cell_angle_beta   90.00000000
_cell_angle_gamma   90.00000000
_symmetry_Int_Tables_number   1
_chemical_formula_structural   Yb3(YSi2)2
_chemical_formula_sum   'Yb12 Y8 Si16'
_cell_volume   878.96236411
_cell_formula_units_Z   4
loop_
 _symmetry_equiv_pos_site_id
 _symmetry_equiv_pos_as_xyz
  1  'x, y, z'
loop_
 _atom_site_type_symbol
 _atom_site_label
 _atom_site_symmetry_multiplicity
 _atom_site_fract_x
 _atom_site_fract_y
 _atom_site_fract_z
 _atom_site_occupancy
  Yb  Yb0  1  0.969966  0.814948  0.403017  1
  Yb  Yb1  1  0.469966  0.685052  0.096983  1
  Yb  Yb2  1  0.530034  0.314948  0.596983  1
  Yb  Yb3  1  0.030034  0.185052  0.903017  1
  Yb  Yb4  1  0.030034  0.185052  0.596983  1
  Yb  Yb5  1  0.530034  0.314948  0.903017  1
  Yb  Yb6  1  0.469966  0.685052  0.403017  1
  Yb  Yb7  1  0.969966  0.814948  0.096983  1
  Yb  Yb8  1  0.354791  0.019607  0.750000  1
  Yb  Yb9  1  0.854791  0.480393  0.750000  1
  Yb  Yb10  1  0.145209  0.519607  0.250000  1
  Yb  Yb11  1  0.645209  0.980393  0.250000  1
  Y  Y12  1  0.313594  0.177148  0.121069  1
  Y  Y13  1  0.813594  0.322852  0.378931  1
  Y  Y14  1  0.186406  0.677148  0.878931  1
  Y  Y15  1  0.686406  0.822852  0.621069  1
  Y  Y16  1  0.313594  0.177148  0.378931  1
  Y  Y17  1  0.813594  0.322852  0.121069  1
  Y  Y18  1  0.186406  0.677148  0.621069  1
  Y  Y19  1  0.686406  0.822852  0.878931  1
  Si  Si20  1  0.858912  0.532545  0.538689  1
  Si  Si21  1  0.358912  0.967455  0.961311  1
  Si  Si22  1  0.641088  0.032545  0.461311  1
  Si  Si23  1  0.141088  0.467455  0.038689  1
  Si  Si24  1  0.141088  0.467455  0.461311  1
  Si  Si25  1  0.641088  0.032545  0.038689  1
  Si  Si26  1  0.358912  0.967455  0.538689  1
  Si  Si27  1  0.858912  0.532545  0.961311  1
  Si  Si28  1  0.978727  0.886022  0.750000  1
  Si  Si29  1  0.478727  0.613978  0.750000  1
  Si  Si30  1  0.521273  0.386022  0.250000  1
  Si  Si31  1  0.021273  0.113978  0.250000  1
  Si  Si32  1  0.249260  0.393610  0.750000  1
  Si  Si33  1  0.749260  0.106390  0.750000  1
  Si  Si34  1  0.250740  0.893610  0.250000  1
  Si  Si35  1  0.750740  0.606390  0.250000  1
