# generated using pymatgen
data_Ca2IrPd2Ru(PbO7)2
_symmetry_space_group_name_H-M   'P 1'
_cell_length_a   7.17411165
_cell_length_b   7.13713281
_cell_length_c   7.21186700
_cell_angle_alpha   60.34221126
_cell_angle_beta   60.47012374
_cell_angle_gamma   60.17036690
_symmetry_Int_Tables_number   1
_chemical_formula_structural   Ca2IrPd2Ru(PbO7)2
_chemical_formula_sum   'Ca2 Ir1 Pd2 Ru1 Pb2 O14'
_cell_volume   263.04224558
_cell_formula_units_Z   1
loop_
 _symmetry_equiv_pos_site_id
 _symmetry_equiv_pos_as_xyz
  1  'x, y, z'
loop_
 _atom_site_type_symbol
 _atom_site_label
 _atom_site_symmetry_multiplicity
 _atom_site_fract_x
 _atom_site_fract_y
 _atom_site_fract_z
 _atom_site_occupancy
  Ca  Ca0  1  0.625000  0.125000  0.125000  1
  Ca  Ca1  1  0.125000  0.125000  0.125000  1
  Ir  Ir2  1  0.125000  0.625000  0.625000  1
  Pd  Pd3  1  0.625000  0.125000  0.625000  1
  Pd  Pd4  1  0.625000  0.625000  0.625000  1
  Ru  Ru5  1  0.625000  0.625000  0.125000  1
  Pb  Pb6  1  0.125000  0.625000  0.125000  1
  Pb  Pb7  1  0.125000  0.125000  0.625000  1
  O  O8  1  0.717234  0.697525  0.290450  1
  O  O9  1  0.283972  0.292954  0.709347  1
  O  O10  1  0.716694  0.285620  0.712900  1
  O  O11  1  0.300026  0.681944  0.303304  1
  O  O12  1  0.289222  0.706533  0.710905  1
  O  O13  1  0.710081  0.299989  0.288166  1
  O  O14  1  0.532766  0.552475  0.959550  1
  O  O15  1  0.966028  0.957046  0.540653  1
  O  O16  1  0.533306  0.964380  0.537100  1
  O  O17  1  0.949974  0.568056  0.946696  1
  O  O18  1  0.960778  0.543467  0.539095  1
  O  O19  1  0.539919  0.950011  0.961834  1
  O  O20  1  0.242984  0.253638  0.257992  1
  O  O21  1  0.007016  0.996362  0.992008  1
