# generated using pymatgen
data_Ho10In7HgAu4
_symmetry_space_group_name_H-M   'P 1'
_cell_length_a   3.66427100
_cell_length_b   8.16252911
_cell_length_c   18.33405211
_cell_angle_alpha   90.11458659
_cell_angle_beta   90.00000000
_cell_angle_gamma   90.00000000
_symmetry_Int_Tables_number   1
_chemical_formula_structural   Ho10In7HgAu4
_chemical_formula_sum   'Ho10 In7 Hg1 Au4'
_cell_volume   548.36524442
_cell_formula_units_Z   1
loop_
 _symmetry_equiv_pos_site_id
 _symmetry_equiv_pos_as_xyz
  1  'x, y, z'
loop_
 _atom_site_type_symbol
 _atom_site_label
 _atom_site_symmetry_multiplicity
 _atom_site_fract_x
 _atom_site_fract_y
 _atom_site_fract_z
 _atom_site_occupancy
  Ho  Ho0  1  0.000000  0.499605  0.499956  1
  Ho  Ho1  1  0.000000  0.995435  0.997239  1
  Ho  Ho2  1  0.000000  0.737279  0.282106  1
  Ho  Ho3  1  0.000000  0.262001  0.716470  1
  Ho  Ho4  1  0.000000  0.762821  0.788229  1
  Ho  Ho5  1  0.000000  0.236847  0.216994  1
  Ho  Ho6  1  0.000000  0.618147  0.080335  1
  Ho  Ho7  1  0.000000  0.389891  0.919932  1
  Ho  Ho8  1  0.000000  0.880609  0.580593  1
  Ho  Ho9  1  0.000000  0.118702  0.420086  1
  In  In10  1  0.500000  0.287457  0.065504  1
  In  In11  1  0.500000  0.788947  0.433121  1
  In  In12  1  0.500000  0.209585  0.566540  1
  In  In13  1  0.500000  0.582122  0.646951  1
  In  In14  1  0.500000  0.418636  0.353067  1
  In  In15  1  0.500000  0.919494  0.145060  1
  In  In16  1  0.500000  0.086840  0.852866  1
  Hg  Hg17  1  0.500000  0.711361  0.935214  1
  Au  Au18  1  0.500000  0.527096  0.196584  1
  Au  Au19  1  0.500000  0.470843  0.802044  1
  Au  Au20  1  0.500000  0.968821  0.698076  1
  Au  Au21  1  0.500000  0.027462  0.303034  1
