# generated using pymatgen
data_Rb11Nb4TlSe16
_symmetry_space_group_name_H-M   'P 1'
_cell_length_a   10.07868134
_cell_length_b   10.21977869
_cell_length_c   11.62106011
_cell_angle_alpha   90.21959780
_cell_angle_beta   89.86935847
_cell_angle_gamma   90.52914162
_symmetry_Int_Tables_number   1
_chemical_formula_structural   Rb11Nb4TlSe16
_chemical_formula_sum   'Rb11 Nb4 Tl1 Se16'
_cell_volume   1196.92833485
_cell_formula_units_Z   1
loop_
 _symmetry_equiv_pos_site_id
 _symmetry_equiv_pos_as_xyz
  1  'x, y, z'
loop_
 _atom_site_type_symbol
 _atom_site_label
 _atom_site_symmetry_multiplicity
 _atom_site_fract_x
 _atom_site_fract_y
 _atom_site_fract_z
 _atom_site_occupancy
  Rb  Rb0  1  0.939469  0.709299  0.049809  1
  Rb  Rb1  1  0.369952  0.586815  0.739835  1
  Rb  Rb2  1  0.135021  0.082923  0.248063  1
  Rb  Rb3  1  0.634198  0.418233  0.253119  1
  Rb  Rb4  1  0.863867  0.916038  0.750038  1
  Rb  Rb5  1  0.944377  0.708524  0.456814  1
  Rb  Rb6  1  0.447649  0.793209  0.040876  1
  Rb  Rb7  1  0.555414  0.200245  0.546395  1
  Rb  Rb8  1  0.055500  0.291501  0.954690  1
  Rb  Rb9  1  0.056407  0.293647  0.547257  1
  Rb  Rb10  1  0.556508  0.207641  0.954915  1
  Nb  Nb11  1  0.217417  0.517552  0.249184  1
  Nb  Nb12  1  0.714478  0.984079  0.252561  1
  Nb  Nb13  1  0.283702  0.014330  0.749405  1
  Nb  Nb14  1  0.786488  0.484828  0.752607  1
  Tl  Tl15  1  0.422642  0.781872  0.438803  1
  Se  Se16  1  0.336777  0.464734  0.423545  1
  Se  Se17  1  0.667309  0.550966  0.924439  1
  Se  Se18  1  0.832172  0.040589  0.077629  1
  Se  Se19  1  0.171084  0.947467  0.574385  1
  Se  Se20  1  0.007104  0.582780  0.753194  1
  Se  Se21  1  0.503641  0.920296  0.749901  1
  Se  Se22  1  0.496831  0.084002  0.251870  1
  Se  Se23  1  0.996863  0.420447  0.250560  1
  Se  Se24  1  0.806255  0.248332  0.752134  1
  Se  Se25  1  0.305169  0.251045  0.750779  1
  Se  Se26  1  0.684384  0.748247  0.258996  1
  Se  Se27  1  0.200019  0.754647  0.247192  1
  Se  Se28  1  0.670823  0.547303  0.580050  1
  Se  Se29  1  0.163759  0.948075  0.920556  1
  Se  Se30  1  0.838405  0.051722  0.420718  1
  Se  Se31  1  0.336321  0.448613  0.079678  1
