# generated using pymatgen
data_Ca2In3SnPd2
_symmetry_space_group_name_H-M   'P 1'
_cell_length_a   5.84124452
_cell_length_b   5.84124472
_cell_length_c   7.70793154
_cell_angle_alpha   90.38652880
_cell_angle_beta   89.61347096
_cell_angle_gamma   134.43453467
_symmetry_Int_Tables_number   1
_chemical_formula_structural   Ca2In3SnPd2
_chemical_formula_sum   'Ca2 In3 Sn1 Pd2'
_cell_volume   187.78726685
_cell_formula_units_Z   1
loop_
 _symmetry_equiv_pos_site_id
 _symmetry_equiv_pos_as_xyz
  1  'x, y, z'
loop_
 _atom_site_type_symbol
 _atom_site_label
 _atom_site_symmetry_multiplicity
 _atom_site_fract_x
 _atom_site_fract_y
 _atom_site_fract_z
 _atom_site_occupancy
  Ca  Ca0  1  0.933266  0.066734  0.748962  1
  Ca  Ca1  1  0.067230  0.932770  0.248705  1
  In  In2  1  0.359651  0.640349  0.052274  1
  In  In3  1  0.356422  0.643578  0.449586  1
  In  In4  1  0.642962  0.357038  0.550640  1
  Sn  Sn5  1  0.642017  0.357983  0.948552  1
  Pd  Pd6  1  0.212810  0.787190  0.755074  1
  Pd  Pd7  1  0.785640  0.214360  0.246206  1
