# generated using pymatgen
data_NdThFeCo16
_symmetry_space_group_name_H-M   'P 1'
_cell_length_a   6.32743020
_cell_length_b   6.32743174
_cell_length_c   6.32743185
_cell_angle_alpha   83.03871437
_cell_angle_beta   83.03871331
_cell_angle_gamma   83.03871988
_symmetry_Int_Tables_number   1
_chemical_formula_structural   NdThFeCo16
_chemical_formula_sum   'Nd1 Th1 Fe1 Co16'
_cell_volume   248.14371239
_cell_formula_units_Z   1
loop_
 _symmetry_equiv_pos_site_id
 _symmetry_equiv_pos_as_xyz
  1  'x, y, z'
loop_
 _atom_site_type_symbol
 _atom_site_label
 _atom_site_symmetry_multiplicity
 _atom_site_fract_x
 _atom_site_fract_y
 _atom_site_fract_z
 _atom_site_occupancy
  Nd  Nd0  1  0.344950  0.344951  0.344951  1
  Th  Th1  1  0.655456  0.655456  0.655456  1
  Fe  Fe2  1  0.094919  0.094919  0.094919  1
  Co  Co3  1  0.345577  0.345577  0.849693  1
  Co  Co4  1  0.849693  0.345577  0.345577  1
  Co  Co5  1  0.345577  0.849693  0.345577  1
  Co  Co6  1  0.656262  0.656262  0.145516  1
  Co  Co7  1  0.145516  0.656262  0.656262  1
  Co  Co8  1  0.656262  0.145516  0.656262  1
  Co  Co9  1  0.715270  0.286201  0.998661  1
  Co  Co10  1  0.998661  0.715270  0.286201  1
  Co  Co11  1  0.286201  0.998661  0.715270  1
  Co  Co12  1  0.998661  0.286201  0.715270  1
  Co  Co13  1  0.715270  0.998661  0.286201  1
  Co  Co14  1  0.286201  0.715270  0.998661  1
  Co  Co15  1  0.000985  0.000985  0.501835  1
  Co  Co16  1  0.501835  0.000985  0.000985  1
  Co  Co17  1  0.000985  0.501835  0.000985  1
  Co  Co18  1  0.901713  0.901713  0.901713  1
