# generated using pymatgen
data_Dy12Co6Ag
_symmetry_space_group_name_H-M   'P 1'
_cell_length_a   8.30726881
_cell_length_b   8.30726972
_cell_length_c   8.30726900
_cell_angle_alpha   109.47122131
_cell_angle_beta   109.47122355
_cell_angle_gamma   109.47122238
_symmetry_Int_Tables_number   1
_chemical_formula_structural   Dy12Co6Ag
_chemical_formula_sum   'Dy12 Co6 Ag1'
_cell_volume   441.31930883
_cell_formula_units_Z   1
loop_
 _symmetry_equiv_pos_site_id
 _symmetry_equiv_pos_as_xyz
  1  'x, y, z'
loop_
 _atom_site_type_symbol
 _atom_site_label
 _atom_site_symmetry_multiplicity
 _atom_site_fract_x
 _atom_site_fract_y
 _atom_site_fract_z
 _atom_site_occupancy
  Dy  Dy0  1  0.805943  0.696929  0.502874  1
  Dy  Dy1  1  0.194057  0.303071  0.497126  1
  Dy  Dy2  1  0.194057  0.696929  0.890986  1
  Dy  Dy3  1  0.805943  0.303071  0.109014  1
  Dy  Dy4  1  0.696929  0.502874  0.805943  1
  Dy  Dy5  1  0.303071  0.497126  0.194057  1
  Dy  Dy6  1  0.696929  0.890986  0.194057  1
  Dy  Dy7  1  0.303071  0.109014  0.805943  1
  Dy  Dy8  1  0.502874  0.805943  0.696929  1
  Dy  Dy9  1  0.497126  0.194057  0.303071  1
  Dy  Dy10  1  0.109014  0.805943  0.303071  1
  Dy  Dy11  1  0.890986  0.194057  0.696929  1
  Co  Co12  1  0.885804  0.385804  0.500000  1
  Co  Co13  1  0.114196  0.614196  0.500000  1
  Co  Co14  1  0.385804  0.500000  0.885804  1
  Co  Co15  1  0.614196  0.500000  0.114196  1
  Co  Co16  1  0.500000  0.885804  0.385804  1
  Co  Co17  1  0.500000  0.114196  0.614196  1
  Ag  Ag18  1  0.000000  0.000000  0.000000  1
