# generated using pymatgen
data_Yb2Y3Lu(Si3Ru)8
_symmetry_space_group_name_H-M   'P 1'
_cell_length_a   10.13859874
_cell_length_b   10.13935496
_cell_length_c   8.13344098
_cell_angle_alpha   89.99713542
_cell_angle_beta   90.00334215
_cell_angle_gamma   132.72081046
_symmetry_Int_Tables_number   1
_chemical_formula_structural   Yb2Y3Lu(Si3Ru)8
_chemical_formula_sum   'Yb2 Y3 Lu1 Si24 Ru8'
_cell_volume   614.26227180
_cell_formula_units_Z   1
loop_
 _symmetry_equiv_pos_site_id
 _symmetry_equiv_pos_as_xyz
  1  'x, y, z'
loop_
 _atom_site_type_symbol
 _atom_site_label
 _atom_site_symmetry_multiplicity
 _atom_site_fract_x
 _atom_site_fract_y
 _atom_site_fract_z
 _atom_site_occupancy
  Yb  Yb0  1  0.000365  0.000325  0.000204  1
  Yb  Yb1  1  0.002603  0.502714  0.249760  1
  Y  Y2  1  0.500257  0.500283  0.499721  1
  Y  Y3  1  0.998218  0.498191  0.750301  1
  Y  Y4  1  0.501985  0.001760  0.249679  1
  Lu  Lu5  1  0.497960  0.998089  0.750479  1
  Si  Si6  1  0.295546  0.704857  0.999713  1
  Si  Si7  1  0.795744  0.205106  0.499545  1
  Si  Si8  1  0.705084  0.295881  0.000425  1
  Si  Si9  1  0.205015  0.795569  0.500369  1
  Si  Si10  1  0.833516  0.835956  0.331111  1
  Si  Si11  1  0.164869  0.167445  0.668367  1
  Si  Si12  1  0.670517  0.667843  0.834705  1
  Si  Si13  1  0.332755  0.330548  0.165752  1
  Si  Si14  1  0.623773  0.389426  0.228938  1
  Si  Si15  1  0.608390  0.375384  0.772217  1
  Si  Si16  1  0.110817  0.878738  0.729138  1
  Si  Si17  1  0.121971  0.888617  0.269758  1
  Si  Si18  1  0.378363  0.611555  0.772821  1
  Si  Si19  1  0.387944  0.622392  0.228288  1
  Si  Si20  1  0.890318  0.123664  0.268995  1
  Si  Si21  1  0.875717  0.107625  0.729723  1
  Si  Si22  1  0.847017  0.614585  0.006218  1
  Si  Si23  1  0.386072  0.154376  0.992535  1
  Si  Si24  1  0.888502  0.654358  0.504215  1
  Si  Si25  1  0.343482  0.111130  0.495868  1
  Si  Si26  1  0.153046  0.385930  0.995627  1
  Si  Si27  1  0.613717  0.844764  0.004194  1
  Si  Si28  1  0.112014  0.345611  0.494071  1
  Si  Si29  1  0.655690  0.888632  0.507210  1
  Ru  Ru30  1  0.173008  0.831049  0.997576  1
  Ru  Ru31  1  0.667575  0.327041  0.502374  1
  Ru  Ru32  1  0.826413  0.168279  0.997579  1
  Ru  Ru33  1  0.331668  0.672345  0.502501  1
  Ru  Ru34  1  0.624583  0.625231  0.127918  1
  Ru  Ru35  1  0.374411  0.375840  0.872756  1
  Ru  Ru36  1  0.873365  0.871848  0.624807  1
  Ru  Ru37  1  0.127711  0.127013  0.374542  1
