# generated using pymatgen
data_Y12Mg3Cd9C4
_symmetry_space_group_name_H-M   'P 1'
_cell_length_a   9.49085273
_cell_length_b   9.50557609
_cell_length_c   9.52811700
_cell_angle_alpha   119.92149329
_cell_angle_beta   89.90617372
_cell_angle_gamma   120.05028644
_symmetry_Int_Tables_number   1
_chemical_formula_structural   Y12Mg3Cd9C4
_chemical_formula_sum   'Y12 Mg3 Cd9 C4'
_cell_volume   608.57469651
_cell_formula_units_Z   1
loop_
 _symmetry_equiv_pos_site_id
 _symmetry_equiv_pos_as_xyz
  1  'x, y, z'
loop_
 _atom_site_type_symbol
 _atom_site_label
 _atom_site_symmetry_multiplicity
 _atom_site_fract_x
 _atom_site_fract_y
 _atom_site_fract_z
 _atom_site_occupancy
  Y  Y0  1  0.937181  0.374659  0.187281  1
  Y  Y1  1  0.937201  0.749803  0.187309  1
  Y  Y2  1  0.312614  0.750001  0.187384  1
  Y  Y3  1  0.686273  0.251148  0.437449  1
  Y  Y4  1  0.686243  0.872526  0.437412  1
  Y  Y5  1  0.064370  0.251196  0.438012  1
  Y  Y6  1  0.313709  0.127381  0.562550  1
  Y  Y7  1  0.313676  0.748856  0.562504  1
  Y  Y8  1  0.935648  0.748801  0.561968  1
  Y  Y9  1  0.687373  0.250006  0.812640  1
  Y  Y10  1  0.062876  0.625445  0.812769  1
  Y  Y11  1  0.062856  0.250203  0.812747  1
  Mg  Mg12  1  0.000002  0.000001  0.000004  1
  Mg  Mg13  1  0.499999  0.000006  0.000000  1
  Mg  Mg14  1  0.499993  0.499996  0.000000  1
  Cd  Cd15  1  0.706788  0.913748  0.120719  1
  Cd  Cd16  1  0.293012  0.085302  0.205192  1
  Cd  Cd17  1  0.292969  0.412875  0.205169  1
  Cd  Cd18  1  0.619847  0.412504  0.205194  1
  Cd  Cd19  1  0.500000  0.499997  0.499998  1
  Cd  Cd20  1  0.380145  0.587486  0.794785  1
  Cd  Cd21  1  0.707027  0.587115  0.794836  1
  Cd  Cd22  1  0.706984  0.914710  0.794816  1
  Cd  Cd23  1  0.293221  0.086254  0.879278  1
  C  C24  1  0.999957  0.499932  0.999904  1
  C  C25  1  0.999975  0.000066  0.500018  1
  C  C26  1  0.500096  0.000071  0.500050  1
  C  C27  1  0.999972  0.499925  0.500016  1
