# generated using pymatgen
data_LiHo3Ag2Sn3
_symmetry_space_group_name_H-M   'P 1'
_cell_length_a   7.33459908
_cell_length_b   7.33460035
_cell_length_c   4.54977900
_cell_angle_alpha   90.00000000
_cell_angle_beta   90.00000000
_cell_angle_gamma   120.10379309
_symmetry_Int_Tables_number   1
_chemical_formula_structural   LiHo3Ag2Sn3
_chemical_formula_sum   'Li1 Ho3 Ag2 Sn3'
_cell_volume   211.74764733
_cell_formula_units_Z   1
loop_
 _symmetry_equiv_pos_site_id
 _symmetry_equiv_pos_as_xyz
  1  'x, y, z'
loop_
 _atom_site_type_symbol
 _atom_site_label
 _atom_site_symmetry_multiplicity
 _atom_site_fract_x
 _atom_site_fract_y
 _atom_site_fract_z
 _atom_site_occupancy
  Li  Li0  1  0.230975  0.230975  0.500000  1
  Ho  Ho1  1  0.997977  0.435940  0.000000  1
  Ho  Ho2  1  0.573989  0.573989  0.000000  1
  Ho  Ho3  1  0.435940  0.997977  0.000000  1
  Ag  Ag4  1  0.758648  0.001474  0.500000  1
  Ag  Ag5  1  0.001474  0.758648  0.500000  1
  Sn  Sn6  1  0.332147  0.657839  0.500000  1
  Sn  Sn7  1  0.011011  0.011011  0.000000  1
  Sn  Sn8  1  0.657839  0.332147  0.500000  1
