# generated using pymatgen
data_TbY3AlPt
_symmetry_space_group_name_H-M   'P 1'
_cell_length_a   9.64815446
_cell_length_b   9.64815526
_cell_length_c   9.64815500
_cell_angle_alpha   60.00000433
_cell_angle_beta   60.00000159
_cell_angle_gamma   59.99999984
_symmetry_Int_Tables_number   1
_chemical_formula_structural   TbY3AlPt
_chemical_formula_sum   'Tb4 Y12 Al4 Pt4'
_cell_volume   635.06448249
_cell_formula_units_Z   4
loop_
 _symmetry_equiv_pos_site_id
 _symmetry_equiv_pos_as_xyz
  1  'x, y, z'
loop_
 _atom_site_type_symbol
 _atom_site_label
 _atom_site_symmetry_multiplicity
 _atom_site_fract_x
 _atom_site_fract_y
 _atom_site_fract_z
 _atom_site_occupancy
  Tb  Tb0  1  0.353886  0.353886  0.353886  1
  Tb  Tb1  1  0.353886  0.353886  0.938340  1
  Tb  Tb2  1  0.353886  0.938340  0.353886  1
  Tb  Tb3  1  0.938340  0.353886  0.353886  1
  Y  Y4  1  0.806719  0.193281  0.193281  1
  Y  Y5  1  0.193281  0.806719  0.806719  1
  Y  Y6  1  0.193281  0.806719  0.193281  1
  Y  Y7  1  0.806719  0.193281  0.806719  1
  Y  Y8  1  0.193281  0.193281  0.806719  1
  Y  Y9  1  0.806719  0.806719  0.193281  1
  Y  Y10  1  0.936218  0.563782  0.563782  1
  Y  Y11  1  0.563782  0.936218  0.936218  1
  Y  Y12  1  0.563782  0.936218  0.563782  1
  Y  Y13  1  0.936218  0.563782  0.936218  1
  Y  Y14  1  0.563782  0.563782  0.936218  1
  Y  Y15  1  0.936218  0.936218  0.563782  1
  Al  Al16  1  0.578170  0.578170  0.578170  1
  Al  Al17  1  0.578170  0.578170  0.265491  1
  Al  Al18  1  0.578170  0.265491  0.578170  1
  Al  Al19  1  0.265491  0.578170  0.578170  1
  Pt  Pt20  1  0.143495  0.143495  0.143495  1
  Pt  Pt21  1  0.143495  0.143495  0.569515  1
  Pt  Pt22  1  0.143495  0.569515  0.143495  1
  Pt  Pt23  1  0.569515  0.143495  0.143495  1
