# generated using pymatgen
data_HoEr2Cd3Ge2Au
_symmetry_space_group_name_H-M   'P 1'
_cell_length_a   7.29824806
_cell_length_b   7.29824790
_cell_length_c   4.32094500
_cell_angle_alpha   90.00000000
_cell_angle_beta   90.00000000
_cell_angle_gamma   120.01441434
_symmetry_Int_Tables_number   1
_chemical_formula_structural   HoEr2Cd3Ge2Au
_chemical_formula_sum   'Ho1 Er2 Cd3 Ge2 Au1'
_cell_volume   199.28908020
_cell_formula_units_Z   1
loop_
 _symmetry_equiv_pos_site_id
 _symmetry_equiv_pos_as_xyz
  1  'x, y, z'
loop_
 _atom_site_type_symbol
 _atom_site_label
 _atom_site_symmetry_multiplicity
 _atom_site_fract_x
 _atom_site_fract_y
 _atom_site_fract_z
 _atom_site_occupancy
  Ho  Ho0  1  0.414654  0.414654  0.000000  1
  Er  Er1  1  0.585564  0.000108  0.000000  1
  Er  Er2  1  0.000108  0.585564  0.000000  1
  Cd  Cd3  1  0.252315  0.999892  0.500000  1
  Cd  Cd4  1  0.999892  0.252315  0.500000  1
  Cd  Cd5  1  0.747791  0.747791  0.500000  1
  Ge  Ge6  1  0.333195  0.666885  0.500000  1
  Ge  Ge7  1  0.666885  0.333195  0.500000  1
  Au  Au8  1  0.999596  0.999596  0.000000  1
