# generated using pymatgen
data_CeSm8Lu11Pb16
_symmetry_space_group_name_H-M   'P 1'
_cell_length_a   8.17316964
_cell_length_b   8.26918492
_cell_length_c   15.55700800
_cell_angle_alpha   89.98314908
_cell_angle_beta   89.97728686
_cell_angle_gamma   89.90012805
_symmetry_Int_Tables_number   1
_chemical_formula_structural   CeSm8Lu11Pb16
_chemical_formula_sum   'Ce1 Sm8 Lu11 Pb16'
_cell_volume   1051.42567889
_cell_formula_units_Z   1
loop_
 _symmetry_equiv_pos_site_id
 _symmetry_equiv_pos_as_xyz
  1  'x, y, z'
loop_
 _atom_site_type_symbol
 _atom_site_label
 _atom_site_symmetry_multiplicity
 _atom_site_fract_x
 _atom_site_fract_y
 _atom_site_fract_z
 _atom_site_occupancy
  Ce  Ce0  1  0.632720  0.159594  0.620346  1
  Sm  Sm1  1  0.472676  0.675884  0.596987  1
  Sm  Sm2  1  0.974986  0.820936  0.904330  1
  Sm  Sm3  1  0.526073  0.322670  0.097114  1
  Sm  Sm4  1  0.025154  0.177104  0.402543  1
  Sm  Sm5  1  0.527232  0.323678  0.400714  1
  Sm  Sm6  1  0.026070  0.177847  0.096870  1
  Sm  Sm7  1  0.474168  0.678625  0.905018  1
  Sm  Sm8  1  0.974346  0.820417  0.596506  1
  Lu  Lu9  1  0.134908  0.344108  0.878056  1
  Lu  Lu10  1  0.364136  0.843260  0.123359  1
  Lu  Lu11  1  0.865142  0.656926  0.374415  1
  Lu  Lu12  1  0.364478  0.843897  0.377085  1
  Lu  Lu13  1  0.863925  0.656059  0.123427  1
  Lu  Lu14  1  0.635567  0.156424  0.876648  1
  Lu  Lu15  1  0.137099  0.342684  0.624187  1
  Lu  Lu16  1  0.804531  0.494530  0.751537  1
  Lu  Lu17  1  0.302398  0.005870  0.751197  1
  Lu  Lu18  1  0.197043  0.505281  0.250262  1
  Lu  Lu19  1  0.697198  0.993179  0.248449  1
  Pb  Pb20  1  0.706357  0.956377  0.453158  1
  Pb  Pb21  1  0.205900  0.541906  0.043927  1
  Pb  Pb22  1  0.294942  0.041444  0.957222  1
  Pb  Pb23  1  0.799003  0.465539  0.542508  1
  Pb  Pb24  1  0.285841  0.037754  0.543121  1
  Pb  Pb25  1  0.793526  0.458368  0.957322  1
  Pb  Pb26  1  0.706296  0.958830  0.042981  1
  Pb  Pb27  1  0.206713  0.540505  0.456801  1
  Pb  Pb28  1  0.440039  0.375281  0.752344  1
  Pb  Pb29  1  0.942668  0.127873  0.751414  1
  Pb  Pb30  1  0.557681  0.628157  0.249665  1
  Pb  Pb31  1  0.059619  0.872647  0.249704  1
  Pb  Pb32  1  0.663304  0.843503  0.750664  1
  Pb  Pb33  1  0.163003  0.653827  0.750676  1
  Pb  Pb34  1  0.337669  0.154062  0.249739  1
  Pb  Pb35  1  0.837590  0.344954  0.249704  1
