# generated using pymatgen
data_TaFe3B
_symmetry_space_group_name_H-M   'P 1'
_cell_length_a   8.55459600
_cell_length_b   8.55459600
_cell_length_c   2.99523800
_cell_angle_alpha   90.00000000
_cell_angle_beta   90.00000000
_cell_angle_gamma   90.00000000
_symmetry_Int_Tables_number   1
_chemical_formula_structural   TaFe3B
_chemical_formula_sum   'Ta4 Fe12 B4'
_cell_volume   219.19484971
_cell_formula_units_Z   4
loop_
 _symmetry_equiv_pos_site_id
 _symmetry_equiv_pos_as_xyz
  1  'x, y, z'
loop_
 _atom_site_type_symbol
 _atom_site_label
 _atom_site_symmetry_multiplicity
 _atom_site_fract_x
 _atom_site_fract_y
 _atom_site_fract_z
 _atom_site_occupancy
  Ta  Ta0  1  0.823472  0.323472  0.000000  1
  Ta  Ta1  1  0.176528  0.676528  0.000000  1
  Ta  Ta2  1  0.323472  0.176528  0.000000  1
  Ta  Ta3  1  0.676528  0.823472  0.000000  1
  Fe  Fe4  1  0.500000  0.500000  0.000000  1
  Fe  Fe5  1  0.000000  0.000000  0.000000  1
  Fe  Fe6  1  0.500000  0.000000  0.500000  1
  Fe  Fe7  1  0.000000  0.500000  0.500000  1
  Fe  Fe8  1  0.716036  0.567270  0.500000  1
  Fe  Fe9  1  0.283964  0.432730  0.500000  1
  Fe  Fe10  1  0.216036  0.932730  0.500000  1
  Fe  Fe11  1  0.783964  0.067270  0.500000  1
  Fe  Fe12  1  0.432730  0.716036  0.500000  1
  Fe  Fe13  1  0.567270  0.283964  0.500000  1
  Fe  Fe14  1  0.067270  0.216036  0.500000  1
  Fe  Fe15  1  0.932730  0.783964  0.500000  1
  B  B16  1  0.621560  0.121560  0.000000  1
  B  B17  1  0.378440  0.878440  0.000000  1
  B  B18  1  0.121560  0.378440  0.000000  1
  B  B19  1  0.878440  0.621560  0.000000  1
