# generated using pymatgen
data_Ho2Lu3Sc(AlAu)6
_symmetry_space_group_name_H-M   'P 1'
_cell_length_a   7.30351390
_cell_length_b   7.30447184
_cell_length_c   7.88181800
_cell_angle_alpha   90.00000000
_cell_angle_beta   90.00000000
_cell_angle_gamma   119.93710412
_symmetry_Int_Tables_number   1
_chemical_formula_structural   Ho2Lu3Sc(AlAu)6
_chemical_formula_sum   'Ho2 Lu3 Sc1 Al6 Au6'
_cell_volume   364.37838951
_cell_formula_units_Z   1
loop_
 _symmetry_equiv_pos_site_id
 _symmetry_equiv_pos_as_xyz
  1  'x, y, z'
loop_
 _atom_site_type_symbol
 _atom_site_label
 _atom_site_symmetry_multiplicity
 _atom_site_fract_x
 _atom_site_fract_y
 _atom_site_fract_z
 _atom_site_occupancy
  Ho  Ho0  1  0.997934  0.584594  0.250000  1
  Ho  Ho1  1  0.586429  0.001616  0.250000  1
  Lu  Lu2  1  0.588382  0.997582  0.750000  1
  Lu  Lu3  1  0.001993  0.590469  0.750000  1
  Lu  Lu4  1  0.414455  0.412667  0.250000  1
  Sc  Sc5  1  0.406499  0.408741  0.750000  1
  Al  Al6  1  0.749705  0.749470  0.995916  1
  Al  Al7  1  0.249957  0.002261  0.996714  1
  Al  Al8  1  0.001976  0.249799  0.996680  1
  Al  Al9  1  0.749705  0.749470  0.504084  1
  Al  Al10  1  0.249957  0.002261  0.503286  1
  Al  Al11  1  0.001976  0.249799  0.503320  1
  Au  Au12  1  0.003089  0.002589  0.750000  1
  Au  Au13  1  0.002362  0.001997  0.250000  1
  Au  Au14  1  0.662889  0.335343  0.988752  1
  Au  Au15  1  0.662889  0.335343  0.511248  1
  Au  Au16  1  0.334903  0.662999  0.505925  1
  Au  Au17  1  0.334903  0.662999  0.994075  1
