# generated using pymatgen
data_PaSnF7
_symmetry_space_group_name_H-M   'P 1'
_cell_length_a   5.99251800
_cell_length_b   10.08849843
_cell_length_c   13.07313565
_cell_angle_alpha   60.73080488
_cell_angle_beta   90.00000000
_cell_angle_gamma   90.00000000
_symmetry_Int_Tables_number   1
_chemical_formula_structural   PaSnF7
_chemical_formula_sum   'Pa4 Sn4 F28'
_cell_volume   689.44175081
_cell_formula_units_Z   4
loop_
 _symmetry_equiv_pos_site_id
 _symmetry_equiv_pos_as_xyz
  1  'x, y, z'
loop_
 _atom_site_type_symbol
 _atom_site_label
 _atom_site_symmetry_multiplicity
 _atom_site_fract_x
 _atom_site_fract_y
 _atom_site_fract_z
 _atom_site_occupancy
  Pa  Pa0  1  0.252870  0.818993  0.261098  1
  Pa  Pa1  1  0.747130  0.181007  0.738902  1
  Pa  Pa2  1  0.752870  0.181007  0.238902  1
  Pa  Pa3  1  0.247130  0.818993  0.761098  1
  Sn  Sn4  1  0.751632  0.727401  0.040586  1
  Sn  Sn5  1  0.248368  0.272599  0.959414  1
  Sn  Sn6  1  0.251632  0.272599  0.459414  1
  Sn  Sn7  1  0.748368  0.727401  0.540586  1
  F  F8  1  0.977092  0.728212  0.387657  1
  F  F9  1  0.022908  0.271788  0.612343  1
  F  F10  1  0.477092  0.271788  0.112343  1
  F  F11  1  0.522908  0.728212  0.887657  1
  F  F12  1  0.512178  0.783040  0.160874  1
  F  F13  1  0.487822  0.216960  0.839126  1
  F  F14  1  0.012178  0.216960  0.339126  1
  F  F15  1  0.987822  0.783040  0.660874  1
  F  F16  1  0.006764  0.776680  0.159303  1
  F  F17  1  0.993236  0.223320  0.840697  1
  F  F18  1  0.506764  0.223320  0.340697  1
  F  F19  1  0.493236  0.776680  0.659303  1
  F  F20  1  0.791824  0.419898  0.162941  1
  F  F21  1  0.208176  0.580102  0.837059  1
  F  F22  1  0.291824  0.580102  0.337059  1
  F  F23  1  0.708176  0.419898  0.662941  1
  F  F24  1  0.926300  0.239927  0.073907  1
  F  F25  1  0.073700  0.760073  0.926093  1
  F  F26  1  0.426300  0.760073  0.426093  1
  F  F27  1  0.573700  0.239927  0.573907  1
  F  F28  1  0.752542  0.972686  0.425509  1
  F  F29  1  0.247458  0.027314  0.574491  1
  F  F30  1  0.252542  0.027314  0.074491  1
  F  F31  1  0.747458  0.972686  0.925509  1
  F  F32  1  0.580064  0.988478  0.234757  1
  F  F33  1  0.419936  0.011522  0.765243  1
  F  F34  1  0.080064  0.011522  0.265243  1
  F  F35  1  0.919936  0.988478  0.734757  1
