# generated using pymatgen
data_Er5Sc(Si3Ru)8
_symmetry_space_group_name_H-M   'P 1'
_cell_length_a   10.08343702
_cell_length_b   10.08343728
_cell_length_c   8.10051600
_cell_angle_alpha   89.99912616
_cell_angle_beta   89.99913095
_cell_angle_gamma   132.62804231
_symmetry_Int_Tables_number   1
_chemical_formula_structural   Er5Sc(Si3Ru)8
_chemical_formula_sum   'Er5 Sc1 Si24 Ru8'
_cell_volume   605.99553242
_cell_formula_units_Z   1
loop_
 _symmetry_equiv_pos_site_id
 _symmetry_equiv_pos_as_xyz
  1  'x, y, z'
loop_
 _atom_site_type_symbol
 _atom_site_label
 _atom_site_symmetry_multiplicity
 _atom_site_fract_x
 _atom_site_fract_y
 _atom_site_fract_z
 _atom_site_occupancy
  Er  Er0  1  0.497732  0.997763  0.250046  1
  Er  Er1  1  0.002237  0.502268  0.749954  1
  Er  Er2  1  0.502268  0.002237  0.749954  1
  Er  Er3  1  0.997763  0.497732  0.250046  1
  Er  Er4  1  0.000000  0.000000  0.000000  1
  Sc  Sc5  1  0.500000  0.500000  0.500000  1
  Si  Si6  1  0.388505  0.154787  0.005175  1
  Si  Si7  1  0.653614  0.885623  0.494935  1
  Si  Si8  1  0.114377  0.346386  0.505065  1
  Si  Si9  1  0.845213  0.611495  0.994825  1
  Si  Si10  1  0.611495  0.845213  0.994825  1
  Si  Si11  1  0.346386  0.114377  0.505065  1
  Si  Si12  1  0.885623  0.653614  0.494935  1
  Si  Si13  1  0.154787  0.388505  0.005175  1
  Si  Si14  1  0.611739  0.379147  0.230088  1
  Si  Si15  1  0.878212  0.112595  0.271840  1
  Si  Si16  1  0.887405  0.121788  0.728160  1
  Si  Si17  1  0.620853  0.388261  0.769912  1
  Si  Si18  1  0.388261  0.620853  0.769912  1
  Si  Si19  1  0.121788  0.887405  0.728160  1
  Si  Si20  1  0.704918  0.295082  0.000000  1
  Si  Si21  1  0.794773  0.205227  0.500000  1
  Si  Si22  1  0.295082  0.704918  0.000000  1
  Si  Si23  1  0.205227  0.794773  0.500000  1
  Si  Si24  1  0.169685  0.169685  0.334473  1
  Si  Si25  1  0.666141  0.666141  0.168985  1
  Si  Si26  1  0.333859  0.333859  0.831015  1
  Si  Si27  1  0.830315  0.830315  0.665527  1
  Si  Si28  1  0.379147  0.611739  0.230088  1
  Si  Si29  1  0.112595  0.878212  0.271840  1
  Ru  Ru30  1  0.627012  0.627012  0.872354  1
  Ru  Ru31  1  0.126685  0.126685  0.627938  1
  Ru  Ru32  1  0.873315  0.873315  0.372062  1
  Ru  Ru33  1  0.372988  0.372988  0.127646  1
  Ru  Ru34  1  0.331152  0.668848  0.500000  1
  Ru  Ru35  1  0.169531  0.830469  0.000000  1
  Ru  Ru36  1  0.668848  0.331152  0.500000  1
  Ru  Ru37  1  0.830469  0.169531  0.000000  1
