# generated using pymatgen
data_Tb13Dy3(TmSn4)4
_symmetry_space_group_name_H-M   'P 1'
_cell_length_a   8.03027800
_cell_length_b   8.19122100
_cell_length_c   15.49731500
_cell_angle_alpha   90.00079740
_cell_angle_beta   89.99934358
_cell_angle_gamma   90.00030078
_symmetry_Int_Tables_number   1
_chemical_formula_structural   Tb13Dy3(TmSn4)4
_chemical_formula_sum   'Tb13 Dy3 Tm4 Sn16'
_cell_volume   1019.37900439
_cell_formula_units_Z   1
loop_
 _symmetry_equiv_pos_site_id
 _symmetry_equiv_pos_as_xyz
  1  'x, y, z'
loop_
 _atom_site_type_symbol
 _atom_site_label
 _atom_site_symmetry_multiplicity
 _atom_site_fract_x
 _atom_site_fract_y
 _atom_site_fract_z
 _atom_site_occupancy
  Tb  Tb0  1  0.133116  0.337170  0.122117  1
  Tb  Tb1  1  0.633107  0.162869  0.122165  1
  Tb  Tb2  1  0.133079  0.337122  0.377854  1
  Tb  Tb3  1  0.366880  0.837130  0.622069  1
  Tb  Tb4  1  0.866912  0.662842  0.877947  1
  Tb  Tb5  1  0.519810  0.320432  0.902696  1
  Tb  Tb6  1  0.019823  0.179570  0.597314  1
  Tb  Tb7  1  0.480191  0.679567  0.402615  1
  Tb  Tb8  1  0.980173  0.820475  0.097394  1
  Tb  Tb9  1  0.480160  0.679506  0.097369  1
  Tb  Tb10  1  0.980125  0.820501  0.402635  1
  Tb  Tb11  1  0.519870  0.320486  0.597294  1
  Tb  Tb12  1  0.019862  0.179500  0.902673  1
  Dy  Dy13  1  0.366784  0.837226  0.877937  1
  Dy  Dy14  1  0.866780  0.662788  0.622051  1
  Dy  Dy15  1  0.633169  0.162791  0.377861  1
  Tm  Tm16  1  0.198304  0.502745  0.750018  1
  Tm  Tm17  1  0.698297  0.997263  0.749965  1
  Tm  Tm18  1  0.801737  0.497293  0.250044  1
  Tm  Tm19  1  0.301814  0.002673  0.250003  1
  Sn  Sn20  1  0.293170  0.035777  0.042522  1
  Sn  Sn21  1  0.793056  0.464063  0.457450  1
  Sn  Sn22  1  0.706969  0.964058  0.542446  1
  Sn  Sn23  1  0.206994  0.536054  0.957458  1
  Sn  Sn24  1  0.706693  0.964059  0.957462  1
  Sn  Sn25  1  0.206714  0.535943  0.542534  1
  Sn  Sn26  1  0.293298  0.035934  0.457350  1
  Sn  Sn27  1  0.793138  0.464111  0.042625  1
  Sn  Sn28  1  0.563819  0.618200  0.749982  1
  Sn  Sn29  1  0.063816  0.881791  0.750009  1
  Sn  Sn30  1  0.436424  0.381577  0.250036  1
  Sn  Sn31  1  0.936236  0.118357  0.250052  1
  Sn  Sn32  1  0.328813  0.148335  0.750030  1
  Sn  Sn33  1  0.828825  0.351684  0.749966  1
  Sn  Sn34  1  0.671009  0.851572  0.250042  1
  Sn  Sn35  1  0.171036  0.648538  0.250014  1
