# generated using pymatgen
data_Nd3Th(HgPt2)2
_symmetry_space_group_name_H-M   'P 1'
_cell_length_a   7.93011556
_cell_length_b   7.93011556
_cell_length_c   3.83888400
_cell_angle_alpha   90.00000000
_cell_angle_beta   90.00000000
_cell_angle_gamma   88.80035344
_symmetry_Int_Tables_number   1
_chemical_formula_structural   Nd3Th(HgPt2)2
_chemical_formula_sum   'Nd3 Th1 Hg2 Pt4'
_cell_volume   241.36195708
_cell_formula_units_Z   1
loop_
 _symmetry_equiv_pos_site_id
 _symmetry_equiv_pos_as_xyz
  1  'x, y, z'
loop_
 _atom_site_type_symbol
 _atom_site_label
 _atom_site_symmetry_multiplicity
 _atom_site_fract_x
 _atom_site_fract_y
 _atom_site_fract_z
 _atom_site_occupancy
  Nd  Nd0  1  0.826862  0.329161  0.500000  1
  Nd  Nd1  1  0.170840  0.673139  0.500000  1
  Nd  Nd2  1  0.673614  0.826387  0.500000  1
  Th  Th3  1  0.330317  0.169684  0.500000  1
  Hg  Hg4  1  0.996121  0.998984  0.000000  1
  Hg  Hg5  1  0.501016  0.503879  0.000000  1
  Pt  Pt6  1  0.620080  0.132036  0.000000  1
  Pt  Pt7  1  0.135961  0.364040  0.000000  1
  Pt  Pt8  1  0.877228  0.622772  0.000000  1
  Pt  Pt9  1  0.367965  0.879920  0.000000  1
