# generated using pymatgen
data_Ca5Cd(BiN)2
_symmetry_space_group_name_H-M   'P 1'
_cell_length_a   7.02677600
_cell_length_b   7.01782500
_cell_length_c   9.40177300
_cell_angle_alpha   90.00000000
_cell_angle_beta   90.00000000
_cell_angle_gamma   90.00000000
_symmetry_Int_Tables_number   1
_chemical_formula_structural   Ca5Cd(BiN)2
_chemical_formula_sum   'Ca10 Cd2 Bi4 N4'
_cell_volume   463.62666364
_cell_formula_units_Z   2
loop_
 _symmetry_equiv_pos_site_id
 _symmetry_equiv_pos_as_xyz
  1  'x, y, z'
loop_
 _atom_site_type_symbol
 _atom_site_label
 _atom_site_symmetry_multiplicity
 _atom_site_fract_x
 _atom_site_fract_y
 _atom_site_fract_z
 _atom_site_occupancy
  Ca  Ca0  1  0.750984  0.750963  0.992562  1
  Ca  Ca1  1  0.749016  0.250963  0.507438  1
  Ca  Ca2  1  0.249118  0.249232  0.520256  1
  Ca  Ca3  1  0.250882  0.749232  0.979744  1
  Ca  Ca4  1  0.249118  0.249232  0.979744  1
  Ca  Ca5  1  0.250882  0.749232  0.520256  1
  Ca  Ca6  1  0.750984  0.750963  0.507438  1
  Ca  Ca7  1  0.749016  0.250963  0.992562  1
  Ca  Ca8  1  0.487963  0.000108  0.250000  1
  Ca  Ca9  1  0.012037  0.500108  0.250000  1
  Cd  Cd10  1  0.516769  0.999963  0.750000  1
  Cd  Cd11  1  0.983231  0.499963  0.750000  1
  Bi  Bi12  1  0.499829  0.499206  0.250000  1
  Bi  Bi13  1  0.000171  0.999206  0.250000  1
  Bi  Bi14  1  0.507696  0.500206  0.750000  1
  Bi  Bi15  1  0.992304  0.000206  0.750000  1
  N  N16  1  0.001472  0.500063  0.994370  1
  N  N17  1  0.498528  0.000063  0.505630  1
  N  N18  1  0.001472  0.500063  0.505630  1
  N  N19  1  0.498528  0.000063  0.994370  1
