# generated using pymatgen
data_LiNd6(ErPt3)2
_symmetry_space_group_name_H-M   'P 1'
_cell_length_a   7.71832919
_cell_length_b   7.71833033
_cell_length_c   7.71833134
_cell_angle_alpha   68.78952730
_cell_angle_beta   68.78953020
_cell_angle_gamma   68.78953490
_symmetry_Int_Tables_number   1
_chemical_formula_structural   LiNd6(ErPt3)2
_chemical_formula_sum   'Li1 Nd6 Er2 Pt6'
_cell_volume   385.25412469
_cell_formula_units_Z   1
loop_
 _symmetry_equiv_pos_site_id
 _symmetry_equiv_pos_as_xyz
  1  'x, y, z'
loop_
 _atom_site_type_symbol
 _atom_site_label
 _atom_site_symmetry_multiplicity
 _atom_site_fract_x
 _atom_site_fract_y
 _atom_site_fract_z
 _atom_site_occupancy
  Li  Li0  1  0.000000  0.000000  0.000000  1
  Nd  Nd1  1  0.321567  0.610273  0.860662  1
  Nd  Nd2  1  0.860662  0.321567  0.610273  1
  Nd  Nd3  1  0.610273  0.860662  0.321567  1
  Nd  Nd4  1  0.678433  0.389727  0.139338  1
  Nd  Nd5  1  0.139338  0.678433  0.389727  1
  Nd  Nd6  1  0.389727  0.139338  0.678433  1
  Er  Er7  1  0.819374  0.819374  0.819374  1
  Er  Er8  1  0.180626  0.180626  0.180626  1
  Pt  Pt9  1  0.176559  0.954992  0.571571  1
  Pt  Pt10  1  0.571571  0.176559  0.954992  1
  Pt  Pt11  1  0.954992  0.571571  0.176559  1
  Pt  Pt12  1  0.823441  0.045008  0.428429  1
  Pt  Pt13  1  0.428429  0.823441  0.045008  1
  Pt  Pt14  1  0.045008  0.428429  0.823441  1
