# generated using pymatgen
data_Yb4VNi(OsO6)2
_symmetry_space_group_name_H-M   'P 1'
_cell_length_a   5.34765981
_cell_length_b   5.61200234
_cell_length_c   7.73948400
_cell_angle_alpha   90.57375328
_cell_angle_beta   90.09791692
_cell_angle_gamma   89.96549151
_symmetry_Int_Tables_number   1
_chemical_formula_structural   Yb4VNi(OsO6)2
_chemical_formula_sum   'Yb4 V1 Ni1 Os2 O12'
_cell_volume   232.25824386
_cell_formula_units_Z   1
loop_
 _symmetry_equiv_pos_site_id
 _symmetry_equiv_pos_as_xyz
  1  'x, y, z'
loop_
 _atom_site_type_symbol
 _atom_site_label
 _atom_site_symmetry_multiplicity
 _atom_site_fract_x
 _atom_site_fract_y
 _atom_site_fract_z
 _atom_site_occupancy
  Yb  Yb0  1  0.983112  0.070056  0.260639  1
  Yb  Yb1  1  0.521723  0.558839  0.258129  1
  Yb  Yb2  1  0.016887  0.929943  0.739362  1
  Yb  Yb3  1  0.478276  0.441162  0.741870  1
  V  V4  1  0.500000  0.000000  0.000000  1
  Ni  Ni5  1  0.000000  0.500000  0.500000  1
  Os  Os6  1  0.499999  0.999999  0.500000  1
  Os  Os7  1  0.999999  0.500001  0.999999  1
  O  O8  1  0.686514  0.292927  0.451373  1
  O  O9  1  0.798500  0.794824  0.051513  1
  O  O10  1  0.313486  0.707072  0.548627  1
  O  O11  1  0.201499  0.205177  0.948486  1
  O  O12  1  0.199485  0.189955  0.547191  1
  O  O13  1  0.297175  0.706230  0.949330  1
  O  O14  1  0.800514  0.810044  0.452809  1
  O  O15  1  0.702824  0.293771  0.050669  1
  O  O16  1  0.099713  0.472464  0.242729  1
  O  O17  1  0.414877  0.975113  0.246228  1
  O  O18  1  0.585123  0.024887  0.753772  1
  O  O19  1  0.900287  0.527536  0.757271  1
