# generated using pymatgen
data_Ho3(SnRu)2
_symmetry_space_group_name_H-M   'P 1'
_cell_length_a   5.70525800
_cell_length_b   8.17142600
_cell_length_c   13.85528000
_cell_angle_alpha   90.00000000
_cell_angle_beta   90.00000000
_cell_angle_gamma   90.00000000
_symmetry_Int_Tables_number   1
_chemical_formula_structural   Ho3(SnRu)2
_chemical_formula_sum   'Ho12 Sn8 Ru8'
_cell_volume   645.93444987
_cell_formula_units_Z   4
loop_
 _symmetry_equiv_pos_site_id
 _symmetry_equiv_pos_as_xyz
  1  'x, y, z'
loop_
 _atom_site_type_symbol
 _atom_site_label
 _atom_site_symmetry_multiplicity
 _atom_site_fract_x
 _atom_site_fract_y
 _atom_site_fract_z
 _atom_site_occupancy
  Ho  Ho0  1  0.837854  0.905610  0.592376  1
  Ho  Ho1  1  0.162146  0.405610  0.907624  1
  Ho  Ho2  1  0.837854  0.594390  0.092376  1
  Ho  Ho3  1  0.617524  0.283686  0.750000  1
  Ho  Ho4  1  0.617524  0.216314  0.250000  1
  Ho  Ho5  1  0.837854  0.594390  0.407624  1
  Ho  Ho6  1  0.382476  0.716314  0.250000  1
  Ho  Ho7  1  0.162146  0.094390  0.092376  1
  Ho  Ho8  1  0.162146  0.094390  0.407624  1
  Ho  Ho9  1  0.382476  0.783686  0.750000  1
  Ho  Ho10  1  0.162146  0.405610  0.592376  1
  Ho  Ho11  1  0.837854  0.905610  0.907624  1
  Sn  Sn12  1  0.352847  0.750000  0.500000  1
  Sn  Sn13  1  0.352847  0.750000  0.000000  1
  Sn  Sn14  1  0.105752  0.121194  0.750000  1
  Sn  Sn15  1  0.647153  0.250000  0.500000  1
  Sn  Sn16  1  0.105752  0.378806  0.250000  1
  Sn  Sn17  1  0.894248  0.878806  0.250000  1
  Sn  Sn18  1  0.894248  0.621194  0.750000  1
  Sn  Sn19  1  0.647153  0.250000  0.000000  1
  Ru  Ru20  1  0.350078  0.037630  0.907944  1
  Ru  Ru21  1  0.350078  0.462370  0.092056  1
  Ru  Ru22  1  0.649922  0.962370  0.092056  1
  Ru  Ru23  1  0.649922  0.537630  0.907944  1
  Ru  Ru24  1  0.649922  0.962370  0.407944  1
  Ru  Ru25  1  0.649922  0.537630  0.592056  1
  Ru  Ru26  1  0.350078  0.462370  0.407944  1
  Ru  Ru27  1  0.350078  0.037630  0.592056  1
