# generated using pymatgen
data_Li2La3(MgSn2)2
_symmetry_space_group_name_H-M   'P 1'
_cell_length_a   4.84863619
_cell_length_b   7.54420682
_cell_length_c   8.97997317
_cell_angle_alpha   113.38537783
_cell_angle_beta   105.66246242
_cell_angle_gamma   89.99999138
_symmetry_Int_Tables_number   1
_chemical_formula_structural   Li2La3(MgSn2)2
_chemical_formula_sum   'Li2 La3 Mg2 Sn4'
_cell_volume   288.16018026
_cell_formula_units_Z   1
loop_
 _symmetry_equiv_pos_site_id
 _symmetry_equiv_pos_as_xyz
  1  'x, y, z'
loop_
 _atom_site_type_symbol
 _atom_site_label
 _atom_site_symmetry_multiplicity
 _atom_site_fract_x
 _atom_site_fract_y
 _atom_site_fract_z
 _atom_site_occupancy
  Li  Li0  1  0.327222  0.636560  0.654445  1
  Li  Li1  1  0.672778  0.363440  0.345555  1
  La  La2  1  0.000000  0.000000  0.000000  1
  La  La3  1  0.123942  0.612324  0.247884  1
  La  La4  1  0.876058  0.387676  0.752116  1
  Mg  Mg5  1  0.670945  0.981688  0.341888  1
  Mg  Mg6  1  0.329055  0.018312  0.658112  1
  Sn  Sn7  1  0.496843  0.692718  0.993686  1
  Sn  Sn8  1  0.503157  0.307282  0.006314  1
  Sn  Sn9  1  0.783988  0.771918  0.567974  1
  Sn  Sn10  1  0.216012  0.228082  0.432026  1
