# generated using pymatgen
data_YLuTcB6
_symmetry_space_group_name_H-M   'P 1'
_cell_length_a   3.64764700
_cell_length_b   9.10930500
_cell_length_c   11.49792800
_cell_angle_alpha   90.00000000
_cell_angle_beta   90.00000000
_cell_angle_gamma   90.00000000
_symmetry_Int_Tables_number   1
_chemical_formula_structural   YLuTcB6
_chemical_formula_sum   'Y4 Lu4 Tc4 B24'
_cell_volume   382.04773670
_cell_formula_units_Z   4
loop_
 _symmetry_equiv_pos_site_id
 _symmetry_equiv_pos_as_xyz
  1  'x, y, z'
loop_
 _atom_site_type_symbol
 _atom_site_label
 _atom_site_symmetry_multiplicity
 _atom_site_fract_x
 _atom_site_fract_y
 _atom_site_fract_z
 _atom_site_occupancy
  Y  Y0  1  0.000000  0.323347  0.414381  1
  Y  Y1  1  0.000000  0.676653  0.585619  1
  Y  Y2  1  0.000000  0.823347  0.085619  1
  Y  Y3  1  0.000000  0.176653  0.914381  1
  Lu  Lu4  1  0.000000  0.943339  0.369935  1
  Lu  Lu5  1  0.000000  0.056661  0.630065  1
  Lu  Lu6  1  0.000000  0.443339  0.130065  1
  Lu  Lu7  1  0.000000  0.556661  0.869935  1
  Tc  Tc8  1  0.000000  0.639780  0.319508  1
  Tc  Tc9  1  0.000000  0.360220  0.680492  1
  Tc  Tc10  1  0.000000  0.139780  0.180492  1
  Tc  Tc11  1  0.000000  0.860220  0.819508  1
  B  B12  1  0.500000  0.553915  0.432344  1
  B  B13  1  0.500000  0.446085  0.567656  1
  B  B14  1  0.500000  0.053915  0.067656  1
  B  B15  1  0.500000  0.946085  0.932344  1
  B  B16  1  0.500000  0.750603  0.418320  1
  B  B17  1  0.500000  0.249397  0.581680  1
  B  B18  1  0.500000  0.250603  0.081680  1
  B  B19  1  0.500000  0.749397  0.918320  1
  B  B20  1  0.500000  0.793243  0.265536  1
  B  B21  1  0.500000  0.206757  0.734463  1
  B  B22  1  0.500000  0.293243  0.234464  1
  B  B23  1  0.500000  0.706757  0.765537  1
  B  B24  1  0.500000  0.630251  0.184795  1
  B  B25  1  0.500000  0.369749  0.815205  1
  B  B26  1  0.500000  0.130251  0.315205  1
  B  B27  1  0.500000  0.869749  0.684795  1
  B  B28  1  0.500000  0.981967  0.212791  1
  B  B29  1  0.500000  0.018033  0.787209  1
  B  B30  1  0.500000  0.481967  0.287209  1
  B  B31  1  0.500000  0.518033  0.712791  1
  B  B32  1  0.500000  0.598362  0.027238  1
  B  B33  1  0.500000  0.401638  0.972762  1
  B  B34  1  0.500000  0.098362  0.472762  1
  B  B35  1  0.500000  0.901638  0.527238  1
