# generated using pymatgen
data_Ta3Ti16Si16Mo
_symmetry_space_group_name_H-M   'P 1'
_cell_length_a   6.70823317
_cell_length_b   6.70823260
_cell_length_c   12.26902217
_cell_angle_alpha   90.06804237
_cell_angle_beta   89.93195592
_cell_angle_gamma   90.04300600
_symmetry_Int_Tables_number   1
_chemical_formula_structural   Ta3Ti16Si16Mo
_chemical_formula_sum   'Ta3 Ti16 Si16 Mo1'
_cell_volume   552.10983015
_cell_formula_units_Z   1
loop_
 _symmetry_equiv_pos_site_id
 _symmetry_equiv_pos_as_xyz
  1  'x, y, z'
loop_
 _atom_site_type_symbol
 _atom_site_label
 _atom_site_symmetry_multiplicity
 _atom_site_fract_x
 _atom_site_fract_y
 _atom_site_fract_z
 _atom_site_occupancy
  Ta  Ta0  1  0.170119  0.170119  0.000000  1
  Ta  Ta1  1  0.329322  0.670592  0.250980  1
  Ta  Ta2  1  0.670592  0.329322  0.749020  1
  Ti  Ti3  1  0.993980  0.149536  0.620354  1
  Ti  Ti4  1  0.350361  0.494671  0.871312  1
  Ti  Ti5  1  0.649588  0.504613  0.371523  1
  Ti  Ti6  1  0.494671  0.350361  0.128688  1
  Ti  Ti7  1  0.504613  0.649588  0.628477  1
  Ti  Ti8  1  0.005060  0.850417  0.122508  1
  Ti  Ti9  1  0.149536  0.993980  0.379646  1
  Ti  Ti10  1  0.850417  0.005060  0.877492  1
  Ti  Ti11  1  0.003699  0.343656  0.220859  1
  Ti  Ti12  1  0.158285  0.503339  0.470271  1
  Ti  Ti13  1  0.843517  0.496042  0.969726  1
  Ti  Ti14  1  0.503339  0.158285  0.529729  1
  Ti  Ti15  1  0.496042  0.843517  0.030274  1
  Ti  Ti16  1  0.996004  0.655758  0.720920  1
  Ti  Ti17  1  0.343656  0.003699  0.779141  1
  Ti  Ti18  1  0.655758  0.996004  0.279080  1
  Si  Si19  1  0.045451  0.301831  0.812122  1
  Si  Si20  1  0.197875  0.545985  0.062455  1
  Si  Si21  1  0.803149  0.458479  0.561733  1
  Si  Si22  1  0.545985  0.197875  0.937545  1
  Si  Si23  1  0.458479  0.803149  0.438267  1
  Si  Si24  1  0.952513  0.699688  0.313888  1
  Si  Si25  1  0.301831  0.045451  0.187878  1
  Si  Si26  1  0.699688  0.952513  0.686112  1
  Si  Si27  1  0.292306  0.359001  0.671784  1
  Si  Si28  1  0.140126  0.792358  0.921946  1
  Si  Si29  1  0.858862  0.206262  0.421541  1
  Si  Si30  1  0.792358  0.140126  0.078054  1
  Si  Si31  1  0.206262  0.858862  0.578459  1
  Si  Si32  1  0.707168  0.640723  0.172249  1
  Si  Si33  1  0.359001  0.292306  0.328216  1
  Si  Si34  1  0.640723  0.707168  0.827751  1
  Mo  Mo35  1  0.829660  0.829660  0.500000  1
