# generated using pymatgen
data_Tb10InSn4Bi
_symmetry_space_group_name_H-M   'P 1'
_cell_length_a   9.03832463
_cell_length_b   9.03571952
_cell_length_c   6.63344500
_cell_angle_alpha   90.00000000
_cell_angle_beta   90.00000000
_cell_angle_gamma   119.96514220
_symmetry_Int_Tables_number   1
_chemical_formula_structural   Tb10InSn4Bi
_chemical_formula_sum   'Tb10 In1 Sn4 Bi1'
_cell_volume   469.32412610
_cell_formula_units_Z   1
loop_
 _symmetry_equiv_pos_site_id
 _symmetry_equiv_pos_as_xyz
  1  'x, y, z'
loop_
 _atom_site_type_symbol
 _atom_site_label
 _atom_site_symmetry_multiplicity
 _atom_site_fract_x
 _atom_site_fract_y
 _atom_site_fract_z
 _atom_site_occupancy
  Tb  Tb0  1  0.670451  0.331941  0.001943  1
  Tb  Tb1  1  0.333190  0.671024  0.001981  1
  Tb  Tb2  1  0.333190  0.671024  0.498019  1
  Tb  Tb3  1  0.670451  0.331941  0.498057  1
  Tb  Tb4  1  0.763683  0.764877  0.750000  1
  Tb  Tb5  1  0.237282  0.994022  0.750000  1
  Tb  Tb6  1  0.992976  0.236848  0.750000  1
  Tb  Tb7  1  0.238656  0.238486  0.250000  1
  Tb  Tb8  1  0.760943  0.000415  0.250000  1
  Tb  Tb9  1  0.000465  0.760448  0.250000  1
  In  In10  1  0.603100  0.999381  0.750000  1
  Sn  Sn11  1  0.999367  0.604372  0.750000  1
  Sn  Sn12  1  0.606026  0.605535  0.250000  1
  Sn  Sn13  1  0.395117  0.001662  0.250000  1
  Sn  Sn14  1  0.002139  0.395087  0.250000  1
  Bi  Bi15  1  0.392964  0.392937  0.750000  1
