# generated using pymatgen
data_Na4Th3(TlBr9)2
_symmetry_space_group_name_H-M   'P 1'
_cell_length_a   13.52095900
_cell_length_b   13.58663002
_cell_length_c   6.85518800
_cell_angle_alpha   90.77129179
_cell_angle_beta   90.00000000
_cell_angle_gamma   119.84023010
_symmetry_Int_Tables_number   1
_chemical_formula_structural   Na4Th3(TlBr9)2
_chemical_formula_sum   'Na4 Th3 Tl2 Br18'
_cell_volume   1092.22946124
_cell_formula_units_Z   1
loop_
 _symmetry_equiv_pos_site_id
 _symmetry_equiv_pos_as_xyz
  1  'x, y, z'
loop_
 _atom_site_type_symbol
 _atom_site_label
 _atom_site_symmetry_multiplicity
 _atom_site_fract_x
 _atom_site_fract_y
 _atom_site_fract_z
 _atom_site_occupancy
  Na  Na0  1  0.660314  0.997272  0.996633  1
  Na  Na1  1  0.336958  0.997272  0.996633  1
  Na  Na2  1  0.001579  0.664565  0.006570  1
  Na  Na3  1  0.662986  0.664565  0.006570  1
  Th  Th4  1  0.666437  0.332873  0.498994  1
  Th  Th5  1  0.341004  0.682010  0.498572  1
  Th  Th6  1  0.992884  0.985768  0.001582  1
  Tl  Tl7  1  0.341548  0.340617  0.997071  1
  Tl  Tl8  1  0.999069  0.340617  0.997071  1
  Br  Br9  1  0.569039  0.138080  0.748540  1
  Br  Br10  1  0.760748  0.222377  0.266965  1
  Br  Br11  1  0.785712  0.890105  0.222113  1
  Br  Br12  1  0.449816  0.586511  0.262753  1
  Br  Br13  1  0.762726  0.525453  0.250069  1
  Br  Br14  1  0.093533  0.187066  0.237089  1
  Br  Br15  1  0.239353  0.776548  0.751299  1
  Br  Br16  1  0.575032  0.446106  0.730771  1
  Br  Br17  1  0.236939  0.473880  0.706591  1
  Br  Br18  1  0.136696  0.586511  0.262753  1
  Br  Br19  1  0.196184  0.086365  0.771797  1
  Br  Br20  1  0.104393  0.890105  0.222113  1
  Br  Br21  1  0.537196  0.776548  0.751299  1
  Br  Br22  1  0.440127  0.880253  0.258465  1
  Br  Br23  1  0.890181  0.086365  0.771797  1
  Br  Br24  1  0.871073  0.446106  0.730771  1
  Br  Br25  1  0.461629  0.222377  0.266965  1
  Br  Br26  1  0.886843  0.773686  0.788153  1
