# generated using pymatgen
data_Ti7V(As2Se)2
_symmetry_space_group_name_H-M   'P 1'
_cell_length_a   7.34541958
_cell_length_b   7.34541919
_cell_length_c   18.60066400
_cell_angle_alpha   90.00000000
_cell_angle_beta   90.00000000
_cell_angle_gamma   152.25539108
_symmetry_Int_Tables_number   1
_chemical_formula_structural   Ti7V(As2Se)2
_chemical_formula_sum   'Ti14 V2 As8 Se4'
_cell_volume   467.20822406
_cell_formula_units_Z   2
loop_
 _symmetry_equiv_pos_site_id
 _symmetry_equiv_pos_as_xyz
  1  'x, y, z'
loop_
 _atom_site_type_symbol
 _atom_site_label
 _atom_site_symmetry_multiplicity
 _atom_site_fract_x
 _atom_site_fract_y
 _atom_site_fract_z
 _atom_site_occupancy
  Ti  Ti0  1  0.058351  0.941649  0.750000  1
  Ti  Ti1  1  0.941649  0.058351  0.250000  1
  Ti  Ti2  1  0.733502  0.266498  0.157954  1
  Ti  Ti3  1  0.266498  0.733502  0.842046  1
  Ti  Ti4  1  0.266498  0.733502  0.657954  1
  Ti  Ti5  1  0.733502  0.266498  0.342046  1
  Ti  Ti6  1  0.533147  0.466853  0.114120  1
  Ti  Ti7  1  0.466853  0.533147  0.885880  1
  Ti  Ti8  1  0.466853  0.533147  0.614120  1
  Ti  Ti9  1  0.533147  0.466853  0.385880  1
  Ti  Ti10  1  0.665972  0.334028  0.971642  1
  Ti  Ti11  1  0.334028  0.665972  0.028358  1
  Ti  Ti12  1  0.334028  0.665972  0.471642  1
  Ti  Ti13  1  0.665972  0.334028  0.528358  1
  V  V14  1  0.000000  0.000000  0.000000  1
  V  V15  1  0.000000  0.000000  0.500000  1
  As  As16  1  0.902389  0.097611  0.115688  1
  As  As17  1  0.097611  0.902389  0.884312  1
  As  As18  1  0.097611  0.902389  0.615688  1
  As  As19  1  0.902389  0.097611  0.384312  1
  As  As20  1  0.842218  0.157782  0.926558  1
  As  As21  1  0.157782  0.842218  0.073442  1
  As  As22  1  0.157782  0.842218  0.426558  1
  As  As23  1  0.842218  0.157782  0.573442  1
  Se  Se24  1  0.422280  0.577720  0.750000  1
  Se  Se25  1  0.577720  0.422280  0.250000  1
  Se  Se26  1  0.699769  0.300231  0.750000  1
  Se  Se27  1  0.300231  0.699769  0.250000  1
