# generated using pymatgen
data_Tb3Tm(ScRh)4
_symmetry_space_group_name_H-M   'P 1'
_cell_length_a   4.23451000
_cell_length_b   7.17738854
_cell_length_c   8.77252868
_cell_angle_alpha   90.57047957
_cell_angle_beta   90.00000000
_cell_angle_gamma   90.00000000
_symmetry_Int_Tables_number   1
_chemical_formula_structural   Tb3Tm(ScRh)4
_chemical_formula_sum   'Tb3 Tm1 Sc4 Rh4'
_cell_volume   266.60782306
_cell_formula_units_Z   1
loop_
 _symmetry_equiv_pos_site_id
 _symmetry_equiv_pos_as_xyz
  1  'x, y, z'
loop_
 _atom_site_type_symbol
 _atom_site_label
 _atom_site_symmetry_multiplicity
 _atom_site_fract_x
 _atom_site_fract_y
 _atom_site_fract_z
 _atom_site_occupancy
  Tb  Tb0  1  0.250000  0.983606  0.326179  1
  Tb  Tb1  1  0.750000  0.515312  0.825051  1
  Tb  Tb2  1  0.250000  0.484600  0.174343  1
  Tm  Tm3  1  0.750000  0.018306  0.672881  1
  Sc  Sc4  1  0.750000  0.640382  0.436787  1
  Sc  Sc5  1  0.750000  0.138243  0.064101  1
  Sc  Sc6  1  0.250000  0.360244  0.565516  1
  Sc  Sc7  1  0.250000  0.859493  0.931136  1
  Rh  Rh8  1  0.750000  0.757242  0.099790  1
  Rh  Rh9  1  0.750000  0.256260  0.402310  1
  Rh  Rh10  1  0.250000  0.240791  0.898515  1
  Rh  Rh11  1  0.250000  0.745522  0.603391  1
