# generated using pymatgen
data_Nd4Sm2Al24GaOs7
_symmetry_space_group_name_H-M   'P 1'
_cell_length_a   8.94476839
_cell_length_b   8.94476771
_cell_length_c   9.66019424
_cell_angle_alpha   90.28798463
_cell_angle_beta   89.71201422
_cell_angle_gamma   119.85978041
_symmetry_Int_Tables_number   1
_chemical_formula_structural   Nd4Sm2Al24GaOs7
_chemical_formula_sum   'Nd4 Sm2 Al24 Ga1 Os7'
_cell_volume   670.28458900
_cell_formula_units_Z   1
loop_
 _symmetry_equiv_pos_site_id
 _symmetry_equiv_pos_as_xyz
  1  'x, y, z'
loop_
 _atom_site_type_symbol
 _atom_site_label
 _atom_site_symmetry_multiplicity
 _atom_site_fract_x
 _atom_site_fract_y
 _atom_site_fract_z
 _atom_site_occupancy
  Nd  Nd0  1  0.191838  0.381617  0.244202  1
  Nd  Nd1  1  0.808162  0.618383  0.755798  1
  Nd  Nd2  1  0.618383  0.808162  0.244202  1
  Nd  Nd3  1  0.381617  0.191838  0.755798  1
  Sm  Sm4  1  0.192918  0.807082  0.256285  1
  Sm  Sm5  1  0.807082  0.192918  0.743715  1
  Al  Al6  1  0.326221  0.673779  0.016682  1
  Al  Al7  1  0.673779  0.326221  0.983318  1
  Al  Al8  1  0.666221  0.333779  0.514764  1
  Al  Al9  1  0.333779  0.666221  0.485236  1
  Al  Al10  1  0.161982  0.326134  0.570079  1
  Al  Al11  1  0.838018  0.673866  0.429921  1
  Al  Al12  1  0.673866  0.838018  0.570079  1
  Al  Al13  1  0.854060  0.678703  0.081207  1
  Al  Al14  1  0.326134  0.161982  0.429921  1
  Al  Al15  1  0.145940  0.321297  0.918793  1
  Al  Al16  1  0.163082  0.836918  0.575346  1
  Al  Al17  1  0.321297  0.145940  0.081207  1
  Al  Al18  1  0.836918  0.163082  0.424654  1
  Al  Al19  1  0.678703  0.854060  0.918793  1
  Al  Al20  1  0.836836  0.163164  0.074740  1
  Al  Al21  1  0.163164  0.836836  0.925260  1
  Al  Al22  1  0.562075  0.121634  0.249390  1
  Al  Al23  1  0.437925  0.878366  0.750610  1
  Al  Al24  1  0.878366  0.437925  0.249390  1
  Al  Al25  1  0.121634  0.562075  0.750610  1
  Al  Al26  1  0.567254  0.432746  0.259937  1
  Al  Al27  1  0.432746  0.567254  0.740063  1
  Al  Al28  1  0.999576  0.000424  0.250861  1
  Al  Al29  1  0.000424  0.999576  0.749139  1
  Ga  Ga30  1  0.500000  0.500000  0.000000  1
  Os  Os31  1  0.500000  0.000000  0.000000  1
  Os  Os32  1  0.000000  0.500000  0.000000  1
  Os  Os33  1  0.500000  0.000000  0.500000  1
  Os  Os34  1  0.000000  0.500000  0.500000  1
  Os  Os35  1  0.500000  0.500000  0.500000  1
  Os  Os36  1  0.000000  0.000000  0.000000  1
  Os  Os37  1  0.000000  0.000000  0.500000  1
