# generated using pymatgen
data_Gd3Dy(MoO6)2
_symmetry_space_group_name_H-M   'P 1'
_cell_length_a   10.04722941
_cell_length_b   10.04722914
_cell_length_c   5.45542102
_cell_angle_alpha   75.00946491
_cell_angle_beta   75.00946617
_cell_angle_gamma   68.19229461
_symmetry_Int_Tables_number   1
_chemical_formula_structural   Gd3Dy(MoO6)2
_chemical_formula_sum   'Gd6 Dy2 Mo4 O24'
_cell_volume   485.71422212
_cell_formula_units_Z   2
loop_
 _symmetry_equiv_pos_site_id
 _symmetry_equiv_pos_as_xyz
  1  'x, y, z'
loop_
 _atom_site_type_symbol
 _atom_site_label
 _atom_site_symmetry_multiplicity
 _atom_site_fract_x
 _atom_site_fract_y
 _atom_site_fract_z
 _atom_site_occupancy
  Gd  Gd0  1  0.784166  0.552069  0.620367  1
  Gd  Gd1  1  0.447931  0.215834  0.879633  1
  Gd  Gd2  1  0.215834  0.447931  0.379633  1
  Gd  Gd3  1  0.552069  0.784166  0.120367  1
  Gd  Gd4  1  0.863559  0.136441  0.750000  1
  Gd  Gd5  1  0.136441  0.863559  0.250000  1
  Dy  Dy6  1  0.393475  0.606525  0.750000  1
  Dy  Dy7  1  0.606525  0.393475  0.250000  1
  Mo  Mo8  1  0.988824  0.703571  0.938907  1
  Mo  Mo9  1  0.296429  0.011176  0.561093  1
  Mo  Mo10  1  0.011176  0.296429  0.061093  1
  Mo  Mo11  1  0.703571  0.988824  0.438907  1
  O  O12  1  0.427815  0.392424  0.077098  1
  O  O13  1  0.607576  0.572185  0.422902  1
  O  O14  1  0.572185  0.607576  0.922902  1
  O  O15  1  0.392424  0.427815  0.577098  1
  O  O16  1  0.193037  0.662804  0.077898  1
  O  O17  1  0.337196  0.806963  0.422102  1
  O  O18  1  0.806963  0.337196  0.922102  1
  O  O19  1  0.662804  0.193037  0.577898  1
  O  O20  1  0.115379  0.672740  0.631245  1
  O  O21  1  0.327260  0.884621  0.868755  1
  O  O22  1  0.884621  0.327260  0.368755  1
  O  O23  1  0.672740  0.115379  0.131245  1
  O  O24  1  0.710718  0.818767  0.363993  1
  O  O25  1  0.181233  0.289282  0.136007  1
  O  O26  1  0.289282  0.181233  0.636007  1
  O  O27  1  0.818767  0.710718  0.863993  1
  O  O28  1  0.887496  0.951787  0.485369  1
  O  O29  1  0.048213  0.112504  0.014631  1
  O  O30  1  0.112504  0.048213  0.514631  1
  O  O31  1  0.951787  0.887496  0.985369  1
  O  O32  1  0.569699  0.975500  0.741705  1
  O  O33  1  0.024500  0.430301  0.758295  1
  O  O34  1  0.430301  0.024500  0.258295  1
  O  O35  1  0.975500  0.569699  0.241705  1
