# generated using pymatgen
data_La16Cd4FeCoPd2
_symmetry_space_group_name_H-M   'P 1'
_cell_length_a   10.07649911
_cell_length_b   10.13758052
_cell_length_c   10.07650033
_cell_angle_alpha   59.85860496
_cell_angle_beta   60.02921127
_cell_angle_gamma   59.85860742
_symmetry_Int_Tables_number   1
_chemical_formula_structural   La16Cd4FeCoPd2
_chemical_formula_sum   'La16 Cd4 Fe1 Co1 Pd2'
_cell_volume   726.44478831
_cell_formula_units_Z   1
loop_
 _symmetry_equiv_pos_site_id
 _symmetry_equiv_pos_as_xyz
  1  'x, y, z'
loop_
 _atom_site_type_symbol
 _atom_site_label
 _atom_site_symmetry_multiplicity
 _atom_site_fract_x
 _atom_site_fract_y
 _atom_site_fract_z
 _atom_site_occupancy
  La  La0  1  0.940349  0.936627  0.561212  1
  La  La1  1  0.562728  0.936367  0.562728  1
  La  La2  1  0.561212  0.936627  0.940349  1
  La  La3  1  0.675561  0.703892  0.310983  1
  La  La4  1  0.162397  0.149267  0.538953  1
  La  La5  1  0.310983  0.703892  0.675561  1
  La  La6  1  0.158348  0.139029  0.158348  1
  La  La7  1  0.538953  0.149267  0.162397  1
  La  La8  1  0.312069  0.689732  0.312069  1
  La  La9  1  0.309298  0.309739  0.677218  1
  La  La10  1  0.694968  0.305032  0.694968  1
  La  La11  1  0.940136  0.560597  0.562560  1
  La  La12  1  0.562560  0.560597  0.940136  1
  La  La13  1  0.156692  0.547997  0.156692  1
  La  La14  1  0.677218  0.309739  0.309298  1
  La  La15  1  0.940023  0.557919  0.940023  1
  Cd  Cd16  1  0.238533  0.920389  0.919842  1
  Cd  Cd17  1  0.921354  0.921026  0.921354  1
  Cd  Cd18  1  0.919842  0.920389  0.238533  1
  Cd  Cd19  1  0.920813  0.237180  0.920813  1
  Fe  Fe20  1  0.360100  0.921181  0.360100  1
  Co  Co21  1  0.358240  0.360175  0.358240  1
  Pd  Pd22  1  0.923447  0.361669  0.354174  1
  Pd  Pd23  1  0.354174  0.361669  0.923447  1
