# generated using pymatgen
data_Ho7TmTi11Si16W
_symmetry_space_group_name_H-M   'P 1'
_cell_length_a   7.01534877
_cell_length_b   7.01576275
_cell_length_c   12.89872310
_cell_angle_alpha   89.97082334
_cell_angle_beta   90.03673331
_cell_angle_gamma   90.05689006
_symmetry_Int_Tables_number   1
_chemical_formula_structural   Ho7TmTi11Si16W
_chemical_formula_sum   'Ho7 Tm1 Ti11 Si16 W1'
_cell_volume   634.84911844
_cell_formula_units_Z   1
loop_
 _symmetry_equiv_pos_site_id
 _symmetry_equiv_pos_as_xyz
  1  'x, y, z'
loop_
 _atom_site_type_symbol
 _atom_site_label
 _atom_site_symmetry_multiplicity
 _atom_site_fract_x
 _atom_site_fract_y
 _atom_site_fract_z
 _atom_site_occupancy
  Ho  Ho0  1  0.497075  0.840476  0.717228  1
  Ho  Ho1  1  0.501308  0.159275  0.215746  1
  Ho  Ho2  1  0.840344  0.497074  0.282716  1
  Ho  Ho3  1  0.159333  0.501348  0.784307  1
  Ho  Ho4  1  0.658060  0.998324  0.967020  1
  Ho  Ho5  1  0.003123  0.340682  0.533005  1
  Ho  Ho6  1  0.998286  0.658020  0.032919  1
  Tm  Tm7  1  0.341025  0.002630  0.466968  1
  Ti  Ti8  1  0.173959  0.827325  0.249652  1
  Ti  Ti9  1  0.827256  0.173861  0.750394  1
  Ti  Ti10  1  0.672876  0.673193  0.499997  1
  Ti  Ti11  1  0.153522  0.008720  0.876499  1
  Ti  Ti12  1  0.492018  0.651143  0.124438  1
  Ti  Ti13  1  0.506828  0.348825  0.626165  1
  Ti  Ti14  1  0.651079  0.492009  0.875590  1
  Ti  Ti15  1  0.348911  0.506961  0.373821  1
  Ti  Ti16  1  0.848588  0.992643  0.375799  1
  Ti  Ti17  1  0.008777  0.153478  0.123500  1
  Ti  Ti18  1  0.992683  0.848545  0.624153  1
  Si  Si19  1  0.202532  0.130923  0.684097  1
  Si  Si20  1  0.369327  0.700962  0.934181  1
  Si  Si21  1  0.630575  0.296944  0.434162  1
  Si  Si22  1  0.700974  0.369311  0.065820  1
  Si  Si23  1  0.297375  0.631378  0.565742  1
  Si  Si24  1  0.797385  0.869127  0.184220  1
  Si  Si25  1  0.131271  0.202118  0.316019  1
  Si  Si26  1  0.869092  0.797402  0.815781  1
  Si  Si27  1  0.291066  0.954101  0.064751  1
  Si  Si28  1  0.546352  0.791912  0.315089  1
  Si  Si29  1  0.452614  0.208351  0.815488  1
  Si  Si30  1  0.791626  0.546613  0.685116  1
  Si  Si31  1  0.208365  0.452545  0.184494  1
  Si  Si32  1  0.708225  0.047199  0.564777  1
  Si  Si33  1  0.954085  0.291058  0.935256  1
  Si  Si34  1  0.047585  0.709031  0.435090  1
  W  W35  1  0.326499  0.326494  0.999998  1
