# generated using pymatgen
data_PrNd3Al18(IrPt2)2
_symmetry_space_group_name_H-M   'P 1'
_cell_length_a   7.66560908
_cell_length_b   7.66601740
_cell_length_c   9.58233100
_cell_angle_alpha   90.00000000
_cell_angle_beta   90.00000000
_cell_angle_gamma   119.62191597
_symmetry_Int_Tables_number   1
_chemical_formula_structural   PrNd3Al18(IrPt2)2
_chemical_formula_sum   'Pr1 Nd3 Al18 Ir2 Pt4'
_cell_volume   489.50854711
_cell_formula_units_Z   1
loop_
 _symmetry_equiv_pos_site_id
 _symmetry_equiv_pos_as_xyz
  1  'x, y, z'
loop_
 _atom_site_type_symbol
 _atom_site_label
 _atom_site_symmetry_multiplicity
 _atom_site_fract_x
 _atom_site_fract_y
 _atom_site_fract_z
 _atom_site_occupancy
  Pr  Pr0  1  0.993854  0.667541  0.250000  1
  Nd  Nd1  1  0.006125  0.332372  0.750000  1
  Nd  Nd2  1  0.667605  0.993874  0.250000  1
  Nd  Nd3  1  0.332373  0.006146  0.750000  1
  Al  Al4  1  0.128809  0.129002  0.250000  1
  Al  Al5  1  0.871293  0.871307  0.750000  1
  Al  Al6  1  0.001241  0.330584  0.073808  1
  Al  Al7  1  0.998756  0.669185  0.925877  1
  Al  Al8  1  0.998756  0.669185  0.574123  1
  Al  Al9  1  0.331051  0.001478  0.426198  1
  Al  Al10  1  0.001241  0.330584  0.426192  1
  Al  Al11  1  0.669188  0.998765  0.573942  1
  Al  Al12  1  0.669188  0.998765  0.926058  1
  Al  Al13  1  0.331051  0.001478  0.073802  1
  Al  Al14  1  0.331199  0.331196  0.552162  1
  Al  Al15  1  0.668592  0.668803  0.447999  1
  Al  Al16  1  0.668592  0.668803  0.052001  1
  Al  Al17  1  0.331199  0.331196  0.947838  1
  Al  Al18  1  0.340533  0.544500  0.250000  1
  Al  Al19  1  0.659621  0.455411  0.750000  1
  Al  Al20  1  0.544269  0.340145  0.250000  1
  Al  Al21  1  0.455422  0.659637  0.750000  1
  Ir  Ir22  1  0.000016  0.000133  0.999894  1
  Ir  Ir23  1  0.000016  0.000133  0.500106  1
  Pt  Pt24  1  0.671136  0.328632  0.999915  1
  Pt  Pt25  1  0.328869  0.671256  0.999916  1
  Pt  Pt26  1  0.328869  0.671256  0.500084  1
  Pt  Pt27  1  0.671136  0.328632  0.500085  1
