# generated using pymatgen
data_Pr8Nd9Er3Pb16
_symmetry_space_group_name_H-M   'P 1'
_cell_length_a   8.42518301
_cell_length_b   8.53485002
_cell_length_c   16.24929400
_cell_angle_alpha   90.00000000
_cell_angle_beta   90.00000000
_cell_angle_gamma   90.00155024
_symmetry_Int_Tables_number   1
_chemical_formula_structural   Pr8Nd9Er3Pb16
_chemical_formula_sum   'Pr8 Nd9 Er3 Pb16'
_cell_volume   1168.44892429
_cell_formula_units_Z   1
loop_
 _symmetry_equiv_pos_site_id
 _symmetry_equiv_pos_as_xyz
  1  'x, y, z'
loop_
 _atom_site_type_symbol
 _atom_site_label
 _atom_site_symmetry_multiplicity
 _atom_site_fract_x
 _atom_site_fract_y
 _atom_site_fract_z
 _atom_site_occupancy
  Pr  Pr0  1  0.533350  0.320947  0.899870  1
  Pr  Pr1  1  0.032620  0.176846  0.600385  1
  Pr  Pr2  1  0.466681  0.677963  0.398816  1
  Pr  Pr3  1  0.966907  0.821916  0.100634  1
  Pr  Pr4  1  0.466681  0.677963  0.101184  1
  Pr  Pr5  1  0.966907  0.821916  0.399366  1
  Pr  Pr6  1  0.533350  0.320947  0.600130  1
  Pr  Pr7  1  0.032620  0.176846  0.899615  1
  Nd  Nd8  1  0.378662  0.841693  0.881331  1
  Nd  Nd9  1  0.876890  0.659205  0.618552  1
  Nd  Nd10  1  0.622437  0.158641  0.380537  1
  Nd  Nd11  1  0.122338  0.341341  0.120096  1
  Nd  Nd12  1  0.622437  0.158641  0.119463  1
  Nd  Nd13  1  0.122338  0.341341  0.379904  1
  Nd  Nd14  1  0.378662  0.841693  0.618669  1
  Nd  Nd15  1  0.876890  0.659205  0.881448  1
  Nd  Nd16  1  0.208015  0.502811  0.750000  1
  Er  Er17  1  0.709185  0.995546  0.750000  1
  Er  Er18  1  0.790333  0.496679  0.250000  1
  Er  Er19  1  0.290758  0.003738  0.250000  1
  Pb  Pb20  1  0.281629  0.031230  0.046346  1
  Pb  Pb21  1  0.781808  0.469239  0.453670  1
  Pb  Pb22  1  0.718869  0.969305  0.545542  1
  Pb  Pb23  1  0.218317  0.532284  0.956371  1
  Pb  Pb24  1  0.718869  0.969305  0.954458  1
  Pb  Pb25  1  0.218317  0.532284  0.543629  1
  Pb  Pb26  1  0.281629  0.031230  0.453654  1
  Pb  Pb27  1  0.781808  0.469239  0.046330  1
  Pb  Pb28  1  0.576081  0.628087  0.750000  1
  Pb  Pb29  1  0.071164  0.878052  0.750000  1
  Pb  Pb30  1  0.428608  0.374348  0.250000  1
  Pb  Pb31  1  0.927957  0.125075  0.250000  1
  Pb  Pb32  1  0.344086  0.147393  0.750000  1
  Pb  Pb33  1  0.839762  0.346220  0.750000  1
  Pb  Pb34  1  0.656248  0.847750  0.250000  1
  Pb  Pb35  1  0.156793  0.653082  0.250000  1
