# generated using pymatgen
data_Tb4Hg3RhPb2
_symmetry_space_group_name_H-M   'P 1'
_cell_length_a   8.15954279
_cell_length_b   8.15954328
_cell_length_c   3.88537400
_cell_angle_alpha   90.00000000
_cell_angle_beta   90.00000000
_cell_angle_gamma   90.81235338
_symmetry_Int_Tables_number   1
_chemical_formula_structural   Tb4Hg3RhPb2
_chemical_formula_sum   'Tb4 Hg3 Rh1 Pb2'
_cell_volume   258.65498380
_cell_formula_units_Z   1
loop_
 _symmetry_equiv_pos_site_id
 _symmetry_equiv_pos_as_xyz
  1  'x, y, z'
loop_
 _atom_site_type_symbol
 _atom_site_label
 _atom_site_symmetry_multiplicity
 _atom_site_fract_x
 _atom_site_fract_y
 _atom_site_fract_z
 _atom_site_occupancy
  Tb  Tb0  1  0.638810  0.178238  0.500000  1
  Tb  Tb1  1  0.194995  0.305005  0.500000  1
  Tb  Tb2  1  0.829364  0.670636  0.500000  1
  Tb  Tb3  1  0.321762  0.861190  0.500000  1
  Hg  Hg4  1  0.132708  0.622892  0.000000  1
  Hg  Hg5  1  0.624139  0.875861  0.000000  1
  Hg  Hg6  1  0.877108  0.367292  0.000000  1
  Rh  Rh7  1  0.376292  0.123708  0.000000  1
  Pb  Pb8  1  0.007660  0.002838  0.000000  1
  Pb  Pb9  1  0.497162  0.492340  0.000000  1
