# generated using pymatgen
data_Cs5Fe3Se7
_symmetry_space_group_name_H-M   'P 1'
_cell_length_a   11.09785878
_cell_length_b   11.09785896
_cell_length_c   9.41360141
_cell_angle_alpha   78.70165520
_cell_angle_beta   78.70165765
_cell_angle_gamma   75.13253644
_symmetry_Int_Tables_number   1
_chemical_formula_structural   Cs5Fe3Se7
_chemical_formula_sum   'Cs10 Fe6 Se14'
_cell_volume   1085.81884770
_cell_formula_units_Z   2
loop_
 _symmetry_equiv_pos_site_id
 _symmetry_equiv_pos_as_xyz
  1  'x, y, z'
loop_
 _atom_site_type_symbol
 _atom_site_label
 _atom_site_symmetry_multiplicity
 _atom_site_fract_x
 _atom_site_fract_y
 _atom_site_fract_z
 _atom_site_occupancy
  Cs  Cs0  1  0.037957  0.429572  0.728581  1
  Cs  Cs1  1  0.429572  0.037957  0.728581  1
  Cs  Cs2  1  0.962043  0.570428  0.271419  1
  Cs  Cs3  1  0.570428  0.962043  0.271419  1
  Cs  Cs4  1  0.289522  0.710478  0.000000  1
  Cs  Cs5  1  0.710478  0.289522  0.000000  1
  Cs  Cs6  1  0.847765  0.152235  0.500000  1
  Cs  Cs7  1  0.152235  0.847765  0.500000  1
  Cs  Cs8  1  0.429479  0.429479  0.690477  1
  Cs  Cs9  1  0.570521  0.570521  0.309523  1
  Fe  Fe10  1  0.206066  0.206066  0.188854  1
  Fe  Fe11  1  0.793934  0.793934  0.811146  1
  Fe  Fe12  1  0.069687  0.069687  0.059650  1
  Fe  Fe13  1  0.930313  0.930313  0.940350  1
  Fe  Fe14  1  0.333368  0.333368  0.328810  1
  Fe  Fe15  1  0.666632  0.666632  0.671190  1
  Se  Se16  1  0.002030  0.276020  0.121014  1
  Se  Se17  1  0.276020  0.002030  0.121014  1
  Se  Se18  1  0.997970  0.723980  0.878986  1
  Se  Se19  1  0.723980  0.997970  0.878986  1
  Se  Se20  1  0.195468  0.195468  0.442504  1
  Se  Se21  1  0.804532  0.804532  0.557496  1
  Se  Se22  1  0.063718  0.063718  0.812156  1
  Se  Se23  1  0.936282  0.936282  0.187844  1
  Se  Se24  1  0.340458  0.340458  0.072678  1
  Se  Se25  1  0.659542  0.659542  0.927322  1
  Se  Se26  1  0.250552  0.537942  0.390882  1
  Se  Se27  1  0.537942  0.250552  0.390882  1
  Se  Se28  1  0.749448  0.462058  0.609118  1
  Se  Se29  1  0.462058  0.749448  0.609118  1
