# generated using pymatgen
data_Sr12In3Sn5Pt8
_symmetry_space_group_name_H-M   'P 1'
_cell_length_a   6.16874500
_cell_length_b   8.87882556
_cell_length_c   14.41727470
_cell_angle_alpha   90.28214120
_cell_angle_beta   90.00000000
_cell_angle_gamma   90.00000000
_symmetry_Int_Tables_number   1
_chemical_formula_structural   Sr12In3Sn5Pt8
_chemical_formula_sum   'Sr12 In3 Sn5 Pt8'
_cell_volume   789.64201721
_cell_formula_units_Z   1
loop_
 _symmetry_equiv_pos_site_id
 _symmetry_equiv_pos_as_xyz
  1  'x, y, z'
loop_
 _atom_site_type_symbol
 _atom_site_label
 _atom_site_symmetry_multiplicity
 _atom_site_fract_x
 _atom_site_fract_y
 _atom_site_fract_z
 _atom_site_occupancy
  Sr  Sr0  1  0.151623  0.602298  0.097455  1
  Sr  Sr1  1  0.151623  0.897702  0.902545  1
  Sr  Sr2  1  0.849248  0.103871  0.403009  1
  Sr  Sr3  1  0.849248  0.396129  0.596991  1
  Sr  Sr4  1  0.852205  0.394253  0.903377  1
  Sr  Sr5  1  0.852205  0.105747  0.096623  1
  Sr  Sr6  1  0.151685  0.896209  0.596435  1
  Sr  Sr7  1  0.151685  0.603791  0.403565  1
  Sr  Sr8  1  0.361038  0.248499  0.249358  1
  Sr  Sr9  1  0.361038  0.251501  0.750642  1
  Sr  Sr10  1  0.639009  0.749761  0.249756  1
  Sr  Sr11  1  0.639009  0.750239  0.750244  1
  In  In12  1  0.634152  0.750000  0.500000  1
  In  In13  1  0.630025  0.750000  0.000000  1
  In  In14  1  0.365028  0.250000  0.500000  1
  Sn  Sn15  1  0.367330  0.250000  0.000000  1
  Sn  Sn16  1  0.852301  0.402061  0.249611  1
  Sn  Sn17  1  0.852301  0.097939  0.750389  1
  Sn  Sn18  1  0.146749  0.899710  0.249651  1
  Sn  Sn19  1  0.146749  0.600290  0.750349  1
  Pt  Pt20  1  0.623244  0.465497  0.090040  1
  Pt  Pt21  1  0.623244  0.034503  0.909960  1
  Pt  Pt22  1  0.375199  0.966528  0.407841  1
  Pt  Pt23  1  0.375199  0.533472  0.592159  1
  Pt  Pt24  1  0.373635  0.532085  0.908449  1
  Pt  Pt25  1  0.373635  0.967915  0.091551  1
  Pt  Pt26  1  0.625796  0.034434  0.592206  1
  Pt  Pt27  1  0.625796  0.465566  0.407794  1
