# generated using pymatgen
data_La4GaSi3Pd8
_symmetry_space_group_name_H-M   'P 1'
_cell_length_a   5.83311106
_cell_length_b   6.98718200
_cell_length_c   7.72902643
_cell_angle_alpha   90.00000000
_cell_angle_beta   89.30635023
_cell_angle_gamma   90.00000000
_symmetry_Int_Tables_number   1
_chemical_formula_structural   La4GaSi3Pd8
_chemical_formula_sum   'La4 Ga1 Si3 Pd8'
_cell_volume   314.98891199
_cell_formula_units_Z   1
loop_
 _symmetry_equiv_pos_site_id
 _symmetry_equiv_pos_as_xyz
  1  'x, y, z'
loop_
 _atom_site_type_symbol
 _atom_site_label
 _atom_site_symmetry_multiplicity
 _atom_site_fract_x
 _atom_site_fract_y
 _atom_site_fract_z
 _atom_site_occupancy
  La  La0  1  0.348275  0.750000  0.032669  1
  La  La1  1  0.147916  0.750000  0.530041  1
  La  La2  1  0.653212  0.250000  0.966802  1
  La  La3  1  0.852227  0.250000  0.468599  1
  Ga  Ga4  1  0.153222  0.250000  0.124933  1
  Si  Si5  1  0.651961  0.750000  0.376385  1
  Si  Si6  1  0.847154  0.750000  0.873733  1
  Si  Si7  1  0.350421  0.250000  0.627160  1
  Pd  Pd8  1  0.898733  0.554450  0.172654  1
  Pd  Pd9  1  0.591723  0.947445  0.675275  1
  Pd  Pd10  1  0.088467  0.050148  0.820281  1
  Pd  Pd11  1  0.418882  0.449595  0.331629  1
  Pd  Pd12  1  0.088467  0.449852  0.820281  1
  Pd  Pd13  1  0.418882  0.050405  0.331629  1
  Pd  Pd14  1  0.898733  0.945550  0.172654  1
  Pd  Pd15  1  0.591723  0.552555  0.675275  1
