# generated using pymatgen
data_NaSrHo2(ReN3)4
_symmetry_space_group_name_H-M   'P 1'
_cell_length_a   7.33317392
_cell_length_b   7.33317498
_cell_length_c   6.23142800
_cell_angle_alpha   74.19085418
_cell_angle_beta   74.19085182
_cell_angle_gamma   83.21178627
_symmetry_Int_Tables_number   1
_chemical_formula_structural   NaSrHo2(ReN3)4
_chemical_formula_sum   'Na1 Sr1 Ho2 Re4 N12'
_cell_volume   309.87654797
_cell_formula_units_Z   1
loop_
 _symmetry_equiv_pos_site_id
 _symmetry_equiv_pos_as_xyz
  1  'x, y, z'
loop_
 _atom_site_type_symbol
 _atom_site_label
 _atom_site_symmetry_multiplicity
 _atom_site_fract_x
 _atom_site_fract_y
 _atom_site_fract_z
 _atom_site_occupancy
  Na  Na0  1  0.298002  0.701998  0.750000  1
  Sr  Sr1  1  0.696989  0.303011  0.250000  1
  Ho  Ho2  1  0.917291  0.082709  0.750000  1
  Ho  Ho3  1  0.096080  0.903920  0.250000  1
  Re  Re4  1  0.624352  0.801410  0.248300  1
  Re  Re5  1  0.198590  0.375648  0.251700  1
  Re  Re6  1  0.376378  0.205777  0.753248  1
  Re  Re7  1  0.794223  0.623622  0.746752  1
  N  N8  1  0.355832  0.348724  0.968696  1
  N  N9  1  0.017373  0.201978  0.353548  1
  N  N10  1  0.798022  0.982627  0.146452  1
  N  N11  1  0.213877  0.015935  0.856328  1
  N  N12  1  0.646488  0.657125  0.031441  1
  N  N13  1  0.885825  0.384922  0.808105  1
  N  N14  1  0.093865  0.606477  0.196732  1
  N  N15  1  0.984065  0.786123  0.643672  1
  N  N16  1  0.393523  0.906135  0.303268  1
  N  N17  1  0.651276  0.644168  0.531304  1
  N  N18  1  0.615078  0.114175  0.691895  1
  N  N19  1  0.342875  0.353512  0.468559  1
