# generated using pymatgen
data_Rb2TaNbBr12
_symmetry_space_group_name_H-M   'P 1'
_cell_length_a   10.98714161
_cell_length_b   7.80122980
_cell_length_c   7.69787596
_cell_angle_alpha   89.73298999
_cell_angle_beta   89.74367270
_cell_angle_gamma   89.96669254
_symmetry_Int_Tables_number   1
_chemical_formula_structural   Rb2TaNbBr12
_chemical_formula_sum   'Rb2 Ta1 Nb1 Br12'
_cell_volume   659.79583820
_cell_formula_units_Z   1
loop_
 _symmetry_equiv_pos_site_id
 _symmetry_equiv_pos_as_xyz
  1  'x, y, z'
loop_
 _atom_site_type_symbol
 _atom_site_label
 _atom_site_symmetry_multiplicity
 _atom_site_fract_x
 _atom_site_fract_y
 _atom_site_fract_z
 _atom_site_occupancy
  Rb  Rb0  1  0.736448  0.252799  0.273879  1
  Rb  Rb1  1  0.237613  0.747667  0.726561  1
  Ta  Ta2  1  0.992839  0.248978  0.755950  1
  Nb  Nb3  1  0.493041  0.751122  0.243125  1
  Br  Br4  1  0.487380  0.979875  0.481019  1
  Br  Br5  1  0.761226  0.247508  0.764925  1
  Br  Br6  1  0.998125  0.019443  0.987854  1
  Br  Br7  1  0.995930  0.479014  0.986299  1
  Br  Br8  1  0.498619  0.983121  0.011942  1
  Br  Br9  1  0.724894  0.749361  0.254195  1
  Br  Br10  1  0.260320  0.752198  0.236118  1
  Br  Br11  1  0.487174  0.520938  0.481846  1
  Br  Br12  1  0.987770  0.020289  0.520834  1
  Br  Br13  1  0.987418  0.478984  0.520223  1
  Br  Br14  1  0.223607  0.249753  0.742045  1
  Br  Br15  1  0.496502  0.518950  0.013184  1
