# generated using pymatgen
data_Ho4Sc4Ir3Au
_symmetry_space_group_name_H-M   'P 1'
_cell_length_a   4.40382700
_cell_length_b   7.06901443
_cell_length_c   8.61997760
_cell_angle_alpha   91.16233166
_cell_angle_beta   90.00000000
_cell_angle_gamma   90.00000000
_symmetry_Int_Tables_number   1
_chemical_formula_structural   Ho4Sc4Ir3Au
_chemical_formula_sum   'Ho4 Sc4 Ir3 Au1'
_cell_volume   268.29086367
_cell_formula_units_Z   1
loop_
 _symmetry_equiv_pos_site_id
 _symmetry_equiv_pos_as_xyz
  1  'x, y, z'
loop_
 _atom_site_type_symbol
 _atom_site_label
 _atom_site_symmetry_multiplicity
 _atom_site_fract_x
 _atom_site_fract_y
 _atom_site_fract_z
 _atom_site_occupancy
  Ho  Ho0  1  0.250000  0.013118  0.331480  1
  Ho  Ho1  1  0.250000  0.534229  0.181237  1
  Ho  Ho2  1  0.750000  0.984145  0.669950  1
  Ho  Ho3  1  0.750000  0.481807  0.819229  1
  Sc  Sc4  1  0.250000  0.135423  0.923301  1
  Sc  Sc5  1  0.250000  0.643391  0.569006  1
  Sc  Sc6  1  0.750000  0.852736  0.062104  1
  Sc  Sc7  1  0.750000  0.358560  0.435718  1
  Ir  Ir8  1  0.250000  0.260303  0.607169  1
  Ir  Ir9  1  0.250000  0.751861  0.898553  1
  Ir  Ir10  1  0.750000  0.740371  0.391686  1
  Au  Au11  1  0.750000  0.244055  0.110571  1
