# generated using pymatgen
data_Pr6YTmO12
_symmetry_space_group_name_H-M   'P 1'
_cell_length_a   6.99753122
_cell_length_b   6.99753115
_cell_length_c   6.99753248
_cell_angle_alpha   91.99177892
_cell_angle_beta   91.99179062
_cell_angle_gamma   91.99177514
_symmetry_Int_Tables_number   1
_chemical_formula_structural   Pr6YTmO12
_chemical_formula_sum   'Pr6 Y1 Tm1 O12'
_cell_volume   342.00144686
_cell_formula_units_Z   1
loop_
 _symmetry_equiv_pos_site_id
 _symmetry_equiv_pos_as_xyz
  1  'x, y, z'
loop_
 _atom_site_type_symbol
 _atom_site_label
 _atom_site_symmetry_multiplicity
 _atom_site_fract_x
 _atom_site_fract_y
 _atom_site_fract_z
 _atom_site_occupancy
  Pr  Pr0  1  0.746458  0.935863  0.443066  1
  Pr  Pr1  1  0.443066  0.746458  0.935863  1
  Pr  Pr2  1  0.064137  0.556934  0.253542  1
  Pr  Pr3  1  0.935863  0.443066  0.746458  1
  Pr  Pr4  1  0.556934  0.253542  0.064137  1
  Pr  Pr5  1  0.253542  0.064137  0.556934  1
  Y  Y6  1  0.000000  0.000000  0.000000  1
  Tm  Tm7  1  0.500000  0.500000  0.500000  1
  O  O8  1  0.066243  0.908961  0.308861  1
  O  O9  1  0.691139  0.933757  0.091039  1
  O  O10  1  0.466503  0.805568  0.594855  1
  O  O11  1  0.091039  0.691139  0.933757  1
  O  O12  1  0.805568  0.594855  0.466503  1
  O  O13  1  0.405145  0.533497  0.194432  1
  O  O14  1  0.594855  0.466503  0.805568  1
  O  O15  1  0.194432  0.405145  0.533497  1
  O  O16  1  0.908961  0.308861  0.066243  1
  O  O17  1  0.533497  0.194432  0.405145  1
  O  O18  1  0.308861  0.066243  0.908961  1
  O  O19  1  0.933757  0.091039  0.691139  1
