# generated using pymatgen
data_TbCe6YF30
_symmetry_space_group_name_H-M   'P 1'
_cell_length_a   8.61717105
_cell_length_b   8.61717046
_cell_length_c   8.60451509
_cell_angle_alpha   79.67230987
_cell_angle_beta   79.67231139
_cell_angle_gamma   100.29562103
_symmetry_Int_Tables_number   1
_chemical_formula_structural   TbCe6YF30
_chemical_formula_sum   'Tb1 Ce6 Y1 F30'
_cell_volume   603.54278944
_cell_formula_units_Z   1
loop_
 _symmetry_equiv_pos_site_id
 _symmetry_equiv_pos_as_xyz
  1  'x, y, z'
loop_
 _atom_site_type_symbol
 _atom_site_label
 _atom_site_symmetry_multiplicity
 _atom_site_fract_x
 _atom_site_fract_y
 _atom_site_fract_z
 _atom_site_occupancy
  Tb  Tb0  1  0.178602  0.821398  0.250000  1
  Ce  Ce1  1  0.749587  0.250413  0.250000  1
  Ce  Ce2  1  0.250423  0.749577  0.750000  1
  Ce  Ce3  1  0.754352  0.678519  0.673290  1
  Ce  Ce4  1  0.321481  0.245648  0.826710  1
  Ce  Ce5  1  0.245603  0.321470  0.326793  1
  Ce  Ce6  1  0.678530  0.754397  0.173207  1
  Y  Y7  1  0.821375  0.178625  0.750000  1
  F  F8  1  0.317733  0.349915  0.053031  1
  F  F9  1  0.943540  0.814669  0.154979  1
  F  F10  1  0.844828  0.451541  0.683061  1
  F  F11  1  0.451821  0.844837  0.183001  1
  F  F12  1  0.814682  0.943689  0.655051  1
  F  F13  1  0.349921  0.317733  0.553035  1
  F  F14  1  0.682267  0.650079  0.946964  1
  F  F15  1  0.056311  0.185318  0.844949  1
  F  F16  1  0.155163  0.548179  0.316999  1
  F  F17  1  0.548459  0.155172  0.816939  1
  F  F18  1  0.185331  0.056460  0.345021  1
  F  F19  1  0.650085  0.682267  0.446969  1
  F  F20  1  0.776312  0.276695  0.990509  1
  F  F21  1  0.010908  0.276048  0.216743  1
  F  F22  1  0.779602  0.510268  0.223501  1
  F  F23  1  0.510264  0.779594  0.723502  1
  F  F24  1  0.276051  0.010906  0.716749  1
  F  F25  1  0.276726  0.776301  0.490553  1
  F  F26  1  0.223699  0.723274  0.009447  1
  F  F27  1  0.989094  0.723949  0.783251  1
  F  F28  1  0.220406  0.489736  0.776498  1
  F  F29  1  0.489732  0.220398  0.276499  1
  F  F30  1  0.723952  0.989092  0.283257  1
  F  F31  1  0.723305  0.223688  0.509491  1
  F  F32  1  0.466141  0.533859  0.250000  1
  F  F33  1  0.749897  0.962980  0.964727  1
  F  F34  1  0.037020  0.250103  0.535273  1
  F  F35  1  0.250172  0.037228  0.035062  1
  F  F36  1  0.962772  0.749828  0.464938  1
  F  F37  1  0.533851  0.466149  0.750000  1
