# generated using pymatgen
data_TmHf3F15
_symmetry_space_group_name_H-M   'P 1'
_cell_length_a   8.09454139
_cell_length_b   8.09454092
_cell_length_c   8.07269995
_cell_angle_alpha   79.79139984
_cell_angle_beta   79.79141005
_cell_angle_gamma   100.18583373
_symmetry_Int_Tables_number   1
_chemical_formula_structural   TmHf3F15
_chemical_formula_sum   'Tm2 Hf6 F30'
_cell_volume   500.33976373
_cell_formula_units_Z   2
loop_
 _symmetry_equiv_pos_site_id
 _symmetry_equiv_pos_as_xyz
  1  'x, y, z'
loop_
 _atom_site_type_symbol
 _atom_site_label
 _atom_site_symmetry_multiplicity
 _atom_site_fract_x
 _atom_site_fract_y
 _atom_site_fract_z
 _atom_site_occupancy
  Tm  Tm0  1  0.677538  0.322462  0.750000  1
  Tm  Tm1  1  0.322462  0.677538  0.250000  1
  Hf  Hf2  1  0.251253  0.748747  0.750000  1
  Hf  Hf3  1  0.748747  0.251253  0.250000  1
  Hf  Hf4  1  0.822639  0.751614  0.325330  1
  Hf  Hf5  1  0.248386  0.177361  0.174670  1
  Hf  Hf6  1  0.177361  0.248386  0.674670  1
  Hf  Hf7  1  0.751614  0.822639  0.825330  1
  F  F8  1  0.150856  0.183771  0.946807  1
  F  F9  1  0.687248  0.564056  0.848095  1
  F  F10  1  0.039672  0.656517  0.316027  1
  F  F11  1  0.656517  0.039672  0.816027  1
  F  F12  1  0.564056  0.687248  0.348095  1
  F  F13  1  0.183771  0.150856  0.446807  1
  F  F14  1  0.849144  0.816229  0.053193  1
  F  F15  1  0.312752  0.435944  0.151905  1
  F  F16  1  0.960328  0.343483  0.683973  1
  F  F17  1  0.343483  0.960328  0.183973  1
  F  F18  1  0.435944  0.312752  0.651905  1
  F  F19  1  0.816229  0.849144  0.553193  1
  F  F20  1  0.966828  0.033172  0.750000  1
  F  F21  1  0.544987  0.752675  0.028645  1
  F  F22  1  0.247325  0.455013  0.471355  1
  F  F23  1  0.455013  0.247325  0.971355  1
  F  F24  1  0.752675  0.544987  0.528645  1
  F  F25  1  0.033172  0.966828  0.250000  1
  F  F26  1  0.219575  0.725339  0.003705  1
  F  F27  1  0.223796  0.492795  0.780145  1
  F  F28  1  0.994117  0.724799  0.776467  1
  F  F29  1  0.724799  0.994117  0.276467  1
  F  F30  1  0.492795  0.223796  0.280145  1
  F  F31  1  0.725339  0.219575  0.503705  1
  F  F32  1  0.780425  0.274661  0.996295  1
  F  F33  1  0.776204  0.507205  0.219855  1
  F  F34  1  0.005883  0.275201  0.223533  1
  F  F35  1  0.275201  0.005883  0.723533  1
  F  F36  1  0.507205  0.776204  0.719855  1
  F  F37  1  0.274661  0.780425  0.496295  1
