# generated using pymatgen
data_Pr2DyY(SbAu)4
_symmetry_space_group_name_H-M   'P 1'
_cell_length_a   4.61598000
_cell_length_b   4.61597968
_cell_length_c   16.58454800
_cell_angle_alpha   90.00000000
_cell_angle_beta   90.00000000
_cell_angle_gamma   120.00001660
_symmetry_Int_Tables_number   1
_chemical_formula_structural   Pr2DyY(SbAu)4
_chemical_formula_sum   'Pr2 Dy1 Y1 Sb4 Au4'
_cell_volume   306.02859312
_cell_formula_units_Z   1
loop_
 _symmetry_equiv_pos_site_id
 _symmetry_equiv_pos_as_xyz
  1  'x, y, z'
loop_
 _atom_site_type_symbol
 _atom_site_label
 _atom_site_symmetry_multiplicity
 _atom_site_fract_x
 _atom_site_fract_y
 _atom_site_fract_z
 _atom_site_occupancy
  Pr  Pr0  1  0.000000  0.000000  0.500027  1
  Pr  Pr1  1  0.000000  0.000000  0.999973  1
  Dy  Dy2  1  0.000000  0.000000  0.750000  1
  Y  Y3  1  0.000000  0.000000  0.250000  1
  Sb  Sb4  1  0.333333  0.666667  0.387485  1
  Sb  Sb5  1  0.666667  0.333333  0.612559  1
  Sb  Sb6  1  0.666667  0.333333  0.887440  1
  Sb  Sb7  1  0.333333  0.666667  0.112515  1
  Au  Au8  1  0.666667  0.333333  0.337431  1
  Au  Au9  1  0.333333  0.666667  0.662889  1
  Au  Au10  1  0.333333  0.666667  0.837111  1
  Au  Au11  1  0.666667  0.333333  0.162569  1
