# generated using pymatgen
data_Ta6Ti2Ga5Ge(BMo)2
_symmetry_space_group_name_H-M   'P 1'
_cell_length_a   7.75255200
_cell_length_b   7.75255202
_cell_length_c   5.22335400
_cell_angle_alpha   90.00000000
_cell_angle_beta   90.00000000
_cell_angle_gamma   119.99999991
_symmetry_Int_Tables_number   1
_chemical_formula_structural   Ta6Ti2Ga5Ge(BMo)2
_chemical_formula_sum   'Ta6 Ti2 Ga5 Ge1 B2 Mo2'
_cell_volume   271.87512200
_cell_formula_units_Z   1
loop_
 _symmetry_equiv_pos_site_id
 _symmetry_equiv_pos_as_xyz
  1  'x, y, z'
loop_
 _atom_site_type_symbol
 _atom_site_label
 _atom_site_symmetry_multiplicity
 _atom_site_fract_x
 _atom_site_fract_y
 _atom_site_fract_z
 _atom_site_occupancy
  Ta  Ta0  1  0.242466  0.000000  0.249709  1
  Ta  Ta1  1  0.757236  0.000000  0.749727  1
  Ta  Ta2  1  0.999501  0.241812  0.249857  1
  Ta  Ta3  1  0.000033  0.757616  0.750158  1
  Ta  Ta4  1  0.757689  0.758188  0.249857  1
  Ta  Ta5  1  0.242417  0.242384  0.750158  1
  Ti  Ti6  1  0.666588  0.333286  0.500579  1
  Ti  Ti7  1  0.333301  0.666714  0.500579  1
  Ga  Ga8  1  0.403213  0.000000  0.750460  1
  Ga  Ga9  1  0.000036  0.595284  0.249095  1
  Ga  Ga10  1  0.000658  0.405293  0.751004  1
  Ga  Ga11  1  0.404752  0.404716  0.249095  1
  Ga  Ga12  1  0.595366  0.594707  0.751004  1
  Ge  Ge13  1  0.594402  0.000000  0.248996  1
  B  B14  1  0.000530  0.000000  0.999606  1
  B  B15  1  0.000301  0.000000  0.499919  1
  Mo  Mo16  1  0.334996  0.668482  0.000098  1
  Mo  Mo17  1  0.666515  0.331518  0.000098  1
