# generated using pymatgen
data_Na2MnNi9As7Ru2
_symmetry_space_group_name_H-M   'P 1'
_cell_length_a   9.45690114
_cell_length_b   9.51497860
_cell_length_c   3.76765200
_cell_angle_alpha   90.00000000
_cell_angle_beta   90.00000000
_cell_angle_gamma   119.81815883
_symmetry_Int_Tables_number   1
_chemical_formula_structural   Na2MnNi9As7Ru2
_chemical_formula_sum   'Na2 Mn1 Ni9 As7 Ru2'
_cell_volume   294.13787226
_cell_formula_units_Z   1
loop_
 _symmetry_equiv_pos_site_id
 _symmetry_equiv_pos_as_xyz
  1  'x, y, z'
loop_
 _atom_site_type_symbol
 _atom_site_label
 _atom_site_symmetry_multiplicity
 _atom_site_fract_x
 _atom_site_fract_y
 _atom_site_fract_z
 _atom_site_occupancy
  Na  Na0  1  0.334676  0.667512  0.000000  1
  Na  Na1  1  0.665666  0.332236  0.500000  1
  Mn  Mn2  1  0.899365  0.777371  0.500000  1
  Ni  Ni3  1  0.123439  0.285252  0.000000  1
  Ni  Ni4  1  0.719458  0.839027  0.000000  1
  Ni  Ni5  1  0.157009  0.876763  0.000000  1
  Ni  Ni6  1  0.431961  0.375973  0.000000  1
  Ni  Ni7  1  0.624494  0.055667  0.000000  1
  Ni  Ni8  1  0.947062  0.569056  0.000000  1
  Ni  Ni9  1  0.050933  0.433843  0.500000  1
  Ni  Ni10  1  0.567907  0.618614  0.500000  1
  Ni  Ni11  1  0.384198  0.950560  0.500000  1
  As  As12  1  0.292959  0.411818  0.500000  1
  As  As13  1  0.589012  0.881284  0.500000  1
  As  As14  1  0.121603  0.707449  0.500000  1
  As  As15  1  0.410574  0.120008  0.000000  1
  As  As16  1  0.879520  0.292398  0.000000  1
  As  As17  1  0.706407  0.584474  0.000000  1
  As  As18  1  0.001061  0.003118  0.000000  1
  Ru  Ru19  1  0.213170  0.120505  0.500000  1
  Ru  Ru20  1  0.879525  0.097075  0.500000  1
