# generated using pymatgen
data_Ho2P4Ir7
_symmetry_space_group_name_H-M   'P 1'
_cell_length_a   3.96910200
_cell_length_b   9.64756800
_cell_length_c   10.82391500
_cell_angle_alpha   90.00000000
_cell_angle_beta   90.00000000
_cell_angle_gamma   90.00000000
_symmetry_Int_Tables_number   1
_chemical_formula_structural   Ho2P4Ir7
_chemical_formula_sum   'Ho4 P8 Ir14'
_cell_volume   414.47131711
_cell_formula_units_Z   2
loop_
 _symmetry_equiv_pos_site_id
 _symmetry_equiv_pos_as_xyz
  1  'x, y, z'
loop_
 _atom_site_type_symbol
 _atom_site_label
 _atom_site_symmetry_multiplicity
 _atom_site_fract_x
 _atom_site_fract_y
 _atom_site_fract_z
 _atom_site_occupancy
  Ho  Ho0  1  0.000000  0.060860  0.394469  1
  Ho  Ho1  1  0.500000  0.939140  0.894469  1
  Ho  Ho2  1  0.000000  0.447280  0.182783  1
  Ho  Ho3  1  0.500000  0.552720  0.682783  1
  P  P4  1  0.000000  0.171947  0.887911  1
  P  P5  1  0.500000  0.828053  0.387911  1
  P  P6  1  0.000000  0.847359  0.073830  1
  P  P7  1  0.500000  0.152641  0.573830  1
  P  P8  1  0.000000  0.807031  0.721144  1
  P  P9  1  0.500000  0.192969  0.221144  1
  P  P10  1  0.000000  0.482471  0.457878  1
  P  P11  1  0.500000  0.517529  0.957878  1
  Ir  Ir12  1  0.000000  0.048479  0.706750  1
  Ir  Ir13  1  0.500000  0.951521  0.206750  1
  Ir  Ir14  1  0.000000  0.717225  0.524603  1
  Ir  Ir15  1  0.500000  0.282775  0.024603  1
  Ir  Ir16  1  0.000000  0.089092  0.082267  1
  Ir  Ir17  1  0.500000  0.910908  0.582267  1
  Ir  Ir18  1  0.000000  0.757918  0.268657  1
  Ir  Ir19  1  0.500000  0.242082  0.768657  1
  Ir  Ir20  1  0.000000  0.318233  0.604122  1
  Ir  Ir21  1  0.500000  0.681767  0.104122  1
  Ir  Ir22  1  0.000000  0.698971  0.907251  1
  Ir  Ir23  1  0.500000  0.301029  0.407251  1
  Ir  Ir24  1  0.000000  0.409418  0.872433  1
  Ir  Ir25  1  0.500000  0.590582  0.372433  1
