# generated using pymatgen
data_Tb7Ce3(Sn3C)2
_symmetry_space_group_name_H-M   'P 1'
_cell_length_a   9.06623600
_cell_length_b   9.06623627
_cell_length_c   6.55733500
_cell_angle_alpha   90.00000000
_cell_angle_beta   90.00000000
_cell_angle_gamma   119.99999903
_symmetry_Int_Tables_number   1
_chemical_formula_structural   Tb7Ce3(Sn3C)2
_chemical_formula_sum   'Tb7 Ce3 Sn6 C2'
_cell_volume   466.77980663
_cell_formula_units_Z   1
loop_
 _symmetry_equiv_pos_site_id
 _symmetry_equiv_pos_as_xyz
  1  'x, y, z'
loop_
 _atom_site_type_symbol
 _atom_site_label
 _atom_site_symmetry_multiplicity
 _atom_site_fract_x
 _atom_site_fract_y
 _atom_site_fract_z
 _atom_site_occupancy
  Tb  Tb0  1  0.666667  0.333333  0.001369  1
  Tb  Tb1  1  0.333333  0.666667  0.001369  1
  Tb  Tb2  1  0.333333  0.666667  0.498631  1
  Tb  Tb3  1  0.666667  0.333333  0.498631  1
  Tb  Tb4  1  0.217392  0.217392  0.250000  1
  Tb  Tb5  1  0.782608  0.000000  0.250000  1
  Tb  Tb6  1  0.000000  0.782608  0.250000  1
  Ce  Ce7  1  0.785632  0.785632  0.750000  1
  Ce  Ce8  1  0.214368  0.000000  0.750000  1
  Ce  Ce9  1  0.000000  0.214368  0.750000  1
  Sn  Sn10  1  0.408087  0.408087  0.750000  1
  Sn  Sn11  1  0.591913  0.000000  0.750000  1
  Sn  Sn12  1  0.000000  0.591913  0.750000  1
  Sn  Sn13  1  0.594790  0.594790  0.250000  1
  Sn  Sn14  1  0.405210  0.000000  0.250000  1
  Sn  Sn15  1  0.000000  0.405210  0.250000  1
  C  C16  1  0.000000  0.000000  0.994966  1
  C  C17  1  0.000000  0.000000  0.505034  1
