# generated using pymatgen
data_HoErCuSi2Ru
_symmetry_space_group_name_H-M   'P 1'
_cell_length_a   4.21440200
_cell_length_b   6.93943432
_cell_length_c   7.36096217
_cell_angle_alpha   91.36573528
_cell_angle_beta   90.00000000
_cell_angle_gamma   90.00000000
_symmetry_Int_Tables_number   1
_chemical_formula_structural   HoErCuSi2Ru
_chemical_formula_sum   'Ho2 Er2 Cu2 Si4 Ru2'
_cell_volume   215.21434919
_cell_formula_units_Z   2
loop_
 _symmetry_equiv_pos_site_id
 _symmetry_equiv_pos_as_xyz
  1  'x, y, z'
loop_
 _atom_site_type_symbol
 _atom_site_label
 _atom_site_symmetry_multiplicity
 _atom_site_fract_x
 _atom_site_fract_y
 _atom_site_fract_z
 _atom_site_occupancy
  Ho  Ho0  1  0.250000  0.994085  0.797096  1
  Ho  Ho1  1  0.750000  0.005915  0.202904  1
  Er  Er2  1  0.250000  0.492959  0.689577  1
  Er  Er3  1  0.750000  0.507041  0.310423  1
  Cu  Cu4  1  0.750000  0.832573  0.573971  1
  Cu  Cu5  1  0.250000  0.167427  0.426029  1
  Si  Si6  1  0.250000  0.298465  0.090387  1
  Si  Si7  1  0.750000  0.701535  0.909613  1
  Si  Si8  1  0.250000  0.794321  0.389931  1
  Si  Si9  1  0.750000  0.205679  0.610069  1
  Ru  Ru10  1  0.750000  0.346621  0.934368  1
  Ru  Ru11  1  0.250000  0.653379  0.065632  1
