# generated using pymatgen
data_Ho2ZnCu(SiIr2)2
_symmetry_space_group_name_H-M   'P 1'
_cell_length_a   4.03611000
_cell_length_b   4.03606300
_cell_length_c   10.49611600
_cell_angle_alpha   90.00000000
_cell_angle_beta   90.00000000
_cell_angle_gamma   90.00000000
_symmetry_Int_Tables_number   1
_chemical_formula_structural   Ho2ZnCu(SiIr2)2
_chemical_formula_sum   'Ho2 Zn1 Cu1 Si2 Ir4'
_cell_volume   170.98166913
_cell_formula_units_Z   1
loop_
 _symmetry_equiv_pos_site_id
 _symmetry_equiv_pos_as_xyz
  1  'x, y, z'
loop_
 _atom_site_type_symbol
 _atom_site_label
 _atom_site_symmetry_multiplicity
 _atom_site_fract_x
 _atom_site_fract_y
 _atom_site_fract_z
 _atom_site_occupancy
  Ho  Ho0  1  0.000000  0.500000  0.248808  1
  Ho  Ho1  1  0.500000  0.000000  0.751205  1
  Zn  Zn2  1  0.500000  0.500000  0.500001  1
  Cu  Cu3  1  0.000000  0.000000  0.500003  1
  Si  Si4  1  0.000000  0.500000  0.876040  1
  Si  Si5  1  0.500000  0.000000  0.123951  1
  Ir  Ir6  1  0.000000  0.000000  0.999998  1
  Ir  Ir7  1  0.500000  0.500000  0.999997  1
  Ir  Ir8  1  0.000000  0.500000  0.655567  1
  Ir  Ir9  1  0.500000  0.000000  0.344431  1
