# generated using pymatgen
data_Pr4Dy12Cd4IrPt3
_symmetry_space_group_name_H-M   'P 1'
_cell_length_a   9.76129373
_cell_length_b   9.73991083
_cell_length_c   9.73990971
_cell_angle_alpha   60.24142359
_cell_angle_beta   60.14150243
_cell_angle_gamma   60.14149480
_symmetry_Int_Tables_number   1
_chemical_formula_structural   Pr4Dy12Cd4IrPt3
_chemical_formula_sum   'Pr4 Dy12 Cd4 Ir1 Pt3'
_cell_volume   657.38132394
_cell_formula_units_Z   1
loop_
 _symmetry_equiv_pos_site_id
 _symmetry_equiv_pos_as_xyz
  1  'x, y, z'
loop_
 _atom_site_type_symbol
 _atom_site_label
 _atom_site_symmetry_multiplicity
 _atom_site_fract_x
 _atom_site_fract_y
 _atom_site_fract_z
 _atom_site_occupancy
  Pr  Pr0  1  0.565641  0.935822  0.564913  1
  Pr  Pr1  1  0.937304  0.562217  0.934566  1
  Pr  Pr2  1  0.565641  0.564913  0.935822  1
  Pr  Pr3  1  0.937304  0.934566  0.562217  1
  Dy  Dy4  1  0.353921  0.345888  0.345888  1
  Dy  Dy5  1  0.352483  0.351894  0.949063  1
  Dy  Dy6  1  0.352483  0.949063  0.351894  1
  Dy  Dy7  1  0.941291  0.352778  0.352778  1
  Dy  Dy8  1  0.809281  0.187029  0.187029  1
  Dy  Dy9  1  0.188818  0.811636  0.811636  1
  Dy  Dy10  1  0.190427  0.811580  0.189190  1
  Dy  Dy11  1  0.808685  0.186499  0.814658  1
  Dy  Dy12  1  0.190427  0.189190  0.811580  1
  Dy  Dy13  1  0.808685  0.814658  0.186499  1
  Dy  Dy14  1  0.946469  0.554740  0.554740  1
  Dy  Dy15  1  0.556443  0.945732  0.945732  1
  Cd  Cd16  1  0.583975  0.578093  0.578093  1
  Cd  Cd17  1  0.577296  0.584404  0.259556  1
  Cd  Cd18  1  0.577296  0.259556  0.584404  1
  Cd  Cd19  1  0.260081  0.578372  0.578372  1
  Ir  Ir20  1  0.572701  0.139158  0.139158  1
  Pt  Pt21  1  0.144354  0.143241  0.143241  1
  Pt  Pt22  1  0.139496  0.146643  0.572329  1
  Pt  Pt23  1  0.139496  0.572329  0.146643  1
