# generated using pymatgen
data_La4OsRu7
_symmetry_space_group_name_H-M   'P 1'
_cell_length_a   5.29875364
_cell_length_b   5.57145426
_cell_length_c   9.21561600
_cell_angle_alpha   90.00000000
_cell_angle_beta   90.00000000
_cell_angle_gamma   121.71756541
_symmetry_Int_Tables_number   1
_chemical_formula_structural   La4OsRu7
_chemical_formula_sum   'La4 Os1 Ru7'
_cell_volume   231.42888342
_cell_formula_units_Z   1
loop_
 _symmetry_equiv_pos_site_id
 _symmetry_equiv_pos_as_xyz
  1  'x, y, z'
loop_
 _atom_site_type_symbol
 _atom_site_label
 _atom_site_symmetry_multiplicity
 _atom_site_fract_x
 _atom_site_fract_y
 _atom_site_fract_z
 _atom_site_occupancy
  La  La0  1  0.323175  0.661588  0.431151  1
  La  La1  1  0.659679  0.329839  0.566338  1
  La  La2  1  0.659679  0.329839  0.933662  1
  La  La3  1  0.323175  0.661588  0.068849  1
  Os  Os4  1  0.691741  0.845870  0.750000  1
  Ru  Ru5  1  0.971247  0.985624  0.501126  1
  Ru  Ru6  1  0.971247  0.985624  0.998874  1
  Ru  Ru7  1  0.835622  0.161326  0.250000  1
  Ru  Ru8  1  0.835622  0.674296  0.250000  1
  Ru  Ru9  1  0.357389  0.178695  0.250000  1
  Ru  Ru10  1  0.185711  0.831042  0.750000  1
  Ru  Ru11  1  0.185711  0.354669  0.750000  1
