# generated using pymatgen
data_Li2Nb7Fe6Si14Mo
_symmetry_space_group_name_H-M   'P 1'
_cell_length_a   9.30971160
_cell_length_b   9.30766362
_cell_length_c   9.19439040
_cell_angle_alpha   94.24031809
_cell_angle_beta   94.25217616
_cell_angle_gamma   148.61991860
_symmetry_Int_Tables_number   1
_chemical_formula_structural   Li2Nb7Fe6Si14Mo
_chemical_formula_sum   'Li2 Nb7 Fe6 Si14 Mo1'
_cell_volume   399.00429548
_cell_formula_units_Z   1
loop_
 _symmetry_equiv_pos_site_id
 _symmetry_equiv_pos_as_xyz
  1  'x, y, z'
loop_
 _atom_site_type_symbol
 _atom_site_label
 _atom_site_symmetry_multiplicity
 _atom_site_fract_x
 _atom_site_fract_y
 _atom_site_fract_z
 _atom_site_occupancy
  Li  Li0  1  0.395881  0.895881  0.791763  1
  Li  Li1  1  0.104541  0.604541  0.209083  1
  Nb  Nb2  1  0.864738  0.864738  0.729476  1
  Nb  Nb3  1  0.864792  0.132786  0.998414  1
  Nb  Nb4  1  0.133622  0.865628  0.998414  1
  Nb  Nb5  1  0.498794  0.686914  0.195275  1
  Nb  Nb6  1  0.492421  0.305851  0.807125  1
  Nb  Nb7  1  0.314704  0.501275  0.807125  1
  Nb  Nb8  1  0.696481  0.508362  0.195275  1
  Fe  Fe9  1  0.112146  0.889390  0.499061  1
  Fe  Fe10  1  0.386915  0.609671  0.499061  1
  Fe  Fe11  1  0.593750  0.405575  0.499577  1
  Fe  Fe12  1  0.905827  0.094003  0.499577  1
  Fe  Fe13  1  0.902554  0.402554  0.805108  1
  Fe  Fe14  1  0.597198  0.097198  0.194398  1
  Si  Si15  1  0.288978  0.288978  0.577957  1
  Si  Si16  1  0.710330  0.710330  0.420660  1
  Si  Si17  1  0.703035  0.296209  0.000111  1
  Si  Si18  1  0.297076  0.703902  0.000111  1
  Si  Si19  1  0.985252  0.273231  0.295106  1
  Si  Si20  1  0.978129  0.686094  0.702653  1
  Si  Si21  1  0.724524  0.016559  0.702653  1
  Si  Si22  1  0.309855  0.021876  0.295106  1
  Si  Si23  1  0.551796  0.952633  0.410069  1
  Si  Si24  1  0.540212  0.139833  0.589340  1
  Si  Si25  1  0.049128  0.449508  0.589340  1
  Si  Si26  1  0.858273  0.457436  0.410069  1
  Si  Si27  1  0.753933  0.753675  0.003185  1
  Si  Si28  1  0.249252  0.249510  0.003185  1
  Mo  Mo29  1  0.135860  0.135860  0.271719  1
