# generated using pymatgen
data_Dy20Sn3Bi5Ir4
_symmetry_space_group_name_H-M   'P 1'
_cell_length_a   8.00014476
_cell_length_b   9.04845789
_cell_length_c   12.45657900
_cell_angle_alpha   90.11069158
_cell_angle_beta   90.02496618
_cell_angle_gamma   90.00083193
_symmetry_Int_Tables_number   1
_chemical_formula_structural   Dy20Sn3Bi5Ir4
_chemical_formula_sum   'Dy20 Sn3 Bi5 Ir4'
_cell_volume   901.71719176
_cell_formula_units_Z   1
loop_
 _symmetry_equiv_pos_site_id
 _symmetry_equiv_pos_as_xyz
  1  'x, y, z'
loop_
 _atom_site_type_symbol
 _atom_site_label
 _atom_site_symmetry_multiplicity
 _atom_site_fract_x
 _atom_site_fract_y
 _atom_site_fract_z
 _atom_site_occupancy
  Dy  Dy0  1  0.841134  0.742615  0.791737  1
  Dy  Dy1  1  0.161276  0.253770  0.206749  1
  Dy  Dy2  1  0.341462  0.256964  0.709115  1
  Dy  Dy3  1  0.655166  0.746244  0.292081  1
  Dy  Dy4  1  0.374367  0.743299  0.695692  1
  Dy  Dy5  1  0.620783  0.254041  0.303973  1
  Dy  Dy6  1  0.874499  0.256613  0.804156  1
  Dy  Dy7  1  0.128725  0.746528  0.194041  1
  Dy  Dy8  1  0.949353  0.747164  0.504286  1
  Dy  Dy9  1  0.053441  0.252611  0.499929  1
  Dy  Dy10  1  0.449228  0.256111  0.997554  1
  Dy  Dy11  1  0.551798  0.743837  0.002248  1
  Dy  Dy12  1  0.676590  0.041255  0.565770  1
  Dy  Dy13  1  0.322109  0.958814  0.434707  1
  Dy  Dy14  1  0.177236  0.959971  0.934031  1
  Dy  Dy15  1  0.324190  0.540322  0.432472  1
  Dy  Dy16  1  0.823090  0.040633  0.065767  1
  Dy  Dy17  1  0.678472  0.460774  0.570738  1
  Dy  Dy18  1  0.818379  0.459661  0.064470  1
  Dy  Dy19  1  0.179811  0.539706  0.931673  1
  Sn  Sn20  1  0.569755  0.492242  0.828775  1
  Sn  Sn21  1  0.430483  0.507788  0.171750  1
  Sn  Sn22  1  0.069666  0.507467  0.670370  1
  Bi  Bi23  1  0.429954  0.991769  0.171668  1
  Bi  Bi24  1  0.929628  0.491182  0.327384  1
  Bi  Bi25  1  0.569911  0.007805  0.827865  1
  Bi  Bi26  1  0.930015  0.008391  0.327576  1
  Bi  Bi27  1  0.069505  0.992026  0.673143  1
  Ir  Ir28  1  0.570709  0.750352  0.509934  1
  Ir  Ir29  1  0.429022  0.249785  0.490475  1
  Ir  Ir30  1  0.069801  0.249801  0.990099  1
  Ir  Ir31  1  0.930442  0.750462  0.009768  1
