# generated using pymatgen
data_Na3CSO7
_symmetry_space_group_name_H-M   'P 1'
_cell_length_a   7.05353600
_cell_length_b   5.43569300
_cell_length_c   9.30941932
_cell_angle_alpha   87.33012725
_cell_angle_beta   90.00000000
_cell_angle_gamma   90.00000000
_symmetry_Int_Tables_number   1
_chemical_formula_structural   Na3CSO7
_chemical_formula_sum   'Na6 C2 S2 O14'
_cell_volume   356.54366139
_cell_formula_units_Z   2
loop_
 _symmetry_equiv_pos_site_id
 _symmetry_equiv_pos_as_xyz
  1  'x, y, z'
loop_
 _atom_site_type_symbol
 _atom_site_label
 _atom_site_symmetry_multiplicity
 _atom_site_fract_x
 _atom_site_fract_y
 _atom_site_fract_z
 _atom_site_occupancy
  Na  Na0  1  0.501475  0.232340  0.756291  1
  Na  Na1  1  0.998525  0.232340  0.756291  1
  Na  Na2  1  0.498525  0.767660  0.243709  1
  Na  Na3  1  0.001475  0.767660  0.243709  1
  Na  Na4  1  0.750000  0.776168  0.592080  1
  Na  Na5  1  0.250000  0.223832  0.407920  1
  C  C6  1  0.750000  0.738635  0.920522  1
  C  C7  1  0.250000  0.261365  0.079478  1
  S  S8  1  0.250000  0.716116  0.588346  1
  S  S9  1  0.750000  0.283884  0.411654  1
  O  O10  1  0.250000  0.271482  0.941605  1
  O  O11  1  0.750000  0.950986  0.854127  1
  O  O12  1  0.750000  0.542966  0.849234  1
  O  O13  1  0.077286  0.832159  0.646669  1
  O  O14  1  0.422714  0.832159  0.646669  1
  O  O15  1  0.750000  0.251907  0.573354  1
  O  O16  1  0.250000  0.443699  0.625873  1
  O  O17  1  0.750000  0.556301  0.374127  1
  O  O18  1  0.250000  0.748093  0.426646  1
  O  O19  1  0.577286  0.167841  0.353331  1
  O  O20  1  0.922714  0.167841  0.353331  1
  O  O21  1  0.250000  0.457034  0.150766  1
  O  O22  1  0.250000  0.049014  0.145873  1
  O  O23  1  0.750000  0.728518  0.058395  1
