# generated using pymatgen
data_Hf6TiTc12W5
_symmetry_space_group_name_H-M   'P 1'
_cell_length_a   4.49346900
_cell_length_b   6.38492400
_cell_length_c   13.59101000
_cell_angle_alpha   90.00000000
_cell_angle_beta   90.00001275
_cell_angle_gamma   90.00000000
_symmetry_Int_Tables_number   1
_chemical_formula_structural   Hf6TiTc12W5
_chemical_formula_sum   'Hf6 Ti1 Tc12 W5'
_cell_volume   389.93230242
_cell_formula_units_Z   1
loop_
 _symmetry_equiv_pos_site_id
 _symmetry_equiv_pos_as_xyz
  1  'x, y, z'
loop_
 _atom_site_type_symbol
 _atom_site_label
 _atom_site_symmetry_multiplicity
 _atom_site_fract_x
 _atom_site_fract_y
 _atom_site_fract_z
 _atom_site_occupancy
  Hf  Hf0  1  0.000000  0.500000  0.000000  1
  Hf  Hf1  1  0.499989  0.000000  0.165299  1
  Hf  Hf2  1  0.999985  0.500000  0.332445  1
  Hf  Hf3  1  0.500001  0.000000  0.500000  1
  Hf  Hf4  1  0.000015  0.500000  0.667554  1
  Hf  Hf5  1  0.500012  0.000000  0.834700  1
  Ti  Ti6  1  0.000000  0.000000  0.000000  1
  Tc  Tc7  1  0.500000  0.252607  0.000000  1
  Tc  Tc8  1  0.500000  0.747394  0.000000  1
  Tc  Tc9  1  0.999987  0.250639  0.168411  1
  Tc  Tc10  1  0.999987  0.749361  0.168411  1
  Tc  Tc11  1  0.499990  0.249962  0.333979  1
  Tc  Tc12  1  0.499990  0.750037  0.333979  1
  Tc  Tc13  1  0.000000  0.249942  0.500000  1
  Tc  Tc14  1  0.000000  0.750059  0.500000  1
  Tc  Tc15  1  0.500012  0.249962  0.666021  1
  Tc  Tc16  1  0.500012  0.750037  0.666021  1
  Tc  Tc17  1  0.000013  0.250639  0.831589  1
  Tc  Tc18  1  0.000013  0.749361  0.831589  1
  W  W19  1  0.499985  0.500000  0.165163  1
  W  W20  1  0.999991  0.000000  0.332673  1
  W  W21  1  0.500001  0.500000  0.500000  1
  W  W22  1  0.000009  0.000000  0.667326  1
  W  W23  1  0.500014  0.500000  0.834837  1
