# generated using pymatgen
data_Be3Al(SiRh3)2
_symmetry_space_group_name_H-M   'P 1'
_cell_length_a   4.07406600
_cell_length_b   5.78137100
_cell_length_c   12.23012800
_cell_angle_alpha   90.00000000
_cell_angle_beta   90.00163084
_cell_angle_gamma   90.00000000
_symmetry_Int_Tables_number   1
_chemical_formula_structural   Be3Al(SiRh3)2
_chemical_formula_sum   'Be6 Al2 Si4 Rh12'
_cell_volume   288.06460712
_cell_formula_units_Z   2
loop_
 _symmetry_equiv_pos_site_id
 _symmetry_equiv_pos_as_xyz
  1  'x, y, z'
loop_
 _atom_site_type_symbol
 _atom_site_label
 _atom_site_symmetry_multiplicity
 _atom_site_fract_x
 _atom_site_fract_y
 _atom_site_fract_z
 _atom_site_occupancy
  Be  Be0  1  0.999985  0.500000  0.004933  1
  Be  Be1  1  0.499717  0.000000  0.161729  1
  Be  Be2  1  0.999657  0.500000  0.328832  1
  Be  Be3  1  0.500000  0.000000  0.500165  1
  Be  Be4  1  0.000325  0.500000  0.666509  1
  Be  Be5  1  0.500307  0.000000  0.837832  1
  Al  Al6  1  0.000019  0.000000  0.999630  1
  Al  Al7  1  0.499800  0.500000  0.167032  1
  Si  Si8  1  0.999776  0.000000  0.333772  1
  Si  Si9  1  0.499998  0.500000  0.500125  1
  Si  Si10  1  0.000208  0.000000  0.666544  1
  Si  Si11  1  0.500227  0.500000  0.832894  1
  Rh  Rh12  1  0.500018  0.253933  0.995572  1
  Rh  Rh13  1  0.500018  0.746067  0.995572  1
  Rh  Rh14  1  0.999827  0.246072  0.171088  1
  Rh  Rh15  1  0.999827  0.753929  0.171088  1
  Rh  Rh16  1  0.499844  0.247304  0.339317  1
  Rh  Rh17  1  0.499844  0.752697  0.339317  1
  Rh  Rh18  1  0.999995  0.250205  0.501784  1
  Rh  Rh19  1  0.999995  0.749796  0.501784  1
  Rh  Rh20  1  0.500147  0.249797  0.664884  1
  Rh  Rh21  1  0.500147  0.750204  0.664884  1
  Rh  Rh22  1  0.000158  0.252695  0.827356  1
  Rh  Rh23  1  0.000158  0.747306  0.827356  1
