# generated using pymatgen
data_Ba20Bi8AsRh3
_symmetry_space_group_name_H-M   'P 1'
_cell_length_a   9.14470908
_cell_length_b   10.41972700
_cell_length_c   14.15091684
_cell_angle_alpha   90.00000000
_cell_angle_beta   90.27108347
_cell_angle_gamma   90.00000000
_symmetry_Int_Tables_number   1
_chemical_formula_structural   Ba20Bi8AsRh3
_chemical_formula_sum   'Ba20 Bi8 As1 Rh3'
_cell_volume   1348.36028523
_cell_formula_units_Z   1
loop_
 _symmetry_equiv_pos_site_id
 _symmetry_equiv_pos_as_xyz
  1  'x, y, z'
loop_
 _atom_site_type_symbol
 _atom_site_label
 _atom_site_symmetry_multiplicity
 _atom_site_fract_x
 _atom_site_fract_y
 _atom_site_fract_z
 _atom_site_occupancy
  Ba  Ba0  1  0.050720  0.750000  0.499516  1
  Ba  Ba1  1  0.952685  0.250000  0.503414  1
  Ba  Ba2  1  0.546039  0.250000  0.001529  1
  Ba  Ba3  1  0.458014  0.750000  0.999430  1
  Ba  Ba4  1  0.868067  0.750000  0.811433  1
  Ba  Ba5  1  0.126370  0.250000  0.188732  1
  Ba  Ba6  1  0.370107  0.250000  0.692420  1
  Ba  Ba7  1  0.643488  0.750000  0.299730  1
  Ba  Ba8  1  0.679839  0.516527  0.576641  1
  Ba  Ba9  1  0.318355  0.467260  0.421280  1
  Ba  Ba10  1  0.181397  0.479897  0.925731  1
  Ba  Ba11  1  0.318355  0.032740  0.421280  1
  Ba  Ba12  1  0.819221  0.518285  0.074477  1
  Ba  Ba13  1  0.679839  0.983473  0.576641  1
  Ba  Ba14  1  0.819221  0.981715  0.074477  1
  Ba  Ba15  1  0.181397  0.020103  0.925731  1
  Ba  Ba16  1  0.334508  0.750000  0.714461  1
  Ba  Ba17  1  0.657309  0.250000  0.293333  1
  Ba  Ba18  1  0.848898  0.250000  0.797666  1
  Ba  Ba19  1  0.152859  0.750000  0.199771  1
  Bi  Bi20  1  0.566109  0.505998  0.829431  1
  Bi  Bi21  1  0.431637  0.494014  0.170294  1
  Bi  Bi22  1  0.062933  0.495366  0.671542  1
  Bi  Bi23  1  0.431637  0.005986  0.170294  1
  Bi  Bi24  1  0.936127  0.506446  0.329768  1
  Bi  Bi25  1  0.566109  0.994002  0.829431  1
  Bi  Bi26  1  0.936127  0.993554  0.329768  1
  Bi  Bi27  1  0.062933  0.004634  0.671542  1
  As  As28  1  0.438845  0.750000  0.490812  1
  Rh  Rh29  1  0.068510  0.750000  0.985867  1
  Rh  Rh30  1  0.932268  0.250000  0.013946  1
  Rh  Rh31  1  0.560077  0.250000  0.509608  1
