# generated using pymatgen
data_Nd2VTcB8
_symmetry_space_group_name_H-M   'P 1'
_cell_length_a   6.07034984
_cell_length_b   6.07034933
_cell_length_c   3.63557500
_cell_angle_alpha   90.00000000
_cell_angle_beta   90.00000000
_cell_angle_gamma   104.26114255
_symmetry_Int_Tables_number   1
_chemical_formula_structural   Nd2VTcB8
_chemical_formula_sum   'Nd2 V1 Tc1 B8'
_cell_volume   129.83934325
_cell_formula_units_Z   1
loop_
 _symmetry_equiv_pos_site_id
 _symmetry_equiv_pos_as_xyz
  1  'x, y, z'
loop_
 _atom_site_type_symbol
 _atom_site_label
 _atom_site_symmetry_multiplicity
 _atom_site_fract_x
 _atom_site_fract_y
 _atom_site_fract_z
 _atom_site_occupancy
  Nd  Nd0  1  0.302572  0.698766  0.000000  1
  Nd  Nd1  1  0.698766  0.302572  0.000000  1
  V  V2  1  0.836139  0.836139  0.000000  1
  Tc  Tc3  1  0.163627  0.163627  0.000000  1
  B  B4  1  0.377372  0.067402  0.500000  1
  B  B5  1  0.622312  0.933270  0.500000  1
  B  B6  1  0.067402  0.377372  0.500000  1
  B  B7  1  0.933270  0.622312  0.500000  1
  B  B8  1  0.368549  0.368549  0.500000  1
  B  B9  1  0.630174  0.630174  0.500000  1
  B  B10  1  0.089968  0.909847  0.500000  1
  B  B11  1  0.909847  0.089968  0.500000  1
