# generated using pymatgen
data_Li4DyY3SnSb3
_symmetry_space_group_name_H-M   'P 1'
_cell_length_a   9.48237600
_cell_length_b   9.48237593
_cell_length_c   7.02901200
_cell_angle_alpha   90.00000000
_cell_angle_beta   90.00000000
_cell_angle_gamma   119.99999327
_symmetry_Int_Tables_number   1
_chemical_formula_structural   Li4DyY3SnSb3
_chemical_formula_sum   'Li8 Dy2 Y6 Sn2 Sb6'
_cell_volume   547.34264561
_cell_formula_units_Z   2
loop_
 _symmetry_equiv_pos_site_id
 _symmetry_equiv_pos_as_xyz
  1  'x, y, z'
loop_
 _atom_site_type_symbol
 _atom_site_label
 _atom_site_symmetry_multiplicity
 _atom_site_fract_x
 _atom_site_fract_y
 _atom_site_fract_z
 _atom_site_occupancy
  Li  Li0  1  0.166864  0.333728  0.274626  1
  Li  Li1  1  0.166864  0.833136  0.274626  1
  Li  Li2  1  0.666272  0.833136  0.274626  1
  Li  Li3  1  0.833136  0.666272  0.774626  1
  Li  Li4  1  0.833136  0.166864  0.774626  1
  Li  Li5  1  0.333728  0.166864  0.774626  1
  Li  Li6  1  0.333333  0.666667  0.692656  1
  Li  Li7  1  0.666667  0.333333  0.192656  1
  Dy  Dy8  1  0.000000  0.000000  0.501112  1
  Dy  Dy9  1  0.000000  0.000000  0.001112  1
  Y  Y10  1  0.508322  0.016643  0.494061  1
  Y  Y11  1  0.508322  0.491678  0.494061  1
  Y  Y12  1  0.983357  0.491678  0.494061  1
  Y  Y13  1  0.491678  0.983357  0.994061  1
  Y  Y14  1  0.491678  0.508322  0.994061  1
  Y  Y15  1  0.016643  0.508322  0.994061  1
  Sn  Sn16  1  0.333333  0.666667  0.259685  1
  Sn  Sn17  1  0.666667  0.333333  0.759685  1
  Sb  Sb18  1  0.166425  0.332849  0.737162  1
  Sb  Sb19  1  0.166425  0.833575  0.737162  1
  Sb  Sb20  1  0.667151  0.833575  0.737162  1
  Sb  Sb21  1  0.833575  0.667151  0.237162  1
  Sb  Sb22  1  0.833575  0.166425  0.237162  1
  Sb  Sb23  1  0.332849  0.166425  0.237162  1
