# generated using pymatgen
data_CeLuCdNi2
_symmetry_space_group_name_H-M   'P 1'
_cell_length_a   7.39675296
_cell_length_b   7.39675285
_cell_length_c   3.57192900
_cell_angle_alpha   90.00000000
_cell_angle_beta   90.00000000
_cell_angle_gamma   92.90124162
_symmetry_Int_Tables_number   1
_chemical_formula_structural   CeLuCdNi2
_chemical_formula_sum   'Ce2 Lu2 Cd2 Ni4'
_cell_volume   195.17672654
_cell_formula_units_Z   2
loop_
 _symmetry_equiv_pos_site_id
 _symmetry_equiv_pos_as_xyz
  1  'x, y, z'
loop_
 _atom_site_type_symbol
 _atom_site_label
 _atom_site_symmetry_multiplicity
 _atom_site_fract_x
 _atom_site_fract_y
 _atom_site_fract_z
 _atom_site_occupancy
  Ce  Ce0  1  0.674928  0.174928  0.500000  1
  Ce  Ce1  1  0.325072  0.825072  0.500000  1
  Lu  Lu2  1  0.171435  0.328565  0.500000  1
  Lu  Lu3  1  0.828565  0.671435  0.500000  1
  Cd  Cd4  1  0.000000  0.000000  0.000000  1
  Cd  Cd5  1  0.500000  0.500000  0.000000  1
  Ni  Ni6  1  0.123983  0.623983  0.000000  1
  Ni  Ni7  1  0.876017  0.376017  0.000000  1
  Ni  Ni8  1  0.620676  0.879324  0.000000  1
  Ni  Ni9  1  0.379324  0.120676  0.000000  1
