# generated using pymatgen
data_Ho4Lu4Tc3B24Os
_symmetry_space_group_name_H-M   'P 1'
_cell_length_a   3.63348900
_cell_length_b   9.08299152
_cell_length_c   11.46557801
_cell_angle_alpha   89.95197595
_cell_angle_beta   90.00000000
_cell_angle_gamma   90.00000000
_symmetry_Int_Tables_number   1
_chemical_formula_structural   Ho4Lu4Tc3B24Os
_chemical_formula_sum   'Ho4 Lu4 Tc3 B24 Os1'
_cell_volume   378.39776223
_cell_formula_units_Z   1
loop_
 _symmetry_equiv_pos_site_id
 _symmetry_equiv_pos_as_xyz
  1  'x, y, z'
loop_
 _atom_site_type_symbol
 _atom_site_label
 _atom_site_symmetry_multiplicity
 _atom_site_fract_x
 _atom_site_fract_y
 _atom_site_fract_z
 _atom_site_occupancy
  Ho  Ho0  1  0.000000  0.323080  0.413734  1
  Ho  Ho1  1  0.000000  0.676007  0.584557  1
  Ho  Ho2  1  0.000000  0.822394  0.087358  1
  Ho  Ho3  1  0.000000  0.178554  0.914350  1
  Lu  Lu4  1  0.000000  0.942843  0.370381  1
  Lu  Lu5  1  0.000000  0.057836  0.629649  1
  Lu  Lu6  1  0.000000  0.443300  0.129857  1
  Lu  Lu7  1  0.000000  0.556638  0.869861  1
  Tc  Tc8  1  0.000000  0.639138  0.319858  1
  Tc  Tc9  1  0.000000  0.360892  0.680705  1
  Tc  Tc10  1  0.000000  0.138660  0.178996  1
  B  B11  1  0.500000  0.553326  0.432870  1
  B  B12  1  0.500000  0.446599  0.567007  1
  B  B13  1  0.500000  0.053272  0.066915  1
  B  B14  1  0.500000  0.946026  0.932807  1
  B  B15  1  0.500000  0.750129  0.418865  1
  B  B16  1  0.500000  0.249579  0.581218  1
  B  B17  1  0.500000  0.250699  0.081167  1
  B  B18  1  0.500000  0.749845  0.918528  1
  B  B19  1  0.500000  0.792761  0.265622  1
  B  B20  1  0.500000  0.207374  0.734984  1
  B  B21  1  0.500000  0.292685  0.234623  1
  B  B22  1  0.500000  0.708031  0.765279  1
  B  B23  1  0.500000  0.630364  0.184925  1
  B  B24  1  0.500000  0.369555  0.815678  1
  B  B25  1  0.500000  0.129920  0.314799  1
  B  B26  1  0.500000  0.869595  0.684958  1
  B  B27  1  0.500000  0.981292  0.212444  1
  B  B28  1  0.500000  0.017499  0.787522  1
  B  B29  1  0.500000  0.481535  0.287378  1
  B  B30  1  0.500000  0.518291  0.712532  1
  B  B31  1  0.500000  0.600314  0.027572  1
  B  B32  1  0.500000  0.400832  0.972310  1
  B  B33  1  0.500000  0.099979  0.472349  1
  B  B34  1  0.500000  0.900118  0.528075  1
  Os  Os35  1  0.000000  0.861041  0.820265  1
