# generated using pymatgen
data_EuDy4YTa2O14
_symmetry_space_group_name_H-M   'P 1'
_cell_length_a   6.49443418
_cell_length_b   6.49443363
_cell_length_c   7.52886442
_cell_angle_alpha   90.12113885
_cell_angle_beta   89.87886283
_cell_angle_gamma   108.75354608
_symmetry_Int_Tables_number   1
_chemical_formula_structural   EuDy4YTa2O14
_chemical_formula_sum   'Eu1 Dy4 Y1 Ta2 O14'
_cell_volume   300.69030082
_cell_formula_units_Z   1
loop_
 _symmetry_equiv_pos_site_id
 _symmetry_equiv_pos_as_xyz
  1  'x, y, z'
loop_
 _atom_site_type_symbol
 _atom_site_label
 _atom_site_symmetry_multiplicity
 _atom_site_fract_x
 _atom_site_fract_y
 _atom_site_fract_z
 _atom_site_occupancy
  Eu  Eu0  1  0.494123  0.494123  0.000000  1
  Dy  Dy1  1  0.000796  0.464857  0.745625  1
  Dy  Dy2  1  0.001320  0.534214  0.246964  1
  Dy  Dy3  1  0.534214  0.001320  0.753036  1
  Dy  Dy4  1  0.464857  0.000796  0.254375  1
  Y  Y5  1  0.532840  0.532840  0.500000  1
  Ta  Ta6  1  0.002848  0.002848  0.500000  1
  Ta  Ta7  1  0.999343  0.999343  0.000000  1
  O  O8  1  0.639583  0.360616  0.744541  1
  O  O9  1  0.360616  0.639583  0.255459  1
  O  O10  1  0.932793  0.066234  0.750375  1
  O  O11  1  0.066234  0.932793  0.249625  1
  O  O12  1  0.920983  0.674466  0.528897  1
  O  O13  1  0.069735  0.321152  0.030097  1
  O  O14  1  0.321152  0.069735  0.969903  1
  O  O15  1  0.674466  0.920983  0.471103  1
  O  O16  1  0.368926  0.631896  0.743809  1
  O  O17  1  0.631896  0.368926  0.256191  1
  O  O18  1  0.935928  0.682673  0.963070  1
  O  O19  1  0.053492  0.311184  0.461382  1
  O  O20  1  0.311184  0.053492  0.538618  1
  O  O21  1  0.682673  0.935928  0.036930  1
