# generated using pymatgen
data_Re3TcSe8
_symmetry_space_group_name_H-M   'P 1'
_cell_length_a   6.67445710
_cell_length_b   6.79713118
_cell_length_c   7.98853907
_cell_angle_alpha   67.25575523
_cell_angle_beta   78.06596419
_cell_angle_gamma   61.20101743
_symmetry_Int_Tables_number   1
_chemical_formula_structural   Re3TcSe8
_chemical_formula_sum   'Re3 Tc1 Se8'
_cell_volume   292.80124927
_cell_formula_units_Z   1
loop_
 _symmetry_equiv_pos_site_id
 _symmetry_equiv_pos_as_xyz
  1  'x, y, z'
loop_
 _atom_site_type_symbol
 _atom_site_label
 _atom_site_symmetry_multiplicity
 _atom_site_fract_x
 _atom_site_fract_y
 _atom_site_fract_z
 _atom_site_occupancy
  Re  Re0  1  0.511385  0.291274  0.502523  1
  Re  Re1  1  0.489158  0.709574  0.497690  1
  Re  Re2  1  0.931789  0.313744  0.508060  1
  Tc  Tc3  1  0.066778  0.686613  0.491461  1
  Se  Se4  1  0.321400  0.171368  0.329965  1
  Se  Se5  1  0.679236  0.829663  0.670438  1
  Se  Se6  1  0.860771  0.148639  0.305755  1
  Se  Se7  1  0.139451  0.850542  0.693824  1
  Se  Se8  1  0.364018  0.670674  0.244766  1
  Se  Se9  1  0.635597  0.329439  0.757156  1
  Se  Se10  1  0.823860  0.704064  0.272432  1
  Se  Se11  1  0.176557  0.294406  0.725931  1
