# generated using pymatgen
data_Tm19Th(Ir2Os)4
_symmetry_space_group_name_H-M   'P 1'
_cell_length_a   10.75960396
_cell_length_b   10.72853650
_cell_length_c   6.34976063
_cell_angle_alpha   90.19786902
_cell_angle_beta   89.80563855
_cell_angle_gamma   90.07898560
_symmetry_Int_Tables_number   1
_chemical_formula_structural   Tm19Th(Ir2Os)4
_chemical_formula_sum   'Tm19 Th1 Ir8 Os4'
_cell_volume   732.97409960
_cell_formula_units_Z   1
loop_
 _symmetry_equiv_pos_site_id
 _symmetry_equiv_pos_as_xyz
  1  'x, y, z'
loop_
 _atom_site_type_symbol
 _atom_site_label
 _atom_site_symmetry_multiplicity
 _atom_site_fract_x
 _atom_site_fract_y
 _atom_site_fract_z
 _atom_site_occupancy
  Tm  Tm0  1  0.293394  0.911502  0.875826  1
  Tm  Tm1  1  0.706861  0.085999  0.877280  1
  Tm  Tm2  1  0.707044  0.913302  0.376147  1
  Tm  Tm3  1  0.586501  0.793179  0.876494  1
  Tm  Tm4  1  0.591558  0.208068  0.376366  1
  Tm  Tm5  1  0.416393  0.789023  0.375463  1
  Tm  Tm6  1  0.416348  0.208094  0.875496  1
  Tm  Tm7  1  0.205878  0.415361  0.624326  1
  Tm  Tm8  1  0.205387  0.585357  0.123125  1
  Tm  Tm9  1  0.793733  0.414990  0.123381  1
  Tm  Tm10  1  0.793718  0.585805  0.623948  1
  Tm  Tm11  1  0.914331  0.705967  0.123758  1
  Tm  Tm12  1  0.914013  0.293904  0.622092  1
  Tm  Tm13  1  0.085200  0.706008  0.624890  1
  Tm  Tm14  1  0.082716  0.295687  0.122370  1
  Tm  Tm15  1  0.995645  0.998595  0.501629  1
  Tm  Tm16  1  0.999839  0.999845  0.000395  1
  Tm  Tm17  1  0.500176  0.500714  0.001149  1
  Tm  Tm18  1  0.501427  0.499553  0.501686  1
  Th  Th19  1  0.293180  0.086584  0.375543  1
  Ir  Ir20  1  0.847399  0.152724  0.249263  1
  Ir  Ir21  1  0.846915  0.847543  0.751503  1
  Ir  Ir22  1  0.152452  0.152078  0.747642  1
  Ir  Ir23  1  0.152642  0.848680  0.251787  1
  Ir  Ir24  1  0.652623  0.347976  0.750731  1
  Ir  Ir25  1  0.652090  0.652561  0.249521  1
  Ir  Ir26  1  0.347054  0.347962  0.250829  1
  Ir  Ir27  1  0.348396  0.651806  0.750835  1
  Os  Os28  1  0.497897  0.000022  0.124493  1
  Os  Os29  1  0.500432  0.999672  0.622276  1
  Os  Os30  1  0.999310  0.500411  0.874346  1
  Os  Os31  1  0.999447  0.501032  0.375411  1
