# generated using pymatgen
data_BaTiV2O8
_symmetry_space_group_name_H-M   'P 1'
_cell_length_a   5.25956638
_cell_length_b   5.25956653
_cell_length_c   7.68101071
_cell_angle_alpha   87.30410901
_cell_angle_beta   87.30410990
_cell_angle_gamma   65.20413858
_symmetry_Int_Tables_number   1
_chemical_formula_structural   BaTiV2O8
_chemical_formula_sum   'Ba1 Ti1 V2 O8'
_cell_volume   192.59021060
_cell_formula_units_Z   1
loop_
 _symmetry_equiv_pos_site_id
 _symmetry_equiv_pos_as_xyz
  1  'x, y, z'
loop_
 _atom_site_type_symbol
 _atom_site_label
 _atom_site_symmetry_multiplicity
 _atom_site_fract_x
 _atom_site_fract_y
 _atom_site_fract_z
 _atom_site_occupancy
  Ba  Ba0  1  0.000000  0.000000  0.500000  1
  Ti  Ti1  1  0.000000  0.000000  0.000000  1
  V  V2  1  0.367851  0.367851  0.792623  1
  V  V3  1  0.632149  0.632149  0.207377  1
  O  O4  1  0.309395  0.309395  0.587031  1
  O  O5  1  0.690605  0.690605  0.412969  1
  O  O6  1  0.736340  0.218033  0.816260  1
  O  O7  1  0.263660  0.781967  0.183740  1
  O  O8  1  0.781967  0.263660  0.183740  1
  O  O9  1  0.218033  0.736340  0.816260  1
  O  O10  1  0.215680  0.215680  0.943886  1
  O  O11  1  0.784320  0.784320  0.056114  1
