# generated using pymatgen
data_Hf7NbAs6
_symmetry_space_group_name_H-M   'P 1'
_cell_length_a   7.71510202
_cell_length_b   7.71510143
_cell_length_c   19.70872700
_cell_angle_alpha   90.00000000
_cell_angle_beta   90.00000000
_cell_angle_gamma   152.28690291
_symmetry_Int_Tables_number   1
_chemical_formula_structural   Hf7NbAs6
_chemical_formula_sum   'Hf14 Nb2 As12'
_cell_volume   545.55222116
_cell_formula_units_Z   2
loop_
 _symmetry_equiv_pos_site_id
 _symmetry_equiv_pos_as_xyz
  1  'x, y, z'
loop_
 _atom_site_type_symbol
 _atom_site_label
 _atom_site_symmetry_multiplicity
 _atom_site_fract_x
 _atom_site_fract_y
 _atom_site_fract_z
 _atom_site_occupancy
  Hf  Hf0  1  0.735121  0.264879  0.161638  1
  Hf  Hf1  1  0.264879  0.735121  0.838362  1
  Hf  Hf2  1  0.264879  0.735121  0.661638  1
  Hf  Hf3  1  0.735121  0.264879  0.338362  1
  Hf  Hf4  1  0.533778  0.466222  0.117743  1
  Hf  Hf5  1  0.466222  0.533778  0.882257  1
  Hf  Hf6  1  0.466222  0.533778  0.617743  1
  Hf  Hf7  1  0.533778  0.466222  0.382257  1
  Hf  Hf8  1  0.663206  0.336794  0.973401  1
  Hf  Hf9  1  0.336794  0.663206  0.026599  1
  Hf  Hf10  1  0.336794  0.663206  0.473401  1
  Hf  Hf11  1  0.663206  0.336794  0.526599  1
  Hf  Hf12  1  0.057604  0.942396  0.750000  1
  Hf  Hf13  1  0.942396  0.057604  0.250000  1
  Nb  Nb14  1  0.000000  0.000000  0.000000  1
  Nb  Nb15  1  0.000000  0.000000  0.500000  1
  As  As16  1  0.902217  0.097783  0.117009  1
  As  As17  1  0.097783  0.902217  0.882991  1
  As  As18  1  0.097783  0.902217  0.617009  1
  As  As19  1  0.902217  0.097783  0.382991  1
  As  As20  1  0.840034  0.159966  0.924239  1
  As  As21  1  0.159966  0.840034  0.075761  1
  As  As22  1  0.159966  0.840034  0.424239  1
  As  As23  1  0.840034  0.159966  0.575761  1
  As  As24  1  0.697009  0.302991  0.750000  1
  As  As25  1  0.302991  0.697009  0.250000  1
  As  As26  1  0.416487  0.583513  0.750000  1
  As  As27  1  0.583513  0.416487  0.250000  1
