# generated using pymatgen
data_Y2Ti2NbSi4
_symmetry_space_group_name_H-M   'P 1'
_cell_length_a   7.05643600
_cell_length_b   6.88602635
_cell_length_c   7.05028270
_cell_angle_alpha   71.29459685
_cell_angle_beta   90.00000000
_cell_angle_gamma   90.00000000
_symmetry_Int_Tables_number   1
_chemical_formula_structural   Y2Ti2NbSi4
_chemical_formula_sum   'Y4 Ti4 Nb2 Si8'
_cell_volume   324.48390170
_cell_formula_units_Z   2
loop_
 _symmetry_equiv_pos_site_id
 _symmetry_equiv_pos_as_xyz
  1  'x, y, z'
loop_
 _atom_site_type_symbol
 _atom_site_label
 _atom_site_symmetry_multiplicity
 _atom_site_fract_x
 _atom_site_fract_y
 _atom_site_fract_z
 _atom_site_occupancy
  Y  Y0  1  0.169830  0.932693  0.189690  1
  Y  Y1  1  0.330170  0.432693  0.189690  1
  Y  Y2  1  0.830170  0.067307  0.810310  1
  Y  Y3  1  0.669830  0.567307  0.810310  1
  Ti  Ti4  1  0.824395  0.250664  0.257624  1
  Ti  Ti5  1  0.324395  0.249336  0.742376  1
  Ti  Ti6  1  0.175605  0.749336  0.742376  1
  Ti  Ti7  1  0.675605  0.750664  0.257624  1
  Nb  Nb8  1  0.500000  0.000000  0.500000  1
  Nb  Nb9  1  0.000000  0.500000  0.500000  1
  Si  Si10  1  0.539308  0.127443  0.085304  1
  Si  Si11  1  0.375127  0.628237  0.497235  1
  Si  Si12  1  0.875127  0.871763  0.502765  1
  Si  Si13  1  0.039308  0.372557  0.914696  1
  Si  Si14  1  0.124873  0.128237  0.497235  1
  Si  Si15  1  0.624873  0.371763  0.502765  1
  Si  Si16  1  0.960692  0.627443  0.085304  1
  Si  Si17  1  0.460692  0.872557  0.914696  1
