# generated using pymatgen
data_SmTmCBr
_symmetry_space_group_name_H-M   'P 1'
_cell_length_a   3.69168300
_cell_length_b   3.69168202
_cell_length_c   14.34274400
_cell_angle_alpha   90.00000000
_cell_angle_beta   90.00000000
_cell_angle_gamma   119.99998186
_symmetry_Int_Tables_number   1
_chemical_formula_structural   SmTmCBr
_chemical_formula_sum   'Sm2 Tm2 C2 Br2'
_cell_volume   169.28233719
_cell_formula_units_Z   2
loop_
 _symmetry_equiv_pos_site_id
 _symmetry_equiv_pos_as_xyz
  1  'x, y, z'
loop_
 _atom_site_type_symbol
 _atom_site_label
 _atom_site_symmetry_multiplicity
 _atom_site_fract_x
 _atom_site_fract_y
 _atom_site_fract_z
 _atom_site_occupancy
  Sm  Sm0  1  0.666667  0.333333  0.909334  1
  Sm  Sm1  1  0.333333  0.666667  0.409334  1
  Tm  Tm2  1  0.333333  0.666667  0.089050  1
  Tm  Tm3  1  0.666667  0.333333  0.589050  1
  C  C4  1  0.000000  0.000000  0.008234  1
  C  C5  1  0.000000  0.000000  0.508234  1
  Br  Br6  1  0.333333  0.666667  0.743381  1
  Br  Br7  1  0.666667  0.333333  0.243381  1
