# generated using pymatgen
data_Sr2CaTb(Al3Pd)6
_symmetry_space_group_name_H-M   'P 1'
_cell_length_a   7.70711057
_cell_length_b   7.70321404
_cell_length_c   9.61892900
_cell_angle_alpha   90.00000000
_cell_angle_beta   90.00000000
_cell_angle_gamma   119.46401846
_symmetry_Int_Tables_number   1
_chemical_formula_structural   Sr2CaTb(Al3Pd)6
_chemical_formula_sum   'Sr2 Ca1 Tb1 Al18 Pd6'
_cell_volume   497.21158899
_cell_formula_units_Z   1
loop_
 _symmetry_equiv_pos_site_id
 _symmetry_equiv_pos_as_xyz
  1  'x, y, z'
loop_
 _atom_site_type_symbol
 _atom_site_label
 _atom_site_symmetry_multiplicity
 _atom_site_fract_x
 _atom_site_fract_y
 _atom_site_fract_z
 _atom_site_occupancy
  Sr  Sr0  1  0.993587  0.669474  0.250000  1
  Sr  Sr1  1  0.671553  0.995629  0.250000  1
  Ca  Ca2  1  0.003638  0.329632  0.750000  1
  Tb  Tb3  1  0.330021  0.002480  0.750000  1
  Al  Al4  1  0.137295  0.137516  0.250000  1
  Al  Al5  1  0.872275  0.869806  0.750000  1
  Al  Al6  1  0.005601  0.335179  0.067722  1
  Al  Al7  1  0.999531  0.664355  0.917866  1
  Al  Al8  1  0.999531  0.664355  0.582134  1
  Al  Al9  1  0.334822  0.004350  0.431723  1
  Al  Al10  1  0.005601  0.335179  0.432278  1
  Al  Al11  1  0.665450  0.000374  0.582000  1
  Al  Al12  1  0.665450  0.000374  0.918000  1
  Al  Al13  1  0.334822  0.004350  0.068277  1
  Al  Al14  1  0.332006  0.331221  0.563020  1
  Al  Al15  1  0.663002  0.663179  0.457842  1
  Al  Al16  1  0.663002  0.663179  0.042158  1
  Al  Al17  1  0.332006  0.331221  0.936980  1
  Al  Al18  1  0.339761  0.542704  0.250000  1
  Al  Al19  1  0.655054  0.451242  0.750000  1
  Al  Al20  1  0.540438  0.340261  0.250000  1
  Al  Al21  1  0.454953  0.663919  0.750000  1
  Pd  Pd22  1  0.670562  0.327972  0.996957  1
  Pd  Pd23  1  0.328279  0.671142  0.996364  1
  Pd  Pd24  1  0.328279  0.671142  0.503636  1
  Pd  Pd25  1  0.670562  0.327972  0.503043  1
  Pd  Pd26  1  0.001461  0.000896  0.996240  1
  Pd  Pd27  1  0.001461  0.000896  0.503760  1
