# generated using pymatgen
data_EuCoSi2Tc
_symmetry_space_group_name_H-M   'P 1'
_cell_length_a   5.81635736
_cell_length_b   5.81635711
_cell_length_c   5.81635736
_cell_angle_alpha   138.26311144
_cell_angle_beta   138.26312300
_cell_angle_gamma   60.50026309
_symmetry_Int_Tables_number   1
_chemical_formula_structural   EuCoSi2Tc
_chemical_formula_sum   'Eu1 Co1 Si2 Tc1'
_cell_volume   86.27570905
_cell_formula_units_Z   1
loop_
 _symmetry_equiv_pos_site_id
 _symmetry_equiv_pos_as_xyz
  1  'x, y, z'
loop_
 _atom_site_type_symbol
 _atom_site_label
 _atom_site_symmetry_multiplicity
 _atom_site_fract_x
 _atom_site_fract_y
 _atom_site_fract_z
 _atom_site_occupancy
  Eu  Eu0  1  0.000000  0.000000  0.000000  1
  Co  Co1  1  0.750000  0.250000  0.500000  1
  Si  Si2  1  0.637177  0.637177  0.000000  1
  Si  Si3  1  0.362823  0.362823  0.000000  1
  Tc  Tc4  1  0.250000  0.750000  0.500000  1
