# generated using pymatgen
data_HoZnGa5Cu6
_symmetry_space_group_name_H-M   'P 1'
_cell_length_a   5.15538101
_cell_length_b   6.61404817
_cell_length_c   6.61404733
_cell_angle_alpha   99.61840519
_cell_angle_beta   112.93768760
_cell_angle_gamma   67.06231582
_symmetry_Int_Tables_number   1
_chemical_formula_structural   HoZnGa5Cu6
_chemical_formula_sum   'Ho1 Zn1 Ga5 Cu6'
_cell_volume   191.23978243
_cell_formula_units_Z   1
loop_
 _symmetry_equiv_pos_site_id
 _symmetry_equiv_pos_as_xyz
  1  'x, y, z'
loop_
 _atom_site_type_symbol
 _atom_site_label
 _atom_site_symmetry_multiplicity
 _atom_site_fract_x
 _atom_site_fract_y
 _atom_site_fract_z
 _atom_site_occupancy
  Ho  Ho0  1  0.999541  0.000459  0.999541  1
  Zn  Zn1  1  0.302417  0.197583  0.802417  1
  Ga  Ga2  1  0.653658  0.346342  0.653658  1
  Ga  Ga3  1  0.349895  0.650105  0.349895  1
  Ga  Ga4  1  0.001239  0.346838  0.349316  1
  Ga  Ga5  1  0.001239  0.650684  0.653162  1
  Ga  Ga6  1  0.691824  0.808176  0.191824  1
  Cu  Cu7  1  0.500821  0.998228  0.498876  1
  Cu  Cu8  1  0.999828  0.998228  0.498876  1
  Cu  Cu9  1  0.500821  0.501124  0.001772  1
  Cu  Cu10  1  0.999828  0.501124  0.001772  1
  Cu  Cu11  1  0.499445  0.770073  0.768963  1
  Cu  Cu12  1  0.499445  0.231037  0.229927  1
