# generated using pymatgen
data_Tb8Ta3Ti3(Si8W3)2
_symmetry_space_group_name_H-M   'P 1'
_cell_length_a   6.96236571
_cell_length_b   6.96163492
_cell_length_c   12.89969764
_cell_angle_alpha   89.99285408
_cell_angle_beta   89.86809954
_cell_angle_gamma   89.98287043
_symmetry_Int_Tables_number   1
_chemical_formula_structural   Tb8Ta3Ti3(Si8W3)2
_chemical_formula_sum   'Tb8 Ta3 Ti3 Si16 W6'
_cell_volume   625.23953760
_cell_formula_units_Z   1
loop_
 _symmetry_equiv_pos_site_id
 _symmetry_equiv_pos_as_xyz
  1  'x, y, z'
loop_
 _atom_site_type_symbol
 _atom_site_label
 _atom_site_symmetry_multiplicity
 _atom_site_fract_x
 _atom_site_fract_y
 _atom_site_fract_z
 _atom_site_occupancy
  Tb  Tb0  1  0.337911  0.003042  0.469195  1
  Tb  Tb1  1  0.498305  0.837500  0.717199  1
  Tb  Tb2  1  0.500991  0.160795  0.218816  1
  Tb  Tb3  1  0.838474  0.497880  0.283084  1
  Tb  Tb4  1  0.160671  0.501007  0.781084  1
  Tb  Tb5  1  0.661184  0.999203  0.967779  1
  Tb  Tb6  1  0.002029  0.338701  0.530852  1
  Tb  Tb7  1  0.997925  0.660681  0.032160  1
  Ta  Ta8  1  0.331389  0.330869  0.999931  1
  Ta  Ta9  1  0.157999  0.006572  0.873061  1
  Ta  Ta10  1  0.494872  0.657368  0.124872  1
  Ti  Ti11  1  0.169695  0.833608  0.250824  1
  Ti  Ti12  1  0.830826  0.171044  0.749598  1
  Ti  Ti13  1  0.669034  0.669528  0.500312  1
  Si  Si14  1  0.201187  0.127367  0.682145  1
  Si  Si15  1  0.373739  0.701442  0.932038  1
  Si  Si16  1  0.626717  0.298349  0.433633  1
  Si  Si17  1  0.706092  0.369261  0.067602  1
  Si  Si18  1  0.297559  0.627012  0.566038  1
  Si  Si19  1  0.800525  0.874206  0.184856  1
  Si  Si20  1  0.127712  0.200423  0.316825  1
  Si  Si21  1  0.870035  0.794969  0.815574  1
  Si  Si22  1  0.289588  0.959008  0.064241  1
  Si  Si23  1  0.541329  0.791370  0.314927  1
  Si  Si24  1  0.462529  0.210321  0.810943  1
  Si  Si25  1  0.790459  0.539677  0.686482  1
  Si  Si26  1  0.206557  0.459178  0.188305  1
  Si  Si27  1  0.710273  0.040387  0.563064  1
  Si  Si28  1  0.956503  0.292743  0.936596  1
  Si  Si29  1  0.040092  0.710502  0.436928  1
  W  W30  1  0.507267  0.341776  0.622599  1
  W  W31  1  0.660589  0.491546  0.875376  1
  W  W32  1  0.339640  0.507465  0.376167  1
  W  W33  1  0.841184  0.994702  0.375392  1
  W  W34  1  0.007252  0.160876  0.126808  1
  W  W35  1  0.991869  0.839624  0.624694  1
