# generated using pymatgen
data_PrNd3Lu4(B6Os)4
_symmetry_space_group_name_H-M   'P 1'
_cell_length_a   3.67278700
_cell_length_b   9.17503200
_cell_length_c   11.61966500
_cell_angle_alpha   90.00237486
_cell_angle_beta   90.00000000
_cell_angle_gamma   90.00000000
_symmetry_Int_Tables_number   1
_chemical_formula_structural   PrNd3Lu4(B6Os)4
_chemical_formula_sum   'Pr1 Nd3 Lu4 B24 Os4'
_cell_volume   391.55875354
_cell_formula_units_Z   1
loop_
 _symmetry_equiv_pos_site_id
 _symmetry_equiv_pos_as_xyz
  1  'x, y, z'
loop_
 _atom_site_type_symbol
 _atom_site_label
 _atom_site_symmetry_multiplicity
 _atom_site_fract_x
 _atom_site_fract_y
 _atom_site_fract_z
 _atom_site_occupancy
  Pr  Pr0  1  0.000000  0.322127  0.414438  1
  Nd  Nd1  1  0.000000  0.678018  0.585611  1
  Nd  Nd2  1  0.000000  0.822032  0.085471  1
  Nd  Nd3  1  0.000000  0.177939  0.914454  1
  Lu  Lu4  1  0.000000  0.944616  0.372834  1
  Lu  Lu5  1  0.000000  0.055139  0.627262  1
  Lu  Lu6  1  0.000000  0.444782  0.127005  1
  Lu  Lu7  1  0.000000  0.555298  0.872943  1
  B  B8  1  0.500000  0.557192  0.429986  1
  B  B9  1  0.500000  0.443570  0.570436  1
  B  B10  1  0.500000  0.056472  0.069749  1
  B  B11  1  0.500000  0.943408  0.930119  1
  B  B12  1  0.500000  0.751152  0.417125  1
  B  B13  1  0.500000  0.248934  0.583446  1
  B  B14  1  0.500000  0.250930  0.082708  1
  B  B15  1  0.500000  0.749049  0.917111  1
  B  B16  1  0.500000  0.791875  0.266535  1
  B  B17  1  0.500000  0.208180  0.733624  1
  B  B18  1  0.500000  0.291506  0.232916  1
  B  B19  1  0.500000  0.708262  0.766665  1
  B  B20  1  0.500000  0.630355  0.184502  1
  B  B21  1  0.500000  0.369843  0.815479  1
  B  B22  1  0.500000  0.129754  0.314980  1
  B  B23  1  0.500000  0.869773  0.684698  1
  B  B24  1  0.500000  0.984704  0.214680  1
  B  B25  1  0.500000  0.015048  0.785216  1
  B  B26  1  0.500000  0.485427  0.284888  1
  B  B27  1  0.500000  0.515196  0.715011  1
  B  B28  1  0.500000  0.600801  0.027352  1
  B  B29  1  0.500000  0.399251  0.972588  1
  B  B30  1  0.500000  0.099918  0.472839  1
  B  B31  1  0.500000  0.899271  0.527394  1
  Os  Os32  1  0.000000  0.640316  0.318550  1
  Os  Os33  1  0.000000  0.360093  0.681627  1
  Os  Os34  1  0.000000  0.139682  0.181026  1
  Os  Os35  1  0.000000  0.860088  0.818730  1
