# generated using pymatgen
data_Tm3Lu(HfGa5)2
_symmetry_space_group_name_H-M   'P 1'
_cell_length_a   5.85690701
_cell_length_b   9.36447202
_cell_length_c   11.34018500
_cell_angle_alpha   90.00000000
_cell_angle_beta   90.00000000
_cell_angle_gamma   89.99258830
_symmetry_Int_Tables_number   1
_chemical_formula_structural   Tm3Lu(HfGa5)2
_chemical_formula_sum   'Tm6 Lu2 Hf4 Ga20'
_cell_volume   621.97332790
_cell_formula_units_Z   2
loop_
 _symmetry_equiv_pos_site_id
 _symmetry_equiv_pos_as_xyz
  1  'x, y, z'
loop_
 _atom_site_type_symbol
 _atom_site_label
 _atom_site_symmetry_multiplicity
 _atom_site_fract_x
 _atom_site_fract_y
 _atom_site_fract_z
 _atom_site_occupancy
  Tm  Tm0  1  0.885853  0.500697  0.352963  1
  Tm  Tm1  1  0.614147  0.999303  0.852963  1
  Tm  Tm2  1  0.114072  0.000644  0.646885  1
  Tm  Tm3  1  0.385928  0.499356  0.146885  1
  Tm  Tm4  1  0.114055  0.499349  0.647144  1
  Tm  Tm5  1  0.385945  0.000651  0.147144  1
  Lu  Lu6  1  0.885986  0.999367  0.352976  1
  Lu  Lu7  1  0.614014  0.500633  0.852976  1
  Hf  Hf8  1  0.857413  0.749919  0.071802  1
  Hf  Hf9  1  0.642587  0.750081  0.571802  1
  Hf  Hf10  1  0.142751  0.250022  0.928142  1
  Hf  Hf11  1  0.357249  0.249978  0.428142  1
  Ga  Ga12  1  0.875483  0.052466  0.090753  1
  Ga  Ga13  1  0.624517  0.447534  0.590753  1
  Ga  Ga14  1  0.124733  0.552406  0.909369  1
  Ga  Ga15  1  0.375267  0.947594  0.409369  1
  Ga  Ga16  1  0.124597  0.947455  0.909471  1
  Ga  Ga17  1  0.375403  0.552545  0.409471  1
  Ga  Ga18  1  0.875431  0.447515  0.090450  1
  Ga  Ga19  1  0.624569  0.052485  0.590450  1
  Ga  Ga20  1  0.151328  0.750187  0.256708  1
  Ga  Ga21  1  0.348672  0.749813  0.756708  1
  Ga  Ga22  1  0.848278  0.250223  0.743494  1
  Ga  Ga23  1  0.651722  0.249777  0.243494  1
  Ga  Ga24  1  0.396480  0.749914  0.998406  1
  Ga  Ga25  1  0.103520  0.750086  0.498406  1
  Ga  Ga26  1  0.603719  0.250288  0.001300  1
  Ga  Ga27  1  0.896281  0.249712  0.501300  1
  Ga  Ga28  1  0.614540  0.750290  0.293502  1
  Ga  Ga29  1  0.885460  0.749710  0.793502  1
  Ga  Ga30  1  0.385847  0.250078  0.706635  1
  Ga  Ga31  1  0.114153  0.249922  0.206635  1
