# generated using pymatgen
data_Nd4Ga9GeIr6
_symmetry_space_group_name_H-M   'P 1'
_cell_length_a   8.62427175
_cell_length_b   8.68680003
_cell_length_c   8.68679984
_cell_angle_alpha   140.81645922
_cell_angle_beta   108.33937652
_cell_angle_gamma   84.94336482
_symmetry_Int_Tables_number   1
_chemical_formula_structural   Nd4Ga9GeIr6
_chemical_formula_sum   'Nd4 Ga9 Ge1 Ir6'
_cell_volume   376.89923383
_cell_formula_units_Z   1
loop_
 _symmetry_equiv_pos_site_id
 _symmetry_equiv_pos_as_xyz
  1  'x, y, z'
loop_
 _atom_site_type_symbol
 _atom_site_label
 _atom_site_symmetry_multiplicity
 _atom_site_fract_x
 _atom_site_fract_y
 _atom_site_fract_z
 _atom_site_occupancy
  Nd  Nd0  1  0.866380  0.635842  0.230538  1
  Nd  Nd1  1  0.134435  0.364816  0.769619  1
  Nd  Nd2  1  0.403300  0.135441  0.267860  1
  Nd  Nd3  1  0.592135  0.862963  0.729171  1
  Ga  Ga4  1  0.501353  0.751048  0.251656  1
  Ga  Ga5  1  0.501353  0.249697  0.750305  1
  Ga  Ga6  1  0.208438  0.959186  0.748940  1
  Ga  Ga7  1  0.791158  0.541735  0.750002  1
  Ga  Ga8  1  0.791158  0.041156  0.249423  1
  Ga  Ga9  1  0.208438  0.459498  0.249251  1
  Ga  Ga10  1  0.077968  0.907116  0.170854  1
  Ga  Ga11  1  0.920405  0.089807  0.830597  1
  Ga  Ga12  1  0.739258  0.409197  0.330061  1
  Ge  Ge13  1  0.260220  0.591695  0.668525  1
  Ir  Ir14  1  0.002760  0.750467  0.753222  1
  Ir  Ir15  1  0.002760  0.249538  0.252293  1
  Ir  Ir16  1  0.256513  0.852842  0.403672  1
  Ir  Ir17  1  0.745673  0.148403  0.597269  1
  Ir  Ir18  1  0.448926  0.353049  0.095877  1
  Ir  Ir19  1  0.547370  0.646501  0.900868  1
