# generated using pymatgen
data_Dy5Hf2P12Ir2Rh15
_symmetry_space_group_name_H-M   'P 1'
_cell_length_a   12.69888720
_cell_length_b   12.86309174
_cell_length_c   3.92907800
_cell_angle_alpha   90.00000000
_cell_angle_beta   90.00000000
_cell_angle_gamma   119.59890043
_symmetry_Int_Tables_number   1
_chemical_formula_structural   Dy5Hf2P12Ir2Rh15
_chemical_formula_sum   'Dy5 Hf2 P12 Ir2 Rh15'
_cell_volume   558.05046105
_cell_formula_units_Z   1
loop_
 _symmetry_equiv_pos_site_id
 _symmetry_equiv_pos_as_xyz
  1  'x, y, z'
loop_
 _atom_site_type_symbol
 _atom_site_label
 _atom_site_symmetry_multiplicity
 _atom_site_fract_x
 _atom_site_fract_y
 _atom_site_fract_z
 _atom_site_occupancy
  Dy  Dy0  1  0.330398  0.662434  0.500000  1
  Dy  Dy1  1  0.667933  0.337557  0.500000  1
  Dy  Dy2  1  0.999245  0.813241  0.000000  1
  Dy  Dy3  1  0.185269  0.185898  0.000000  1
  Dy  Dy4  1  0.810448  0.000058  0.000000  1
  Hf  Hf5  1  0.998811  0.445171  0.500000  1
  Hf  Hf6  1  0.553608  0.555488  0.500000  1
  P  P7  1  0.004779  0.649427  0.500000  1
  P  P8  1  0.355399  0.350808  0.500000  1
  P  P9  1  0.639428  0.999908  0.500000  1
  P  P10  1  0.514806  0.685383  0.000000  1
  P  P11  1  0.313692  0.829950  0.000000  1
  P  P12  1  0.165587  0.481825  0.000000  1
  P  P13  1  0.483543  0.170219  0.000000  1
  P  P14  1  0.683953  0.518445  0.000000  1
  P  P15  1  0.829058  0.314145  0.000000  1
  P  P16  1  0.998450  0.173644  0.500000  1
  P  P17  1  0.825638  0.826087  0.500000  1
  P  P18  1  0.183314  0.999462  0.500000  1
  Ir  Ir19  1  0.817628  0.193584  0.500000  1
  Ir  Ir20  1  0.005300  0.000440  0.500000  1
  Rh  Rh21  1  0.507869  0.865147  0.000000  1
  Rh  Rh22  1  0.126312  0.645095  0.000000  1
  Rh  Rh23  1  0.354891  0.489406  0.000000  1
  Rh  Rh24  1  0.481259  0.355140  0.000000  1
  Rh  Rh25  1  0.865025  0.509580  0.000000  1
  Rh  Rh26  1  0.642078  0.134122  0.000000  1
  Rh  Rh27  1  0.459960  0.001299  0.500000  1
  Rh  Rh28  1  0.997350  0.277374  0.000000  1
  Rh  Rh29  1  0.719888  0.722571  0.000000  1
  Rh  Rh30  1  0.287399  0.000144  0.000000  1
  Rh  Rh31  1  0.625043  0.807038  0.500000  1
  Rh  Rh32  1  0.203997  0.824524  0.500000  1
  Rh  Rh33  1  0.176608  0.369851  0.500000  1
  Rh  Rh34  1  0.379480  0.175577  0.500000  1
  Rh  Rh35  1  0.806553  0.629958  0.500000  1
