# generated using pymatgen
data_Ho2ErGa2Co9B4
_symmetry_space_group_name_H-M   'P 1'
_cell_length_a   5.13478800
_cell_length_b   5.13414535
_cell_length_c   9.55370300
_cell_angle_alpha   89.99998479
_cell_angle_beta   89.99983375
_cell_angle_gamma   119.99592213
_symmetry_Int_Tables_number   1
_chemical_formula_structural   Ho2ErGa2Co9B4
_chemical_formula_sum   'Ho2 Er1 Ga2 Co9 B4'
_cell_volume   218.12773493
_cell_formula_units_Z   1
loop_
 _symmetry_equiv_pos_site_id
 _symmetry_equiv_pos_as_xyz
  1  'x, y, z'
loop_
 _atom_site_type_symbol
 _atom_site_label
 _atom_site_symmetry_multiplicity
 _atom_site_fract_x
 _atom_site_fract_y
 _atom_site_fract_z
 _atom_site_occupancy
  Ho  Ho0  1  0.999993  0.000018  0.999884  1
  Ho  Ho1  1  0.000074  0.000074  0.659315  1
  Er  Er2  1  0.999858  0.999853  0.340188  1
  Ga  Ga3  1  0.333606  0.667123  0.000269  1
  Ga  Ga4  1  0.666386  0.332919  0.000272  1
  Co  Co5  1  0.499990  0.999994  0.499764  1
  Co  Co6  1  0.499995  0.500000  0.499744  1
  Co  Co7  1  0.999993  0.499999  0.499764  1
  Co  Co8  1  0.499922  0.999960  0.207775  1
  Co  Co9  1  0.499865  0.499873  0.207603  1
  Co  Co10  1  0.999957  0.499912  0.207585  1
  Co  Co11  1  0.500075  0.000059  0.792573  1
  Co  Co12  1  0.500075  0.500076  0.792739  1
  Co  Co13  1  0.000056  0.500061  0.792723  1
  B  B14  1  0.333205  0.666438  0.349303  1
  B  B15  1  0.666758  0.333538  0.349303  1
  B  B16  1  0.666767  0.333557  0.650597  1
  B  B17  1  0.333322  0.666543  0.650597  1
