# generated using pymatgen
data_U4V(AsRu)6
_symmetry_space_group_name_H-M   'P 1'
_cell_length_a   7.22092420
_cell_length_b   7.22092394
_cell_length_c   7.22092375
_cell_angle_alpha   109.63594102
_cell_angle_beta   109.14227749
_cell_angle_gamma   109.63594352
_symmetry_Int_Tables_number   1
_chemical_formula_structural   U4V(AsRu)6
_chemical_formula_sum   'U4 V1 As6 Ru6'
_cell_volume   289.83157347
_cell_formula_units_Z   1
loop_
 _symmetry_equiv_pos_site_id
 _symmetry_equiv_pos_as_xyz
  1  'x, y, z'
loop_
 _atom_site_type_symbol
 _atom_site_label
 _atom_site_symmetry_multiplicity
 _atom_site_fract_x
 _atom_site_fract_y
 _atom_site_fract_z
 _atom_site_occupancy
  U  U0  1  0.998106  0.996211  0.498106  1
  U  U1  1  0.501894  0.003789  0.001894  1
  U  U2  1  0.998106  0.500000  0.001894  1
  U  U3  1  0.501894  0.500000  0.498106  1
  V  V4  1  0.750000  0.500000  0.250000  1
  As  As5  1  0.308627  0.000000  0.308627  1
  As  As6  1  0.996564  0.309468  0.306032  1
  As  As7  1  0.996564  0.690532  0.687096  1
  As  As8  1  0.312904  0.309468  0.003436  1
  As  As9  1  0.693968  0.690532  0.003436  1
  As  As10  1  0.691373  0.000000  0.691373  1
  Ru  Ru11  1  0.501084  0.749773  0.250857  1
  Ru  Ru12  1  0.501084  0.250227  0.751311  1
  Ru  Ru13  1  0.749143  0.250227  0.498916  1
  Ru  Ru14  1  0.248689  0.749773  0.498916  1
  Ru  Ru15  1  0.250000  0.500000  0.750000  1
  Ru  Ru16  1  0.000000  0.000000  0.000000  1
