# generated using pymatgen
data_TbTm2Fe8Co3B4
_symmetry_space_group_name_H-M   'P 1'
_cell_length_a   5.04789006
_cell_length_b   5.04663636
_cell_length_c   9.97354300
_cell_angle_alpha   89.99985872
_cell_angle_beta   90.00016479
_cell_angle_gamma   120.00846261
_symmetry_Int_Tables_number   1
_chemical_formula_structural   TbTm2Fe8Co3B4
_chemical_formula_sum   'Tb1 Tm2 Fe8 Co3 B4'
_cell_volume   220.01635033
_cell_formula_units_Z   1
loop_
 _symmetry_equiv_pos_site_id
 _symmetry_equiv_pos_as_xyz
  1  'x, y, z'
loop_
 _atom_site_type_symbol
 _atom_site_label
 _atom_site_symmetry_multiplicity
 _atom_site_fract_x
 _atom_site_fract_y
 _atom_site_fract_z
 _atom_site_occupancy
  Tb  Tb0  1  0.999987  0.000000  0.000051  1
  Tm  Tm1  1  0.999994  0.000001  0.348318  1
  Tm  Tm2  1  0.000001  0.000000  0.651619  1
  Fe  Fe3  1  0.333336  0.666679  0.000053  1
  Fe  Fe4  1  0.666639  0.333320  0.000051  1
  Fe  Fe5  1  0.499994  0.000007  0.203109  1
  Fe  Fe6  1  0.499995  0.499996  0.203098  1
  Fe  Fe7  1  0.999984  0.499997  0.203099  1
  Fe  Fe8  1  0.500001  0.000006  0.796942  1
  Fe  Fe9  1  0.500001  0.499997  0.796911  1
  Fe  Fe10  1  0.999991  0.499997  0.796910  1
  Co  Co11  1  0.499999  0.000001  0.499949  1
  Co  Co12  1  0.499998  0.499999  0.499984  1
  Co  Co13  1  0.999997  0.499999  0.499984  1
  B  B14  1  0.333310  0.666639  0.353060  1
  B  B15  1  0.666677  0.333361  0.353059  1
  B  B16  1  0.666624  0.333248  0.646902  1
  B  B17  1  0.333374  0.666753  0.646901  1
