# generated using pymatgen
data_La4Ga24CoPd
_symmetry_space_group_name_H-M   'P 1'
_cell_length_a   6.15048900
_cell_length_b   6.15048900
_cell_length_c   15.65997500
_cell_angle_alpha   90.00000000
_cell_angle_beta   90.00000000
_cell_angle_gamma   90.00000000
_symmetry_Int_Tables_number   1
_chemical_formula_structural   La4Ga24CoPd
_chemical_formula_sum   'La4 Ga24 Co1 Pd1'
_cell_volume   592.39359823
_cell_formula_units_Z   1
loop_
 _symmetry_equiv_pos_site_id
 _symmetry_equiv_pos_as_xyz
  1  'x, y, z'
loop_
 _atom_site_type_symbol
 _atom_site_label
 _atom_site_symmetry_multiplicity
 _atom_site_fract_x
 _atom_site_fract_y
 _atom_site_fract_z
 _atom_site_occupancy
  La  La0  1  0.750000  0.250000  0.246155  1
  La  La1  1  0.250000  0.750000  0.241574  1
  La  La2  1  0.250000  0.750000  0.758426  1
  La  La3  1  0.750000  0.250000  0.753845  1
  Ga  Ga4  1  0.250000  0.250000  0.184632  1
  Ga  Ga5  1  0.750000  0.750000  0.184632  1
  Ga  Ga6  1  0.750000  0.750000  0.815368  1
  Ga  Ga7  1  0.250000  0.250000  0.815368  1
  Ga  Ga8  1  0.250000  0.250000  0.344300  1
  Ga  Ga9  1  0.750000  0.750000  0.344300  1
  Ga  Ga10  1  0.750000  0.750000  0.655700  1
  Ga  Ga11  1  0.250000  0.250000  0.655700  1
  Ga  Ga12  1  0.509882  0.009882  0.915083  1
  Ga  Ga13  1  0.990211  0.009789  0.915469  1
  Ga  Ga14  1  0.509789  0.490211  0.915469  1
  Ga  Ga15  1  0.990118  0.490118  0.915083  1
  Ga  Ga16  1  0.509789  0.009789  0.084531  1
  Ga  Ga17  1  0.990118  0.009882  0.084917  1
  Ga  Ga18  1  0.509882  0.490118  0.084917  1
  Ga  Ga19  1  0.990211  0.490211  0.084531  1
  Ga  Ga20  1  0.579602  0.079602  0.432145  1
  Ga  Ga21  1  0.081410  0.918590  0.430840  1
  Ga  Ga22  1  0.418590  0.581410  0.430840  1
  Ga  Ga23  1  0.920398  0.420398  0.432145  1
  Ga  Ga24  1  0.418590  0.918590  0.569160  1
  Ga  Ga25  1  0.920398  0.079602  0.567855  1
  Ga  Ga26  1  0.579602  0.420398  0.567855  1
  Ga  Ga27  1  0.081410  0.581410  0.569160  1
  Co  Co28  1  0.750000  0.250000  0.000000  1
  Pd  Pd29  1  0.250000  0.750000  0.000000  1
