# generated using pymatgen
data_Ca2TbPr17Ga12
_symmetry_space_group_name_H-M   'P 1'
_cell_length_a   7.92645900
_cell_length_b   7.92645900
_cell_length_c   14.69331800
_cell_angle_alpha   90.00000000
_cell_angle_beta   90.00000000
_cell_angle_gamma   90.00000000
_symmetry_Int_Tables_number   1
_chemical_formula_structural   Ca2TbPr17Ga12
_chemical_formula_sum   'Ca2 Tb1 Pr17 Ga12'
_cell_volume   923.16283677
_cell_formula_units_Z   1
loop_
 _symmetry_equiv_pos_site_id
 _symmetry_equiv_pos_as_xyz
  1  'x, y, z'
loop_
 _atom_site_type_symbol
 _atom_site_label
 _atom_site_symmetry_multiplicity
 _atom_site_fract_x
 _atom_site_fract_y
 _atom_site_fract_z
 _atom_site_occupancy
  Ca  Ca0  1  0.000000  0.500000  0.242622  1
  Ca  Ca1  1  0.500000  0.000000  0.254857  1
  Tb  Tb2  1  0.000000  0.500000  0.721711  1
  Pr  Pr3  1  0.816814  0.837216  0.604213  1
  Pr  Pr4  1  0.176431  0.832252  0.101294  1
  Pr  Pr5  1  0.167782  0.822950  0.397663  1
  Pr  Pr6  1  0.832218  0.177050  0.397663  1
  Pr  Pr7  1  0.677050  0.667782  0.397663  1
  Pr  Pr8  1  0.662784  0.316814  0.604213  1
  Pr  Pr9  1  0.337216  0.683186  0.604213  1
  Pr  Pr10  1  0.667748  0.676431  0.101294  1
  Pr  Pr11  1  0.682729  0.340514  0.895947  1
  Pr  Pr12  1  0.840514  0.817271  0.895947  1
  Pr  Pr13  1  0.322950  0.332218  0.397663  1
  Pr  Pr14  1  0.183186  0.162784  0.604213  1
  Pr  Pr15  1  0.823569  0.167748  0.101294  1
  Pr  Pr16  1  0.317271  0.659486  0.895947  1
  Pr  Pr17  1  0.332252  0.323569  0.101294  1
  Pr  Pr18  1  0.159486  0.182729  0.895947  1
  Pr  Pr19  1  0.500000  0.000000  0.787346  1
  Ga  Ga20  1  0.617847  0.382741  0.249567  1
  Ga  Ga21  1  0.117714  0.877666  0.749063  1
  Ga  Ga22  1  0.377666  0.382286  0.749063  1
  Ga  Ga23  1  0.382153  0.617259  0.249567  1
  Ga  Ga24  1  0.882741  0.882153  0.249567  1
  Ga  Ga25  1  0.622334  0.617714  0.749063  1
  Ga  Ga26  1  0.000000  0.500000  0.506672  1
  Ga  Ga27  1  0.882286  0.122334  0.749063  1
  Ga  Ga28  1  0.500000  0.000000  0.490483  1
  Ga  Ga29  1  0.500000  0.000000  0.999791  1
  Ga  Ga30  1  0.117259  0.117847  0.249567  1
  Ga  Ga31  1  0.000000  0.500000  0.005539  1
