# generated using pymatgen
data_YHo3Al16(GaIr3)2
_symmetry_space_group_name_H-M   'P 1'
_cell_length_a   7.52385504
_cell_length_b   7.52498119
_cell_length_c   9.50567900
_cell_angle_alpha   90.00000000
_cell_angle_beta   90.00000000
_cell_angle_gamma   119.30146954
_symmetry_Int_Tables_number   1
_chemical_formula_structural   YHo3Al16(GaIr3)2
_chemical_formula_sum   'Y1 Ho3 Al16 Ga2 Ir6'
_cell_volume   469.32502937
_cell_formula_units_Z   1
loop_
 _symmetry_equiv_pos_site_id
 _symmetry_equiv_pos_as_xyz
  1  'x, y, z'
loop_
 _atom_site_type_symbol
 _atom_site_label
 _atom_site_symmetry_multiplicity
 _atom_site_fract_x
 _atom_site_fract_y
 _atom_site_fract_z
 _atom_site_occupancy
  Y  Y0  1  0.993912  0.675768  0.250000  1
  Ho  Ho1  1  0.005976  0.323863  0.750000  1
  Ho  Ho2  1  0.676073  0.994001  0.250000  1
  Ho  Ho3  1  0.323862  0.005971  0.750000  1
  Al  Al4  1  0.001397  0.336034  0.072896  1
  Al  Al5  1  0.998682  0.663711  0.926206  1
  Al  Al6  1  0.998682  0.663711  0.573794  1
  Al  Al7  1  0.336470  0.001556  0.427061  1
  Al  Al8  1  0.001397  0.336034  0.427104  1
  Al  Al9  1  0.663711  0.998735  0.573377  1
  Al  Al10  1  0.663711  0.998735  0.926623  1
  Al  Al11  1  0.336470  0.001556  0.072939  1
  Al  Al12  1  0.334067  0.334059  0.554119  1
  Al  Al13  1  0.665715  0.665903  0.446796  1
  Al  Al14  1  0.665715  0.665903  0.053204  1
  Al  Al15  1  0.334067  0.334059  0.945881  1
  Al  Al16  1  0.338611  0.550102  0.250000  1
  Al  Al17  1  0.661784  0.449879  0.750000  1
  Al  Al18  1  0.549523  0.337526  0.250000  1
  Al  Al19  1  0.449951  0.661927  0.750000  1
  Ga  Ga20  1  0.136100  0.136648  0.250000  1
  Ga  Ga21  1  0.863889  0.863995  0.750000  1
  Ir  Ir22  1  0.671538  0.328300  0.999854  1
  Ir  Ir23  1  0.328426  0.671588  0.999785  1
  Ir  Ir24  1  0.328426  0.671588  0.500215  1
  Ir  Ir25  1  0.671538  0.328300  0.500146  1
  Ir  Ir26  1  0.000152  0.000271  0.999719  1
  Ir  Ir27  1  0.000152  0.000271  0.500281  1
