# generated using pymatgen
data_Zr5Cd13
_symmetry_space_group_name_H-M   'P 1'
_cell_length_a   16.61492378
_cell_length_b   16.61492456
_cell_length_c   6.88440192
_cell_angle_alpha   94.29753448
_cell_angle_beta   94.29753474
_cell_angle_gamma   11.95761293
_symmetry_Int_Tables_number   1
_chemical_formula_structural   Zr5Cd13
_chemical_formula_sum   'Zr5 Cd13'
_cell_volume   392.63707432
_cell_formula_units_Z   1
loop_
 _symmetry_equiv_pos_site_id
 _symmetry_equiv_pos_as_xyz
  1  'x, y, z'
loop_
 _atom_site_type_symbol
 _atom_site_label
 _atom_site_symmetry_multiplicity
 _atom_site_fract_x
 _atom_site_fract_y
 _atom_site_fract_z
 _atom_site_occupancy
  Zr  Zr0  1  0.000000  0.000000  0.000000  1
  Zr  Zr1  1  0.668156  0.668156  0.337519  1
  Zr  Zr2  1  0.889121  0.889121  0.448332  1
  Zr  Zr3  1  0.110879  0.110879  0.551669  1
  Zr  Zr4  1  0.331844  0.331844  0.662481  1
  Cd  Cd5  1  0.109218  0.109218  0.057310  1
  Cd  Cd6  1  0.224212  0.224212  0.103344  1
  Cd  Cd7  1  0.333958  0.333958  0.152689  1
  Cd  Cd8  1  0.444874  0.444874  0.217140  1
  Cd  Cd9  1  0.555399  0.555399  0.275292  1
  Cd  Cd10  1  0.776273  0.776273  0.376457  1
  Cd  Cd11  1  0.000000  0.000000  0.500000  1
  Cd  Cd12  1  0.223727  0.223727  0.623544  1
  Cd  Cd13  1  0.444601  0.444601  0.724708  1
  Cd  Cd14  1  0.555126  0.555126  0.782859  1
  Cd  Cd15  1  0.666041  0.666041  0.847311  1
  Cd  Cd16  1  0.775787  0.775787  0.896655  1
  Cd  Cd17  1  0.890783  0.890783  0.942691  1
