# generated using pymatgen
data_TmZrB6Os
_symmetry_space_group_name_H-M   'P 1'
_cell_length_a   3.55860600
_cell_length_b   9.02744700
_cell_length_c   11.38261000
_cell_angle_alpha   90.00000000
_cell_angle_beta   90.00000000
_cell_angle_gamma   90.00000000
_symmetry_Int_Tables_number   1
_chemical_formula_structural   TmZrB6Os
_chemical_formula_sum   'Tm4 Zr4 B24 Os4'
_cell_volume   365.66779251
_cell_formula_units_Z   4
loop_
 _symmetry_equiv_pos_site_id
 _symmetry_equiv_pos_as_xyz
  1  'x, y, z'
loop_
 _atom_site_type_symbol
 _atom_site_label
 _atom_site_symmetry_multiplicity
 _atom_site_fract_x
 _atom_site_fract_y
 _atom_site_fract_z
 _atom_site_occupancy
  Tm  Tm0  1  0.000000  0.321645  0.413062  1
  Tm  Tm1  1  0.000000  0.678355  0.586938  1
  Tm  Tm2  1  0.000000  0.821645  0.086938  1
  Tm  Tm3  1  0.000000  0.178355  0.913062  1
  Zr  Zr4  1  0.000000  0.944628  0.374470  1
  Zr  Zr5  1  0.000000  0.055372  0.625530  1
  Zr  Zr6  1  0.000000  0.444628  0.125530  1
  Zr  Zr7  1  0.000000  0.555372  0.874470  1
  B  B8  1  0.500000  0.553893  0.434529  1
  B  B9  1  0.500000  0.446107  0.565471  1
  B  B10  1  0.500000  0.053893  0.065471  1
  B  B11  1  0.500000  0.946107  0.934529  1
  B  B12  1  0.500000  0.750718  0.419914  1
  B  B13  1  0.500000  0.249282  0.580086  1
  B  B14  1  0.500000  0.250718  0.080086  1
  B  B15  1  0.500000  0.749282  0.919914  1
  B  B16  1  0.500000  0.794469  0.263597  1
  B  B17  1  0.500000  0.205531  0.736402  1
  B  B18  1  0.500000  0.294469  0.236403  1
  B  B19  1  0.500000  0.705531  0.763598  1
  B  B20  1  0.500000  0.630547  0.183191  1
  B  B21  1  0.500000  0.369453  0.816809  1
  B  B22  1  0.500000  0.130547  0.316809  1
  B  B23  1  0.500000  0.869453  0.683191  1
  B  B24  1  0.500000  0.981187  0.212675  1
  B  B25  1  0.500000  0.018813  0.787325  1
  B  B26  1  0.500000  0.481187  0.287325  1
  B  B27  1  0.500000  0.518813  0.712675  1
  B  B28  1  0.500000  0.603762  0.028255  1
  B  B29  1  0.500000  0.396238  0.971745  1
  B  B30  1  0.500000  0.103762  0.471745  1
  B  B31  1  0.500000  0.896238  0.528255  1
  Os  Os32  1  0.000000  0.640480  0.320299  1
  Os  Os33  1  0.000000  0.359520  0.679701  1
  Os  Os34  1  0.000000  0.140480  0.179701  1
  Os  Os35  1  0.000000  0.859520  0.820299  1
