# generated using pymatgen
data_Ho4Er12In4Ru3Rh
_symmetry_space_group_name_H-M   'P 1'
_cell_length_a   9.59352268
_cell_length_b   9.59277945
_cell_length_c   9.58997422
_cell_angle_alpha   59.83625499
_cell_angle_beta   59.82816904
_cell_angle_gamma   59.88406018
_symmetry_Int_Tables_number   1
_chemical_formula_structural   Ho4Er12In4Ru3Rh
_chemical_formula_sum   'Ho4 Er12 In4 Ru3 Rh1'
_cell_volume   621.92622922
_cell_formula_units_Z   1
loop_
 _symmetry_equiv_pos_site_id
 _symmetry_equiv_pos_as_xyz
  1  'x, y, z'
loop_
 _atom_site_type_symbol
 _atom_site_label
 _atom_site_symmetry_multiplicity
 _atom_site_fract_x
 _atom_site_fract_y
 _atom_site_fract_z
 _atom_site_occupancy
  Ho  Ho0  1  0.191610  0.191655  0.810871  1
  Ho  Ho1  1  0.439374  0.059788  0.059910  1
  Ho  Ho2  1  0.440958  0.059517  0.440686  1
  Ho  Ho3  1  0.059832  0.439270  0.060164  1
  Er  Er4  1  0.650775  0.045345  0.650487  1
  Er  Er5  1  0.193185  0.808802  0.808980  1
  Er  Er6  1  0.059548  0.059831  0.439434  1
  Er  Er7  1  0.810656  0.191767  0.191874  1
  Er  Er8  1  0.809145  0.809016  0.193258  1
  Er  Er9  1  0.650589  0.650537  0.045565  1
  Er  Er10  1  0.651056  0.650767  0.650713  1
  Er  Er11  1  0.059171  0.441294  0.440878  1
  Er  Er12  1  0.045371  0.650653  0.650454  1
  Er  Er13  1  0.808816  0.193253  0.808946  1
  Er  Er14  1  0.441200  0.441311  0.059160  1
  Er  Er15  1  0.191719  0.810585  0.191907  1
  In  In16  1  0.417229  0.747870  0.417328  1
  In  In17  1  0.417482  0.417451  0.747640  1
  In  In18  1  0.748111  0.417170  0.417382  1
  In  In19  1  0.417263  0.417421  0.417498  1
  Ru  Ru20  1  0.857958  0.421108  0.858208  1
  Ru  Ru21  1  0.858333  0.858157  0.421063  1
  Ru  Ru22  1  0.421065  0.857897  0.858402  1
  Rh  Rh23  1  0.859554  0.859534  0.859191  1
