# generated using pymatgen
data_Zr10In5SnSe
_symmetry_space_group_name_H-M   'P 1'
_cell_length_a   5.91154730
_cell_length_b   8.65650136
_cell_length_c   8.66905623
_cell_angle_alpha   120.04685562
_cell_angle_beta   90.13783112
_cell_angle_gamma   89.93056723
_symmetry_Int_Tables_number   1
_chemical_formula_structural   Zr10In5SnSe
_chemical_formula_sum   'Zr10 In5 Sn1 Se1'
_cell_volume   384.00733548
_cell_formula_units_Z   1
loop_
 _symmetry_equiv_pos_site_id
 _symmetry_equiv_pos_as_xyz
  1  'x, y, z'
loop_
 _atom_site_type_symbol
 _atom_site_label
 _atom_site_symmetry_multiplicity
 _atom_site_fract_x
 _atom_site_fract_y
 _atom_site_fract_z
 _atom_site_occupancy
  Zr  Zr0  1  0.499944  0.332861  0.665614  1
  Zr  Zr1  1  0.499943  0.667130  0.332736  1
  Zr  Zr2  1  0.999771  0.666310  0.333195  1
  Zr  Zr3  1  0.999775  0.333676  0.666885  1
  Zr  Zr4  1  0.769062  0.250585  0.000324  1
  Zr  Zr5  1  0.769066  0.749421  0.749724  1
  Zr  Zr6  1  0.762520  0.999988  0.253140  1
  Zr  Zr7  1  0.232950  0.750769  0.001076  1
  Zr  Zr8  1  0.232951  0.249243  0.250295  1
  Zr  Zr9  1  0.232811  0.999991  0.747251  1
  In  In10  1  0.747008  0.606430  0.999935  1
  In  In11  1  0.746988  0.393567  0.393504  1
  In  In12  1  0.746591  0.000015  0.608502  1
  In  In13  1  0.253783  0.393275  0.999734  1
  In  In14  1  0.253786  0.606713  0.606472  1
  Sn  Sn15  1  0.252078  0.000030  0.393082  1
  Se  Se16  1  0.500971  0.999997  0.998533  1
