# generated using pymatgen
data_Ac2In4Au3
_symmetry_space_group_name_H-M   'P 1'
_cell_length_a   15.66690100
_cell_length_b   4.61559300
_cell_length_c   13.13795100
_cell_angle_alpha   90.00000000
_cell_angle_beta   90.00000000
_cell_angle_gamma   90.00000000
_symmetry_Int_Tables_number   1
_chemical_formula_structural   Ac2In4Au3
_chemical_formula_sum   'Ac8 In16 Au12'
_cell_volume   950.03201967
_cell_formula_units_Z   4
loop_
 _symmetry_equiv_pos_site_id
 _symmetry_equiv_pos_as_xyz
  1  'x, y, z'
loop_
 _atom_site_type_symbol
 _atom_site_label
 _atom_site_symmetry_multiplicity
 _atom_site_fract_x
 _atom_site_fract_y
 _atom_site_fract_z
 _atom_site_occupancy
  Ac  Ac0  1  0.790285  0.750001  0.082368  1
  Ac  Ac1  1  0.515958  0.750001  0.212623  1
  Ac  Ac2  1  0.015958  0.750001  0.287377  1
  Ac  Ac3  1  0.290285  0.750001  0.417632  1
  Ac  Ac4  1  0.709715  0.250000  0.582368  1
  Ac  Ac5  1  0.984041  0.250000  0.712623  1
  Ac  Ac6  1  0.484042  0.250000  0.787377  1
  Ac  Ac7  1  0.209715  0.250000  0.917632  1
  In  In8  1  0.426800  0.250000  0.041270  1
  In  In9  1  0.994203  0.250000  0.083546  1
  In  In10  1  0.299581  0.750001  0.130246  1
  In  In11  1  0.184330  0.250000  0.221051  1
  In  In12  1  0.684330  0.250000  0.278948  1
  In  In13  1  0.799581  0.750001  0.369755  1
  In  In14  1  0.494203  0.250000  0.416455  1
  In  In15  1  0.926800  0.250000  0.458730  1
  In  In16  1  0.073200  0.750001  0.541270  1
  In  In17  1  0.505798  0.750001  0.583545  1
  In  In18  1  0.200419  0.250000  0.630246  1
  In  In19  1  0.315670  0.750001  0.721051  1
  In  In20  1  0.815670  0.750001  0.778949  1
  In  In21  1  0.700419  0.250000  0.869754  1
  In  In22  1  0.005798  0.750001  0.916455  1
  In  In23  1  0.573200  0.750001  0.958730  1
  Au  Au24  1  0.618324  0.250000  0.073736  1
  Au  Au25  1  0.125208  0.750001  0.079727  1
  Au  Au26  1  0.866767  0.250000  0.249902  1
  Au  Au27  1  0.366767  0.250000  0.250098  1
  Au  Au28  1  0.625208  0.750001  0.420273  1
  Au  Au29  1  0.118324  0.250000  0.426264  1
  Au  Au30  1  0.881677  0.750001  0.573736  1
  Au  Au31  1  0.374792  0.250000  0.579727  1
  Au  Au32  1  0.633233  0.750001  0.749902  1
  Au  Au33  1  0.133233  0.750001  0.750098  1
  Au  Au34  1  0.874792  0.250000  0.920273  1
  Au  Au35  1  0.381676  0.750001  0.926264  1
