# generated using pymatgen
data_Dy4ErOsRu
_symmetry_space_group_name_H-M   'P 1'
_cell_length_a   6.35754463
_cell_length_b   7.30230552
_cell_length_c   8.43010262
_cell_angle_alpha   96.71385614
_cell_angle_beta   112.15254423
_cell_angle_gamma   90.00000406
_symmetry_Int_Tables_number   1
_chemical_formula_structural   Dy4ErOsRu
_chemical_formula_sum   'Dy8 Er2 Os2 Ru2'
_cell_volume   359.57655402
_cell_formula_units_Z   2
loop_
 _symmetry_equiv_pos_site_id
 _symmetry_equiv_pos_as_xyz
  1  'x, y, z'
loop_
 _atom_site_type_symbol
 _atom_site_label
 _atom_site_symmetry_multiplicity
 _atom_site_fract_x
 _atom_site_fract_y
 _atom_site_fract_z
 _atom_site_occupancy
  Dy  Dy0  1  0.793255  0.583459  0.816555  1
  Dy  Dy1  1  0.976701  0.916541  0.183445  1
  Dy  Dy2  1  0.207994  0.415748  0.185174  1
  Dy  Dy3  1  0.022819  0.084252  0.814826  1
  Dy  Dy4  1  0.205422  0.684647  0.565305  1
  Dy  Dy5  1  0.640115  0.815353  0.434695  1
  Dy  Dy6  1  0.794255  0.315245  0.434259  1
  Dy  Dy7  1  0.359997  0.184755  0.565741  1
  Er  Er8  1  0.423617  0.750000  0.000000  1
  Er  Er9  1  0.577722  0.250000  0.000000  1
  Os  Os10  1  0.603026  0.924631  0.781518  1
  Os  Os11  1  0.821507  0.575369  0.218482  1
  Ru  Ru12  1  0.396352  0.075695  0.219133  1
  Ru  Ru13  1  0.177220  0.424305  0.780867  1
