# generated using pymatgen
data_Tb3Ho(Ga5Ir3)2
_symmetry_space_group_name_H-M   'P 1'
_cell_length_a   8.60721726
_cell_length_b   8.59336541
_cell_length_c   8.59336462
_cell_angle_alpha   141.20185606
_cell_angle_beta   109.55032556
_cell_angle_gamma   83.43397512
_symmetry_Int_Tables_number   1
_chemical_formula_structural   Tb3Ho(Ga5Ir3)2
_chemical_formula_sum   'Tb3 Ho1 Ga10 Ir6'
_cell_volume   363.57042109
_cell_formula_units_Z   1
loop_
 _symmetry_equiv_pos_site_id
 _symmetry_equiv_pos_as_xyz
  1  'x, y, z'
loop_
 _atom_site_type_symbol
 _atom_site_label
 _atom_site_symmetry_multiplicity
 _atom_site_fract_x
 _atom_site_fract_y
 _atom_site_fract_z
 _atom_site_occupancy
  Tb  Tb0  1  0.587570  0.358794  0.228775  1
  Tb  Tb1  1  0.130176  0.858881  0.271295  1
  Tb  Tb2  1  0.869841  0.141129  0.728712  1
  Ho  Ho3  1  0.412906  0.641434  0.771474  1
  Ga  Ga4  1  0.736246  0.913176  0.823071  1
  Ga  Ga5  1  0.264152  0.086900  0.177250  1
  Ga  Ga6  1  0.909703  0.586951  0.322752  1
  Ga  Ga7  1  0.090703  0.413391  0.677312  1
  Ga  Ga8  1  0.203488  0.952873  0.749985  1
  Ga  Ga9  1  0.796582  0.546519  0.749784  1
  Ga  Ga10  1  0.796582  0.046798  0.250063  1
  Ga  Ga11  1  0.203488  0.453503  0.250615  1
  Ga  Ga12  1  0.499528  0.749983  0.249498  1
  Ga  Ga13  1  0.499528  0.250030  0.749545  1
  Ir  Ir14  1  0.000196  0.750033  0.750147  1
  Ir  Ir15  1  0.000196  0.250049  0.250163  1
  Ir  Ir16  1  0.440052  0.848949  0.591102  1
  Ir  Ir17  1  0.559771  0.150873  0.408899  1
  Ir  Ir18  1  0.740824  0.650686  0.090138  1
  Ir  Ir19  1  0.258466  0.349047  0.909420  1
