# generated using pymatgen
data_TbHo2Lu(WO6)2
_symmetry_space_group_name_H-M   'P 1'
_cell_length_a   5.37859800
_cell_length_b   7.67751140
_cell_length_c   11.40213125
_cell_angle_alpha   75.44627846
_cell_angle_beta   90.00000000
_cell_angle_gamma   90.00000000
_symmetry_Int_Tables_number   1
_chemical_formula_structural   TbHo2Lu(WO6)2
_chemical_formula_sum   'Tb2 Ho4 Lu2 W4 O24'
_cell_volume   455.73425126
_cell_formula_units_Z   2
loop_
 _symmetry_equiv_pos_site_id
 _symmetry_equiv_pos_as_xyz
  1  'x, y, z'
loop_
 _atom_site_type_symbol
 _atom_site_label
 _atom_site_symmetry_multiplicity
 _atom_site_fract_x
 _atom_site_fract_y
 _atom_site_fract_z
 _atom_site_occupancy
  Tb  Tb0  1  0.684191  0.501160  0.749339  1
  Tb  Tb1  1  0.315809  0.501160  0.249339  1
  Ho  Ho2  1  0.742617  0.998935  0.749616  1
  Ho  Ho3  1  0.257383  0.998935  0.249616  1
  Ho  Ho4  1  0.181678  0.205327  0.922096  1
  Ho  Ho5  1  0.818322  0.205327  0.422096  1
  Lu  Lu6  1  0.183372  0.792726  0.579228  1
  Lu  Lu7  1  0.816628  0.792726  0.079228  1
  W  W8  1  0.256059  0.725489  0.885368  1
  W  W9  1  0.743941  0.725489  0.385368  1
  W  W10  1  0.256954  0.275374  0.614971  1
  W  W11  1  0.743046  0.275374  0.114971  1
  O  O12  1  0.043422  0.939340  0.896905  1
  O  O13  1  0.540158  0.843413  0.932222  1
  O  O14  1  0.956578  0.939340  0.396905  1
  O  O15  1  0.455342  0.794119  0.724948  1
  O  O16  1  0.459842  0.843413  0.432222  1
  O  O17  1  0.982426  0.713633  0.769014  1
  O  O18  1  0.544658  0.794119  0.224948  1
  O  O19  1  0.853265  0.636976  0.548912  1
  O  O20  1  0.357731  0.490760  0.886185  1
  O  O21  1  0.017574  0.713633  0.269014  1
  O  O22  1  0.355106  0.511892  0.614874  1
  O  O23  1  0.847801  0.365090  0.951099  1
  O  O24  1  0.146735  0.636976  0.048912  1
  O  O25  1  0.642269  0.490760  0.386185  1
  O  O26  1  0.979379  0.286091  0.728165  1
  O  O27  1  0.644894  0.511892  0.114874  1
  O  O28  1  0.152199  0.365090  0.451099  1
  O  O29  1  0.457862  0.207745  0.773702  1
  O  O30  1  0.020621  0.286091  0.228165  1
  O  O31  1  0.539441  0.155386  0.569394  1
  O  O32  1  0.542138  0.207745  0.273702  1
  O  O33  1  0.050260  0.056545  0.603964  1
  O  O34  1  0.460559  0.155386  0.069394  1
  O  O35  1  0.949740  0.056545  0.103964  1
