# generated using pymatgen
data_Nd4SN2Cl
_symmetry_space_group_name_H-M   'P 1'
_cell_length_a   3.73756700
_cell_length_b   6.46888845
_cell_length_c   7.05212600
_cell_angle_alpha   72.19424008
_cell_angle_beta   90.00000000
_cell_angle_gamma   90.00000000
_symmetry_Int_Tables_number   1
_chemical_formula_structural   Nd4SN2Cl
_chemical_formula_sum   'Nd4 S1 N2 Cl1'
_cell_volume   162.33817681
_cell_formula_units_Z   1
loop_
 _symmetry_equiv_pos_site_id
 _symmetry_equiv_pos_as_xyz
  1  'x, y, z'
loop_
 _atom_site_type_symbol
 _atom_site_label
 _atom_site_symmetry_multiplicity
 _atom_site_fract_x
 _atom_site_fract_y
 _atom_site_fract_z
 _atom_site_occupancy
  Nd  Nd0  1  0.500000  0.727270  0.302617  1
  Nd  Nd1  1  0.000000  0.239948  0.298485  1
  Nd  Nd2  1  0.500000  0.272730  0.697383  1
  Nd  Nd3  1  0.000000  0.760052  0.701515  1
  S  S4  1  0.500000  0.500000  0.000000  1
  N  N5  1  0.000000  0.500000  0.500000  1
  N  N6  1  0.500000  0.000000  0.500000  1
  Cl  Cl7  1  0.000000  0.000000  0.000000  1
