# generated using pymatgen
data_NaIr2(Cl3O)2
_symmetry_space_group_name_H-M   'P 1'
_cell_length_a   6.48128038
_cell_length_b   6.48128056
_cell_length_c   10.28721500
_cell_angle_alpha   73.02080778
_cell_angle_beta   106.97919271
_cell_angle_gamma   146.69396509
_symmetry_Int_Tables_number   1
_chemical_formula_structural   NaIr2(Cl3O)2
_chemical_formula_sum   'Na1 Ir2 Cl6 O2'
_cell_volume   225.99823763
_cell_formula_units_Z   1
loop_
 _symmetry_equiv_pos_site_id
 _symmetry_equiv_pos_as_xyz
  1  'x, y, z'
loop_
 _atom_site_type_symbol
 _atom_site_label
 _atom_site_symmetry_multiplicity
 _atom_site_fract_x
 _atom_site_fract_y
 _atom_site_fract_z
 _atom_site_occupancy
  Na  Na0  1  0.500001  0.500000  0.500000  1
  Ir  Ir1  1  0.005947  0.994054  0.174998  1
  Ir  Ir2  1  0.994054  0.005947  0.825001  1
  Cl  Cl3  1  0.137613  0.862388  0.044581  1
  Cl  Cl4  1  0.862389  0.137612  0.955420  1
  Cl  Cl5  1  0.148110  0.851891  0.383696  1
  Cl  Cl6  1  0.851892  0.148109  0.616304  1
  Cl  Cl7  1  0.874148  0.125853  0.294855  1
  Cl  Cl8  1  0.125852  0.874149  0.705146  1
  O  O9  1  0.505573  0.494428  0.170758  1
  O  O10  1  0.494428  0.505573  0.829241  1
