# generated using pymatgen
data_Y2Mn2FeCo7P6
_symmetry_space_group_name_H-M   'P 1'
_cell_length_a   3.64967300
_cell_length_b   10.32813886
_cell_length_c   11.80152113
_cell_angle_alpha   89.93114066
_cell_angle_beta   90.00000000
_cell_angle_gamma   90.00000000
_symmetry_Int_Tables_number   1
_chemical_formula_structural   Y2Mn2FeCo7P6
_chemical_formula_sum   'Y4 Mn4 Fe2 Co14 P12'
_cell_volume   444.85010548
_cell_formula_units_Z   2
loop_
 _symmetry_equiv_pos_site_id
 _symmetry_equiv_pos_as_xyz
  1  'x, y, z'
loop_
 _atom_site_type_symbol
 _atom_site_label
 _atom_site_symmetry_multiplicity
 _atom_site_fract_x
 _atom_site_fract_y
 _atom_site_fract_z
 _atom_site_occupancy
  Y  Y0  1  0.250000  0.917312  0.205148  1
  Y  Y1  1  0.750000  0.082688  0.794852  1
  Y  Y2  1  0.750000  0.417658  0.296284  1
  Y  Y3  1  0.250000  0.582342  0.703716  1
  Mn  Mn4  1  0.250000  0.788750  0.488414  1
  Mn  Mn5  1  0.750000  0.211250  0.511586  1
  Mn  Mn6  1  0.750000  0.291663  0.010932  1
  Mn  Mn7  1  0.250000  0.708337  0.989068  1
  Fe  Fe8  1  0.250000  0.095535  0.989625  1
  Fe  Fe9  1  0.750000  0.904465  0.010375  1
  Co  Co10  1  0.750000  0.593883  0.511522  1
  Co  Co11  1  0.250000  0.406117  0.488478  1
  Co  Co12  1  0.250000  0.278984  0.676374  1
  Co  Co13  1  0.750000  0.721016  0.323626  1
  Co  Co14  1  0.750000  0.777830  0.823639  1
  Co  Co15  1  0.250000  0.222170  0.176361  1
  Co  Co16  1  0.250000  0.616888  0.198731  1
  Co  Co17  1  0.750000  0.383112  0.801269  1
  Co  Co18  1  0.750000  0.116959  0.300924  1
  Co  Co19  1  0.250000  0.883041  0.699076  1
  Co  Co20  1  0.250000  0.033627  0.432358  1
  Co  Co21  1  0.750000  0.966373  0.567642  1
  Co  Co22  1  0.750000  0.534859  0.067278  1
  Co  Co23  1  0.250000  0.465141  0.932722  1
  P  P24  1  0.250000  0.081313  0.611802  1
  P  P25  1  0.750000  0.918687  0.388198  1
  P  P26  1  0.750000  0.579888  0.886699  1
  P  P27  1  0.250000  0.420112  0.113301  1
  P  P28  1  0.250000  0.229591  0.368501  1
  P  P29  1  0.750000  0.770409  0.631499  1
  P  P30  1  0.750000  0.731294  0.132048  1
  P  P31  1  0.250000  0.268706  0.867952  1
  P  P32  1  0.250000  0.903754  0.892241  1
  P  P33  1  0.750000  0.096246  0.107759  1
  P  P34  1  0.750000  0.398607  0.607932  1
  P  P35  1  0.250000  0.601393  0.392068  1
