# generated using pymatgen
data_CsMnP2Os
_symmetry_space_group_name_H-M   'P 1'
_cell_length_a   7.84471274
_cell_length_b   7.84471267
_cell_length_c   7.84471239
_cell_angle_alpha   151.05080023
_cell_angle_beta   151.05079365
_cell_angle_gamma   41.40109839
_symmetry_Int_Tables_number   1
_chemical_formula_structural   CsMnP2Os
_chemical_formula_sum   'Cs1 Mn1 P2 Os1'
_cell_volume   112.85386653
_cell_formula_units_Z   1
loop_
 _symmetry_equiv_pos_site_id
 _symmetry_equiv_pos_as_xyz
  1  'x, y, z'
loop_
 _atom_site_type_symbol
 _atom_site_label
 _atom_site_symmetry_multiplicity
 _atom_site_fract_x
 _atom_site_fract_y
 _atom_site_fract_z
 _atom_site_occupancy
  Cs  Cs0  1  0.000000  0.000000  0.000000  1
  Mn  Mn1  1  0.250000  0.750000  0.500000  1
  P  P2  1  0.663759  0.663759  0.000000  1
  P  P3  1  0.336241  0.336241  0.000000  1
  Os  Os4  1  0.750000  0.250000  0.500000  1
