# generated using pymatgen
data_Tb2Ho3Er5Pb6
_symmetry_space_group_name_H-M   'P 1'
_cell_length_a   9.04331054
_cell_length_b   9.05245389
_cell_length_c   6.58085600
_cell_angle_alpha   90.00000000
_cell_angle_beta   90.00000000
_cell_angle_gamma   120.03345296
_symmetry_Int_Tables_number   1
_chemical_formula_structural   Tb2Ho3Er5Pb6
_chemical_formula_sum   'Tb2 Ho3 Er5 Pb6'
_cell_volume   466.40187572
_cell_formula_units_Z   1
loop_
 _symmetry_equiv_pos_site_id
 _symmetry_equiv_pos_as_xyz
  1  'x, y, z'
loop_
 _atom_site_type_symbol
 _atom_site_label
 _atom_site_symmetry_multiplicity
 _atom_site_fract_x
 _atom_site_fract_y
 _atom_site_fract_z
 _atom_site_occupancy
  Tb  Tb0  1  0.237908  0.237767  0.250000  1
  Tb  Tb1  1  0.762092  0.999859  0.250000  1
  Ho  Ho2  1  0.762283  0.762137  0.750000  1
  Ho  Ho3  1  0.237717  0.999854  0.750000  1
  Ho  Ho4  1  0.000000  0.238062  0.750000  1
  Er  Er5  1  0.666754  0.333454  0.000087  1
  Er  Er6  1  0.333246  0.666701  0.000087  1
  Er  Er7  1  0.333246  0.666701  0.499913  1
  Er  Er8  1  0.666754  0.333454  0.499913  1
  Er  Er9  1  0.000000  0.762039  0.250000  1
  Pb  Pb10  1  0.394572  0.394572  0.750000  1
  Pb  Pb11  1  0.605428  0.000000  0.750000  1
  Pb  Pb12  1  0.000000  0.605430  0.750000  1
  Pb  Pb13  1  0.606158  0.605387  0.250000  1
  Pb  Pb14  1  0.393842  0.999229  0.250000  1
  Pb  Pb15  1  0.000000  0.395354  0.250000  1
