# generated using pymatgen
data_PrDy2Co8P6W
_symmetry_space_group_name_H-M   'P 1'
_cell_length_a   3.74519200
_cell_length_b   10.61169200
_cell_length_c   12.32642700
_cell_angle_alpha   90.00000000
_cell_angle_beta   90.00000000
_cell_angle_gamma   90.00000000
_symmetry_Int_Tables_number   1
_chemical_formula_structural   PrDy2Co8P6W
_chemical_formula_sum   'Pr2 Dy4 Co16 P12 W2'
_cell_volume   489.88701862
_cell_formula_units_Z   2
loop_
 _symmetry_equiv_pos_site_id
 _symmetry_equiv_pos_as_xyz
  1  'x, y, z'
loop_
 _atom_site_type_symbol
 _atom_site_label
 _atom_site_symmetry_multiplicity
 _atom_site_fract_x
 _atom_site_fract_y
 _atom_site_fract_z
 _atom_site_occupancy
  Pr  Pr0  1  0.000000  0.500000  0.524719  1
  Pr  Pr1  1  0.500000  0.000000  0.475281  1
  Dy  Dy2  1  0.500000  0.819100  0.203412  1
  Dy  Dy3  1  0.500000  0.180900  0.203412  1
  Dy  Dy4  1  0.000000  0.680900  0.796588  1
  Dy  Dy5  1  0.000000  0.319100  0.796588  1
  Co  Co6  1  0.500000  0.500000  0.705052  1
  Co  Co7  1  0.000000  0.000000  0.294948  1
  Co  Co8  1  0.000000  0.500000  0.986966  1
  Co  Co9  1  0.500000  0.000000  0.013034  1
  Co  Co10  1  0.500000  0.332523  0.990696  1
  Co  Co11  1  0.500000  0.667477  0.990696  1
  Co  Co12  1  0.000000  0.167477  0.009304  1
  Co  Co13  1  0.000000  0.832523  0.009304  1
  Co  Co14  1  0.500000  0.295125  0.429512  1
  Co  Co15  1  0.500000  0.704875  0.429512  1
  Co  Co16  1  0.000000  0.204875  0.570488  1
  Co  Co17  1  0.000000  0.795125  0.570488  1
  Co  Co18  1  0.500000  0.878919  0.711188  1
  Co  Co19  1  0.500000  0.121081  0.711188  1
  Co  Co20  1  0.000000  0.621081  0.288812  1
  Co  Co21  1  0.000000  0.378919  0.288812  1
  P  P22  1  0.500000  0.500000  0.882208  1
  P  P23  1  0.000000  0.000000  0.117792  1
  P  P24  1  0.500000  0.500000  0.344815  1
  P  P25  1  0.000000  0.000000  0.655185  1
  P  P26  1  0.500000  0.307333  0.617846  1
  P  P27  1  0.500000  0.692667  0.617846  1
  P  P28  1  0.000000  0.192667  0.382154  1
  P  P29  1  0.000000  0.807333  0.382154  1
  P  P30  1  0.500000  0.844270  0.894068  1
  P  P31  1  0.500000  0.155730  0.894068  1
  P  P32  1  0.000000  0.655730  0.105932  1
  P  P33  1  0.000000  0.344270  0.105932  1
  W  W34  1  0.500000  0.500000  0.153350  1
  W  W35  1  0.000000  0.000000  0.846650  1
