# generated using pymatgen
data_DyEr3(GeRh2)8
_symmetry_space_group_name_H-M   'P 1'
_cell_length_a   4.22349200
_cell_length_b   9.17598344
_cell_length_c   11.50288879
_cell_angle_alpha   90.06404886
_cell_angle_beta   90.00000000
_cell_angle_gamma   90.00000000
_symmetry_Int_Tables_number   1
_chemical_formula_structural   DyEr3(GeRh2)8
_chemical_formula_sum   'Dy1 Er3 Ge8 Rh16'
_cell_volume   445.79064106
_cell_formula_units_Z   1
loop_
 _symmetry_equiv_pos_site_id
 _symmetry_equiv_pos_as_xyz
  1  'x, y, z'
loop_
 _atom_site_type_symbol
 _atom_site_label
 _atom_site_symmetry_multiplicity
 _atom_site_fract_x
 _atom_site_fract_y
 _atom_site_fract_z
 _atom_site_occupancy
  Dy  Dy0  1  0.250000  0.147861  0.825552  1
  Er  Er1  1  0.250000  0.352208  0.325480  1
  Er  Er2  1  0.750000  0.852121  0.174628  1
  Er  Er3  1  0.750000  0.647815  0.674486  1
  Ge  Ge4  1  0.250000  0.414363  0.638638  1
  Ge  Ge5  1  0.250000  0.085879  0.138841  1
  Ge  Ge6  1  0.750000  0.585832  0.361206  1
  Ge  Ge7  1  0.750000  0.913630  0.861278  1
  Ge  Ge8  1  0.250000  0.618166  0.059593  1
  Ge  Ge9  1  0.250000  0.881807  0.559566  1
  Ge  Ge10  1  0.750000  0.381878  0.940505  1
  Ge  Ge11  1  0.750000  0.118142  0.440441  1
  Rh  Rh12  1  0.250000  0.615478  0.498762  1
  Rh  Rh13  1  0.250000  0.884282  0.998985  1
  Rh  Rh14  1  0.750000  0.384621  0.500978  1
  Rh  Rh15  1  0.750000  0.115017  0.002135  1
  Rh  Rh16  1  0.250000  0.691314  0.268885  1
  Rh  Rh17  1  0.250000  0.808379  0.768687  1
  Rh  Rh18  1  0.750000  0.309746  0.730530  1
  Rh  Rh19  1  0.750000  0.191348  0.231380  1
  Rh  Rh20  1  0.250000  0.170927  0.560053  1
  Rh  Rh21  1  0.250000  0.329374  0.060877  1
  Rh  Rh22  1  0.750000  0.829209  0.439247  1
  Rh  Rh23  1  0.750000  0.670673  0.939590  1
  Rh  Rh24  1  0.250000  0.003550  0.344214  1
  Rh  Rh25  1  0.250000  0.496608  0.844303  1
  Rh  Rh26  1  0.750000  0.996083  0.655393  1
  Rh  Rh27  1  0.750000  0.503692  0.155767  1
