# generated using pymatgen
data_TiNb6Ga5Os12
_symmetry_space_group_name_H-M   'P 1'
_cell_length_a   4.42086200
_cell_length_b   6.26439900
_cell_length_c   13.30648100
_cell_angle_alpha   90.00000000
_cell_angle_beta   89.99876217
_cell_angle_gamma   90.00000000
_symmetry_Int_Tables_number   1
_chemical_formula_structural   TiNb6Ga5Os12
_chemical_formula_sum   'Ti1 Nb6 Ga5 Os12'
_cell_volume   368.51026350
_cell_formula_units_Z   1
loop_
 _symmetry_equiv_pos_site_id
 _symmetry_equiv_pos_as_xyz
  1  'x, y, z'
loop_
 _atom_site_type_symbol
 _atom_site_label
 _atom_site_symmetry_multiplicity
 _atom_site_fract_x
 _atom_site_fract_y
 _atom_site_fract_z
 _atom_site_occupancy
  Ti  Ti0  1  0.000000  0.000000  0.000000  1
  Nb  Nb1  1  0.000000  0.500001  0.000000  1
  Nb  Nb2  1  0.499866  0.000000  0.168923  1
  Nb  Nb3  1  0.999859  0.500001  0.333560  1
  Nb  Nb4  1  0.500000  0.000000  0.500000  1
  Nb  Nb5  1  0.000142  0.500001  0.666440  1
  Nb  Nb6  1  0.500134  0.000000  0.831078  1
  Ga  Ga7  1  0.499840  0.500001  0.167417  1
  Ga  Ga8  1  0.999842  0.000000  0.333896  1
  Ga  Ga9  1  0.500000  0.500001  0.500000  1
  Ga  Ga10  1  0.000156  0.000000  0.666104  1
  Ga  Ga11  1  0.500158  0.500001  0.832583  1
  Os  Os12  1  0.500000  0.247964  0.000000  1
  Os  Os13  1  0.500000  0.752036  0.000000  1
  Os  Os14  1  0.999866  0.248995  0.165464  1
  Os  Os15  1  0.999865  0.751005  0.165465  1
  Os  Os16  1  0.499856  0.250646  0.333492  1
  Os  Os17  1  0.499856  0.749354  0.333492  1
  Os  Os18  1  0.000000  0.250834  0.500000  1
  Os  Os19  1  0.000000  0.749166  0.500000  1
  Os  Os20  1  0.500144  0.250646  0.666508  1
  Os  Os21  1  0.500144  0.749354  0.666508  1
  Os  Os22  1  0.000135  0.248995  0.834534  1
  Os  Os23  1  0.000134  0.751005  0.834535  1
