# generated using pymatgen
data_Er5Sc5(In2Pt)4
_symmetry_space_group_name_H-M   'P 1'
_cell_length_a   3.57424200
_cell_length_b   7.89039835
_cell_length_c   17.73917406
_cell_angle_alpha   90.17646931
_cell_angle_beta   90.00000000
_cell_angle_gamma   90.00000000
_symmetry_Int_Tables_number   1
_chemical_formula_structural   Er5Sc5(In2Pt)4
_chemical_formula_sum   'Er5 Sc5 In8 Pt4'
_cell_volume   500.28124047
_cell_formula_units_Z   1
loop_
 _symmetry_equiv_pos_site_id
 _symmetry_equiv_pos_as_xyz
  1  'x, y, z'
loop_
 _atom_site_type_symbol
 _atom_site_label
 _atom_site_symmetry_multiplicity
 _atom_site_fract_x
 _atom_site_fract_y
 _atom_site_fract_z
 _atom_site_occupancy
  Er  Er0  1  0.000000  0.241646  0.216158  1
  Er  Er1  1  0.000000  0.758354  0.783842  1
  Er  Er2  1  0.000000  0.256505  0.719708  1
  Er  Er3  1  0.000000  0.743495  0.280292  1
  Er  Er4  1  0.000000  0.500000  0.500000  1
  Sc  Sc5  1  0.000000  0.117698  0.413503  1
  Sc  Sc6  1  0.000000  0.882302  0.586497  1
  Sc  Sc7  1  0.000000  0.385533  0.916145  1
  Sc  Sc8  1  0.000000  0.614467  0.083855  1
  Sc  Sc9  1  0.000000  0.000000  0.000000  1
  In  In10  1  0.500000  0.415885  0.350723  1
  In  In11  1  0.500000  0.584115  0.649277  1
  In  In12  1  0.500000  0.084360  0.856485  1
  In  In13  1  0.500000  0.915640  0.143515  1
  In  In14  1  0.500000  0.295068  0.058998  1
  In  In15  1  0.500000  0.704932  0.941002  1
  In  In16  1  0.500000  0.195338  0.560989  1
  In  In17  1  0.500000  0.804662  0.439011  1
  Pt  Pt18  1  0.500000  0.030481  0.305838  1
  Pt  Pt19  1  0.500000  0.969519  0.694162  1
  Pt  Pt20  1  0.500000  0.470209  0.808936  1
  Pt  Pt21  1  0.500000  0.529791  0.191064  1
