# generated using pymatgen
data_Tb7HoHg4
_symmetry_space_group_name_H-M   'P 1'
_cell_length_a   7.07537841
_cell_length_b   5.12884900
_cell_length_c   9.31871154
_cell_angle_alpha   90.00000000
_cell_angle_beta   89.96110767
_cell_angle_gamma   90.00000000
_symmetry_Int_Tables_number   1
_chemical_formula_structural   Tb7HoHg4
_chemical_formula_sum   'Tb7 Ho1 Hg4'
_cell_volume   338.16242805
_cell_formula_units_Z   1
loop_
 _symmetry_equiv_pos_site_id
 _symmetry_equiv_pos_as_xyz
  1  'x, y, z'
loop_
 _atom_site_type_symbol
 _atom_site_label
 _atom_site_symmetry_multiplicity
 _atom_site_fract_x
 _atom_site_fract_y
 _atom_site_fract_z
 _atom_site_occupancy
  Tb  Tb0  1  0.830459  0.750000  0.074550  1
  Tb  Tb1  1  0.516405  0.250000  0.194391  1
  Tb  Tb2  1  0.016747  0.250000  0.305383  1
  Tb  Tb3  1  0.329745  0.750000  0.425235  1
  Tb  Tb4  1  0.670094  0.250000  0.574763  1
  Tb  Tb5  1  0.983550  0.750000  0.694612  1
  Tb  Tb6  1  0.482962  0.750000  0.805654  1
  Ho  Ho7  1  0.169703  0.250000  0.925312  1
  Hg  Hg8  1  0.263662  0.750000  0.101277  1
  Hg  Hg9  1  0.763889  0.750000  0.398199  1
  Hg  Hg10  1  0.235975  0.250000  0.602317  1
  Hg  Hg11  1  0.736813  0.250000  0.898308  1
