# generated using pymatgen
data_Nd6Al7Si4Ge
_symmetry_space_group_name_H-M   'P 1'
_cell_length_a   4.19751201
_cell_length_b   4.29084547
_cell_length_c   22.39732567
_cell_angle_alpha   84.50324258
_cell_angle_beta   84.62316101
_cell_angle_gamma   89.99999599
_symmetry_Int_Tables_number   1
_chemical_formula_structural   Nd6Al7Si4Ge
_chemical_formula_sum   'Nd6 Al7 Si4 Ge1'
_cell_volume   399.75727068
_cell_formula_units_Z   1
loop_
 _symmetry_equiv_pos_site_id
 _symmetry_equiv_pos_as_xyz
  1  'x, y, z'
loop_
 _atom_site_type_symbol
 _atom_site_label
 _atom_site_symmetry_multiplicity
 _atom_site_fract_x
 _atom_site_fract_y
 _atom_site_fract_z
 _atom_site_occupancy
  Nd  Nd0  1  0.958322  0.708322  0.083353  1
  Nd  Nd1  1  0.291658  0.041658  0.416684  1
  Nd  Nd2  1  0.623303  0.373303  0.753393  1
  Nd  Nd3  1  0.376257  0.626257  0.247487  1
  Nd  Nd4  1  0.710561  0.960561  0.578875  1
  Nd  Nd5  1  0.040764  0.290764  0.918472  1
  Al  Al6  1  0.152612  0.902612  0.694776  1
  Al  Al7  1  0.431054  0.181054  0.137892  1
  Al  Al8  1  0.764171  0.514171  0.471660  1
  Al  Al9  1  0.096220  0.846220  0.807560  1
  Al  Al10  1  0.848000  0.098000  0.303998  1
  Al  Al11  1  0.181556  0.431556  0.636888  1
  Al  Al12  1  0.513162  0.763162  0.973677  1
  Si  Si13  1  0.902744  0.152744  0.194514  1
  Si  Si14  1  0.236346  0.486346  0.527307  1
  Si  Si15  1  0.567737  0.817737  0.864524  1
  Si  Si16  1  0.485847  0.235847  0.028305  1
  Ge  Ge17  1  0.819685  0.569685  0.360631  1
