# generated using pymatgen
data_Tm2Hf2Al17GaIr6
_symmetry_space_group_name_H-M   'P 1'
_cell_length_a   7.49863732
_cell_length_b   7.48890830
_cell_length_c   9.32695300
_cell_angle_alpha   90.00000000
_cell_angle_beta   90.00000000
_cell_angle_gamma   119.63682386
_symmetry_Int_Tables_number   1
_chemical_formula_structural   Tm2Hf2Al17GaIr6
_chemical_formula_sum   'Tm2 Hf2 Al17 Ga1 Ir6'
_cell_volume   455.24902336
_cell_formula_units_Z   1
loop_
 _symmetry_equiv_pos_site_id
 _symmetry_equiv_pos_as_xyz
  1  'x, y, z'
loop_
 _atom_site_type_symbol
 _atom_site_label
 _atom_site_symmetry_multiplicity
 _atom_site_fract_x
 _atom_site_fract_y
 _atom_site_fract_z
 _atom_site_occupancy
  Tm  Tm0  1  0.674416  0.993716  0.250000  1
  Tm  Tm1  1  0.328511  0.005837  0.750000  1
  Hf  Hf2  1  0.994637  0.673854  0.250000  1
  Hf  Hf3  1  0.004747  0.328061  0.750000  1
  Al  Al4  1  0.872178  0.873955  0.750000  1
  Al  Al5  1  0.999435  0.336988  0.075161  1
  Al  Al6  1  0.999977  0.662571  0.923358  1
  Al  Al7  1  0.999977  0.662571  0.576642  1
  Al  Al8  1  0.333165  0.998813  0.421632  1
  Al  Al9  1  0.999435  0.336988  0.424839  1
  Al  Al10  1  0.666398  0.000985  0.578892  1
  Al  Al11  1  0.666398  0.000985  0.921108  1
  Al  Al12  1  0.333165  0.998813  0.078368  1
  Al  Al13  1  0.331344  0.333288  0.559833  1
  Al  Al14  1  0.668060  0.665895  0.442433  1
  Al  Al15  1  0.668060  0.665895  0.057567  1
  Al  Al16  1  0.331344  0.333288  0.940167  1
  Al  Al17  1  0.333681  0.549691  0.250000  1
  Al  Al18  1  0.665104  0.451138  0.750000  1
  Al  Al19  1  0.555887  0.342475  0.250000  1
  Al  Al20  1  0.445323  0.656654  0.750000  1
  Ga  Ga21  1  0.131974  0.131368  0.250000  1
  Ir  Ir22  1  0.671939  0.327048  0.999797  1
  Ir  Ir23  1  0.326961  0.671784  0.000755  1
  Ir  Ir24  1  0.326961  0.671784  0.499245  1
  Ir  Ir25  1  0.671939  0.327048  0.500203  1
  Ir  Ir26  1  0.999493  0.999255  0.998146  1
  Ir  Ir27  1  0.999493  0.999255  0.501854  1
