# generated using pymatgen
data_Cs4SrMn2O8
_symmetry_space_group_name_H-M   'P 1'
_cell_length_a   8.34221744
_cell_length_b   8.72958273
_cell_length_c   10.46163000
_cell_angle_alpha   114.65914426
_cell_angle_beta   113.49727063
_cell_angle_gamma   89.99999302
_symmetry_Int_Tables_number   1
_chemical_formula_structural   Cs4SrMn2O8
_chemical_formula_sum   'Cs8 Sr2 Mn4 O16'
_cell_volume   622.19278768
_cell_formula_units_Z   2
loop_
 _symmetry_equiv_pos_site_id
 _symmetry_equiv_pos_as_xyz
  1  'x, y, z'
loop_
 _atom_site_type_symbol
 _atom_site_label
 _atom_site_symmetry_multiplicity
 _atom_site_fract_x
 _atom_site_fract_y
 _atom_site_fract_z
 _atom_site_occupancy
  Cs  Cs0  1  0.726318  0.080772  0.161544  1
  Cs  Cs1  1  0.435228  0.580772  0.161544  1
  Cs  Cs2  1  0.251661  0.501661  0.503320  1
  Cs  Cs3  1  0.251661  0.001660  0.503320  1
  Cs  Cs4  1  0.748339  0.998340  0.496680  1
  Cs  Cs5  1  0.748339  0.498339  0.496680  1
  Cs  Cs6  1  0.564773  0.419228  0.838456  1
  Cs  Cs7  1  0.273682  0.919228  0.838456  1
  Sr  Sr8  1  0.000000  0.250000  0.000000  1
  Sr  Sr9  1  0.000000  0.750000  0.000000  1
  Mn  Mn10  1  0.315713  0.119617  0.239233  1
  Mn  Mn11  1  0.923520  0.619617  0.239233  1
  Mn  Mn12  1  0.076480  0.380383  0.760768  1
  Mn  Mn13  1  0.684287  0.880383  0.760768  1
  O  O14  1  0.344887  0.238801  0.152275  1
  O  O15  1  0.807386  0.413474  0.152275  1
  O  O16  1  0.807386  0.738802  0.152275  1
  O  O17  1  0.344887  0.913474  0.152275  1
  O  O18  1  0.088671  0.096046  0.192092  1
  O  O19  1  0.103421  0.596046  0.192092  1
  O  O20  1  0.450028  0.218128  0.436257  1
  O  O21  1  0.986229  0.718128  0.436257  1
  O  O22  1  0.013771  0.281872  0.563744  1
  O  O23  1  0.549974  0.781872  0.563744  1
  O  O24  1  0.896579  0.403954  0.807908  1
  O  O25  1  0.911329  0.903954  0.807908  1
  O  O26  1  0.655111  0.086526  0.847724  1
  O  O27  1  0.192613  0.261199  0.847724  1
  O  O28  1  0.192613  0.586526  0.847724  1
  O  O29  1  0.655111  0.761199  0.847724  1
