# generated using pymatgen
data_TaRe3B3W2
_symmetry_space_group_name_H-M   'P 1'
_cell_length_a   3.11906600
_cell_length_b   8.98257400
_cell_length_c   15.62740000
_cell_angle_alpha   90.00000000
_cell_angle_beta   90.00000000
_cell_angle_gamma   90.00000000
_symmetry_Int_Tables_number   1
_chemical_formula_structural   TaRe3B3W2
_chemical_formula_sum   'Ta4 Re12 B12 W8'
_cell_volume   437.83663444
_cell_formula_units_Z   4
loop_
 _symmetry_equiv_pos_site_id
 _symmetry_equiv_pos_as_xyz
  1  'x, y, z'
loop_
 _atom_site_type_symbol
 _atom_site_label
 _atom_site_symmetry_multiplicity
 _atom_site_fract_x
 _atom_site_fract_y
 _atom_site_fract_z
 _atom_site_occupancy
  Ta  Ta0  1  0.000000  0.682004  0.203102  1
  Ta  Ta1  1  0.000000  0.317996  0.796898  1
  Ta  Ta2  1  0.000000  0.182004  0.296898  1
  Ta  Ta3  1  0.000000  0.817996  0.703102  1
  Re  Re4  1  0.500000  0.713295  0.357476  1
  Re  Re5  1  0.500000  0.286705  0.642524  1
  Re  Re6  1  0.500000  0.213295  0.142524  1
  Re  Re7  1  0.500000  0.786705  0.857476  1
  Re  Re8  1  0.500000  0.513610  0.090497  1
  Re  Re9  1  0.500000  0.486390  0.909503  1
  Re  Re10  1  0.500000  0.013610  0.409503  1
  Re  Re11  1  0.500000  0.986390  0.590497  1
  Re  Re12  1  0.500000  0.565446  0.731070  1
  Re  Re13  1  0.500000  0.434554  0.268930  1
  Re  Re14  1  0.500000  0.065446  0.768930  1
  Re  Re15  1  0.500000  0.934554  0.231070  1
  B  B16  1  0.500000  0.606771  0.495043  1
  B  B17  1  0.500000  0.393229  0.504957  1
  B  B18  1  0.500000  0.106771  0.004957  1
  B  B19  1  0.500000  0.893229  0.995043  1
  B  B20  1  0.000000  0.610405  0.831966  1
  B  B21  1  0.000000  0.389595  0.168034  1
  B  B22  1  0.000000  0.110405  0.668034  1
  B  B23  1  0.000000  0.889595  0.331966  1
  B  B24  1  0.500000  0.718238  0.600618  1
  B  B25  1  0.500000  0.281762  0.399382  1
  B  B26  1  0.500000  0.218238  0.899382  1
  B  B27  1  0.500000  0.781762  0.100618  1
  W  W28  1  0.000000  0.795741  0.496288  1
  W  W29  1  0.000000  0.204259  0.503712  1
  W  W30  1  0.000000  0.295741  0.003712  1
  W  W31  1  0.000000  0.704259  0.996288  1
  W  W32  1  0.000000  0.519684  0.591208  1
  W  W33  1  0.000000  0.480316  0.408792  1
  W  W34  1  0.000000  0.019684  0.908792  1
  W  W35  1  0.000000  0.980316  0.091208  1
