# generated using pymatgen
data_Dy8Y4CdCo5
_symmetry_space_group_name_H-M   'P 1'
_cell_length_a   8.29258152
_cell_length_b   8.29294468
_cell_length_c   8.29258085
_cell_angle_alpha   110.48990562
_cell_angle_beta   110.18108945
_cell_angle_gamma   107.75458981
_symmetry_Int_Tables_number   1
_chemical_formula_structural   Dy8Y4CdCo5
_chemical_formula_sum   'Dy8 Y4 Cd1 Co5'
_cell_volume   438.71371135
_cell_formula_units_Z   1
loop_
 _symmetry_equiv_pos_site_id
 _symmetry_equiv_pos_as_xyz
  1  'x, y, z'
loop_
 _atom_site_type_symbol
 _atom_site_label
 _atom_site_symmetry_multiplicity
 _atom_site_fract_x
 _atom_site_fract_y
 _atom_site_fract_z
 _atom_site_occupancy
  Dy  Dy0  1  0.684959  0.379525  0.694567  1
  Dy  Dy1  1  0.315041  0.620475  0.305433  1
  Dy  Dy2  1  0.684988  0.990394  0.305406  1
  Dy  Dy3  1  0.315012  0.009606  0.694594  1
  Dy  Dy4  1  0.600063  0.792526  0.807556  1
  Dy  Dy5  1  0.399937  0.207474  0.192444  1
  Dy  Dy6  1  0.984970  0.792526  0.192462  1
  Dy  Dy7  1  0.015030  0.207474  0.807538  1
  Y  Y8  1  0.814254  0.708026  0.522312  1
  Y  Y9  1  0.185746  0.291974  0.477688  1
  Y  Y10  1  0.185714  0.708026  0.893771  1
  Y  Y11  1  0.814286  0.291974  0.106229  1
  Cd  Cd12  1  0.500000  0.500000  0.000000  1
  Co  Co13  1  0.621282  0.000000  0.621282  1
  Co  Co14  1  0.378718  0.000000  0.378718  1
  Co  Co15  1  0.113099  0.613127  0.500028  1
  Co  Co16  1  0.886901  0.386873  0.499972  1
  Co  Co17  1  0.000000  0.000000  0.000000  1
