# generated using pymatgen
data_Cs8CePr3Br20
_symmetry_space_group_name_H-M   'P 1'
_cell_length_a   9.14059945
_cell_length_b   9.64139700
_cell_length_c   14.68035837
_cell_angle_alpha   90.00000000
_cell_angle_beta   90.27023061
_cell_angle_gamma   90.00000000
_symmetry_Int_Tables_number   1
_chemical_formula_structural   Cs8CePr3Br20
_chemical_formula_sum   'Cs8 Ce1 Pr3 Br20'
_cell_volume   1293.73840684
_cell_formula_units_Z   1
loop_
 _symmetry_equiv_pos_site_id
 _symmetry_equiv_pos_as_xyz
  1  'x, y, z'
loop_
 _atom_site_type_symbol
 _atom_site_label
 _atom_site_symmetry_multiplicity
 _atom_site_fract_x
 _atom_site_fract_y
 _atom_site_fract_z
 _atom_site_occupancy
  Cs  Cs0  1  0.943220  0.004839  0.827562  1
  Cs  Cs1  1  0.056504  0.995900  0.172562  1
  Cs  Cs2  1  0.442974  0.995843  0.671475  1
  Cs  Cs3  1  0.056504  0.504100  0.172562  1
  Cs  Cs4  1  0.557456  0.004591  0.328490  1
  Cs  Cs5  1  0.943220  0.495161  0.827562  1
  Cs  Cs6  1  0.557456  0.495409  0.328490  1
  Cs  Cs7  1  0.442974  0.504157  0.671475  1
  Ce  Ce8  1  0.569914  0.750000  0.003648  1
  Pr  Pr9  1  0.929973  0.750000  0.503819  1
  Pr  Pr10  1  0.069525  0.250000  0.496247  1
  Pr  Pr11  1  0.429834  0.250000  0.996313  1
  Br  Br12  1  0.111846  0.750000  0.670418  1
  Br  Br13  1  0.887551  0.250000  0.329613  1
  Br  Br14  1  0.611190  0.250000  0.830324  1
  Br  Br15  1  0.389696  0.750000  0.169462  1
  Br  Br16  1  0.842346  0.042823  0.567708  1
  Br  Br17  1  0.157032  0.957239  0.432381  1
  Br  Br18  1  0.343111  0.958521  0.930396  1
  Br  Br19  1  0.157032  0.542761  0.432381  1
  Br  Br20  1  0.657178  0.042916  0.069097  1
  Br  Br21  1  0.842346  0.457177  0.567708  1
  Br  Br22  1  0.657178  0.457084  0.069097  1
  Br  Br23  1  0.343111  0.541479  0.930396  1
  Br  Br24  1  0.604733  0.750000  0.513611  1
  Br  Br25  1  0.394802  0.250000  0.486184  1
  Br  Br26  1  0.103662  0.250000  0.987203  1
  Br  Br27  1  0.896832  0.750000  0.013206  1
  Br  Br28  1  0.649939  0.750000  0.809449  1
  Br  Br29  1  0.350880  0.250000  0.191250  1
  Br  Br30  1  0.150224  0.250000  0.691229  1
  Br  Br31  1  0.849756  0.750000  0.308682  1
