# generated using pymatgen
data_Tb3Dy2V3(P3Ir4)4
_symmetry_space_group_name_H-M   'P 1'
_cell_length_a   12.68761400
_cell_length_b   12.68761397
_cell_length_c   3.96153500
_cell_angle_alpha   90.00000000
_cell_angle_beta   90.00000000
_cell_angle_gamma   120.00000008
_symmetry_Int_Tables_number   1
_chemical_formula_structural   Tb3Dy2V3(P3Ir4)4
_chemical_formula_sum   'Tb3 Dy2 V3 P12 Ir16'
_cell_volume   552.27329354
_cell_formula_units_Z   1
loop_
 _symmetry_equiv_pos_site_id
 _symmetry_equiv_pos_as_xyz
  1  'x, y, z'
loop_
 _atom_site_type_symbol
 _atom_site_label
 _atom_site_symmetry_multiplicity
 _atom_site_fract_x
 _atom_site_fract_y
 _atom_site_fract_z
 _atom_site_occupancy
  Tb  Tb0  1  0.000000  0.811382  0.000000  1
  Tb  Tb1  1  0.188618  0.188618  0.000000  1
  Tb  Tb2  1  0.811382  0.000000  0.000000  1
  Dy  Dy3  1  0.333333  0.666667  0.500000  1
  Dy  Dy4  1  0.666667  0.333333  0.500000  1
  V  V5  1  0.000000  0.450798  0.500000  1
  V  V6  1  0.549202  0.549202  0.500000  1
  V  V7  1  0.450798  0.000000  0.500000  1
  P  P8  1  0.000000  0.635514  0.500000  1
  P  P9  1  0.364486  0.364486  0.500000  1
  P  P10  1  0.635514  0.000000  0.500000  1
  P  P11  1  0.516742  0.683773  0.000000  1
  P  P12  1  0.316227  0.832969  0.000000  1
  P  P13  1  0.167031  0.483258  0.000000  1
  P  P14  1  0.483258  0.167031  0.000000  1
  P  P15  1  0.683773  0.516742  0.000000  1
  P  P16  1  0.832969  0.316227  0.000000  1
  P  P17  1  0.000000  0.177405  0.500000  1
  P  P18  1  0.822595  0.822595  0.500000  1
  P  P19  1  0.177405  0.000000  0.500000  1
  Ir  Ir20  1  0.509342  0.867414  0.000000  1
  Ir  Ir21  1  0.132586  0.641929  0.000000  1
  Ir  Ir22  1  0.358071  0.490658  0.000000  1
  Ir  Ir23  1  0.490658  0.358071  0.000000  1
  Ir  Ir24  1  0.867414  0.509342  0.000000  1
  Ir  Ir25  1  0.641929  0.132586  0.000000  1
  Ir  Ir26  1  0.000000  0.285488  0.000000  1
  Ir  Ir27  1  0.714512  0.714512  0.000000  1
  Ir  Ir28  1  0.285488  0.000000  0.000000  1
  Ir  Ir29  1  0.624964  0.803591  0.500000  1
  Ir  Ir30  1  0.196409  0.821373  0.500000  1
  Ir  Ir31  1  0.178627  0.375036  0.500000  1
  Ir  Ir32  1  0.375036  0.178627  0.500000  1
  Ir  Ir33  1  0.803591  0.624964  0.500000  1
  Ir  Ir34  1  0.821373  0.196409  0.500000  1
  Ir  Ir35  1  0.000000  0.000000  0.500000  1
