# generated using pymatgen
data_Ho9Lu3ZnCo4Pb
_symmetry_space_group_name_H-M   'P 1'
_cell_length_a   8.27146552
_cell_length_b   8.27013813
_cell_length_c   8.27146614
_cell_angle_alpha   111.46070965
_cell_angle_beta   110.05107804
_cell_angle_gamma   106.94086113
_symmetry_Int_Tables_number   1
_chemical_formula_structural   Ho9Lu3ZnCo4Pb
_chemical_formula_sum   'Ho9 Lu3 Zn1 Co4 Pb1'
_cell_volume   434.82975895
_cell_formula_units_Z   1
loop_
 _symmetry_equiv_pos_site_id
 _symmetry_equiv_pos_as_xyz
  1  'x, y, z'
loop_
 _atom_site_type_symbol
 _atom_site_label
 _atom_site_symmetry_multiplicity
 _atom_site_fract_x
 _atom_site_fract_y
 _atom_site_fract_z
 _atom_site_occupancy
  Ho  Ho0  1  0.684646  0.991726  0.307079  1
  Ho  Ho1  1  0.185658  0.286785  0.470687  1
  Ho  Ho2  1  0.816195  0.712879  0.530127  1
  Ho  Ho3  1  0.182754  0.712879  0.896684  1
  Ho  Ho4  1  0.816097  0.286785  0.101127  1
  Ho  Ho5  1  0.426501  0.223338  0.204223  1
  Ho  Ho6  1  0.571532  0.776592  0.793938  1
  Ho  Ho7  1  0.019116  0.223338  0.796837  1
  Ho  Ho8  1  0.982654  0.776592  0.205062  1
  Lu  Lu9  1  0.316026  0.624241  0.308215  1
  Lu  Lu10  1  0.684273  0.376367  0.692094  1
  Lu  Lu11  1  0.315748  0.007917  0.692170  1
  Zn  Zn12  1  0.998994  0.998519  0.999526  1
  Co  Co13  1  0.114520  0.613884  0.499364  1
  Co  Co14  1  0.887590  0.387764  0.500174  1
  Co  Co15  1  0.374684  0.000698  0.376968  1
  Co  Co16  1  0.623730  0.000698  0.626014  1
  Pb  Pb17  1  0.499281  0.498998  0.999717  1
