# generated using pymatgen
data_LaPr2Cd(Rh2O7)2
_symmetry_space_group_name_H-M   'P 1'
_cell_length_a   7.29629035
_cell_length_b   7.46488562
_cell_length_c   7.46488704
_cell_angle_alpha   59.89281046
_cell_angle_beta   59.15003217
_cell_angle_gamma   59.15002687
_symmetry_Int_Tables_number   1
_chemical_formula_structural   LaPr2Cd(Rh2O7)2
_chemical_formula_sum   'La1 Pr2 Cd1 Rh4 O14'
_cell_volume   283.52355187
_cell_formula_units_Z   1
loop_
 _symmetry_equiv_pos_site_id
 _symmetry_equiv_pos_as_xyz
  1  'x, y, z'
loop_
 _atom_site_type_symbol
 _atom_site_label
 _atom_site_symmetry_multiplicity
 _atom_site_fract_x
 _atom_site_fract_y
 _atom_site_fract_z
 _atom_site_occupancy
  La  La0  1  0.125000  0.125000  0.125000  1
  Pr  Pr1  1  0.125000  0.125000  0.625000  1
  Pr  Pr2  1  0.125000  0.625000  0.125000  1
  Cd  Cd3  1  0.625000  0.125000  0.125000  1
  Rh  Rh4  1  0.625000  0.625000  0.625000  1
  Rh  Rh5  1  0.125000  0.625000  0.625000  1
  Rh  Rh6  1  0.625000  0.125000  0.625000  1
  Rh  Rh7  1  0.625000  0.625000  0.125000  1
  O  O8  1  0.959400  0.542067  0.542067  1
  O  O9  1  0.291407  0.294732  0.703880  1
  O  O10  1  0.958593  0.546120  0.955268  1
  O  O11  1  0.694896  0.301795  0.301795  1
  O  O12  1  0.550580  0.551085  0.948843  1
  O  O13  1  0.550580  0.948843  0.551085  1
  O  O14  1  0.555104  0.948205  0.948205  1
  O  O15  1  0.262219  0.245184  0.245184  1
  O  O16  1  0.290600  0.707933  0.707933  1
  O  O17  1  0.699420  0.301157  0.698915  1
  O  O18  1  0.987781  0.004816  0.004816  1
  O  O19  1  0.958593  0.955268  0.546120  1
  O  O20  1  0.291407  0.703880  0.294732  1
  O  O21  1  0.699420  0.698915  0.301157  1
