# generated using pymatgen
data_Ca11Pr8ErSn16
_symmetry_space_group_name_H-M   'P 1'
_cell_length_a   7.98405050
_cell_length_b   8.53818037
_cell_length_c   16.12133100
_cell_angle_alpha   90.08504267
_cell_angle_beta   90.02035911
_cell_angle_gamma   89.95222430
_symmetry_Int_Tables_number   1
_chemical_formula_structural   Ca11Pr8ErSn16
_chemical_formula_sum   'Ca11 Pr8 Er1 Sn16'
_cell_volume   1098.97759591
_cell_formula_units_Z   1
loop_
 _symmetry_equiv_pos_site_id
 _symmetry_equiv_pos_as_xyz
  1  'x, y, z'
loop_
 _atom_site_type_symbol
 _atom_site_label
 _atom_site_symmetry_multiplicity
 _atom_site_fract_x
 _atom_site_fract_y
 _atom_site_fract_z
 _atom_site_occupancy
  Ca  Ca0  1  0.831715  0.672781  0.623777  1
  Ca  Ca1  1  0.667294  0.172910  0.376424  1
  Ca  Ca2  1  0.167213  0.327597  0.122193  1
  Ca  Ca3  1  0.667529  0.171746  0.122421  1
  Ca  Ca4  1  0.167390  0.327225  0.376548  1
  Ca  Ca5  1  0.332893  0.827562  0.623716  1
  Ca  Ca6  1  0.833133  0.673241  0.877979  1
  Ca  Ca7  1  0.161176  0.501360  0.749913  1
  Ca  Ca8  1  0.663787  0.998430  0.749692  1
  Ca  Ca9  1  0.838314  0.496817  0.250023  1
  Ca  Ca10  1  0.338327  0.002207  0.249383  1
  Pr  Pr11  1  0.494687  0.317341  0.904226  1
  Pr  Pr12  1  0.993365  0.185464  0.595948  1
  Pr  Pr13  1  0.506553  0.685641  0.403482  1
  Pr  Pr14  1  0.005603  0.813508  0.096683  1
  Pr  Pr15  1  0.506743  0.684846  0.095705  1
  Pr  Pr16  1  0.006451  0.814034  0.403777  1
  Pr  Pr17  1  0.493301  0.315372  0.596451  1
  Pr  Pr18  1  0.993600  0.185811  0.905415  1
  Er  Er19  1  0.334311  0.825782  0.875328  1
  Sn  Sn20  1  0.324816  0.031754  0.034579  1
  Sn  Sn21  1  0.828950  0.465648  0.461811  1
  Sn  Sn22  1  0.670704  0.966544  0.538679  1
  Sn  Sn23  1  0.177389  0.540026  0.960027  1
  Sn  Sn24  1  0.663585  0.964075  0.958833  1
  Sn  Sn25  1  0.170530  0.534365  0.538988  1
  Sn  Sn26  1  0.329819  0.034294  0.461731  1
  Sn  Sn27  1  0.829227  0.465367  0.038120  1
  Sn  Sn28  1  0.531432  0.606417  0.752325  1
  Sn  Sn29  1  0.038133  0.894464  0.754535  1
  Sn  Sn30  1  0.465756  0.397615  0.249354  1
  Sn  Sn31  1  0.966031  0.101332  0.249894  1
  Sn  Sn32  1  0.289759  0.139545  0.752580  1
  Sn  Sn33  1  0.787737  0.359143  0.750770  1
  Sn  Sn34  1  0.711493  0.857249  0.249346  1
  Sn  Sn35  1  0.211255  0.642490  0.249349  1
