# generated using pymatgen
data_Ho4Tm4Lu4CdCo5
_symmetry_space_group_name_H-M   'P 1'
_cell_length_a   8.16731679
_cell_length_b   8.16725870
_cell_length_c   8.16731566
_cell_angle_alpha   111.04526326
_cell_angle_beta   110.19274887
_cell_angle_gamma   107.20070950
_symmetry_Int_Tables_number   1
_chemical_formula_structural   Ho4Tm4Lu4CdCo5
_chemical_formula_sum   'Ho4 Tm4 Lu4 Cd1 Co5'
_cell_volume   418.86806023
_cell_formula_units_Z   1
loop_
 _symmetry_equiv_pos_site_id
 _symmetry_equiv_pos_as_xyz
  1  'x, y, z'
loop_
 _atom_site_type_symbol
 _atom_site_label
 _atom_site_symmetry_multiplicity
 _atom_site_fract_x
 _atom_site_fract_y
 _atom_site_fract_z
 _atom_site_occupancy
  Ho  Ho0  1  0.287977  0.185919  0.473897  1
  Ho  Ho1  1  0.712023  0.814081  0.526103  1
  Ho  Ho2  1  0.287979  0.814081  0.102058  1
  Ho  Ho3  1  0.712021  0.185919  0.897942  1
  Tm  Tm4  1  0.213163  0.405078  0.191914  1
  Tm  Tm5  1  0.786837  0.594922  0.808086  1
  Tm  Tm6  1  0.213164  0.021249  0.808084  1
  Tm  Tm7  1  0.786836  0.978751  0.191916  1
  Lu  Lu8  1  0.622761  0.315457  0.307312  1
  Lu  Lu9  1  0.377239  0.684543  0.692688  1
  Lu  Lu10  1  0.008146  0.315457  0.692697  1
  Lu  Lu11  1  0.991854  0.684543  0.307303  1
  Cd  Cd12  1  0.500000  0.500000  0.000000  1
  Co  Co13  1  0.000002  0.376331  0.376329  1
  Co  Co14  1  0.999998  0.623669  0.623671  1
  Co  Co15  1  0.386040  0.886042  0.500002  1
  Co  Co16  1  0.613960  0.113958  0.499998  1
  Co  Co17  1  0.000000  0.000000  0.000000  1
