# generated using pymatgen
data_Tb2YbThS4
_symmetry_space_group_name_H-M   'P 1'
_cell_length_a   13.33491479
_cell_length_b   13.33491477
_cell_length_c   13.33491551
_cell_angle_alpha   17.02680642
_cell_angle_beta   17.02680764
_cell_angle_gamma   17.02680308
_symmetry_Int_Tables_number   1
_chemical_formula_structural   Tb2YbThS4
_chemical_formula_sum   'Tb2 Yb1 Th1 S4'
_cell_volume   177.37160426
_cell_formula_units_Z   1
loop_
 _symmetry_equiv_pos_site_id
 _symmetry_equiv_pos_as_xyz
  1  'x, y, z'
loop_
 _atom_site_type_symbol
 _atom_site_label
 _atom_site_symmetry_multiplicity
 _atom_site_fract_x
 _atom_site_fract_y
 _atom_site_fract_z
 _atom_site_occupancy
  Tb  Tb0  1  0.248900  0.248900  0.248900  1
  Tb  Tb1  1  0.751100  0.751100  0.751100  1
  Yb  Yb2  1  0.000000  0.000000  0.000000  1
  Th  Th3  1  0.500000  0.500000  0.500000  1
  S  S4  1  0.374991  0.374991  0.374991  1
  S  S5  1  0.122673  0.122673  0.122673  1
  S  S6  1  0.625009  0.625009  0.625009  1
  S  S7  1  0.877327  0.877327  0.877327  1
