# generated using pymatgen
data_NaPu5Se8
_symmetry_space_group_name_H-M   'P 1'
_cell_length_a   7.60394146
_cell_length_b   7.60394137
_cell_length_c   7.60394152
_cell_angle_alpha   109.60448295
_cell_angle_beta   109.60449229
_cell_angle_gamma   109.20501280
_symmetry_Int_Tables_number   1
_chemical_formula_structural   NaPu5Se8
_chemical_formula_sum   'Na1 Pu5 Se8'
_cell_volume   338.44443816
_cell_formula_units_Z   1
loop_
 _symmetry_equiv_pos_site_id
 _symmetry_equiv_pos_as_xyz
  1  'x, y, z'
loop_
 _atom_site_type_symbol
 _atom_site_label
 _atom_site_symmetry_multiplicity
 _atom_site_fract_x
 _atom_site_fract_y
 _atom_site_fract_z
 _atom_site_occupancy
  Na  Na0  1  0.125000  0.875000  0.250000  1
  Pu  Pu1  1  0.375000  0.625000  0.750000  1
  Pu  Pu2  1  0.881229  0.252536  0.125379  1
  Pu  Pu3  1  0.627157  0.755850  0.374621  1
  Pu  Pu4  1  0.244150  0.118771  0.871307  1
  Pu  Pu5  1  0.747464  0.372843  0.628693  1
  Se  Se6  1  0.357293  0.362675  0.352427  1
  Se  Se7  1  0.150743  0.496186  0.996966  1
  Se  Se8  1  0.999221  0.153777  0.503034  1
  Se  Se9  1  0.846223  0.849257  0.845443  1
  Se  Se10  1  0.510247  0.004866  0.147573  1
  Se  Se11  1  0.637325  0.489753  0.994619  1
  Se  Se12  1  0.503814  0.000779  0.654557  1
  Se  Se13  1  0.995134  0.642707  0.505381  1
