# generated using pymatgen
data_Nd2NbRh3
_symmetry_space_group_name_H-M   'P 1'
_cell_length_a   5.30201637
_cell_length_b   5.30201655
_cell_length_c   5.30201608
_cell_angle_alpha   66.52118204
_cell_angle_beta   66.52118168
_cell_angle_gamma   66.52118243
_symmetry_Int_Tables_number   1
_chemical_formula_structural   Nd2NbRh3
_chemical_formula_sum   'Nd2 Nb1 Rh3'
_cell_volume   120.19214195
_cell_formula_units_Z   1
loop_
 _symmetry_equiv_pos_site_id
 _symmetry_equiv_pos_as_xyz
  1  'x, y, z'
loop_
 _atom_site_type_symbol
 _atom_site_label
 _atom_site_symmetry_multiplicity
 _atom_site_fract_x
 _atom_site_fract_y
 _atom_site_fract_z
 _atom_site_occupancy
  Nd  Nd0  1  0.373082  0.373082  0.373082  1
  Nd  Nd1  1  0.626918  0.626918  0.626918  1
  Nb  Nb2  1  0.000000  0.000000  0.000000  1
  Rh  Rh3  1  0.499999  0.000000  0.000000  1
  Rh  Rh4  1  0.000000  0.499999  0.000000  1
  Rh  Rh5  1  0.000000  0.000000  0.499999  1
