# generated using pymatgen
data_Zr2TaNbC3
_symmetry_space_group_name_H-M   'P 1'
_cell_length_a   5.73822715
_cell_length_b   5.73822796
_cell_length_c   5.56031529
_cell_angle_alpha   103.53916694
_cell_angle_beta   103.53917119
_cell_angle_gamma   33.13032865
_symmetry_Int_Tables_number   1
_chemical_formula_structural   Zr2TaNbC3
_chemical_formula_sum   'Zr2 Ta1 Nb1 C3'
_cell_volume   97.03409083
_cell_formula_units_Z   1
loop_
 _symmetry_equiv_pos_site_id
 _symmetry_equiv_pos_as_xyz
  1  'x, y, z'
loop_
 _atom_site_type_symbol
 _atom_site_label
 _atom_site_symmetry_multiplicity
 _atom_site_fract_x
 _atom_site_fract_y
 _atom_site_fract_z
 _atom_site_occupancy
  Zr  Zr0  1  0.380577  0.380577  0.140642  1
  Zr  Zr1  1  0.619392  0.619392  0.860981  1
  Ta  Ta2  1  0.859898  0.859898  0.646298  1
  Nb  Nb3  1  0.139273  0.139273  0.353273  1
  C  C4  1  0.999218  0.999218  0.997305  1
  C  C5  1  0.749397  0.749397  0.255547  1
  C  C6  1  0.252244  0.252244  0.745955  1
