# generated using pymatgen
data_Er20Ir7Os4Pt
_symmetry_space_group_name_H-M   'P 1'
_cell_length_a   10.75978473
_cell_length_b   10.75978473
_cell_length_c   6.37491028
_cell_angle_alpha   90.05141748
_cell_angle_beta   90.05141748
_cell_angle_gamma   89.87259333
_symmetry_Int_Tables_number   1
_chemical_formula_structural   Er20Ir7Os4Pt
_chemical_formula_sum   'Er20 Ir7 Os4 Pt1'
_cell_volume   738.03986291
_cell_formula_units_Z   1
loop_
 _symmetry_equiv_pos_site_id
 _symmetry_equiv_pos_as_xyz
  1  'x, y, z'
loop_
 _atom_site_type_symbol
 _atom_site_label
 _atom_site_symmetry_multiplicity
 _atom_site_fract_x
 _atom_site_fract_y
 _atom_site_fract_z
 _atom_site_occupancy
  Er  Er0  1  0.292910  0.085512  0.375836  1
  Er  Er1  1  0.293797  0.913918  0.876186  1
  Er  Er2  1  0.704446  0.084543  0.871544  1
  Er  Er3  1  0.705015  0.911123  0.378036  1
  Er  Er4  1  0.585910  0.793325  0.876622  1
  Er  Er5  1  0.582605  0.206362  0.376121  1
  Er  Er6  1  0.413447  0.793061  0.376812  1
  Er  Er7  1  0.413731  0.206348  0.876890  1
  Er  Er8  1  0.206675  0.414090  0.623378  1
  Er  Er9  1  0.206939  0.586553  0.123188  1
  Er  Er10  1  0.793638  0.417395  0.123879  1
  Er  Er11  1  0.793652  0.586269  0.623110  1
  Er  Er12  1  0.914488  0.707090  0.124164  1
  Er  Er13  1  0.915457  0.295554  0.628456  1
  Er  Er14  1  0.086082  0.706203  0.623814  1
  Er  Er15  1  0.088877  0.294985  0.121964  1
  Er  Er16  1  0.000857  0.998286  0.501197  1
  Er  Er17  1  0.001714  0.999143  0.998803  1
  Er  Er18  1  0.499913  0.499728  0.999616  1
  Er  Er19  1  0.500272  0.500087  0.500384  1
  Ir  Ir20  1  0.848386  0.849012  0.750594  1
  Ir  Ir21  1  0.150988  0.151614  0.749406  1
  Ir  Ir22  1  0.151889  0.848111  0.250000  1
  Ir  Ir23  1  0.652915  0.347085  0.750000  1
  Ir  Ir24  1  0.652048  0.651919  0.249929  1
  Ir  Ir25  1  0.348081  0.347952  0.250071  1
  Ir  Ir26  1  0.347958  0.652042  0.750000  1
  Os  Os27  1  0.499973  0.999779  0.123979  1
  Os  Os28  1  0.499817  0.999605  0.622941  1
  Os  Os29  1  0.000395  0.500183  0.877059  1
  Os  Os30  1  0.000221  0.500027  0.376021  1
  Pt  Pt31  1  0.846905  0.153095  0.250000  1
