# generated using pymatgen
data_HoLu3Ga6Ir7
_symmetry_space_group_name_H-M   'P 1'
_cell_length_a   7.21557949
_cell_length_b   7.24376710
_cell_length_c   7.24376685
_cell_angle_alpha   109.54989822
_cell_angle_beta   109.39240679
_cell_angle_gamma   109.39242665
_symmetry_Int_Tables_number   1
_chemical_formula_structural   HoLu3Ga6Ir7
_chemical_formula_sum   'Ho1 Lu3 Ga6 Ir7'
_cell_volume   291.74255002
_cell_formula_units_Z   1
loop_
 _symmetry_equiv_pos_site_id
 _symmetry_equiv_pos_as_xyz
  1  'x, y, z'
loop_
 _atom_site_type_symbol
 _atom_site_label
 _atom_site_symmetry_multiplicity
 _atom_site_fract_x
 _atom_site_fract_y
 _atom_site_fract_z
 _atom_site_occupancy
  Ho  Ho0  1  0.500000  0.000000  0.000000  1
  Lu  Lu1  1  0.000000  0.000000  0.500000  1
  Lu  Lu2  1  0.000000  0.500000  0.000000  1
  Lu  Lu3  1  0.500000  0.500000  0.500000  1
  Ga  Ga4  1  0.688977  0.687915  0.000000  1
  Ga  Ga5  1  0.311023  0.000000  0.312085  1
  Ga  Ga6  1  0.001062  0.312085  0.312085  1
  Ga  Ga7  1  0.311023  0.312085  0.000000  1
  Ga  Ga8  1  0.688977  0.000000  0.687915  1
  Ga  Ga9  1  0.998938  0.687915  0.687915  1
  Ir  Ir10  1  0.751062  0.251062  0.502124  1
  Ir  Ir11  1  0.751062  0.502124  0.251062  1
  Ir  Ir12  1  0.500000  0.251062  0.748938  1
  Ir  Ir13  1  0.248938  0.497876  0.748938  1
  Ir  Ir14  1  0.248938  0.748938  0.497876  1
  Ir  Ir15  1  0.500000  0.748938  0.251062  1
  Ir  Ir16  1  0.000000  0.000000  0.000000  1
