# generated using pymatgen
data_Ho4Lu3ScPt4
_symmetry_space_group_name_H-M   'P 1'
_cell_length_a   4.71658700
_cell_length_b   7.05037172
_cell_length_c   8.57698621
_cell_angle_alpha   89.93368553
_cell_angle_beta   90.00000000
_cell_angle_gamma   90.00000000
_symmetry_Int_Tables_number   1
_chemical_formula_structural   Ho4Lu3ScPt4
_chemical_formula_sum   'Ho4 Lu3 Sc1 Pt4'
_cell_volume   285.21626316
_cell_formula_units_Z   1
loop_
 _symmetry_equiv_pos_site_id
 _symmetry_equiv_pos_as_xyz
  1  'x, y, z'
loop_
 _atom_site_type_symbol
 _atom_site_label
 _atom_site_symmetry_multiplicity
 _atom_site_fract_x
 _atom_site_fract_y
 _atom_site_fract_z
 _atom_site_occupancy
  Ho  Ho0  1  0.250000  0.984049  0.329411  1
  Ho  Ho1  1  0.750000  0.010480  0.676571  1
  Ho  Ho2  1  0.250000  0.490913  0.165447  1
  Ho  Ho3  1  0.750000  0.520039  0.828363  1
  Lu  Lu4  1  0.750000  0.642634  0.421675  1
  Lu  Lu5  1  0.250000  0.354834  0.576089  1
  Lu  Lu6  1  0.750000  0.143919  0.075921  1
  Sc  Sc7  1  0.250000  0.859645  0.925019  1
  Pt  Pt8  1  0.250000  0.250952  0.902404  1
  Pt  Pt9  1  0.750000  0.747983  0.092249  1
  Pt  Pt10  1  0.250000  0.754754  0.601526  1
  Pt  Pt11  1  0.750000  0.239797  0.405326  1
