# generated using pymatgen
data_Tm7Lu(WO6)4
_symmetry_space_group_name_H-M   'P 1'
_cell_length_a   5.32773213
_cell_length_b   7.62294030
_cell_length_c   11.33866159
_cell_angle_alpha   75.26840068
_cell_angle_beta   90.00433682
_cell_angle_gamma   90.02512417
_symmetry_Int_Tables_number   1
_chemical_formula_structural   Tm7Lu(WO6)4
_chemical_formula_sum   'Tm7 Lu1 W4 O24'
_cell_volume   445.35922565
_cell_formula_units_Z   1
loop_
 _symmetry_equiv_pos_site_id
 _symmetry_equiv_pos_as_xyz
  1  'x, y, z'
loop_
 _atom_site_type_symbol
 _atom_site_label
 _atom_site_symmetry_multiplicity
 _atom_site_fract_x
 _atom_site_fract_y
 _atom_site_fract_z
 _atom_site_occupancy
  Tm  Tm0  1  0.259663  0.999698  0.749490  1
  Tm  Tm1  1  0.183247  0.794481  0.078780  1
  Tm  Tm2  1  0.182909  0.205174  0.421450  1
  Tm  Tm3  1  0.740433  0.999781  0.250393  1
  Tm  Tm4  1  0.315388  0.500371  0.749613  1
  Tm  Tm5  1  0.816759  0.205495  0.921293  1
  Tm  Tm6  1  0.684813  0.500101  0.250101  1
  Lu  Lu7  1  0.816742  0.793962  0.579106  1
  W  W8  1  0.743967  0.723234  0.885154  1
  W  W9  1  0.256394  0.723307  0.386047  1
  W  W10  1  0.743673  0.276999  0.614477  1
  W  W11  1  0.256334  0.276909  0.114473  1
  O  O12  1  0.537911  0.152747  0.069075  1
  O  O13  1  0.042645  0.059006  0.104502  1
  O  O14  1  0.021501  0.710607  0.769825  1
  O  O15  1  0.461337  0.153402  0.569035  1
  O  O16  1  0.362332  0.487887  0.385358  1
  O  O17  1  0.955396  0.057565  0.604360  1
  O  O18  1  0.541793  0.792844  0.724716  1
  O  O19  1  0.459717  0.792746  0.226051  1
  O  O20  1  0.148033  0.634122  0.550507  1
  O  O21  1  0.042575  0.940779  0.395955  1
  O  O22  1  0.461897  0.846958  0.930421  1
  O  O23  1  0.459595  0.207536  0.274383  1
  O  O24  1  0.849933  0.366623  0.449736  1
  O  O25  1  0.637088  0.487776  0.884924  1
  O  O26  1  0.362831  0.512452  0.115033  1
  O  O27  1  0.957583  0.940918  0.895497  1
  O  O28  1  0.539641  0.846114  0.432181  1
  O  O29  1  0.978183  0.289661  0.229396  1
  O  O30  1  0.540220  0.207911  0.774177  1
  O  O31  1  0.849837  0.633330  0.050113  1
  O  O32  1  0.022147  0.289194  0.729108  1
  O  O33  1  0.150201  0.366882  0.949661  1
  O  O34  1  0.978581  0.710354  0.270662  1
  O  O35  1  0.638702  0.513073  0.614947  1
