# generated using pymatgen
data_Tm2Np3O10
_symmetry_space_group_name_H-M   'P 1'
_cell_length_a   6.53658482
_cell_length_b   6.53658523
_cell_length_c   8.40185230
_cell_angle_alpha   49.73720117
_cell_angle_beta   49.73720181
_cell_angle_gamma   48.04861367
_symmetry_Int_Tables_number   1
_chemical_formula_structural   Tm2Np3O10
_chemical_formula_sum   'Tm2 Np3 O10'
_cell_volume   188.65533343
_cell_formula_units_Z   1
loop_
 _symmetry_equiv_pos_site_id
 _symmetry_equiv_pos_as_xyz
  1  'x, y, z'
loop_
 _atom_site_type_symbol
 _atom_site_label
 _atom_site_symmetry_multiplicity
 _atom_site_fract_x
 _atom_site_fract_y
 _atom_site_fract_z
 _atom_site_occupancy
  Tm  Tm0  1  0.301616  0.301616  0.096624  1
  Tm  Tm1  1  0.698384  0.698384  0.903376  1
  Np  Np2  1  0.097165  0.097165  0.703489  1
  Np  Np3  1  0.500000  0.500000  0.500000  1
  Np  Np4  1  0.902835  0.902835  0.296511  1
  O  O5  1  0.655258  0.154459  0.791555  1
  O  O6  1  0.154459  0.655258  0.791555  1
  O  O7  1  0.454659  0.947950  0.402150  1
  O  O8  1  0.947950  0.454659  0.402150  1
  O  O9  1  0.845541  0.344742  0.208445  1
  O  O10  1  0.242476  0.757524  0.000000  1
  O  O11  1  0.344742  0.845541  0.208445  1
  O  O12  1  0.757524  0.242476  0.000000  1
  O  O13  1  0.052050  0.545341  0.597850  1
  O  O14  1  0.545341  0.052050  0.597850  1
