# generated using pymatgen
data_NdTl2Br5
_symmetry_space_group_name_H-M   'P 1'
_cell_length_a   8.80100092
_cell_length_b   9.27694500
_cell_length_c   14.14125600
_cell_angle_alpha   90.00000000
_cell_angle_beta   90.29279498
_cell_angle_gamma   90.00000000
_symmetry_Int_Tables_number   1
_chemical_formula_structural   NdTl2Br5
_chemical_formula_sum   'Nd4 Tl8 Br20'
_cell_volume   1154.56758872
_cell_formula_units_Z   4
loop_
 _symmetry_equiv_pos_site_id
 _symmetry_equiv_pos_as_xyz
  1  'x, y, z'
loop_
 _atom_site_type_symbol
 _atom_site_label
 _atom_site_symmetry_multiplicity
 _atom_site_fract_x
 _atom_site_fract_y
 _atom_site_fract_z
 _atom_site_occupancy
  Nd  Nd0  1  0.926066  0.750000  0.504291  1
  Nd  Nd1  1  0.073451  0.250000  0.495590  1
  Nd  Nd2  1  0.426000  0.250000  0.995651  1
  Nd  Nd3  1  0.575003  0.750000  0.005057  1
  Tl  Tl4  1  0.945825  0.003556  0.826518  1
  Tl  Tl5  1  0.054394  0.997282  0.173507  1
  Tl  Tl6  1  0.445327  0.997168  0.672069  1
  Tl  Tl7  1  0.054394  0.502718  0.173507  1
  Tl  Tl8  1  0.554475  0.003243  0.327865  1
  Tl  Tl9  1  0.945825  0.496444  0.826518  1
  Tl  Tl10  1  0.554475  0.496757  0.327865  1
  Tl  Tl11  1  0.445327  0.502832  0.672069  1
  Br  Br12  1  0.119395  0.750000  0.677211  1
  Br  Br13  1  0.880434  0.250000  0.322633  1
  Br  Br14  1  0.618846  0.250000  0.823544  1
  Br  Br15  1  0.380685  0.750000  0.176813  1
  Br  Br16  1  0.836439  0.044416  0.572877  1
  Br  Br17  1  0.163361  0.955609  0.427192  1
  Br  Br18  1  0.337059  0.956293  0.925760  1
  Br  Br19  1  0.163361  0.544391  0.427192  1
  Br  Br20  1  0.663154  0.044094  0.074208  1
  Br  Br21  1  0.836439  0.455584  0.572877  1
  Br  Br22  1  0.663154  0.455906  0.074208  1
  Br  Br23  1  0.337059  0.543707  0.925760  1
  Br  Br24  1  0.586385  0.750000  0.510862  1
  Br  Br25  1  0.413294  0.250000  0.488878  1
  Br  Br26  1  0.085726  0.250000  0.989121  1
  Br  Br27  1  0.914581  0.750000  0.010326  1
  Br  Br28  1  0.656621  0.750000  0.801210  1
  Br  Br29  1  0.343388  0.250000  0.198969  1
  Br  Br30  1  0.157295  0.250000  0.699161  1
  Br  Br31  1  0.842762  0.750000  0.300691  1
