# generated using pymatgen
data_Ho3Co8P6Os
_symmetry_space_group_name_H-M   'P 1'
_cell_length_a   3.70663200
_cell_length_b   10.47595900
_cell_length_c   12.21425200
_cell_angle_alpha   90.00000000
_cell_angle_beta   90.00000000
_cell_angle_gamma   90.00000000
_symmetry_Int_Tables_number   1
_chemical_formula_structural   Ho3Co8P6Os
_chemical_formula_sum   'Ho6 Co16 P12 Os2'
_cell_volume   474.28581593
_cell_formula_units_Z   2
loop_
 _symmetry_equiv_pos_site_id
 _symmetry_equiv_pos_as_xyz
  1  'x, y, z'
loop_
 _atom_site_type_symbol
 _atom_site_label
 _atom_site_symmetry_multiplicity
 _atom_site_fract_x
 _atom_site_fract_y
 _atom_site_fract_z
 _atom_site_occupancy
  Ho  Ho0  1  0.000000  0.500000  0.524597  1
  Ho  Ho1  1  0.500000  0.000000  0.475403  1
  Ho  Ho2  1  0.500000  0.817501  0.207167  1
  Ho  Ho3  1  0.500000  0.182499  0.207167  1
  Ho  Ho4  1  0.000000  0.682499  0.792833  1
  Ho  Ho5  1  0.000000  0.317501  0.792833  1
  Co  Co6  1  0.000000  0.500000  0.986901  1
  Co  Co7  1  0.500000  0.000000  0.013099  1
  Co  Co8  1  0.500000  0.297561  0.431013  1
  Co  Co9  1  0.500000  0.702439  0.431013  1
  Co  Co10  1  0.000000  0.202439  0.568987  1
  Co  Co11  1  0.000000  0.797561  0.568987  1
  Co  Co12  1  0.500000  0.879126  0.708516  1
  Co  Co13  1  0.500000  0.120874  0.708516  1
  Co  Co14  1  0.000000  0.620874  0.291484  1
  Co  Co15  1  0.000000  0.379126  0.291484  1
  Co  Co16  1  0.500000  0.332551  0.990031  1
  Co  Co17  1  0.500000  0.667449  0.990031  1
  Co  Co18  1  0.000000  0.167449  0.009969  1
  Co  Co19  1  0.000000  0.832551  0.009969  1
  Co  Co20  1  0.500000  0.500000  0.703584  1
  Co  Co21  1  0.000000  0.000000  0.296416  1
  P  P22  1  0.500000  0.312178  0.616174  1
  P  P23  1  0.500000  0.687822  0.616174  1
  P  P24  1  0.000000  0.187822  0.383826  1
  P  P25  1  0.000000  0.812178  0.383826  1
  P  P26  1  0.500000  0.500000  0.880628  1
  P  P27  1  0.000000  0.000000  0.119372  1
  P  P28  1  0.500000  0.846101  0.892657  1
  P  P29  1  0.500000  0.153899  0.892657  1
  P  P30  1  0.000000  0.653899  0.107343  1
  P  P31  1  0.000000  0.346101  0.107343  1
  P  P32  1  0.500000  0.500000  0.351056  1
  P  P33  1  0.000000  0.000000  0.648944  1
  Os  Os34  1  0.500000  0.500000  0.159053  1
  Os  Os35  1  0.000000  0.000000  0.840947  1
