# generated using pymatgen
data_Nb8VBiS16
_symmetry_space_group_name_H-M   'P 1'
_cell_length_a   6.72232300
_cell_length_b   6.72232283
_cell_length_c   13.22458100
_cell_angle_alpha   90.00000000
_cell_angle_beta   90.00000000
_cell_angle_gamma   120.00000578
_symmetry_Int_Tables_number   1
_chemical_formula_structural   Nb8VBiS16
_chemical_formula_sum   'Nb8 V1 Bi1 S16'
_cell_volume   517.54875486
_cell_formula_units_Z   1
loop_
 _symmetry_equiv_pos_site_id
 _symmetry_equiv_pos_as_xyz
  1  'x, y, z'
loop_
 _atom_site_type_symbol
 _atom_site_label
 _atom_site_symmetry_multiplicity
 _atom_site_fract_x
 _atom_site_fract_y
 _atom_site_fract_z
 _atom_site_occupancy
  Nb  Nb0  1  0.000000  0.000000  0.267680  1
  Nb  Nb1  1  0.000000  0.000000  0.732320  1
  Nb  Nb2  1  0.505460  0.010921  0.269469  1
  Nb  Nb3  1  0.494540  0.989079  0.730531  1
  Nb  Nb4  1  0.989079  0.494540  0.269469  1
  Nb  Nb5  1  0.010921  0.505460  0.730531  1
  Nb  Nb6  1  0.505460  0.494540  0.269469  1
  Nb  Nb7  1  0.494540  0.505460  0.730531  1
  V  V8  1  0.000000  0.000000  0.500000  1
  Bi  Bi9  1  0.000000  0.000000  0.000000  1
  S  S10  1  0.333333  0.666667  0.610024  1
  S  S11  1  0.666667  0.333333  0.389976  1
  S  S12  1  0.666667  0.333333  0.147626  1
  S  S13  1  0.333333  0.666667  0.852374  1
  S  S14  1  0.170360  0.340719  0.150326  1
  S  S15  1  0.829640  0.659281  0.849674  1
  S  S16  1  0.659281  0.829640  0.150326  1
  S  S17  1  0.834961  0.669921  0.613071  1
  S  S18  1  0.340719  0.170360  0.849674  1
  S  S19  1  0.165039  0.330079  0.386929  1
  S  S20  1  0.170360  0.829640  0.150326  1
  S  S21  1  0.330079  0.165039  0.613071  1
  S  S22  1  0.829640  0.170360  0.849674  1
  S  S23  1  0.669921  0.834961  0.386929  1
  S  S24  1  0.834961  0.165039  0.613071  1
  S  S25  1  0.165039  0.834961  0.386929  1
