# generated using pymatgen
data_ErLu7Hf5MoO24
_symmetry_space_group_name_H-M   'P 1'
_cell_length_a   6.28197315
_cell_length_b   6.32019076
_cell_length_c   12.66831097
_cell_angle_alpha   99.16631653
_cell_angle_beta   99.65964279
_cell_angle_gamma   99.29253562
_symmetry_Int_Tables_number   1
_chemical_formula_structural   ErLu7Hf5MoO24
_chemical_formula_sum   'Er1 Lu7 Hf5 Mo1 O24'
_cell_volume   480.27012715
_cell_formula_units_Z   1
loop_
 _symmetry_equiv_pos_site_id
 _symmetry_equiv_pos_as_xyz
  1  'x, y, z'
loop_
 _atom_site_type_symbol
 _atom_site_label
 _atom_site_symmetry_multiplicity
 _atom_site_fract_x
 _atom_site_fract_y
 _atom_site_fract_z
 _atom_site_occupancy
  Er  Er0  1  0.298495  0.609997  0.817972  1
  Lu  Lu1  1  0.389783  0.863135  0.594400  1
  Lu  Lu2  1  0.861113  0.690861  0.948080  1
  Lu  Lu3  1  0.311494  0.609625  0.317642  1
  Lu  Lu4  1  0.140687  0.305781  0.053527  1
  Lu  Lu5  1  0.701375  0.390752  0.182125  1
  Lu  Lu6  1  0.688861  0.389548  0.680979  1
  Lu  Lu7  1  0.610206  0.138322  0.403182  1
  Hf  Hf8  1  0.393106  0.856470  0.094150  1
  Hf  Hf9  1  0.991720  0.993444  0.747477  1
  Hf  Hf10  1  0.855178  0.682453  0.446211  1
  Hf  Hf11  1  0.142675  0.322376  0.551266  1
  Hf  Hf12  1  0.609169  0.145073  0.908252  1
  Mo  Mo13  1  0.006641  0.004354  0.251655  1
  O  O14  1  0.318229  0.966099  0.799170  1
  O  O15  1  0.077006  0.924464  0.092411  1
  O  O16  1  0.317520  0.946786  0.285156  1
  O  O17  1  0.036974  0.887527  0.590569  1
  O  O18  1  0.573224  0.831832  0.965119  1
  O  O19  1  0.583245  0.818663  0.460393  1
  O  O20  1  0.186541  0.591853  0.970637  1
  O  O21  1  0.923018  0.680654  0.779546  1
  O  O22  1  0.427717  0.583347  0.159767  1
  O  O23  1  0.170775  0.572544  0.461542  1
  O  O24  1  0.922565  0.695881  0.288369  1
  O  O25  1  0.577332  0.416675  0.841570  1
  O  O26  1  0.408810  0.567613  0.655902  1
  O  O27  1  0.077264  0.314664  0.221574  1
  O  O28  1  0.816723  0.410037  0.033168  1
  O  O29  1  0.593518  0.434553  0.341351  1
  O  O30  1  0.074676  0.304291  0.706528  1
  O  O31  1  0.824624  0.426563  0.534628  1
  O  O32  1  0.434501  0.171897  0.039240  1
  O  O33  1  0.410582  0.179741  0.536592  1
  O  O34  1  0.927394  0.083973  0.905850  1
  O  O35  1  0.682990  0.041923  0.209185  1
  O  O36  1  0.956881  0.092862  0.414025  1
  O  O37  1  0.677385  0.053367  0.710789  1
