# generated using pymatgen
data_CePr2Se5
_symmetry_space_group_name_H-M   'P 1'
_cell_length_a   7.93525200
_cell_length_b   8.53398100
_cell_length_c   12.59218700
_cell_angle_alpha   90.00000000
_cell_angle_beta   90.00000000
_cell_angle_gamma   90.00000000
_symmetry_Int_Tables_number   1
_chemical_formula_structural   CePr2Se5
_chemical_formula_sum   'Ce4 Pr8 Se20'
_cell_volume   852.73396065
_cell_formula_units_Z   4
loop_
 _symmetry_equiv_pos_site_id
 _symmetry_equiv_pos_as_xyz
  1  'x, y, z'
loop_
 _atom_site_type_symbol
 _atom_site_label
 _atom_site_symmetry_multiplicity
 _atom_site_fract_x
 _atom_site_fract_y
 _atom_site_fract_z
 _atom_site_occupancy
  Ce  Ce0  1  0.072500  0.750000  0.491297  1
  Ce  Ce1  1  0.427500  0.750000  0.991297  1
  Ce  Ce2  1  0.927500  0.250000  0.508703  1
  Ce  Ce3  1  0.572500  0.250000  0.008703  1
  Pr  Pr4  1  0.522504  0.499698  0.322040  1
  Pr  Pr5  1  0.977496  0.000302  0.822040  1
  Pr  Pr6  1  0.477496  0.999698  0.677960  1
  Pr  Pr7  1  0.022504  0.500302  0.177960  1
  Pr  Pr8  1  0.477496  0.500302  0.677960  1
  Pr  Pr9  1  0.022504  0.999698  0.177960  1
  Pr  Pr10  1  0.522504  0.000302  0.322040  1
  Pr  Pr11  1  0.977496  0.499698  0.822040  1
  Se  Se12  1  0.836258  0.956511  0.596630  1
  Se  Se13  1  0.663742  0.543489  0.096630  1
  Se  Se14  1  0.163742  0.456511  0.403370  1
  Se  Se15  1  0.336258  0.043489  0.903370  1
  Se  Se16  1  0.163742  0.043489  0.403370  1
  Se  Se17  1  0.336258  0.456511  0.903370  1
  Se  Se18  1  0.836258  0.543489  0.596630  1
  Se  Se19  1  0.663742  0.956511  0.096630  1
  Se  Se20  1  0.828231  0.750000  0.313100  1
  Se  Se21  1  0.671769  0.750000  0.813100  1
  Se  Se22  1  0.171769  0.250000  0.686900  1
  Se  Se23  1  0.328231  0.250000  0.186900  1
  Se  Se24  1  0.456227  0.750000  0.498841  1
  Se  Se25  1  0.043773  0.750000  0.998841  1
  Se  Se26  1  0.543773  0.250000  0.501159  1
  Se  Se27  1  0.956227  0.250000  0.001159  1
  Se  Se28  1  0.196032  0.750000  0.714364  1
  Se  Se29  1  0.303968  0.750000  0.214364  1
  Se  Se30  1  0.803968  0.250000  0.285636  1
  Se  Se31  1  0.696032  0.250000  0.785636  1
