# generated using pymatgen
data_TbNd11Nb8(WN4)12
_symmetry_space_group_name_H-M   'P 1'
_cell_length_a   11.32692299
_cell_length_b   11.32611353
_cell_length_c   11.32611384
_cell_angle_alpha   109.57716274
_cell_angle_beta   109.41682811
_cell_angle_gamma   109.41683355
_symmetry_Int_Tables_number   1
_chemical_formula_structural   TbNd11Nb8(WN4)12
_chemical_formula_sum   'Tb1 Nd11 Nb8 W12 N48'
_cell_volume   1118.57793164
_cell_formula_units_Z   1
loop_
 _symmetry_equiv_pos_site_id
 _symmetry_equiv_pos_as_xyz
  1  'x, y, z'
loop_
 _atom_site_type_symbol
 _atom_site_label
 _atom_site_symmetry_multiplicity
 _atom_site_fract_x
 _atom_site_fract_y
 _atom_site_fract_z
 _atom_site_occupancy
  Tb  Tb0  1  0.750000  0.625000  0.875000  1
  Nd  Nd1  1  0.250000  0.375000  0.125000  1
  Nd  Nd2  1  0.375359  0.750029  0.124842  1
  Nd  Nd3  1  0.375359  0.125330  0.250515  1
  Nd  Nd4  1  0.874343  0.624747  0.249151  1
  Nd  Nd5  1  0.750000  0.124999  0.375000  1
  Nd  Nd6  1  0.124641  0.249485  0.374670  1
  Nd  Nd7  1  0.874343  0.749597  0.625193  1
  Nd  Nd8  1  0.250000  0.875000  0.625000  1
  Nd  Nd9  1  0.124640  0.375157  0.749971  1
  Nd  Nd10  1  0.625657  0.874807  0.750403  1
  Nd  Nd11  1  0.625657  0.250849  0.875253  1
  Nb  Nb12  1  0.001799  0.000475  0.001353  1
  Nb  Nb13  1  0.499862  0.999417  0.000937  1
  Nb  Nb14  1  0.001799  0.501325  0.000446  1
  Nb  Nb15  1  0.498201  0.499554  0.998675  1
  Nb  Nb16  1  0.000138  0.001075  0.499555  1
  Nb  Nb17  1  0.499862  0.000445  0.498925  1
  Nb  Nb18  1  0.000138  0.499063  0.500583  1
  Nb  Nb19  1  0.498201  0.498647  0.499525  1
  W  W20  1  0.874626  0.250102  0.124893  1
  W  W21  1  0.750000  0.872493  0.122493  1
  W  W22  1  0.625374  0.375107  0.249899  1
  W  W23  1  0.124132  0.874090  0.248855  1
  W  W24  1  0.250000  0.625652  0.375652  1
  W  W25  1  0.625375  0.750267  0.375475  1
  W  W26  1  0.375868  0.251146  0.625910  1
  W  W27  1  0.750000  0.377507  0.627508  1
  W  W28  1  0.874626  0.124525  0.749733  1
  W  W29  1  0.375868  0.624723  0.749958  1
  W  W30  1  0.250001  0.124348  0.874348  1
  W  W31  1  0.124132  0.750042  0.875278  1
  N  N32  1  0.200311  0.115049  0.015587  1
  N  N33  1  0.315193  0.900210  0.016307  1
  N  N34  1  0.883803  0.400287  0.084864  1
  N  N35  1  0.702273  0.682187  0.080881  1
  N  N36  1  0.980638  0.684802  0.097357  1
  N  N37  1  0.616197  0.415136  0.099714  1
  N  N38  1  0.600419  0.914278  0.114971  1
  N  N39  1  0.015278  0.199687  0.115446  1
  N  N40  1  0.200310  0.585262  0.184724  1
  N  N41  1  0.484722  0.600168  0.184409  1
  N  N42  1  0.584798  0.184260  0.201039  1
  N  N43  1  0.116168  0.016532  0.201210  1
  N  N44  1  0.315193  0.914983  0.298884  1
  N  N45  1  0.484722  0.384555  0.300313  1
  N  N46  1  0.899580  0.014552  0.313859  1
  N  N47  1  0.915202  0.298960  0.315740  1
  N  N48  1  0.299689  0.484413  0.384952  1
  N  N49  1  0.584798  0.900539  0.383757  1
  N  N50  1  0.084906  0.883427  0.399501  1
  N  N51  1  0.815096  0.516372  0.400245  1
  N  N52  1  0.099815  0.616518  0.415472  1
  N  N53  1  0.815096  0.798724  0.414851  1
  N  N54  1  0.600420  0.186141  0.485447  1
  N  N55  1  0.383833  0.298790  0.483468  1
  N  N56  1  0.616197  0.701061  0.516484  1
  N  N57  1  0.400186  0.815658  0.516704  1
  N  N58  1  0.184807  0.201115  0.585017  1
  N  N59  1  0.899581  0.385028  0.585722  1
  N  N60  1  0.915202  0.116242  0.599461  1
  N  N61  1  0.184807  0.483692  0.599790  1
  N  N62  1  0.415094  0.100500  0.616573  1
  N  N63  1  0.702273  0.520085  0.621391  1
  N  N64  1  0.084905  0.701479  0.685404  1
  N  N65  1  0.099814  0.983296  0.684341  1
  N  N66  1  0.684903  0.085148  0.701276  1
  N  N67  1  0.519362  0.616718  0.704165  1
  N  N68  1  0.415094  0.814595  0.798521  1
  N  N69  1  0.883803  0.983516  0.798940  1
  N  N70  1  0.519362  0.402643  0.815197  1
  N  N71  1  0.797727  0.419118  0.817812  1
  N  N72  1  0.400186  0.084528  0.883482  1
  N  N73  1  0.980638  0.795836  0.883282  1
  N  N74  1  0.015277  0.315591  0.899832  1
  N  N75  1  0.383832  0.585043  0.900366  1
  N  N76  1  0.299689  0.315276  0.914738  1
  N  N77  1  0.116167  0.599634  0.914957  1
  N  N78  1  0.684903  0.099755  0.983628  1
  N  N79  1  0.797728  0.878609  0.979915  1
