# generated using pymatgen
data_Th8Sc12Si15Pb
_symmetry_space_group_name_H-M   'P 1'
_cell_length_a   7.32158366
_cell_length_b   7.51413919
_cell_length_c   14.22478900
_cell_angle_alpha   89.94524442
_cell_angle_beta   89.26120383
_cell_angle_gamma   90.03854454
_symmetry_Int_Tables_number   1
_chemical_formula_structural   Th8Sc12Si15Pb
_chemical_formula_sum   'Th8 Sc12 Si15 Pb1'
_cell_volume   782.51684008
_cell_formula_units_Z   1
loop_
 _symmetry_equiv_pos_site_id
 _symmetry_equiv_pos_as_xyz
  1  'x, y, z'
loop_
 _atom_site_type_symbol
 _atom_site_label
 _atom_site_symmetry_multiplicity
 _atom_site_fract_x
 _atom_site_fract_y
 _atom_site_fract_z
 _atom_site_occupancy
  Th  Th0  1  0.005670  0.173311  0.096036  1
  Th  Th1  1  0.994706  0.828385  0.904879  1
  Th  Th2  1  0.496073  0.673080  0.904638  1
  Th  Th3  1  0.996693  0.834759  0.598909  1
  Th  Th4  1  0.504925  0.327501  0.096343  1
  Th  Th5  1  0.995245  0.167801  0.398310  1
  Th  Th6  1  0.508015  0.320034  0.397770  1
  Th  Th7  1  0.512032  0.685197  0.599982  1
  Sc  Sc8  1  0.166553  0.502292  0.756956  1
  Sc  Sc9  1  0.834050  0.499103  0.248516  1
  Sc  Sc10  1  0.334103  0.000318  0.248925  1
  Sc  Sc11  1  0.667608  0.998594  0.752953  1
  Sc  Sc12  1  0.351658  0.156004  0.630321  1
  Sc  Sc13  1  0.656207  0.828879  0.373303  1
  Sc  Sc14  1  0.155839  0.679064  0.369198  1
  Sc  Sc15  1  0.664073  0.825119  0.123494  1
  Sc  Sc16  1  0.826303  0.327889  0.627209  1
  Sc  Sc17  1  0.334596  0.173814  0.875789  1
  Sc  Sc18  1  0.835990  0.326153  0.875840  1
  Sc  Sc19  1  0.165031  0.674045  0.124359  1
  Si  Si20  1  0.040198  0.126042  0.750618  1
  Si  Si21  1  0.958283  0.877356  0.246796  1
  Si  Si22  1  0.459954  0.622276  0.248816  1
  Si  Si23  1  0.536752  0.378611  0.751620  1
  Si  Si24  1  0.295934  0.872190  0.753145  1
  Si  Si25  1  0.703520  0.120305  0.246044  1
  Si  Si26  1  0.203696  0.376831  0.248891  1
  Si  Si27  1  0.799965  0.625045  0.752231  1
  Si  Si28  1  0.820907  0.541074  0.457399  1
  Si  Si29  1  0.326398  0.960963  0.458426  1
  Si  Si30  1  0.838096  0.535064  0.040960  1
  Si  Si31  1  0.673608  0.042948  0.538925  1
  Si  Si32  1  0.162257  0.464240  0.960225  1
  Si  Si33  1  0.660692  0.036317  0.959619  1
  Si  Si34  1  0.338783  0.964402  0.040882  1
  Pb  Pb35  1  0.175588  0.454998  0.541675  1
