# generated using pymatgen
data_Tm8Cd3InAu8
_symmetry_space_group_name_H-M   'P 1'
_cell_length_a   7.90994300
_cell_length_b   7.90994300
_cell_length_c   7.34078300
_cell_angle_alpha   90.00000000
_cell_angle_beta   90.00000000
_cell_angle_gamma   90.00000000
_symmetry_Int_Tables_number   1
_chemical_formula_structural   Tm8Cd3InAu8
_chemical_formula_sum   'Tm8 Cd3 In1 Au8'
_cell_volume   459.29222537
_cell_formula_units_Z   1
loop_
 _symmetry_equiv_pos_site_id
 _symmetry_equiv_pos_as_xyz
  1  'x, y, z'
loop_
 _atom_site_type_symbol
 _atom_site_label
 _atom_site_symmetry_multiplicity
 _atom_site_fract_x
 _atom_site_fract_y
 _atom_site_fract_z
 _atom_site_occupancy
  Tm  Tm0  1  0.838202  0.160325  0.500089  1
  Tm  Tm1  1  0.161798  0.839675  0.500089  1
  Tm  Tm2  1  0.339675  0.338202  0.999911  1
  Tm  Tm3  1  0.660325  0.661798  0.999911  1
  Tm  Tm4  1  0.676807  0.679852  0.500105  1
  Tm  Tm5  1  0.323193  0.320148  0.500105  1
  Tm  Tm6  1  0.179852  0.823193  0.999895  1
  Tm  Tm7  1  0.820148  0.176807  0.999895  1
  Cd  Cd8  1  0.500000  0.000000  0.250000  1
  Cd  Cd9  1  0.000000  0.500000  0.750000  1
  Cd  Cd10  1  0.500000  0.000000  0.750000  1
  In  In11  1  0.000000  0.500000  0.250000  1
  Au  Au12  1  0.628958  0.369440  0.267416  1
  Au  Au13  1  0.371042  0.630560  0.267416  1
  Au  Au14  1  0.129300  0.130164  0.766823  1
  Au  Au15  1  0.870700  0.869836  0.766823  1
  Au  Au16  1  0.369836  0.629300  0.733177  1
  Au  Au17  1  0.630164  0.370700  0.733177  1
  Au  Au18  1  0.869440  0.871042  0.232584  1
  Au  Au19  1  0.130560  0.128958  0.232584  1
