# generated using pymatgen
data_Ho2Cu(PIr2)6
_symmetry_space_group_name_H-M   'P 1'
_cell_length_a   9.61205800
_cell_length_b   9.61205741
_cell_length_c   3.96401900
_cell_angle_alpha   90.00000000
_cell_angle_beta   90.00000000
_cell_angle_gamma   120.00001075
_symmetry_Int_Tables_number   1
_chemical_formula_structural   Ho2Cu(PIr2)6
_chemical_formula_sum   'Ho2 Cu1 P6 Ir12'
_cell_volume   317.17507480
_cell_formula_units_Z   1
loop_
 _symmetry_equiv_pos_site_id
 _symmetry_equiv_pos_as_xyz
  1  'x, y, z'
loop_
 _atom_site_type_symbol
 _atom_site_label
 _atom_site_symmetry_multiplicity
 _atom_site_fract_x
 _atom_site_fract_y
 _atom_site_fract_z
 _atom_site_occupancy
  Ho  Ho0  1  0.333333  0.666667  0.756565  1
  Ho  Ho1  1  0.666667  0.333333  0.243435  1
  Cu  Cu2  1  0.000000  0.000000  0.500000  1
  P  P3  1  0.402832  0.280226  0.743535  1
  P  P4  1  0.719774  0.122606  0.743535  1
  P  P5  1  0.877394  0.597168  0.743535  1
  P  P6  1  0.597168  0.719774  0.256465  1
  P  P7  1  0.280226  0.877394  0.256465  1
  P  P8  1  0.122606  0.402832  0.256465  1
  Ir  Ir9  1  0.457029  0.068093  0.747537  1
  Ir  Ir10  1  0.931907  0.388935  0.747537  1
  Ir  Ir11  1  0.611065  0.542971  0.747537  1
  Ir  Ir12  1  0.542971  0.931907  0.252463  1
  Ir  Ir13  1  0.068093  0.611065  0.252463  1
  Ir  Ir14  1  0.388935  0.457029  0.252463  1
  Ir  Ir15  1  0.159907  0.283220  0.761853  1
  Ir  Ir16  1  0.716780  0.876687  0.761853  1
  Ir  Ir17  1  0.123313  0.840093  0.761853  1
  Ir  Ir18  1  0.840093  0.716780  0.238147  1
  Ir  Ir19  1  0.283220  0.123313  0.238147  1
  Ir  Ir20  1  0.876687  0.159907  0.238147  1
