# generated using pymatgen
data_Tb5Dy7In2(CoRu)2
_symmetry_space_group_name_H-M   'P 1'
_cell_length_a   8.43620165
_cell_length_b   8.43619095
_cell_length_c   8.43628611
_cell_angle_alpha   112.69069201
_cell_angle_beta   110.22261721
_cell_angle_gamma   105.57909681
_symmetry_Int_Tables_number   1
_chemical_formula_structural   Tb5Dy7In2(CoRu)2
_chemical_formula_sum   'Tb5 Dy7 In2 Co2 Ru2'
_cell_volume   460.37928942
_cell_formula_units_Z   1
loop_
 _symmetry_equiv_pos_site_id
 _symmetry_equiv_pos_as_xyz
  1  'x, y, z'
loop_
 _atom_site_type_symbol
 _atom_site_label
 _atom_site_symmetry_multiplicity
 _atom_site_fract_x
 _atom_site_fract_y
 _atom_site_fract_z
 _atom_site_occupancy
  Tb  Tb0  1  0.443012  0.240908  0.201920  1
  Tb  Tb1  1  0.557217  0.759266  0.798156  1
  Tb  Tb2  1  0.038889  0.240939  0.798156  1
  Tb  Tb3  1  0.961009  0.758907  0.201919  1
  Tb  Tb4  1  0.184019  0.285740  0.469760  1
  Dy  Dy5  1  0.816114  0.714317  0.530435  1
  Dy  Dy6  1  0.183975  0.714483  0.898463  1
  Dy  Dy7  1  0.815867  0.285556  0.101428  1
  Dy  Dy8  1  0.322092  0.637355  0.315065  1
  Dy  Dy9  1  0.678172  0.362816  0.684971  1
  Dy  Dy10  1  0.322158  0.006803  0.684972  1
  Dy  Dy11  1  0.677714  0.992978  0.315067  1
  In  In12  1  0.500016  0.500014  0.000029  1
  In  In13  1  0.999890  0.999825  0.999715  1
  Co  Co14  1  0.110795  0.611078  0.500057  1
  Co  Co15  1  0.888982  0.389266  0.500056  1
  Ru  Ru16  1  0.331244  0.999776  0.331023  1
  Ru  Ru17  1  0.668835  0.999971  0.668808  1
