# generated using pymatgen
data_Na4In3SnAu4
_symmetry_space_group_name_H-M   'P 1'
_cell_length_a   4.46898400
_cell_length_b   7.64406398
_cell_length_c   8.55730338
_cell_angle_alpha   89.09533938
_cell_angle_beta   90.00000000
_cell_angle_gamma   90.00000000
_symmetry_Int_Tables_number   1
_chemical_formula_structural   Na4In3SnAu4
_chemical_formula_sum   'Na4 In3 Sn1 Au4'
_cell_volume   292.29131077
_cell_formula_units_Z   1
loop_
 _symmetry_equiv_pos_site_id
 _symmetry_equiv_pos_as_xyz
  1  'x, y, z'
loop_
 _atom_site_type_symbol
 _atom_site_label
 _atom_site_symmetry_multiplicity
 _atom_site_fract_x
 _atom_site_fract_y
 _atom_site_fract_z
 _atom_site_occupancy
  Na  Na0  1  0.250000  0.016883  0.826647  1
  Na  Na1  1  0.250000  0.517776  0.671837  1
  Na  Na2  1  0.750000  0.481414  0.328130  1
  Na  Na3  1  0.750000  0.983230  0.173024  1
  In  In4  1  0.250000  0.659322  0.068212  1
  In  In5  1  0.250000  0.155676  0.435856  1
  In  In6  1  0.750000  0.846700  0.564935  1
  Sn  Sn7  1  0.750000  0.342983  0.934072  1
  Au  Au8  1  0.750000  0.711620  0.870387  1
  Au  Au9  1  0.250000  0.284201  0.124569  1
  Au  Au10  1  0.250000  0.783865  0.373978  1
  Au  Au11  1  0.750000  0.216330  0.628352  1
