# generated using pymatgen
data_CaTbPbAu2
_symmetry_space_group_name_H-M   'P 1'
_cell_length_a   8.23872000
_cell_length_b   8.26219400
_cell_length_c   3.70664400
_cell_angle_alpha   90.00000000
_cell_angle_beta   90.00000000
_cell_angle_gamma   90.00000000
_symmetry_Int_Tables_number   1
_chemical_formula_structural   CaTbPbAu2
_chemical_formula_sum   'Ca2 Tb2 Pb2 Au4'
_cell_volume   252.31089736
_cell_formula_units_Z   2
loop_
 _symmetry_equiv_pos_site_id
 _symmetry_equiv_pos_as_xyz
  1  'x, y, z'
loop_
 _atom_site_type_symbol
 _atom_site_label
 _atom_site_symmetry_multiplicity
 _atom_site_fract_x
 _atom_site_fract_y
 _atom_site_fract_z
 _atom_site_occupancy
  Ca  Ca0  1  0.827969  0.672221  0.500000  1
  Ca  Ca1  1  0.327969  0.827779  0.500000  1
  Tb  Tb2  1  0.670394  0.170500  0.500000  1
  Tb  Tb3  1  0.170394  0.329500  0.500000  1
  Pb  Pb4  1  0.002385  0.997504  0.000000  1
  Pb  Pb5  1  0.502385  0.502496  0.000000  1
  Au  Au6  1  0.122893  0.619024  0.000000  1
  Au  Au7  1  0.622893  0.880976  0.000000  1
  Au  Au8  1  0.376358  0.126641  0.000000  1
  Au  Au9  1  0.876358  0.373359  0.000000  1
