# generated using pymatgen
data_In2BPdPt5
_symmetry_space_group_name_H-M   'P 1'
_cell_length_a   5.83426997
_cell_length_b   5.87931015
_cell_length_c   5.87931022
_cell_angle_alpha   59.49380295
_cell_angle_beta   60.25309388
_cell_angle_gamma   60.25310019
_symmetry_Int_Tables_number   1
_chemical_formula_structural   In2BPdPt5
_chemical_formula_sum   'In2 B1 Pd1 Pt5'
_cell_volume   142.58494359
_cell_formula_units_Z   1
loop_
 _symmetry_equiv_pos_site_id
 _symmetry_equiv_pos_as_xyz
  1  'x, y, z'
loop_
 _atom_site_type_symbol
 _atom_site_label
 _atom_site_symmetry_multiplicity
 _atom_site_fract_x
 _atom_site_fract_y
 _atom_site_fract_z
 _atom_site_occupancy
  In  In0  1  0.249339  0.250661  0.250661  1
  In  In1  1  0.749339  0.750661  0.750661  1
  B  B2  1  0.502471  0.497527  0.497527  1
  Pd  Pd3  1  0.244958  0.755041  0.755041  1
  Pt  Pt4  1  0.757081  0.242918  0.242918  1
  Pt  Pt5  1  0.243586  0.756413  0.245181  1
  Pt  Pt6  1  0.754818  0.756413  0.245181  1
  Pt  Pt7  1  0.243586  0.245181  0.756413  1
  Pt  Pt8  1  0.754818  0.245181  0.756413  1
