# generated using pymatgen
data_Dy3TmRe4F28
_symmetry_space_group_name_H-M   'P 1'
_cell_length_a   5.60974326
_cell_length_b   8.91708687
_cell_length_c   12.04397481
_cell_angle_alpha   62.62255344
_cell_angle_beta   90.03498747
_cell_angle_gamma   90.01625497
_symmetry_Int_Tables_number   1
_chemical_formula_structural   Dy3TmRe4F28
_chemical_formula_sum   'Dy3 Tm1 Re4 F28'
_cell_volume   534.99161811
_cell_formula_units_Z   1
loop_
 _symmetry_equiv_pos_site_id
 _symmetry_equiv_pos_as_xyz
  1  'x, y, z'
loop_
 _atom_site_type_symbol
 _atom_site_label
 _atom_site_symmetry_multiplicity
 _atom_site_fract_x
 _atom_site_fract_y
 _atom_site_fract_z
 _atom_site_occupancy
  Dy  Dy0  1  0.258235  0.184282  0.735362  1
  Dy  Dy1  1  0.241916  0.186089  0.235108  1
  Dy  Dy2  1  0.741788  0.813713  0.264848  1
  Tm  Tm3  1  0.758372  0.813960  0.764506  1
  Re  Re4  1  0.757248  0.274029  0.956308  1
  Re  Re5  1  0.257258  0.727260  0.544239  1
  Re  Re6  1  0.242473  0.727321  0.042127  1
  Re  Re7  1  0.743118  0.272260  0.457362  1
  F  F8  1  0.450944  0.707997  0.916825  1
  F  F9  1  0.949524  0.292832  0.582617  1
  F  F10  1  0.551096  0.293169  0.082211  1
  F  F11  1  0.051529  0.707100  0.418456  1
  F  F12  1  0.449263  0.278468  0.547556  1
  F  F13  1  0.948282  0.722550  0.950610  1
  F  F14  1  0.549788  0.721164  0.453124  1
  F  F15  1  0.050815  0.279042  0.047098  1
  F  F16  1  0.770207  0.523849  0.857565  1
  F  F17  1  0.270469  0.478156  0.642103  1
  F  F18  1  0.229314  0.478515  0.141578  1
  F  F19  1  0.729586  0.521289  0.358332  1
  F  F20  1  0.757362  0.025364  0.053487  1
  F  F21  1  0.257369  0.975681  0.446334  1
  F  F22  1  0.242846  0.975935  0.945743  1
  F  F23  1  0.742685  0.023483  0.555309  1
  F  F24  1  0.974759  0.730348  0.642318  1
  F  F25  1  0.475201  0.270705  0.858674  1
  F  F26  1  0.024725  0.270734  0.359128  1
  F  F27  1  0.523864  0.729192  0.140696  1
  F  F28  1  0.043168  0.746073  0.171648  1
  F  F29  1  0.543254  0.253768  0.328003  1
  F  F30  1  0.957196  0.254068  0.827655  1
  F  F31  1  0.460344  0.747181  0.672767  1
  F  F32  1  0.420330  0.970970  0.232406  1
  F  F33  1  0.920136  0.028922  0.267588  1
  F  F34  1  0.580942  0.025125  0.767261  1
  F  F35  1  0.074595  0.969407  0.733048  1
