# generated using pymatgen
data_TaTi3(GaRh5)2
_symmetry_space_group_name_H-M   'P 1'
_cell_length_a   4.01082100
_cell_length_b   5.42483352
_cell_length_c   10.70479844
_cell_angle_alpha   90.26462999
_cell_angle_beta   90.00000000
_cell_angle_gamma   90.00000000
_symmetry_Int_Tables_number   1
_chemical_formula_structural   TaTi3(GaRh5)2
_chemical_formula_sum   'Ta1 Ti3 Ga2 Rh10'
_cell_volume   232.91290766
_cell_formula_units_Z   1
loop_
 _symmetry_equiv_pos_site_id
 _symmetry_equiv_pos_as_xyz
  1  'x, y, z'
loop_
 _atom_site_type_symbol
 _atom_site_label
 _atom_site_symmetry_multiplicity
 _atom_site_fract_x
 _atom_site_fract_y
 _atom_site_fract_z
 _atom_site_occupancy
  Ta  Ta0  1  0.500000  0.318301  0.139195  1
  Ti  Ti1  1  0.500000  0.681967  0.857326  1
  Ti  Ti2  1  0.500000  0.820234  0.364312  1
  Ti  Ti3  1  0.500000  0.180206  0.639774  1
  Ga  Ga4  1  0.000000  0.996448  0.998086  1
  Ga  Ga5  1  0.000000  0.500196  0.500194  1
  Rh  Rh6  1  0.000000  0.000088  0.500585  1
  Rh  Rh7  1  0.000000  0.502238  0.998589  1
  Rh  Rh8  1  0.000000  0.065926  0.246923  1
  Rh  Rh9  1  0.000000  0.932018  0.754189  1
  Rh  Rh10  1  0.000000  0.567918  0.254102  1
  Rh  Rh11  1  0.000000  0.431579  0.745172  1
  Rh  Rh12  1  0.500000  0.305393  0.389592  1
  Rh  Rh13  1  0.500000  0.694614  0.611608  1
  Rh  Rh14  1  0.500000  0.807196  0.111905  1
  Rh  Rh15  1  0.500000  0.195677  0.888447  1
