# generated using pymatgen
data_Tb5YbMn2(NbC6)2
_symmetry_space_group_name_H-M   'P 1'
_cell_length_a   8.31532966
_cell_length_b   8.32726098
_cell_length_c   5.14332900
_cell_angle_alpha   90.00000000
_cell_angle_beta   90.00000000
_cell_angle_gamma   120.41779706
_symmetry_Int_Tables_number   1
_chemical_formula_structural   Tb5YbMn2(NbC6)2
_chemical_formula_sum   'Tb5 Yb1 Mn2 Nb2 C12'
_cell_volume   307.12330027
_cell_formula_units_Z   1
loop_
 _symmetry_equiv_pos_site_id
 _symmetry_equiv_pos_as_xyz
  1  'x, y, z'
loop_
 _atom_site_type_symbol
 _atom_site_label
 _atom_site_symmetry_multiplicity
 _atom_site_fract_x
 _atom_site_fract_y
 _atom_site_fract_z
 _atom_site_occupancy
  Tb  Tb0  1  0.939788  0.617660  0.250000  1
  Tb  Tb1  1  0.676049  0.057233  0.250000  1
  Tb  Tb2  1  0.323349  0.941740  0.750000  1
  Tb  Tb3  1  0.060308  0.383239  0.750000  1
  Tb  Tb4  1  0.383735  0.327019  0.250000  1
  Yb  Yb5  1  0.610949  0.674326  0.750000  1
  Mn  Mn6  1  0.668385  0.331848  0.750000  1
  Mn  Mn7  1  0.331996  0.667339  0.250000  1
  Nb  Nb8  1  0.998719  0.998703  0.500812  1
  Nb  Nb9  1  0.998719  0.998703  0.999188  1
  C  C10  1  0.961581  0.755420  0.750000  1
  C  C11  1  0.206904  0.963831  0.250000  1
  C  C12  1  0.754958  0.794375  0.250000  1
  C  C13  1  0.246768  0.210284  0.750000  1
  C  C14  1  0.797449  0.039398  0.750000  1
  C  C15  1  0.038061  0.242622  0.250000  1
  C  C16  1  0.862586  0.565940  0.750000  1
  C  C17  1  0.295489  0.862901  0.250000  1
  C  C18  1  0.565261  0.706294  0.250000  1
  C  C19  1  0.436230  0.292862  0.750000  1
  C  C20  1  0.137593  0.433014  0.250000  1
  C  C21  1  0.705124  0.135249  0.750000  1
