# generated using pymatgen
data_NaLu(ReH9)2
_symmetry_space_group_name_H-M   'P 1'
_cell_length_a   5.19784590
_cell_length_b   5.19786615
_cell_length_c   8.41540413
_cell_angle_alpha   92.66761630
_cell_angle_beta   87.33128433
_cell_angle_gamma   125.82146979
_symmetry_Int_Tables_number   1
_chemical_formula_structural   NaLu(ReH9)2
_chemical_formula_sum   'Na1 Lu1 Re2 H18'
_cell_volume   184.10542691
_cell_formula_units_Z   1
loop_
 _symmetry_equiv_pos_site_id
 _symmetry_equiv_pos_as_xyz
  1  'x, y, z'
loop_
 _atom_site_type_symbol
 _atom_site_label
 _atom_site_symmetry_multiplicity
 _atom_site_fract_x
 _atom_site_fract_y
 _atom_site_fract_z
 _atom_site_occupancy
  Na  Na0  1  0.000000  0.000000  0.000000  1
  Lu  Lu1  1  0.000000  0.000000  0.500000  1
  Re  Re2  1  0.340331  0.659704  0.721402  1
  Re  Re3  1  0.659669  0.340296  0.278598  1
  H  H4  1  0.386815  0.613268  0.521958  1
  H  H5  1  0.613185  0.386732  0.478042  1
  H  H6  1  0.418984  0.581002  0.896384  1
  H  H7  1  0.581016  0.418998  0.103616  1
  H  H8  1  0.471120  0.958358  0.856905  1
  H  H9  1  0.958344  0.471078  0.143102  1
  H  H10  1  0.604855  0.020614  0.647534  1
  H  H11  1  0.020565  0.604761  0.352489  1
  H  H12  1  0.528880  0.041642  0.143095  1
  H  H13  1  0.041656  0.528922  0.856898  1
  H  H14  1  0.395145  0.979386  0.352466  1
  H  H15  1  0.979435  0.395239  0.647511  1
  H  H16  1  0.706128  0.724529  0.716633  1
  H  H17  1  0.724573  0.706129  0.283370  1
  H  H18  1  0.293872  0.275471  0.283367  1
  H  H19  1  0.275427  0.293871  0.716630  1
  H  H20  1  0.160170  0.839954  0.684829  1
  H  H21  1  0.839830  0.160046  0.315171  1
