# generated using pymatgen
data_Li(NdB8)3
_symmetry_space_group_name_H-M   'P 1'
_cell_length_a   7.16284022
_cell_length_b   7.16284070
_cell_length_c   5.85148400
_cell_angle_alpha   90.00000000
_cell_angle_beta   90.00000000
_cell_angle_gamma   109.41844569
_symmetry_Int_Tables_number   1
_chemical_formula_structural   Li(NdB8)3
_chemical_formula_sum   'Li1 Nd3 B24'
_cell_volume   283.14020389
_cell_formula_units_Z   1
loop_
 _symmetry_equiv_pos_site_id
 _symmetry_equiv_pos_as_xyz
  1  'x, y, z'
loop_
 _atom_site_type_symbol
 _atom_site_label
 _atom_site_symmetry_multiplicity
 _atom_site_fract_x
 _atom_site_fract_y
 _atom_site_fract_z
 _atom_site_occupancy
  Li  Li0  1  0.748233  0.251767  0.500000  1
  Nd  Nd1  1  0.998934  0.001066  0.000000  1
  Nd  Nd2  1  0.500559  0.499441  0.000000  1
  Nd  Nd3  1  0.251020  0.748980  0.500000  1
  B  B4  1  0.174969  0.325068  0.649223  1
  B  B5  1  0.925050  0.574154  0.150236  1
  B  B6  1  0.674932  0.825031  0.649223  1
  B  B7  1  0.425846  0.074950  0.150236  1
  B  B8  1  0.174969  0.325068  0.350777  1
  B  B9  1  0.925050  0.574154  0.849764  1
  B  B10  1  0.674932  0.825031  0.350777  1
  B  B11  1  0.425846  0.074950  0.849764  1
  B  B12  1  0.400770  0.398775  0.500000  1
  B  B13  1  0.149457  0.649864  0.000000  1
  B  B14  1  0.898836  0.900433  0.500000  1
  B  B15  1  0.649935  0.149449  0.000000  1
  B  B16  1  0.325498  0.175142  0.649223  1
  B  B17  1  0.074662  0.425428  0.150255  1
  B  B18  1  0.824858  0.674502  0.649223  1
  B  B19  1  0.574572  0.925338  0.150255  1
  B  B20  1  0.099567  0.101164  0.500000  1
  B  B21  1  0.850551  0.350065  0.000000  1
  B  B22  1  0.601225  0.599230  0.500000  1
  B  B23  1  0.350136  0.850543  0.000000  1
  B  B24  1  0.325498  0.175142  0.350777  1
  B  B25  1  0.074662  0.425428  0.849745  1
  B  B26  1  0.824858  0.674502  0.350777  1
  B  B27  1  0.574572  0.925338  0.849745  1
