# generated using pymatgen
data_Li6AlHg5Pd12
_symmetry_space_group_name_H-M   'P 1'
_cell_length_a   4.21715900
_cell_length_b   7.06813700
_cell_length_c   12.81762600
_cell_angle_alpha   90.00003409
_cell_angle_beta   90.00017666
_cell_angle_gamma   90.00000811
_symmetry_Int_Tables_number   1
_chemical_formula_structural   Li6AlHg5Pd12
_chemical_formula_sum   'Li6 Al1 Hg5 Pd12'
_cell_volume   382.06084312
_cell_formula_units_Z   1
loop_
 _symmetry_equiv_pos_site_id
 _symmetry_equiv_pos_as_xyz
  1  'x, y, z'
loop_
 _atom_site_type_symbol
 _atom_site_label
 _atom_site_symmetry_multiplicity
 _atom_site_fract_x
 _atom_site_fract_y
 _atom_site_fract_z
 _atom_site_occupancy
  Li  Li0  1  0.999997  0.500000  0.005203  1
  Li  Li1  1  0.500003  0.000000  0.161101  1
  Li  Li2  1  0.000010  0.500000  0.333127  1
  Li  Li3  1  0.500000  0.000000  0.505382  1
  Li  Li4  1  0.999998  0.500000  0.661454  1
  Li  Li5  1  0.499993  0.000000  0.833325  1
  Al  Al6  1  0.499995  0.500000  0.833407  1
  Hg  Hg7  1  0.999997  0.000000  0.988155  1
  Hg  Hg8  1  0.500006  0.500000  0.164608  1
  Hg  Hg9  1  0.000006  0.000000  0.333351  1
  Hg  Hg10  1  0.500000  0.500000  0.502083  1
  Hg  Hg11  1  0.999990  0.000000  0.678521  1
  Pd  Pd12  1  0.499998  0.268076  0.988714  1
  Pd  Pd13  1  0.499998  0.731924  0.988714  1
  Pd  Pd14  1  0.000004  0.240850  0.162014  1
  Pd  Pd15  1  0.000004  0.759150  0.162014  1
  Pd  Pd16  1  0.500006  0.253694  0.333339  1
  Pd  Pd17  1  0.500006  0.746306  0.333339  1
  Pd  Pd18  1  0.999999  0.241025  0.504654  1
  Pd  Pd19  1  0.999999  0.758975  0.504654  1
  Pd  Pd20  1  0.499998  0.268097  0.678064  1
  Pd  Pd21  1  0.499998  0.731903  0.678064  1
  Pd  Pd22  1  0.999995  0.290022  0.833356  1
  Pd  Pd23  1  0.999995  0.709978  0.833356  1
