# generated using pymatgen
data_Ac3MgCd2AgSn2
_symmetry_space_group_name_H-M   'P 1'
_cell_length_a   7.86511200
_cell_length_b   7.94333522
_cell_length_c   4.94174000
_cell_angle_alpha   90.00000000
_cell_angle_beta   90.00000000
_cell_angle_gamma   119.67476507
_symmetry_Int_Tables_number   1
_chemical_formula_structural   Ac3MgCd2AgSn2
_chemical_formula_sum   'Ac3 Mg1 Cd2 Ag1 Sn2'
_cell_volume   268.24542468
_cell_formula_units_Z   1
loop_
 _symmetry_equiv_pos_site_id
 _symmetry_equiv_pos_as_xyz
  1  'x, y, z'
loop_
 _atom_site_type_symbol
 _atom_site_label
 _atom_site_symmetry_multiplicity
 _atom_site_fract_x
 _atom_site_fract_y
 _atom_site_fract_z
 _atom_site_occupancy
  Ac  Ac0  1  0.002824  0.414508  0.500000  1
  Ac  Ac1  1  0.588316  0.585492  0.500000  1
  Ac  Ac2  1  0.407315  0.000000  0.500000  1
  Mg  Mg3  1  0.774918  0.000000  0.000000  1
  Cd  Cd4  1  0.998233  0.765714  0.000000  1
  Cd  Cd5  1  0.232519  0.234286  0.000000  1
  Ag  Ag6  1  0.990811  0.000000  0.500000  1
  Sn  Sn7  1  0.338517  0.671971  0.000000  1
  Sn  Sn8  1  0.666547  0.328029  0.000000  1
