# generated using pymatgen
data_Yb(BeH3)2
_symmetry_space_group_name_H-M   'P 1'
_cell_length_a   4.02346511
_cell_length_b   4.41260939
_cell_length_c   4.62830820
_cell_angle_alpha   87.04878310
_cell_angle_beta   88.44358440
_cell_angle_gamma   89.37216002
_symmetry_Int_Tables_number   1
_chemical_formula_structural   Yb(BeH3)2
_chemical_formula_sum   'Yb1 Be2 H6'
_cell_volume   82.02787408
_cell_formula_units_Z   1
loop_
 _symmetry_equiv_pos_site_id
 _symmetry_equiv_pos_as_xyz
  1  'x, y, z'
loop_
 _atom_site_type_symbol
 _atom_site_label
 _atom_site_symmetry_multiplicity
 _atom_site_fract_x
 _atom_site_fract_y
 _atom_site_fract_z
 _atom_site_occupancy
  Yb  Yb0  1  0.880367  0.045779  0.239849  1
  Be  Be1  1  0.333960  0.532133  0.468782  1
  Be  Be2  1  0.791728  0.629309  0.766874  1
  H  H3  1  0.391390  0.794984  0.292021  1
  H  H4  1  0.968536  0.529741  0.507777  1
  H  H5  1  0.914854  0.527064  0.033875  1
  H  H6  1  0.468853  0.497830  0.752630  1
  H  H7  1  0.800131  0.953597  0.749602  1
  H  H8  1  0.379335  0.268372  0.316972  1
