# generated using pymatgen
data_Ta2Nb5Co6
_symmetry_space_group_name_H-M   'P 1'
_cell_length_a   4.99394098
_cell_length_b   4.99394154
_cell_length_c   9.18502856
_cell_angle_alpha   74.22546908
_cell_angle_beta   74.22546926
_cell_angle_gamma   59.99999368
_symmetry_Int_Tables_number   1
_chemical_formula_structural   Ta2Nb5Co6
_chemical_formula_sum   'Ta2 Nb5 Co6'
_cell_volume   188.35259125
_cell_formula_units_Z   1
loop_
 _symmetry_equiv_pos_site_id
 _symmetry_equiv_pos_as_xyz
  1  'x, y, z'
loop_
 _atom_site_type_symbol
 _atom_site_label
 _atom_site_symmetry_multiplicity
 _atom_site_fract_x
 _atom_site_fract_y
 _atom_site_fract_z
 _atom_site_occupancy
  Ta  Ta0  1  0.999868  0.999868  0.000395  1
  Ta  Ta1  1  0.166336  0.166336  0.500992  1
  Nb  Nb2  1  0.833763  0.833763  0.498713  1
  Nb  Nb3  1  0.346059  0.346059  0.961824  1
  Nb  Nb4  1  0.654223  0.654223  0.037332  1
  Nb  Nb5  1  0.449722  0.449722  0.650834  1
  Nb  Nb6  1  0.550206  0.550206  0.349381  1
  Co  Co7  1  0.579796  0.091829  0.236547  1
  Co  Co8  1  0.091829  0.091829  0.236547  1
  Co  Co9  1  0.091829  0.579796  0.236547  1
  Co  Co10  1  0.419605  0.908383  0.763630  1
  Co  Co11  1  0.908383  0.908383  0.763630  1
  Co  Co12  1  0.908383  0.419605  0.763630  1
