# generated using pymatgen
data_Er3Lu(B4Ir)4
_symmetry_space_group_name_H-M   'P 1'
_cell_length_a   3.55487300
_cell_length_b   5.94664213
_cell_length_c   11.53658323
_cell_angle_alpha   89.96281662
_cell_angle_beta   90.00000000
_cell_angle_gamma   90.00000000
_symmetry_Int_Tables_number   1
_chemical_formula_structural   Er3Lu(B4Ir)4
_chemical_formula_sum   'Er3 Lu1 B16 Ir4'
_cell_volume   243.87821376
_cell_formula_units_Z   1
loop_
 _symmetry_equiv_pos_site_id
 _symmetry_equiv_pos_as_xyz
  1  'x, y, z'
loop_
 _atom_site_type_symbol
 _atom_site_label
 _atom_site_symmetry_multiplicity
 _atom_site_fract_x
 _atom_site_fract_y
 _atom_site_fract_z
 _atom_site_occupancy
  Er  Er0  1  0.500000  0.368203  0.851757  1
  Er  Er1  1  0.500000  0.131737  0.351436  1
  Er  Er2  1  0.500000  0.868404  0.648445  1
  Lu  Lu3  1  0.500000  0.631451  0.148430  1
  B  B4  1  0.000000  0.974734  0.192765  1
  B  B5  1  0.000000  0.024274  0.807362  1
  B  B6  1  0.000000  0.476044  0.306385  1
  B  B7  1  0.000000  0.524291  0.692971  1
  B  B8  1  0.000000  0.791676  0.311322  1
  B  B9  1  0.000000  0.208385  0.688108  1
  B  B10  1  0.000000  0.293300  0.187780  1
  B  B11  1  0.000000  0.708528  0.812055  1
  B  B12  1  0.000000  0.863992  0.469829  1
  B  B13  1  0.000000  0.135749  0.529780  1
  B  B14  1  0.000000  0.364708  0.030390  1
  B  B15  1  0.000000  0.635389  0.970652  1
  B  B16  1  0.000000  0.885997  0.047391  1
  B  B17  1  0.000000  0.112497  0.953731  1
  B  B18  1  0.000000  0.387275  0.452893  1
  B  B19  1  0.000000  0.612759  0.546592  1
  Ir  Ir20  1  0.500000  0.644109  0.401866  1
  Ir  Ir21  1  0.500000  0.356347  0.596862  1
  Ir  Ir22  1  0.500000  0.144736  0.097558  1
  Ir  Ir23  1  0.500000  0.855419  0.903639  1
