# generated using pymatgen
data_Zr6Zn20Ni3Ge
_symmetry_space_group_name_H-M   'P 1'
_cell_length_a   8.74894207
_cell_length_b   8.74894241
_cell_length_c   8.69547607
_cell_angle_alpha   59.73622489
_cell_angle_beta   59.73622563
_cell_angle_gamma   59.54974460
_symmetry_Int_Tables_number   1
_chemical_formula_structural   Zr6Zn20Ni3Ge
_chemical_formula_sum   'Zr6 Zn20 Ni3 Ge1'
_cell_volume   467.15237357
_cell_formula_units_Z   1
loop_
 _symmetry_equiv_pos_site_id
 _symmetry_equiv_pos_as_xyz
  1  'x, y, z'
loop_
 _atom_site_type_symbol
 _atom_site_label
 _atom_site_symmetry_multiplicity
 _atom_site_fract_x
 _atom_site_fract_y
 _atom_site_fract_z
 _atom_site_occupancy
  Zr  Zr0  1  0.712568  0.285124  0.287465  1
  Zr  Zr1  1  0.287432  0.714876  0.712535  1
  Zr  Zr2  1  0.285124  0.712568  0.287465  1
  Zr  Zr3  1  0.714876  0.287432  0.712535  1
  Zr  Zr4  1  0.289334  0.289334  0.707636  1
  Zr  Zr5  1  0.710666  0.710666  0.292364  1
  Zn  Zn6  1  0.118871  0.118871  0.117725  1
  Zn  Zn7  1  0.881129  0.881129  0.882275  1
  Zn  Zn8  1  0.125565  0.125565  0.636901  1
  Zn  Zn9  1  0.114824  0.640021  0.130619  1
  Zn  Zn10  1  0.874435  0.874435  0.363099  1
  Zn  Zn11  1  0.885176  0.359979  0.869381  1
  Zn  Zn12  1  0.640021  0.114824  0.130619  1
  Zn  Zn13  1  0.359979  0.885176  0.869381  1
  Zn  Zn14  1  0.500000  0.000000  0.000000  1
  Zn  Zn15  1  0.000000  0.500000  0.000000  1
  Zn  Zn16  1  0.000000  0.000000  0.500000  1
  Zn  Zn17  1  0.500000  0.500000  0.000000  1
  Zn  Zn18  1  0.332108  0.332108  0.341627  1
  Zn  Zn19  1  0.667892  0.667892  0.658373  1
  Zn  Zn20  1  0.336117  0.336117  0.992499  1
  Zn  Zn21  1  0.338716  0.994086  0.340023  1
  Zn  Zn22  1  0.663883  0.663883  0.007501  1
  Zn  Zn23  1  0.661284  0.005914  0.659977  1
  Zn  Zn24  1  0.994086  0.338716  0.340023  1
  Zn  Zn25  1  0.005914  0.661284  0.659977  1
  Ni  Ni26  1  0.000000  0.500000  0.500000  1
  Ni  Ni27  1  0.500000  0.000000  0.500000  1
  Ni  Ni28  1  0.000000  0.000000  0.000000  1
  Ge  Ge29  1  0.500000  0.500000  0.500000  1
