# generated using pymatgen
data_CaLu4Si12Rh19
_symmetry_space_group_name_H-M   'P 1'
_cell_length_a   12.76026700
_cell_length_b   12.76026642
_cell_length_c   3.95748000
_cell_angle_alpha   90.00000000
_cell_angle_beta   90.00000000
_cell_angle_gamma   119.99999891
_symmetry_Int_Tables_number   1
_chemical_formula_structural   CaLu4Si12Rh19
_chemical_formula_sum   'Ca1 Lu4 Si12 Rh19'
_cell_volume   558.04454742
_cell_formula_units_Z   1
loop_
 _symmetry_equiv_pos_site_id
 _symmetry_equiv_pos_as_xyz
  1  'x, y, z'
loop_
 _atom_site_type_symbol
 _atom_site_label
 _atom_site_symmetry_multiplicity
 _atom_site_fract_x
 _atom_site_fract_y
 _atom_site_fract_z
 _atom_site_occupancy
  Ca  Ca0  1  0.333333  0.666667  0.000000  1
  Lu  Lu1  1  0.999953  0.185646  0.500000  1
  Lu  Lu2  1  0.814354  0.814307  0.500000  1
  Lu  Lu3  1  0.185693  0.000047  0.500000  1
  Lu  Lu4  1  0.666667  0.333333  0.000000  1
  Si  Si5  1  0.477930  0.314002  0.500000  1
  Si  Si6  1  0.819547  0.000367  0.000000  1
  Si  Si7  1  0.180821  0.180453  0.000000  1
  Si  Si8  1  0.999633  0.819179  0.000000  1
  Si  Si9  1  0.370845  0.999429  0.000000  1
  Si  Si10  1  0.685998  0.163928  0.500000  1
  Si  Si11  1  0.836072  0.522070  0.500000  1
  Si  Si12  1  0.523100  0.837811  0.500000  1
  Si  Si13  1  0.162189  0.685289  0.500000  1
  Si  Si14  1  0.314711  0.476900  0.500000  1
  Si  Si15  1  0.000571  0.371416  0.000000  1
  Si  Si16  1  0.628584  0.629155  0.000000  1
  Rh  Rh17  1  0.808218  0.183370  0.000000  1
  Rh  Rh18  1  0.375152  0.191782  0.000000  1
  Rh  Rh19  1  0.640747  0.511608  0.500000  1
  Rh  Rh20  1  0.870862  0.359253  0.500000  1
  Rh  Rh21  1  0.359103  0.874701  0.500000  1
  Rh  Rh22  1  0.515597  0.640897  0.500000  1
  Rh  Rh23  1  0.125299  0.484403  0.500000  1
  Rh  Rh24  1  0.816630  0.624848  0.000000  1
  Rh  Rh25  1  0.626396  0.818112  0.000000  1
  Rh  Rh26  1  0.181888  0.808284  0.000000  1
  Rh  Rh27  1  0.191716  0.373604  0.000000  1
  Rh  Rh28  1  0.999300  0.722784  0.500000  1
  Rh  Rh29  1  0.277216  0.276516  0.500000  1
  Rh  Rh30  1  0.723484  0.000700  0.500000  1
  Rh  Rh31  1  0.998995  0.554724  0.000000  1
  Rh  Rh32  1  0.445276  0.444271  0.000000  1
  Rh  Rh33  1  0.555729  0.001005  0.000000  1
  Rh  Rh34  1  0.000000  0.000000  0.000000  1
  Rh  Rh35  1  0.488392  0.129138  0.500000  1
