# generated using pymatgen
data_Nd2Gd4TcI10
_symmetry_space_group_name_H-M   'P 1'
_cell_length_a   7.99516933
_cell_length_b   10.06815285
_cell_length_c   10.11242800
_cell_angle_alpha   107.51281180
_cell_angle_beta   97.14737854
_cell_angle_gamma   105.23860261
_symmetry_Int_Tables_number   1
_chemical_formula_structural   Nd2Gd4TcI10
_chemical_formula_sum   'Nd2 Gd4 Tc1 I10'
_cell_volume   730.44063317
_cell_formula_units_Z   1
loop_
 _symmetry_equiv_pos_site_id
 _symmetry_equiv_pos_as_xyz
  1  'x, y, z'
loop_
 _atom_site_type_symbol
 _atom_site_label
 _atom_site_symmetry_multiplicity
 _atom_site_fract_x
 _atom_site_fract_y
 _atom_site_fract_z
 _atom_site_occupancy
  Nd  Nd0  1  0.616398  0.542969  0.260268  1
  Nd  Nd1  1  0.383602  0.457031  0.739732  1
  Gd  Gd2  1  0.528918  0.220621  0.415618  1
  Gd  Gd3  1  0.471082  0.779379  0.584382  1
  Gd  Gd4  1  0.156492  0.377747  0.336936  1
  Gd  Gd5  1  0.843508  0.622253  0.663064  1
  Tc  Tc6  1  0.500000  0.500000  0.500000  1
  I  I7  1  0.151767  0.058004  0.232590  1
  I  I8  1  0.848233  0.941996  0.767410  1
  I  I9  1  0.238593  0.412173  0.048389  1
  I  I10  1  0.761407  0.587827  0.951611  1
  I  I11  1  0.714367  0.242917  0.161046  1
  I  I12  1  0.285633  0.757083  0.838954  1
  I  I13  1  0.047294  0.678613  0.414561  1
  I  I14  1  0.952706  0.321387  0.585439  1
  I  I15  1  0.416446  0.130924  0.671012  1
  I  I16  1  0.583554  0.869076  0.328988  1
