# generated using pymatgen
data_CeNd(BRu)4
_symmetry_space_group_name_H-M   'P 1'
_cell_length_a   6.75664428
_cell_length_b   5.99288350
_cell_length_c   5.58964487
_cell_angle_alpha   71.27588364
_cell_angle_beta   57.14216791
_cell_angle_gamma   51.58193489
_symmetry_Int_Tables_number   1
_chemical_formula_structural   CeNd(BRu)4
_chemical_formula_sum   'Ce1 Nd1 B4 Ru4'
_cell_volume   148.91814178
_cell_formula_units_Z   1
loop_
 _symmetry_equiv_pos_site_id
 _symmetry_equiv_pos_as_xyz
  1  'x, y, z'
loop_
 _atom_site_type_symbol
 _atom_site_label
 _atom_site_symmetry_multiplicity
 _atom_site_fract_x
 _atom_site_fract_y
 _atom_site_fract_z
 _atom_site_occupancy
  Ce  Ce0  1  0.000000  0.000000  0.000000  1
  Nd  Nd1  1  0.250000  0.250000  0.250000  1
  B  B2  1  0.317639  0.682361  0.317639  1
  B  B3  1  0.682361  0.317639  0.682361  1
  B  B4  1  0.565818  0.934182  0.565818  1
  B  B5  1  0.934182  0.565818  0.934182  1
  Ru  Ru6  1  0.636966  0.636966  0.363034  1
  Ru  Ru7  1  0.363034  0.363034  0.636966  1
  Ru  Ru8  1  0.612322  0.612322  0.887678  1
  Ru  Ru9  1  0.887678  0.887678  0.612322  1
