# generated using pymatgen
data_Tm3In2(SnRu)2
_symmetry_space_group_name_H-M   'P 1'
_cell_length_a   7.96275571
_cell_length_b   7.96687511
_cell_length_c   3.61353100
_cell_angle_alpha   90.00000000
_cell_angle_beta   90.00000000
_cell_angle_gamma   120.06074908
_symmetry_Int_Tables_number   1
_chemical_formula_structural   Tm3In2(SnRu)2
_chemical_formula_sum   'Tm3 In2 Sn2 Ru2'
_cell_volume   198.40272837
_cell_formula_units_Z   1
loop_
 _symmetry_equiv_pos_site_id
 _symmetry_equiv_pos_as_xyz
  1  'x, y, z'
loop_
 _atom_site_type_symbol
 _atom_site_label
 _atom_site_symmetry_multiplicity
 _atom_site_fract_x
 _atom_site_fract_y
 _atom_site_fract_z
 _atom_site_occupancy
  Tm  Tm0  1  0.296128  0.254730  0.500000  1
  Tm  Tm1  1  0.742864  0.040821  0.500000  1
  Tm  Tm2  1  0.962022  0.706177  0.500000  1
  In  In3  1  0.334350  0.933119  0.000000  1
  In  In4  1  0.665623  0.332906  0.000000  1
  Sn  Sn5  1  0.069950  0.402349  0.000000  1
  Sn  Sn6  1  0.599013  0.669538  0.000000  1
  Ru  Ru7  1  0.333285  0.658769  0.500000  1
  Ru  Ru8  1  0.996766  0.001589  0.000000  1
