# generated using pymatgen
data_Sm2DyTh(Sn5Rh3)2
_symmetry_space_group_name_H-M   'P 1'
_cell_length_a   13.57686912
_cell_length_b   13.57686983
_cell_length_c   7.29418384
_cell_angle_alpha   89.99039361
_cell_angle_beta   90.00960542
_cell_angle_gamma   160.97127526
_symmetry_Int_Tables_number   1
_chemical_formula_structural   Sm2DyTh(Sn5Rh3)2
_chemical_formula_sum   'Sm2 Dy1 Th1 Sn10 Rh6'
_cell_volume   438.37897898
_cell_formula_units_Z   1
loop_
 _symmetry_equiv_pos_site_id
 _symmetry_equiv_pos_as_xyz
  1  'x, y, z'
loop_
 _atom_site_type_symbol
 _atom_site_label
 _atom_site_symmetry_multiplicity
 _atom_site_fract_x
 _atom_site_fract_y
 _atom_site_fract_z
 _atom_site_occupancy
  Sm  Sm0  1  0.172354  0.827646  0.754704  1
  Sm  Sm1  1  0.827388  0.172612  0.255532  1
  Dy  Dy2  1  0.525501  0.474499  0.238110  1
  Th  Th3  1  0.475563  0.524437  0.734806  1
  Sn  Sn4  1  0.878304  0.121696  0.729064  1
  Sn  Sn5  1  0.119999  0.880001  0.233249  1
  Sn  Sn6  1  0.704083  0.295917  0.050271  1
  Sn  Sn7  1  0.294934  0.705066  0.549481  1
  Sn  Sn8  1  0.597170  0.402830  0.612666  1
  Sn  Sn9  1  0.403740  0.596260  0.116335  1
  Sn  Sn10  1  0.952958  0.047042  0.389984  1
  Sn  Sn11  1  0.049590  0.950410  0.903806  1
  Sn  Sn12  1  0.289593  0.710407  0.976949  1
  Sn  Sn13  1  0.709538  0.290462  0.476739  1
  Rh  Rh14  1  0.049729  0.950271  0.519440  1
  Rh  Rh15  1  0.949384  0.050616  0.011173  1
  Rh  Rh16  1  0.776971  0.223029  0.764807  1
  Rh  Rh17  1  0.222262  0.777738  0.264970  1
  Rh  Rh18  1  0.395155  0.604845  0.488535  1
  Rh  Rh19  1  0.605783  0.394217  0.985378  1
