# generated using pymatgen
data_TbEr5TcRh
_symmetry_space_group_name_H-M   'P 1'
_cell_length_a   6.29173700
_cell_length_b   7.29582400
_cell_length_c   9.10506300
_cell_angle_alpha   90.00000000
_cell_angle_beta   90.00000000
_cell_angle_gamma   90.00000000
_symmetry_Int_Tables_number   1
_chemical_formula_structural   TbEr5TcRh
_chemical_formula_sum   'Tb2 Er10 Tc2 Rh2'
_cell_volume   417.95340178
_cell_formula_units_Z   2
loop_
 _symmetry_equiv_pos_site_id
 _symmetry_equiv_pos_as_xyz
  1  'x, y, z'
loop_
 _atom_site_type_symbol
 _atom_site_label
 _atom_site_symmetry_multiplicity
 _atom_site_fract_x
 _atom_site_fract_y
 _atom_site_fract_z
 _atom_site_occupancy
  Tb  Tb0  1  0.866859  0.960156  0.750000  1
  Tb  Tb1  1  0.366859  0.539844  0.250000  1
  Er  Er2  1  0.670854  0.176154  0.064969  1
  Er  Er3  1  0.170854  0.323846  0.935031  1
  Er  Er4  1  0.832602  0.678567  0.438652  1
  Er  Er5  1  0.332602  0.821433  0.561348  1
  Er  Er6  1  0.332602  0.821433  0.938652  1
  Er  Er7  1  0.832602  0.678567  0.061348  1
  Er  Er8  1  0.170854  0.323846  0.564969  1
  Er  Er9  1  0.670854  0.176154  0.435031  1
  Er  Er10  1  0.630920  0.460894  0.750000  1
  Er  Er11  1  0.130920  0.039106  0.250000  1
  Tc  Tc12  1  0.039733  0.612470  0.750000  1
  Tc  Tc13  1  0.539733  0.887530  0.250000  1
  Rh  Rh14  1  0.455574  0.116349  0.750000  1
  Rh  Rh15  1  0.955574  0.383651  0.250000  1
