# generated using pymatgen
data_Ti4Nb6Ge6HC
_symmetry_space_group_name_H-M   'P 1'
_cell_length_a   7.66319800
_cell_length_b   7.66319961
_cell_length_c   5.24211300
_cell_angle_alpha   90.00000000
_cell_angle_beta   90.00000000
_cell_angle_gamma   119.99999305
_symmetry_Int_Tables_number   1
_chemical_formula_structural   Ti4Nb6Ge6HC
_chemical_formula_sum   'Ti4 Nb6 Ge6 H1 C1'
_cell_volume   266.59820778
_cell_formula_units_Z   1
loop_
 _symmetry_equiv_pos_site_id
 _symmetry_equiv_pos_as_xyz
  1  'x, y, z'
loop_
 _atom_site_type_symbol
 _atom_site_label
 _atom_site_symmetry_multiplicity
 _atom_site_fract_x
 _atom_site_fract_y
 _atom_site_fract_z
 _atom_site_occupancy
  Ti  Ti0  1  0.666667  0.333333  0.500000  1
  Ti  Ti1  1  0.333333  0.666667  0.500000  1
  Ti  Ti2  1  0.333333  0.666667  0.000000  1
  Ti  Ti3  1  0.666667  0.333333  0.000000  1
  Nb  Nb4  1  0.763079  0.763079  0.247954  1
  Nb  Nb5  1  0.236921  0.000000  0.247954  1
  Nb  Nb6  1  0.000000  0.236921  0.247954  1
  Nb  Nb7  1  0.236921  0.236921  0.752046  1
  Nb  Nb8  1  0.763079  0.000000  0.752046  1
  Nb  Nb9  1  0.000000  0.763079  0.752046  1
  Ge  Ge10  1  0.404418  0.404418  0.252822  1
  Ge  Ge11  1  0.595582  0.000000  0.252822  1
  Ge  Ge12  1  0.000000  0.595582  0.252822  1
  Ge  Ge13  1  0.595582  0.595582  0.747178  1
  Ge  Ge14  1  0.404418  0.000000  0.747178  1
  Ge  Ge15  1  0.000000  0.404418  0.747178  1
  H  H16  1  0.000000  0.000000  0.500000  1
  C  C17  1  0.000000  0.000000  0.000000  1
