# generated using pymatgen
data_Tb2HoIn3Hg2Ir
_symmetry_space_group_name_H-M   'P 1'
_cell_length_a   7.96964124
_cell_length_b   7.98963862
_cell_length_c   3.92564000
_cell_angle_alpha   90.00000000
_cell_angle_beta   90.00000000
_cell_angle_gamma   120.08167918
_symmetry_Int_Tables_number   1
_chemical_formula_structural   Tb2HoIn3Hg2Ir
_chemical_formula_sum   'Tb2 Ho1 In3 Hg2 Ir1'
_cell_volume   216.29624191
_cell_formula_units_Z   1
loop_
 _symmetry_equiv_pos_site_id
 _symmetry_equiv_pos_as_xyz
  1  'x, y, z'
loop_
 _atom_site_type_symbol
 _atom_site_label
 _atom_site_symmetry_multiplicity
 _atom_site_fract_x
 _atom_site_fract_y
 _atom_site_fract_z
 _atom_site_occupancy
  Tb  Tb0  1  0.580706  0.614456  0.000000  1
  Tb  Tb1  1  0.385142  0.966097  0.000000  1
  Ho  Ho2  1  0.036048  0.420480  0.000000  1
  In  In3  1  0.000793  0.725331  0.500000  1
  In  In4  1  0.273260  0.275319  0.500000  1
  In  In5  1  0.725096  0.998983  0.500000  1
  Hg  Hg6  1  0.000039  0.000361  0.000000  1
  Hg  Hg7  1  0.667419  0.333548  0.500000  1
  Ir  Ir8  1  0.331497  0.665425  0.500000  1
