# generated using pymatgen
data_Er5Sc5In8(AgPt)2
_symmetry_space_group_name_H-M   'P 1'
_cell_length_a   3.60099500
_cell_length_b   7.91985583
_cell_length_c   17.87426910
_cell_angle_alpha   90.10657957
_cell_angle_beta   90.00000000
_cell_angle_gamma   90.00000000
_symmetry_Int_Tables_number   1
_chemical_formula_structural   Er5Sc5In8(AgPt)2
_chemical_formula_sum   'Er5 Sc5 In8 Ag2 Pt2'
_cell_volume   509.76185573
_cell_formula_units_Z   1
loop_
 _symmetry_equiv_pos_site_id
 _symmetry_equiv_pos_as_xyz
  1  'x, y, z'
loop_
 _atom_site_type_symbol
 _atom_site_label
 _atom_site_symmetry_multiplicity
 _atom_site_fract_x
 _atom_site_fract_y
 _atom_site_fract_z
 _atom_site_occupancy
  Er  Er0  1  0.000000  0.253780  0.211933  1
  Er  Er1  1  0.000000  0.746220  0.788067  1
  Er  Er2  1  0.000000  0.276464  0.717411  1
  Er  Er3  1  0.000000  0.723536  0.282589  1
  Er  Er4  1  0.000000  0.000000  0.000000  1
  Sc  Sc5  1  0.000000  0.121569  0.423421  1
  Sc  Sc6  1  0.000000  0.878431  0.576579  1
  Sc  Sc7  1  0.000000  0.380523  0.914145  1
  Sc  Sc8  1  0.000000  0.619477  0.085855  1
  Sc  Sc9  1  0.000000  0.500000  0.500000  1
  In  In10  1  0.500000  0.409375  0.355654  1
  In  In11  1  0.500000  0.590625  0.644346  1
  In  In12  1  0.500000  0.084988  0.850371  1
  In  In13  1  0.500000  0.915012  0.149629  1
  In  In14  1  0.500000  0.307377  0.058057  1
  In  In15  1  0.500000  0.692623  0.941943  1
  In  In16  1  0.500000  0.206581  0.562657  1
  In  In17  1  0.500000  0.793419  0.437343  1
  Ag  Ag18  1  0.500000  0.031148  0.306746  1
  Ag  Ag19  1  0.500000  0.968852  0.693254  1
  Pt  Pt20  1  0.500000  0.469676  0.806427  1
  Pt  Pt21  1  0.500000  0.530324  0.193573  1
