# generated using pymatgen
data_Yb8Pr11YSn16
_symmetry_space_group_name_H-M   'P 1'
_cell_length_a   8.03655438
_cell_length_b   8.52817752
_cell_length_c   16.10198312
_cell_angle_alpha   90.05913766
_cell_angle_beta   89.95007094
_cell_angle_gamma   90.10750181
_symmetry_Int_Tables_number   1
_chemical_formula_structural   Yb8Pr11YSn16
_chemical_formula_sum   'Yb8 Pr11 Y1 Sn16'
_cell_volume   1103.58128537
_cell_formula_units_Z   1
loop_
 _symmetry_equiv_pos_site_id
 _symmetry_equiv_pos_as_xyz
  1  'x, y, z'
loop_
 _atom_site_type_symbol
 _atom_site_label
 _atom_site_symmetry_multiplicity
 _atom_site_fract_x
 _atom_site_fract_y
 _atom_site_fract_z
 _atom_site_occupancy
  Yb  Yb0  1  0.827867  0.669254  0.624096  1
  Yb  Yb1  1  0.669798  0.170573  0.376011  1
  Yb  Yb2  1  0.170501  0.329383  0.123119  1
  Yb  Yb3  1  0.669261  0.170198  0.123654  1
  Yb  Yb4  1  0.159140  0.498398  0.749814  1
  Yb  Yb5  1  0.661441  0.999986  0.749109  1
  Yb  Yb6  1  0.840075  0.497473  0.248790  1
  Yb  Yb7  1  0.341382  0.002023  0.248072  1
  Pr  Pr8  1  0.166566  0.326065  0.374439  1
  Pr  Pr9  1  0.331855  0.828648  0.625255  1
  Pr  Pr10  1  0.831325  0.672256  0.876854  1
  Pr  Pr11  1  0.492033  0.315936  0.904699  1
  Pr  Pr12  1  0.988501  0.184750  0.597066  1
  Pr  Pr13  1  0.511196  0.686254  0.402821  1
  Pr  Pr14  1  0.009549  0.814296  0.096568  1
  Pr  Pr15  1  0.510177  0.684985  0.096076  1
  Pr  Pr16  1  0.007531  0.816010  0.403582  1
  Pr  Pr17  1  0.492187  0.316527  0.596320  1
  Pr  Pr18  1  0.990356  0.184780  0.904600  1
  Y  Y19  1  0.329246  0.829760  0.876124  1
  Sn  Sn20  1  0.326768  0.034935  0.037286  1
  Sn  Sn21  1  0.827670  0.464879  0.460181  1
  Sn  Sn22  1  0.672126  0.964511  0.538694  1
  Sn  Sn23  1  0.176762  0.538109  0.960883  1
  Sn  Sn24  1  0.663940  0.964003  0.960867  1
  Sn  Sn25  1  0.167848  0.537149  0.538768  1
  Sn  Sn26  1  0.330150  0.037270  0.460808  1
  Sn  Sn27  1  0.831099  0.462010  0.040098  1
  Sn  Sn28  1  0.526833  0.609326  0.752097  1
  Sn  Sn29  1  0.030069  0.896637  0.752988  1
  Sn  Sn30  1  0.470641  0.395609  0.249148  1
  Sn  Sn31  1  0.968843  0.103213  0.248916  1
  Sn  Sn32  1  0.290506  0.137999  0.752152  1
  Sn  Sn33  1  0.787442  0.357033  0.750997  1
  Sn  Sn34  1  0.713647  0.859291  0.249176  1
  Sn  Sn35  1  0.215668  0.640474  0.249874  1
