# generated using pymatgen
data_Ac3La5(YbPb4)2
_symmetry_space_group_name_H-M   'P 1'
_cell_length_a   8.37116500
_cell_length_b   8.67697577
_cell_length_c   16.64914100
_cell_angle_alpha   90.04575356
_cell_angle_beta   90.00000000
_cell_angle_gamma   90.00000000
_symmetry_Int_Tables_number   1
_chemical_formula_structural   Ac3La5(YbPb4)2
_chemical_formula_sum   'Ac6 La10 Yb4 Pb16'
_cell_volume   1209.33321054
_cell_formula_units_Z   2
loop_
 _symmetry_equiv_pos_site_id
 _symmetry_equiv_pos_as_xyz
  1  'x, y, z'
loop_
 _atom_site_type_symbol
 _atom_site_label
 _atom_site_symmetry_multiplicity
 _atom_site_fract_x
 _atom_site_fract_y
 _atom_site_fract_z
 _atom_site_occupancy
  Ac  Ac0  1  0.500779  0.317261  0.093895  1
  Ac  Ac1  1  0.000779  0.182739  0.406105  1
  Ac  Ac2  1  0.502575  0.319693  0.405379  1
  Ac  Ac3  1  0.002575  0.180307  0.094621  1
  Ac  Ac4  1  0.497896  0.683396  0.904181  1
  Ac  Ac5  1  0.997896  0.816604  0.595819  1
  La  La6  1  0.654583  0.168690  0.625035  1
  La  La7  1  0.154583  0.331310  0.874965  1
  La  La8  1  0.347067  0.833632  0.122267  1
  La  La9  1  0.847067  0.666368  0.377733  1
  La  La10  1  0.346971  0.830990  0.376524  1
  La  La11  1  0.846971  0.669010  0.123476  1
  La  La12  1  0.653279  0.167305  0.876901  1
  La  La13  1  0.153279  0.332695  0.623099  1
  La  La14  1  0.498402  0.683264  0.597661  1
  La  La15  1  0.998402  0.816736  0.902339  1
  Yb  Yb16  1  0.821242  0.502815  0.750083  1
  Yb  Yb17  1  0.321242  0.997185  0.749917  1
  Yb  Yb18  1  0.179210  0.498522  0.250044  1
  Yb  Yb19  1  0.679210  0.001478  0.249956  1
  Pb  Pb20  1  0.681395  0.957440  0.462762  1
  Pb  Pb21  1  0.181395  0.542560  0.037238  1
  Pb  Pb22  1  0.307742  0.036524  0.958057  1
  Pb  Pb23  1  0.807742  0.463476  0.541943  1
  Pb  Pb24  1  0.319108  0.036187  0.541246  1
  Pb  Pb25  1  0.819108  0.463813  0.958754  1
  Pb  Pb26  1  0.688881  0.958161  0.037974  1
  Pb  Pb27  1  0.188881  0.541839  0.462026  1
  Pb  Pb28  1  0.458168  0.390257  0.748948  1
  Pb  Pb29  1  0.958168  0.109743  0.751052  1
  Pb  Pb30  1  0.542612  0.613619  0.249164  1
  Pb  Pb31  1  0.042612  0.886381  0.250836  1
  Pb  Pb32  1  0.692472  0.856629  0.749579  1
  Pb  Pb33  1  0.192472  0.643371  0.750421  1
  Pb  Pb34  1  0.307620  0.141185  0.249798  1
  Pb  Pb35  1  0.807620  0.358815  0.250202  1
