# generated using pymatgen
data_SrGdInS4
_symmetry_space_group_name_H-M   'P 1'
_cell_length_a   14.56168700
_cell_length_b   8.38916100
_cell_length_c   6.66318300
_cell_angle_alpha   89.99668762
_cell_angle_beta   89.99900156
_cell_angle_gamma   90.00008031
_symmetry_Int_Tables_number   1
_chemical_formula_structural   SrGdInS4
_chemical_formula_sum   'Sr4 Gd4 In4 S16'
_cell_volume   813.97667786
_cell_formula_units_Z   4
loop_
 _symmetry_equiv_pos_site_id
 _symmetry_equiv_pos_as_xyz
  1  'x, y, z'
loop_
 _atom_site_type_symbol
 _atom_site_label
 _atom_site_symmetry_multiplicity
 _atom_site_fract_x
 _atom_site_fract_y
 _atom_site_fract_z
 _atom_site_occupancy
  Sr  Sr0  1  0.729465  0.750000  0.010150  1
  Sr  Sr1  1  0.229467  0.749998  0.489851  1
  Sr  Sr2  1  0.770534  0.250002  0.510149  1
  Sr  Sr3  1  0.270535  0.250000  0.989850  1
  Gd  Gd4  1  0.000000  0.000000  0.000000  1
  Gd  Gd5  1  0.000000  0.499999  0.000000  1
  Gd  Gd6  1  0.500000  0.000000  0.500001  1
  Gd  Gd7  1  0.500000  0.499999  0.500001  1
  In  In8  1  0.588519  0.250003  0.089691  1
  In  In9  1  0.088518  0.249995  0.410311  1
  In  In10  1  0.911483  0.750005  0.589689  1
  In  In11  1  0.411481  0.749997  0.910307  1
  S  S12  1  0.917271  0.750011  0.221093  1
  S  S13  1  0.157786  0.016173  0.236483  1
  S  S14  1  0.157788  0.483819  0.236491  1
  S  S15  1  0.933396  0.249990  0.234441  1
  S  S16  1  0.433396  0.250005  0.265557  1
  S  S17  1  0.657786  0.016180  0.263510  1
  S  S18  1  0.657788  0.483824  0.263514  1
  S  S19  1  0.417270  0.749994  0.278907  1
  S  S20  1  0.582731  0.250006  0.721094  1
  S  S21  1  0.342211  0.516177  0.736487  1
  S  S22  1  0.342213  0.983819  0.736491  1
  S  S23  1  0.566605  0.749995  0.734445  1
  S  S24  1  0.066605  0.750010  0.765560  1
  S  S25  1  0.842212  0.516182  0.763509  1
  S  S26  1  0.842214  0.983826  0.763517  1
  S  S27  1  0.082729  0.249989  0.778907  1
