# generated using pymatgen
data_CsUS3
_symmetry_space_group_name_H-M   'P 1'
_cell_length_a   7.60513100
_cell_length_b   7.60512983
_cell_length_c   6.83915700
_cell_angle_alpha   90.00000000
_cell_angle_beta   90.00000000
_cell_angle_gamma   120.00000946
_symmetry_Int_Tables_number   1
_chemical_formula_structural   CsUS3
_chemical_formula_sum   'Cs2 U2 S6'
_cell_volume   342.56776583
_cell_formula_units_Z   2
loop_
 _symmetry_equiv_pos_site_id
 _symmetry_equiv_pos_as_xyz
  1  'x, y, z'
loop_
 _atom_site_type_symbol
 _atom_site_label
 _atom_site_symmetry_multiplicity
 _atom_site_fract_x
 _atom_site_fract_y
 _atom_site_fract_z
 _atom_site_occupancy
  Cs  Cs0  1  0.666667  0.333333  0.249748  1
  Cs  Cs1  1  0.333333  0.666667  0.749748  1
  U  U2  1  0.000000  0.000000  0.508960  1
  U  U3  1  0.000000  0.000000  0.008960  1
  S  S4  1  0.301830  0.150915  0.758330  1
  S  S5  1  0.849085  0.698170  0.758330  1
  S  S6  1  0.849085  0.150915  0.758330  1
  S  S7  1  0.698170  0.849085  0.258330  1
  S  S8  1  0.150915  0.301830  0.258330  1
  S  S9  1  0.150915  0.849085  0.258330  1
