# generated using pymatgen
data_Lu4Si2B4Ir7Ru3
_symmetry_space_group_name_H-M   'P 1'
_cell_length_a   9.50184354
_cell_length_b   9.48811554
_cell_length_c   3.04815300
_cell_angle_alpha   90.00000000
_cell_angle_beta   90.00000000
_cell_angle_gamma   89.96143459
_symmetry_Int_Tables_number   1
_chemical_formula_structural   Lu4Si2B4Ir7Ru3
_chemical_formula_sum   'Lu4 Si2 B4 Ir7 Ru3'
_cell_volume   274.80491961
_cell_formula_units_Z   1
loop_
 _symmetry_equiv_pos_site_id
 _symmetry_equiv_pos_as_xyz
  1  'x, y, z'
loop_
 _atom_site_type_symbol
 _atom_site_label
 _atom_site_symmetry_multiplicity
 _atom_site_fract_x
 _atom_site_fract_y
 _atom_site_fract_z
 _atom_site_occupancy
  Lu  Lu0  1  0.176047  0.669470  0.000000  1
  Lu  Lu1  1  0.673581  0.826075  0.000000  1
  Lu  Lu2  1  0.326148  0.177826  0.000000  1
  Lu  Lu3  1  0.826904  0.326193  0.000000  1
  Si  Si4  1  0.000221  0.000888  0.000000  1
  Si  Si5  1  0.493905  0.498565  0.000000  1
  B  B6  1  0.378507  0.878161  0.000000  1
  B  B7  1  0.877922  0.620660  0.000000  1
  B  B8  1  0.126168  0.380203  0.000000  1
  B  B9  1  0.621312  0.122732  0.000000  1
  Ir  Ir10  1  0.710810  0.569719  0.500000  1
  Ir  Ir11  1  0.571715  0.287518  0.500000  1
  Ir  Ir12  1  0.431186  0.713759  0.500000  1
  Ir  Ir13  1  0.930609  0.787750  0.500000  1
  Ir  Ir14  1  0.787799  0.068574  0.500000  1
  Ir  Ir15  1  0.211950  0.930101  0.500000  1
  Ir  Ir16  1  0.068335  0.211302  0.500000  1
  Ru  Ru17  1  0.998873  0.499504  0.500000  1
  Ru  Ru18  1  0.499735  0.000772  0.500000  1
  Ru  Ru19  1  0.288272  0.430227  0.500000  1
