# generated using pymatgen
data_InHg(Pt2Se3)2
_symmetry_space_group_name_H-M   'P 1'
_cell_length_a   7.58305200
_cell_length_b   7.58305192
_cell_length_c   5.36155900
_cell_angle_alpha   90.00000000
_cell_angle_beta   90.00000000
_cell_angle_gamma   120.00000908
_symmetry_Int_Tables_number   1
_chemical_formula_structural   InHg(Pt2Se3)2
_chemical_formula_sum   'In1 Hg1 Pt4 Se6'
_cell_volume   266.99906780
_cell_formula_units_Z   1
loop_
 _symmetry_equiv_pos_site_id
 _symmetry_equiv_pos_as_xyz
  1  'x, y, z'
loop_
 _atom_site_type_symbol
 _atom_site_label
 _atom_site_symmetry_multiplicity
 _atom_site_fract_x
 _atom_site_fract_y
 _atom_site_fract_z
 _atom_site_occupancy
  In  In0  1  0.333333  0.666667  0.663929  1
  Hg  Hg1  1  0.666667  0.333333  0.353068  1
  Pt  Pt2  1  0.000000  0.000000  0.003167  1
  Pt  Pt3  1  0.500316  0.499684  0.996038  1
  Pt  Pt4  1  0.999368  0.499684  0.996038  1
  Pt  Pt5  1  0.500316  0.000632  0.996038  1
  Se  Se6  1  0.829512  0.659023  0.764223  1
  Se  Se7  1  0.829512  0.170488  0.764223  1
  Se  Se8  1  0.340977  0.170488  0.764223  1
  Se  Se9  1  0.172588  0.345177  0.233018  1
  Se  Se10  1  0.172588  0.827412  0.233018  1
  Se  Se11  1  0.654823  0.827412  0.233018  1
