# generated using pymatgen
data_Pa3Co7(P3Ir)2
_symmetry_space_group_name_H-M   'P 1'
_cell_length_a   3.80552400
_cell_length_b   10.61429700
_cell_length_c   12.45630100
_cell_angle_alpha   90.00000000
_cell_angle_beta   90.00000000
_cell_angle_gamma   90.00000000
_symmetry_Int_Tables_number   1
_chemical_formula_structural   Pa3Co7(P3Ir)2
_chemical_formula_sum   'Pa6 Co14 P12 Ir4'
_cell_volume   503.14689266
_cell_formula_units_Z   2
loop_
 _symmetry_equiv_pos_site_id
 _symmetry_equiv_pos_as_xyz
  1  'x, y, z'
loop_
 _atom_site_type_symbol
 _atom_site_label
 _atom_site_symmetry_multiplicity
 _atom_site_fract_x
 _atom_site_fract_y
 _atom_site_fract_z
 _atom_site_occupancy
  Pa  Pa0  1  0.750000  0.250000  0.479091  1
  Pa  Pa1  1  0.250000  0.750000  0.520909  1
  Pa  Pa2  1  0.250000  0.936345  0.794964  1
  Pa  Pa3  1  0.250000  0.563655  0.794964  1
  Pa  Pa4  1  0.750000  0.063655  0.205036  1
  Pa  Pa5  1  0.750000  0.436345  0.205036  1
  Co  Co6  1  0.750000  0.250000  0.017162  1
  Co  Co7  1  0.250000  0.750000  0.982838  1
  Co  Co8  1  0.250000  0.417912  0.005642  1
  Co  Co9  1  0.250000  0.082088  0.005642  1
  Co  Co10  1  0.750000  0.582088  0.994358  1
  Co  Co11  1  0.750000  0.917912  0.994358  1
  Co  Co12  1  0.250000  0.445882  0.571011  1
  Co  Co13  1  0.250000  0.054118  0.571011  1
  Co  Co14  1  0.750000  0.554118  0.428989  1
  Co  Co15  1  0.750000  0.945882  0.428989  1
  Co  Co16  1  0.250000  0.871429  0.285176  1
  Co  Co17  1  0.250000  0.628571  0.285176  1
  Co  Co18  1  0.750000  0.128571  0.714824  1
  Co  Co19  1  0.750000  0.371429  0.714824  1
  P  P20  1  0.250000  0.250000  0.110542  1
  P  P21  1  0.750000  0.750000  0.889458  1
  P  P22  1  0.250000  0.250000  0.653510  1
  P  P23  1  0.750000  0.750000  0.346490  1
  P  P24  1  0.250000  0.450206  0.388978  1
  P  P25  1  0.250000  0.049794  0.388978  1
  P  P26  1  0.750000  0.549794  0.611022  1
  P  P27  1  0.750000  0.950206  0.611022  1
  P  P28  1  0.250000  0.904419  0.100845  1
  P  P29  1  0.250000  0.595581  0.100845  1
  P  P30  1  0.750000  0.095581  0.899155  1
  P  P31  1  0.750000  0.404419  0.899155  1
  Ir  Ir32  1  0.250000  0.250000  0.839996  1
  Ir  Ir33  1  0.750000  0.750000  0.160004  1
  Ir  Ir34  1  0.250000  0.250000  0.300155  1
  Ir  Ir35  1  0.750000  0.750000  0.699845  1
