# generated using pymatgen
data_Ho7TmSc12Si15Bi
_symmetry_space_group_name_H-M   'P 1'
_cell_length_a   7.15669257
_cell_length_b   7.40347406
_cell_length_c   14.04639664
_cell_angle_alpha   90.06089149
_cell_angle_beta   88.72589907
_cell_angle_gamma   90.19170409
_symmetry_Int_Tables_number   1
_chemical_formula_structural   Ho7TmSc12Si15Bi
_chemical_formula_sum   'Ho7 Tm1 Sc12 Si15 Bi1'
_cell_volume   744.05119431
_cell_formula_units_Z   1
loop_
 _symmetry_equiv_pos_site_id
 _symmetry_equiv_pos_as_xyz
  1  'x, y, z'
loop_
 _atom_site_type_symbol
 _atom_site_label
 _atom_site_symmetry_multiplicity
 _atom_site_fract_x
 _atom_site_fract_y
 _atom_site_fract_z
 _atom_site_occupancy
  Ho  Ho0  1  0.012159  0.176994  0.096421  1
  Ho  Ho1  1  0.988171  0.824344  0.904331  1
  Ho  Ho2  1  0.488790  0.675809  0.904472  1
  Ho  Ho3  1  0.992653  0.830983  0.598213  1
  Ho  Ho4  1  0.511597  0.324124  0.097204  1
  Ho  Ho5  1  0.999533  0.170131  0.399255  1
  Ho  Ho6  1  0.511554  0.316789  0.397594  1
  Tm  Tm7  1  0.512678  0.687377  0.601297  1
  Sc  Sc8  1  0.164510  0.501177  0.756043  1
  Sc  Sc9  1  0.834849  0.498684  0.251442  1
  Sc  Sc10  1  0.334907  0.001915  0.250250  1
  Sc  Sc11  1  0.666903  0.998480  0.751118  1
  Sc  Sc12  1  0.348995  0.155756  0.631803  1
  Sc  Sc13  1  0.658491  0.827079  0.372466  1
  Sc  Sc14  1  0.153946  0.683262  0.368873  1
  Sc  Sc15  1  0.667269  0.822660  0.123888  1
  Sc  Sc16  1  0.826784  0.326590  0.625865  1
  Sc  Sc17  1  0.330830  0.175610  0.875314  1
  Sc  Sc18  1  0.831359  0.323578  0.875606  1
  Sc  Sc19  1  0.168421  0.676580  0.124919  1
  Si  Si20  1  0.036241  0.118324  0.751294  1
  Si  Si21  1  0.961082  0.886118  0.245905  1
  Si  Si22  1  0.461419  0.615377  0.247568  1
  Si  Si23  1  0.535481  0.385939  0.752737  1
  Si  Si24  1  0.289257  0.866146  0.752810  1
  Si  Si25  1  0.711284  0.127153  0.246291  1
  Si  Si26  1  0.209911  0.372564  0.248864  1
  Si  Si27  1  0.792572  0.629409  0.751566  1
  Si  Si28  1  0.811507  0.541100  0.456955  1
  Si  Si29  1  0.329927  0.963220  0.460007  1
  Si  Si30  1  0.843277  0.534034  0.039862  1
  Si  Si31  1  0.671142  0.038096  0.538548  1
  Si  Si32  1  0.155862  0.465508  0.961455  1
  Si  Si33  1  0.655742  0.034405  0.960353  1
  Si  Si34  1  0.342867  0.966310  0.040100  1
  Bi  Bi35  1  0.188027  0.458379  0.539309  1
