# generated using pymatgen
data_Dy3Ho(ZrGa5)2
_symmetry_space_group_name_H-M   'P 1'
_cell_length_a   5.97249605
_cell_length_b   9.42881908
_cell_length_c   11.37565600
_cell_angle_alpha   90.00000000
_cell_angle_beta   90.00000000
_cell_angle_gamma   89.98509955
_symmetry_Int_Tables_number   1
_chemical_formula_structural   Dy3Ho(ZrGa5)2
_chemical_formula_sum   'Dy6 Ho2 Zr4 Ga20'
_cell_volume   640.60394617
_cell_formula_units_Z   2
loop_
 _symmetry_equiv_pos_site_id
 _symmetry_equiv_pos_as_xyz
  1  'x, y, z'
loop_
 _atom_site_type_symbol
 _atom_site_label
 _atom_site_symmetry_multiplicity
 _atom_site_fract_x
 _atom_site_fract_y
 _atom_site_fract_z
 _atom_site_occupancy
  Dy  Dy0  1  0.885279  0.506343  0.352426  1
  Dy  Dy1  1  0.614721  0.993657  0.852426  1
  Dy  Dy2  1  0.114600  0.006235  0.647456  1
  Dy  Dy3  1  0.385400  0.493765  0.147456  1
  Dy  Dy4  1  0.114500  0.493741  0.647603  1
  Dy  Dy5  1  0.385500  0.006259  0.147603  1
  Ho  Ho6  1  0.885384  0.993711  0.352476  1
  Ho  Ho7  1  0.614616  0.506289  0.852476  1
  Zr  Zr8  1  0.858082  0.749949  0.075521  1
  Zr  Zr9  1  0.641918  0.750051  0.575521  1
  Zr  Zr10  1  0.142195  0.249948  0.924437  1
  Zr  Zr11  1  0.357805  0.250052  0.424437  1
  Ga  Ga12  1  0.875067  0.053277  0.088778  1
  Ga  Ga13  1  0.624933  0.446723  0.588778  1
  Ga  Ga14  1  0.125135  0.553210  0.911372  1
  Ga  Ga15  1  0.374865  0.946790  0.411372  1
  Ga  Ga16  1  0.124940  0.946557  0.911459  1
  Ga  Ga17  1  0.375060  0.553443  0.411459  1
  Ga  Ga18  1  0.875048  0.446701  0.088405  1
  Ga  Ga19  1  0.624952  0.053299  0.588405  1
  Ga  Ga20  1  0.159804  0.750242  0.255308  1
  Ga  Ga21  1  0.340196  0.749758  0.755308  1
  Ga  Ga22  1  0.839792  0.250250  0.744946  1
  Ga  Ga23  1  0.660208  0.249750  0.244946  1
  Ga  Ga24  1  0.391894  0.749893  0.001224  1
  Ga  Ga25  1  0.108106  0.750107  0.501224  1
  Ga  Ga26  1  0.608583  0.250231  0.998400  1
  Ga  Ga27  1  0.891417  0.249769  0.498400  1
  Ga  Ga28  1  0.604250  0.750349  0.293422  1
  Ga  Ga29  1  0.895750  0.749651  0.793422  1
  Ga  Ga30  1  0.396150  0.250040  0.706767  1
  Ga  Ga31  1  0.103850  0.249960  0.206767  1
