# generated using pymatgen
data_TmSb5O13
_symmetry_space_group_name_H-M   'P 1'
_cell_length_a   7.40361300
_cell_length_b   7.33704014
_cell_length_c   10.30094134
_cell_angle_alpha   88.82035607
_cell_angle_beta   90.00000000
_cell_angle_gamma   90.00000000
_symmetry_Int_Tables_number   1
_chemical_formula_structural   TmSb5O13
_chemical_formula_sum   'Tm2 Sb10 O26'
_cell_volume   559.43478241
_cell_formula_units_Z   2
loop_
 _symmetry_equiv_pos_site_id
 _symmetry_equiv_pos_as_xyz
  1  'x, y, z'
loop_
 _atom_site_type_symbol
 _atom_site_label
 _atom_site_symmetry_multiplicity
 _atom_site_fract_x
 _atom_site_fract_y
 _atom_site_fract_z
 _atom_site_occupancy
  Tm  Tm0  1  0.500000  0.500000  0.000000  1
  Tm  Tm1  1  0.000000  0.500000  0.000000  1
  Sb  Sb2  1  0.250000  0.727520  0.733312  1
  Sb  Sb3  1  0.750000  0.272480  0.266688  1
  Sb  Sb4  1  0.500000  0.000000  0.000000  1
  Sb  Sb5  1  0.750000  0.756681  0.749607  1
  Sb  Sb6  1  0.250000  0.747230  0.251233  1
  Sb  Sb7  1  0.500000  0.500000  0.500000  1
  Sb  Sb8  1  0.000000  0.500000  0.500000  1
  Sb  Sb9  1  0.750000  0.252770  0.748767  1
  Sb  Sb10  1  0.250000  0.243319  0.250393  1
  Sb  Sb11  1  0.000000  0.000000  0.000000  1
  O  O12  1  0.448099  0.690599  0.371982  1
  O  O13  1  0.750000  0.457787  0.123884  1
  O  O14  1  0.250000  0.493702  0.158761  1
  O  O15  1  0.454654  0.309155  0.365632  1
  O  O16  1  0.556612  0.217829  0.885919  1
  O  O17  1  0.943388  0.217829  0.885919  1
  O  O18  1  0.449502  0.209595  0.120094  1
  O  O19  1  0.750000  0.999914  0.072934  1
  O  O20  1  0.250000  0.000086  0.927066  1
  O  O21  1  0.750000  0.004043  0.686370  1
  O  O22  1  0.550498  0.790405  0.879906  1
  O  O23  1  0.949502  0.790405  0.879906  1
  O  O24  1  0.443388  0.782171  0.114081  1
  O  O25  1  0.051901  0.690599  0.371982  1
  O  O26  1  0.545346  0.690845  0.634368  1
  O  O27  1  0.954654  0.690845  0.634368  1
  O  O28  1  0.250000  0.517880  0.581618  1
  O  O29  1  0.750000  0.506298  0.841239  1
  O  O30  1  0.750000  0.482120  0.418382  1
  O  O31  1  0.045346  0.309155  0.365632  1
  O  O32  1  0.551901  0.309401  0.628018  1
  O  O33  1  0.948099  0.309401  0.628018  1
  O  O34  1  0.050498  0.209595  0.120094  1
  O  O35  1  0.250000  0.995957  0.313630  1
  O  O36  1  0.056612  0.782171  0.114081  1
  O  O37  1  0.250000  0.542213  0.876116  1
