# generated using pymatgen
data_Zr6Zn16Cu3SiNi4
_symmetry_space_group_name_H-M   'P 1'
_cell_length_a   8.62907538
_cell_length_b   8.62349362
_cell_length_c   8.62907480
_cell_angle_alpha   60.02139301
_cell_angle_beta   59.95720451
_cell_angle_gamma   60.02139526
_symmetry_Int_Tables_number   1
_chemical_formula_structural   Zr6Zn16Cu3SiNi4
_chemical_formula_sum   'Zr6 Zn16 Cu3 Si1 Ni4'
_cell_volume   454.04234521
_cell_formula_units_Z   1
loop_
 _symmetry_equiv_pos_site_id
 _symmetry_equiv_pos_as_xyz
  1  'x, y, z'
loop_
 _atom_site_type_symbol
 _atom_site_label
 _atom_site_symmetry_multiplicity
 _atom_site_fract_x
 _atom_site_fract_y
 _atom_site_fract_z
 _atom_site_occupancy
  Zr  Zr0  1  0.714859  0.285141  0.285141  1
  Zr  Zr1  1  0.285141  0.714859  0.714859  1
  Zr  Zr2  1  0.286586  0.713414  0.286586  1
  Zr  Zr3  1  0.713414  0.286586  0.713414  1
  Zr  Zr4  1  0.285141  0.285141  0.714859  1
  Zr  Zr5  1  0.714859  0.714859  0.285141  1
  Zn  Zn6  1  0.124542  0.120929  0.124542  1
  Zn  Zn7  1  0.875458  0.879071  0.875458  1
  Zn  Zn8  1  0.120929  0.124542  0.629986  1
  Zn  Zn9  1  0.124542  0.629986  0.124542  1
  Zn  Zn10  1  0.879071  0.875458  0.370014  1
  Zn  Zn11  1  0.875458  0.370014  0.875458  1
  Zn  Zn12  1  0.629986  0.124542  0.120929  1
  Zn  Zn13  1  0.370014  0.875458  0.879071  1
  Zn  Zn14  1  0.335352  0.339028  0.335352  1
  Zn  Zn15  1  0.664648  0.660972  0.664648  1
  Zn  Zn16  1  0.339028  0.335352  0.990268  1
  Zn  Zn17  1  0.335352  0.990268  0.335352  1
  Zn  Zn18  1  0.660972  0.664648  0.009732  1
  Zn  Zn19  1  0.664648  0.009732  0.664648  1
  Zn  Zn20  1  0.990268  0.335352  0.339028  1
  Zn  Zn21  1  0.009732  0.664648  0.660972  1
  Cu  Cu22  1  0.000000  0.500000  0.000000  1
  Cu  Cu23  1  0.500000  0.000000  0.500000  1
  Cu  Cu24  1  0.000000  0.000000  0.000000  1
  Si  Si25  1  0.500000  0.500000  0.500000  1
  Ni  Ni26  1  0.500000  0.000000  0.000000  1
  Ni  Ni27  1  0.000000  0.500000  0.500000  1
  Ni  Ni28  1  0.000000  0.000000  0.500000  1
  Ni  Ni29  1  0.500000  0.500000  0.000000  1
