# generated using pymatgen
data_Er10In8PdAu3
_symmetry_space_group_name_H-M   'P 1'
_cell_length_a   3.63097600
_cell_length_b   8.15989779
_cell_length_c   18.26179453
_cell_angle_alpha   89.81291611
_cell_angle_beta   90.00000000
_cell_angle_gamma   90.00000000
_symmetry_Int_Tables_number   1
_chemical_formula_structural   Er10In8PdAu3
_chemical_formula_sum   'Er10 In8 Pd1 Au3'
_cell_volume   541.06474151
_cell_formula_units_Z   1
loop_
 _symmetry_equiv_pos_site_id
 _symmetry_equiv_pos_as_xyz
  1  'x, y, z'
loop_
 _atom_site_type_symbol
 _atom_site_label
 _atom_site_symmetry_multiplicity
 _atom_site_fract_x
 _atom_site_fract_y
 _atom_site_fract_z
 _atom_site_occupancy
  Er  Er0  1  0.000000  0.500021  0.499419  1
  Er  Er1  1  0.000000  0.999934  0.000463  1
  Er  Er2  1  0.000000  0.747197  0.282989  1
  Er  Er3  1  0.000000  0.263270  0.716792  1
  Er  Er4  1  0.000000  0.763325  0.782605  1
  Er  Er5  1  0.000000  0.231620  0.219639  1
  Er  Er6  1  0.000000  0.618718  0.080779  1
  Er  Er7  1  0.000000  0.381244  0.920741  1
  Er  Er8  1  0.000000  0.880209  0.578997  1
  Er  Er9  1  0.000000  0.115084  0.416757  1
  In  In10  1  0.500000  0.710826  0.934201  1
  In  In11  1  0.500000  0.289326  0.067205  1
  In  In12  1  0.500000  0.790907  0.432540  1
  In  In13  1  0.500000  0.210254  0.564623  1
  In  In14  1  0.500000  0.580527  0.646598  1
  In  In15  1  0.500000  0.416132  0.352349  1
  In  In16  1  0.500000  0.921463  0.148752  1
  In  In17  1  0.500000  0.081608  0.853022  1
  Pd  Pd18  1  0.500000  0.026619  0.303984  1
  Au  Au19  1  0.500000  0.526332  0.197883  1
  Au  Au20  1  0.500000  0.472801  0.803508  1
  Au  Au21  1  0.500000  0.972582  0.696153  1
