# generated using pymatgen
data_Ce7Th3(Sn3Os)2
_symmetry_space_group_name_H-M   'P 1'
_cell_length_a   6.32001900
_cell_length_b   9.65563699
_cell_length_c   9.65102514
_cell_angle_alpha   119.96986754
_cell_angle_beta   90.00090729
_cell_angle_gamma   89.99955637
_symmetry_Int_Tables_number   1
_chemical_formula_structural   Ce7Th3(Sn3Os)2
_chemical_formula_sum   'Ce7 Th3 Sn6 Os2'
_cell_volume   510.19380282
_cell_formula_units_Z   1
loop_
 _symmetry_equiv_pos_site_id
 _symmetry_equiv_pos_as_xyz
  1  'x, y, z'
loop_
 _atom_site_type_symbol
 _atom_site_label
 _atom_site_symmetry_multiplicity
 _atom_site_fract_x
 _atom_site_fract_y
 _atom_site_fract_z
 _atom_site_occupancy
  Ce  Ce0  1  0.250011  0.753554  0.999937  1
  Ce  Ce1  1  0.249992  0.246381  0.246361  1
  Ce  Ce2  1  0.249975  0.999978  0.753540  1
  Ce  Ce3  1  0.497360  0.333319  0.666691  1
  Ce  Ce4  1  0.497423  0.666699  0.333394  1
  Ce  Ce5  1  0.002597  0.666711  0.333409  1
  Ce  Ce6  1  0.002641  0.333309  0.666676  1
  Th  Th7  1  0.750016  0.245724  0.000027  1
  Th  Th8  1  0.750018  0.754311  0.754288  1
  Th  Th9  1  0.750013  0.999992  0.245725  1
  Sn  Sn10  1  0.750024  0.601875  0.000077  1
  Sn  Sn11  1  0.749987  0.398209  0.398195  1
  Sn  Sn12  1  0.749942  0.000001  0.601912  1
  Sn  Sn13  1  0.249997  0.396925  0.999990  1
  Sn  Sn14  1  0.250015  0.603101  0.603007  1
  Sn  Sn15  1  0.250002  0.999919  0.396930  1
  Os  Os16  1  0.493046  0.999996  0.999920  1
  Os  Os17  1  0.006944  0.999994  0.999921  1
