# generated using pymatgen
data_Tb2YEr(ReB6)2
_symmetry_space_group_name_H-M   'P 1'
_cell_length_a   3.68322700
_cell_length_b   9.17487510
_cell_length_c   11.56710013
_cell_angle_alpha   90.01711978
_cell_angle_beta   90.00000000
_cell_angle_gamma   90.00000000
_symmetry_Int_Tables_number   1
_chemical_formula_structural   Tb2YEr(ReB6)2
_chemical_formula_sum   'Tb4 Y2 Er2 Re4 B24'
_cell_volume   390.88870566
_cell_formula_units_Z   2
loop_
 _symmetry_equiv_pos_site_id
 _symmetry_equiv_pos_as_xyz
  1  'x, y, z'
loop_
 _atom_site_type_symbol
 _atom_site_label
 _atom_site_symmetry_multiplicity
 _atom_site_fract_x
 _atom_site_fract_y
 _atom_site_fract_z
 _atom_site_occupancy
  Tb  Tb0  1  0.000000  0.323790  0.413793  1
  Tb  Tb1  1  0.000000  0.676210  0.586207  1
  Tb  Tb2  1  0.000000  0.823353  0.085983  1
  Tb  Tb3  1  0.000000  0.176647  0.914017  1
  Y  Y4  1  0.000000  0.943245  0.369975  1
  Y  Y5  1  0.000000  0.056755  0.630025  1
  Er  Er6  1  0.000000  0.443260  0.129900  1
  Er  Er7  1  0.000000  0.556740  0.870100  1
  Re  Re8  1  0.000000  0.638220  0.320201  1
  Re  Re9  1  0.000000  0.361780  0.679799  1
  Re  Re10  1  0.000000  0.139488  0.179106  1
  Re  Re11  1  0.000000  0.860512  0.820894  1
  B  B12  1  0.500000  0.553455  0.432434  1
  B  B13  1  0.500000  0.446545  0.567566  1
  B  B14  1  0.500000  0.053740  0.067395  1
  B  B15  1  0.500000  0.946260  0.932605  1
  B  B16  1  0.500000  0.748780  0.418158  1
  B  B17  1  0.500000  0.251220  0.581842  1
  B  B18  1  0.500000  0.249847  0.081785  1
  B  B19  1  0.500000  0.750153  0.918215  1
  B  B20  1  0.500000  0.791603  0.265376  1
  B  B21  1  0.500000  0.208397  0.734624  1
  B  B22  1  0.500000  0.292619  0.234133  1
  B  B23  1  0.500000  0.707381  0.765867  1
  B  B24  1  0.500000  0.630304  0.185439  1
  B  B25  1  0.500000  0.369696  0.814561  1
  B  B26  1  0.500000  0.131308  0.313976  1
  B  B27  1  0.500000  0.868692  0.686024  1
  B  B28  1  0.500000  0.982876  0.211765  1
  B  B29  1  0.500000  0.017124  0.788235  1
  B  B30  1  0.500000  0.482429  0.287527  1
  B  B31  1  0.500000  0.517571  0.712473  1
  B  B32  1  0.500000  0.598765  0.027609  1
  B  B33  1  0.500000  0.401235  0.972391  1
  B  B34  1  0.500000  0.100163  0.472077  1
  B  B35  1  0.500000  0.899837  0.527923  1
