# generated using pymatgen
data_Ba3Si2Pt7
_symmetry_space_group_name_H-M   'P 1'
_cell_length_a   9.06644112
_cell_length_b   9.06644044
_cell_length_c   9.06644084
_cell_angle_alpha   37.62417180
_cell_angle_beta   37.62417451
_cell_angle_gamma   37.62417436
_symmetry_Int_Tables_number   1
_chemical_formula_structural   Ba3Si2Pt7
_chemical_formula_sum   'Ba3 Si2 Pt7'
_cell_volume   249.14854501
_cell_formula_units_Z   1
loop_
 _symmetry_equiv_pos_site_id
 _symmetry_equiv_pos_as_xyz
  1  'x, y, z'
loop_
 _atom_site_type_symbol
 _atom_site_label
 _atom_site_symmetry_multiplicity
 _atom_site_fract_x
 _atom_site_fract_y
 _atom_site_fract_z
 _atom_site_occupancy
  Ba  Ba0  1  0.356466  0.356466  0.356466  1
  Ba  Ba1  1  0.500000  0.500000  0.500000  1
  Ba  Ba2  1  0.643534  0.643534  0.643534  1
  Si  Si3  1  0.170350  0.170350  0.170350  1
  Si  Si4  1  0.829650  0.829650  0.829650  1
  Pt  Pt5  1  0.000000  0.000000  0.000000  1
  Pt  Pt6  1  0.578706  0.066176  0.066175  1
  Pt  Pt7  1  0.066176  0.578706  0.066175  1
  Pt  Pt8  1  0.933824  0.933824  0.421295  1
  Pt  Pt9  1  0.066176  0.066176  0.578705  1
  Pt  Pt10  1  0.933824  0.421294  0.933825  1
  Pt  Pt11  1  0.421294  0.933824  0.933825  1
