# generated using pymatgen
data_BaCeThSe5
_symmetry_space_group_name_H-M   'P 1'
_cell_length_a   8.00571500
_cell_length_b   8.90400210
_cell_length_c   12.69053963
_cell_angle_alpha   90.37259862
_cell_angle_beta   90.00000000
_cell_angle_gamma   90.00000000
_symmetry_Int_Tables_number   1
_chemical_formula_structural   BaCeThSe5
_chemical_formula_sum   'Ba4 Ce4 Th4 Se20'
_cell_volume   904.59937958
_cell_formula_units_Z   4
loop_
 _symmetry_equiv_pos_site_id
 _symmetry_equiv_pos_as_xyz
  1  'x, y, z'
loop_
 _atom_site_type_symbol
 _atom_site_label
 _atom_site_symmetry_multiplicity
 _atom_site_fract_x
 _atom_site_fract_y
 _atom_site_fract_z
 _atom_site_occupancy
  Ba  Ba0  1  0.958089  0.506101  0.829451  1
  Ba  Ba1  1  0.458089  0.493899  0.670549  1
  Ba  Ba2  1  0.041911  0.493899  0.170549  1
  Ba  Ba3  1  0.541911  0.506101  0.329451  1
  Ce  Ce4  1  0.570004  0.247063  0.008265  1
  Ce  Ce5  1  0.929996  0.247063  0.508265  1
  Ce  Ce6  1  0.429996  0.752937  0.991735  1
  Ce  Ce7  1  0.070004  0.752937  0.491735  1
  Th  Th8  1  0.520050  0.001850  0.319852  1
  Th  Th9  1  0.020050  0.998150  0.180148  1
  Th  Th10  1  0.479950  0.998150  0.680148  1
  Th  Th11  1  0.979950  0.001850  0.819852  1
  Se  Se12  1  0.839630  0.957160  0.599591  1
  Se  Se13  1  0.830754  0.782922  0.315214  1
  Se  Se14  1  0.669246  0.782922  0.815214  1
  Se  Se15  1  0.169246  0.217078  0.684786  1
  Se  Se16  1  0.547587  0.213039  0.502602  1
  Se  Se17  1  0.047587  0.786961  0.997398  1
  Se  Se18  1  0.452413  0.786961  0.497398  1
  Se  Se19  1  0.952413  0.213039  0.002602  1
  Se  Se20  1  0.194050  0.772797  0.713800  1
  Se  Se21  1  0.694050  0.227203  0.786200  1
  Se  Se22  1  0.805950  0.227203  0.286200  1
  Se  Se23  1  0.660370  0.957160  0.099591  1
  Se  Se24  1  0.832153  0.538923  0.579213  1
  Se  Se25  1  0.332153  0.461077  0.920787  1
  Se  Se26  1  0.167847  0.461077  0.420787  1
  Se  Se27  1  0.667847  0.538923  0.079213  1
  Se  Se28  1  0.305950  0.772797  0.213800  1
  Se  Se29  1  0.339630  0.042840  0.900409  1
  Se  Se30  1  0.160370  0.042840  0.400409  1
  Se  Se31  1  0.330754  0.217078  0.184786  1
