# generated using pymatgen
data_Nd6Tm(LuPb2)3
_symmetry_space_group_name_H-M   'P 1'
_cell_length_a   9.21836200
_cell_length_b   9.21836228
_cell_length_c   6.70038300
_cell_angle_alpha   90.00000000
_cell_angle_beta   90.00000000
_cell_angle_gamma   119.99999898
_symmetry_Int_Tables_number   1
_chemical_formula_structural   Nd6Tm(LuPb2)3
_chemical_formula_sum   'Nd6 Tm1 Lu3 Pb6'
_cell_volume   493.10317037
_cell_formula_units_Z   1
loop_
 _symmetry_equiv_pos_site_id
 _symmetry_equiv_pos_as_xyz
  1  'x, y, z'
loop_
 _atom_site_type_symbol
 _atom_site_label
 _atom_site_symmetry_multiplicity
 _atom_site_fract_x
 _atom_site_fract_y
 _atom_site_fract_z
 _atom_site_occupancy
  Nd  Nd0  1  0.759136  0.759187  0.749936  1
  Nd  Nd1  1  0.240813  0.999949  0.749936  1
  Nd  Nd2  1  0.000051  0.240864  0.749936  1
  Nd  Nd3  1  0.240813  0.240864  0.250064  1
  Nd  Nd4  1  0.759136  0.999949  0.250064  1
  Nd  Nd5  1  0.000051  0.759187  0.250064  1
  Tm  Tm6  1  0.666667  0.333333  0.000000  1
  Lu  Lu7  1  0.333333  0.666667  0.000000  1
  Lu  Lu8  1  0.333333  0.666667  0.500000  1
  Lu  Lu9  1  0.666667  0.333333  0.500000  1
  Pb  Pb10  1  0.398414  0.398747  0.749769  1
  Pb  Pb11  1  0.601253  0.999667  0.749769  1
  Pb  Pb12  1  0.000333  0.601586  0.749769  1
  Pb  Pb13  1  0.601253  0.601586  0.250231  1
  Pb  Pb14  1  0.398414  0.999667  0.250231  1
  Pb  Pb15  1  0.000333  0.398747  0.250231  1
