# generated using pymatgen
data_Dy3Y5(ErPb3)2
_symmetry_space_group_name_H-M   'P 1'
_cell_length_a   9.04853500
_cell_length_b   9.04993586
_cell_length_c   6.64172600
_cell_angle_alpha   90.00123082
_cell_angle_beta   89.99753164
_cell_angle_gamma   119.99487599
_symmetry_Int_Tables_number   1
_chemical_formula_structural   Dy3Y5(ErPb3)2
_chemical_formula_sum   'Dy3 Y5 Er2 Pb6'
_cell_volume   471.03999110
_cell_formula_units_Z   1
loop_
 _symmetry_equiv_pos_site_id
 _symmetry_equiv_pos_as_xyz
  1  'x, y, z'
loop_
 _atom_site_type_symbol
 _atom_site_label
 _atom_site_symmetry_multiplicity
 _atom_site_fract_x
 _atom_site_fract_y
 _atom_site_fract_z
 _atom_site_occupancy
  Dy  Dy0  1  0.761615  0.000000  0.750106  1
  Dy  Dy1  1  0.333352  0.666685  0.500007  1
  Dy  Dy2  1  0.666668  0.333315  0.500007  1
  Y  Y3  1  0.238286  0.238329  0.750109  1
  Y  Y4  1  0.238470  0.000000  0.249896  1
  Y  Y5  1  0.999958  0.761671  0.750109  1
  Y  Y6  1  0.761539  0.761654  0.249892  1
  Y  Y7  1  0.999885  0.238346  0.249892  1
  Er  Er8  1  0.333383  0.666708  0.999984  1
  Er  Er9  1  0.666676  0.333292  0.999984  1
  Pb  Pb10  1  0.999897  0.394637  0.750297  1
  Pb  Pb11  1  0.394789  0.394765  0.249708  1
  Pb  Pb12  1  0.605299  0.000000  0.249710  1
  Pb  Pb13  1  0.605260  0.605363  0.750297  1
  Pb  Pb14  1  0.394900  0.000000  0.750293  1
  Pb  Pb15  1  0.000023  0.605235  0.249708  1
