# generated using pymatgen
data_Sr8ZnTc3O16
_symmetry_space_group_name_H-M   'P 1'
_cell_length_a   5.54755345
_cell_length_b   8.95524050
_cell_length_c   8.95547700
_cell_angle_alpha   87.85268760
_cell_angle_beta   71.86868302
_cell_angle_gamma   108.13462577
_symmetry_Int_Tables_number   1
_chemical_formula_structural   Sr8ZnTc3O16
_chemical_formula_sum   'Sr8 Zn1 Tc3 O16'
_cell_volume   397.34234307
_cell_formula_units_Z   1
loop_
 _symmetry_equiv_pos_site_id
 _symmetry_equiv_pos_as_xyz
  1  'x, y, z'
loop_
 _atom_site_type_symbol
 _atom_site_label
 _atom_site_symmetry_multiplicity
 _atom_site_fract_x
 _atom_site_fract_y
 _atom_site_fract_z
 _atom_site_occupancy
  Sr  Sr0  1  0.259837  0.407062  0.887208  1
  Sr  Sr1  1  0.000018  0.646068  0.645857  1
  Sr  Sr2  1  0.740015  0.886911  0.407171  1
  Sr  Sr3  1  0.499986  0.149551  0.149556  1
  Sr  Sr4  1  0.000138  0.354145  0.353930  1
  Sr  Sr5  1  0.740147  0.592971  0.112921  1
  Sr  Sr6  1  0.499873  0.850300  0.850594  1
  Sr  Sr7  1  0.259975  0.112950  0.592800  1
  Zn  Zn8  1  0.499989  0.499991  0.500020  1
  Tc  Tc9  1  0.252586  0.752565  0.247492  1
  Tc  Tc10  1  0.999912  0.999940  0.000063  1
  Tc  Tc11  1  0.747689  0.247611  0.752326  1
  O  O12  1  0.251835  0.590668  0.088025  1
  O  O13  1  0.999750  0.838378  0.838865  1
  O  O14  1  0.748438  0.088272  0.590429  1
  O  O15  1  0.499762  0.332818  0.333071  1
  O  O16  1  0.000342  0.161681  0.161082  1
  O  O17  1  0.748071  0.409269  0.911977  1
  O  O18  1  0.500223  0.667198  0.666910  1
  O  O19  1  0.251486  0.911693  0.409657  1
  O  O20  1  0.877356  0.124865  0.874904  1
  O  O21  1  0.621078  0.367297  0.632861  1
  O  O22  1  0.378894  0.632704  0.367114  1
  O  O23  1  0.122633  0.875108  0.125123  1
  O  O24  1  0.376065  0.122550  0.877163  1
  O  O25  1  0.108640  0.369611  0.630628  1
  O  O26  1  0.891335  0.630396  0.369390  1
  O  O27  1  0.623922  0.877428  0.122862  1
