# generated using pymatgen
data_Pr2Dy3In3Pb
_symmetry_space_group_name_H-M   'P 1'
_cell_length_a   8.01238500
_cell_length_b   8.44192800
_cell_length_c   15.98495600
_cell_angle_alpha   90.00000000
_cell_angle_beta   90.00000000
_cell_angle_gamma   90.00000000
_symmetry_Int_Tables_number   1
_chemical_formula_structural   Pr2Dy3In3Pb
_chemical_formula_sum   'Pr8 Dy12 In12 Pb4'
_cell_volume   1081.22206063
_cell_formula_units_Z   4
loop_
 _symmetry_equiv_pos_site_id
 _symmetry_equiv_pos_as_xyz
  1  'x, y, z'
loop_
 _atom_site_type_symbol
 _atom_site_label
 _atom_site_symmetry_multiplicity
 _atom_site_fract_x
 _atom_site_fract_y
 _atom_site_fract_z
 _atom_site_occupancy
  Pr  Pr0  1  0.504354  0.682863  0.594972  1
  Pr  Pr1  1  0.004354  0.817137  0.905028  1
  Pr  Pr2  1  0.495646  0.317137  0.094972  1
  Pr  Pr3  1  0.995646  0.182863  0.405028  1
  Pr  Pr4  1  0.502866  0.318436  0.404688  1
  Pr  Pr5  1  0.002866  0.181564  0.095312  1
  Pr  Pr6  1  0.497134  0.681564  0.904688  1
  Pr  Pr7  1  0.997134  0.818436  0.595312  1
  Dy  Dy8  1  0.663340  0.167336  0.624494  1
  Dy  Dy9  1  0.163340  0.332664  0.875506  1
  Dy  Dy10  1  0.336660  0.832664  0.124494  1
  Dy  Dy11  1  0.836660  0.667336  0.375506  1
  Dy  Dy12  1  0.343302  0.830238  0.374871  1
  Dy  Dy13  1  0.843302  0.669762  0.125129  1
  Dy  Dy14  1  0.656698  0.169762  0.874871  1
  Dy  Dy15  1  0.156698  0.330238  0.625129  1
  Dy  Dy16  1  0.824039  0.503642  0.749293  1
  Dy  Dy17  1  0.324039  0.996358  0.750707  1
  Dy  Dy18  1  0.175961  0.496358  0.249293  1
  Dy  Dy19  1  0.675961  0.003642  0.250707  1
  In  In20  1  0.678653  0.961909  0.459052  1
  In  In21  1  0.178653  0.538091  0.040948  1
  In  In22  1  0.321347  0.038091  0.959052  1
  In  In23  1  0.821347  0.461909  0.540948  1
  In  In24  1  0.459672  0.386197  0.747221  1
  In  In25  1  0.959672  0.113803  0.752779  1
  In  In26  1  0.540328  0.613803  0.247221  1
  In  In27  1  0.040328  0.886197  0.252779  1
  In  In28  1  0.701069  0.865921  0.750816  1
  In  In29  1  0.201069  0.634079  0.749184  1
  In  In30  1  0.298931  0.134079  0.250816  1
  In  In31  1  0.798931  0.365921  0.249184  1
  Pb  Pb32  1  0.323215  0.037580  0.539190  1
  Pb  Pb33  1  0.823215  0.462420  0.960810  1
  Pb  Pb34  1  0.676785  0.962420  0.039190  1
  Pb  Pb35  1  0.176785  0.537580  0.460810  1
