# generated using pymatgen
data_Ce3HoLuIr3
_symmetry_space_group_name_H-M   'P 1'
_cell_length_a   6.50640700
_cell_length_b   8.18896521
_cell_length_c   8.19129500
_cell_angle_alpha   119.99223140
_cell_angle_beta   89.99911059
_cell_angle_gamma   90.00036764
_symmetry_Int_Tables_number   1
_chemical_formula_structural   Ce3HoLuIr3
_chemical_formula_sum   'Ce6 Ho2 Lu2 Ir6'
_cell_volume   377.99620804
_cell_formula_units_Z   2
loop_
 _symmetry_equiv_pos_site_id
 _symmetry_equiv_pos_as_xyz
  1  'x, y, z'
loop_
 _atom_site_type_symbol
 _atom_site_label
 _atom_site_symmetry_multiplicity
 _atom_site_fract_x
 _atom_site_fract_y
 _atom_site_fract_z
 _atom_site_occupancy
  Ce  Ce0  1  0.752817  0.254812  0.000031  1
  Ce  Ce1  1  0.752847  0.745427  0.745492  1
  Ce  Ce2  1  0.752800  0.999967  0.254643  1
  Ce  Ce3  1  0.247196  0.745112  0.000034  1
  Ce  Ce4  1  0.247157  0.254823  0.254828  1
  Ce  Ce5  1  0.247148  0.000028  0.745162  1
  Ho  Ho6  1  0.499996  0.333208  0.666512  1
  Ho  Ho7  1  0.499998  0.666729  0.333424  1
  Lu  Lu8  1  0.000009  0.666738  0.333364  1
  Lu  Lu9  1  0.999995  0.333257  0.666586  1
  Ir  Ir10  1  0.759413  0.616474  0.000135  1
  Ir  Ir11  1  0.759459  0.383436  0.383555  1
  Ir  Ir12  1  0.759447  0.000014  0.616273  1
  Ir  Ir13  1  0.240563  0.383556  0.000015  1
  Ir  Ir14  1  0.240579  0.616382  0.616356  1
  Ir  Ir15  1  0.240577  0.000034  0.383593  1
