# generated using pymatgen
data_Th8Cr3Si12Pd
_symmetry_space_group_name_H-M   'P 1'
_cell_length_a   8.30087900
_cell_length_b   8.30087954
_cell_length_c   8.30634500
_cell_angle_alpha   90.00000000
_cell_angle_beta   90.00000000
_cell_angle_gamma   119.99999386
_symmetry_Int_Tables_number   1
_chemical_formula_structural   Th8Cr3Si12Pd
_chemical_formula_sum   'Th8 Cr3 Si12 Pd1'
_cell_volume   495.66564514
_cell_formula_units_Z   1
loop_
 _symmetry_equiv_pos_site_id
 _symmetry_equiv_pos_as_xyz
  1  'x, y, z'
loop_
 _atom_site_type_symbol
 _atom_site_label
 _atom_site_symmetry_multiplicity
 _atom_site_fract_x
 _atom_site_fract_y
 _atom_site_fract_z
 _atom_site_occupancy
  Th  Th0  1  0.498824  0.501176  0.754352  1
  Th  Th1  1  0.499170  0.500830  0.245599  1
  Th  Th2  1  0.002350  0.501176  0.754352  1
  Th  Th3  1  0.001661  0.500830  0.245599  1
  Th  Th4  1  0.498824  0.997650  0.754352  1
  Th  Th5  1  0.499170  0.998339  0.245599  1
  Th  Th6  1  0.000000  0.000000  0.750523  1
  Th  Th7  1  0.000000  0.000000  0.249503  1
  Cr  Cr8  1  0.666667  0.333333  0.999738  1
  Cr  Cr9  1  0.333333  0.666667  0.000412  1
  Cr  Cr10  1  0.333333  0.666667  0.499666  1
  Si  Si11  1  0.832022  0.167978  0.999749  1
  Si  Si12  1  0.167804  0.832196  0.000212  1
  Si  Si13  1  0.335957  0.167978  0.999749  1
  Si  Si14  1  0.168083  0.831917  0.499756  1
  Si  Si15  1  0.664392  0.832196  0.000212  1
  Si  Si16  1  0.836062  0.163938  0.500257  1
  Si  Si17  1  0.832022  0.664043  0.999749  1
  Si  Si18  1  0.663832  0.831917  0.499756  1
  Si  Si19  1  0.167804  0.335608  0.000212  1
  Si  Si20  1  0.327876  0.163938  0.500257  1
  Si  Si21  1  0.168083  0.336168  0.499756  1
  Si  Si22  1  0.836062  0.672124  0.500257  1
  Pd  Pd23  1  0.666667  0.333333  0.500382  1
