# generated using pymatgen
data_Pr8Dy9Y3Si16
_symmetry_space_group_name_H-M   'P 1'
_cell_length_a   7.55526400
_cell_length_b   7.82801400
_cell_length_c   14.88296600
_cell_angle_alpha   90.00122694
_cell_angle_beta   89.99985101
_cell_angle_gamma   90.00113967
_symmetry_Int_Tables_number   1
_chemical_formula_structural   Pr8Dy9Y3Si16
_chemical_formula_sum   'Pr8 Dy9 Y3 Si16'
_cell_volume   880.21897710
_cell_formula_units_Z   1
loop_
 _symmetry_equiv_pos_site_id
 _symmetry_equiv_pos_as_xyz
  1  'x, y, z'
loop_
 _atom_site_type_symbol
 _atom_site_label
 _atom_site_symmetry_multiplicity
 _atom_site_fract_x
 _atom_site_fract_y
 _atom_site_fract_z
 _atom_site_occupancy
  Pr  Pr0  1  0.974693  0.819955  0.098050  1
  Pr  Pr1  1  0.474677  0.680046  0.401957  1
  Pr  Pr2  1  0.525368  0.319891  0.901900  1
  Pr  Pr3  1  0.025346  0.180107  0.598107  1
  Pr  Pr4  1  0.025364  0.180145  0.901897  1
  Pr  Pr5  1  0.525354  0.319885  0.598107  1
  Pr  Pr6  1  0.474675  0.680053  0.098053  1
  Pr  Pr7  1  0.974689  0.819947  0.401952  1
  Dy  Dy8  1  0.850951  0.489352  0.749978  1
  Dy  Dy9  1  0.350875  0.010641  0.749974  1
  Dy  Dy10  1  0.181326  0.678663  0.623189  1
  Dy  Dy11  1  0.818658  0.321389  0.123114  1
  Dy  Dy12  1  0.318649  0.178616  0.376892  1
  Dy  Dy13  1  0.318646  0.178618  0.123103  1
  Dy  Dy14  1  0.818645  0.321378  0.376893  1
  Dy  Dy15  1  0.181316  0.678666  0.876799  1
  Dy  Dy16  1  0.681330  0.821327  0.623193  1
  Y  Y17  1  0.649069  0.989413  0.250000  1
  Y  Y18  1  0.149072  0.510588  0.250005  1
  Y  Y19  1  0.681326  0.821381  0.876857  1
  Si  Si20  1  0.767262  0.620101  0.249996  1
  Si  Si21  1  0.267258  0.879903  0.250005  1
  Si  Si22  1  0.732717  0.120189  0.749968  1
  Si  Si23  1  0.232700  0.379855  0.750002  1
  Si  Si24  1  0.023994  0.110794  0.249998  1
  Si  Si25  1  0.524003  0.389199  0.249995  1
  Si  Si26  1  0.476004  0.610776  0.749955  1
  Si  Si27  1  0.976104  0.889182  0.749978  1
  Si  Si28  1  0.857199  0.530679  0.960070  1
  Si  Si29  1  0.357149  0.969206  0.539954  1
  Si  Si30  1  0.642821  0.030824  0.039976  1
  Si  Si31  1  0.142839  0.469205  0.460060  1
  Si  Si32  1  0.142827  0.469212  0.039936  1
  Si  Si33  1  0.642838  0.030792  0.460059  1
  Si  Si34  1  0.357102  0.969228  0.960072  1
  Si  Si35  1  0.857155  0.530795  0.539955  1
