# generated using pymatgen
data_RbTb5Dy(CBr6)2
_symmetry_space_group_name_H-M   'P 1'
_cell_length_a   8.92434829
_cell_length_b   8.89786046
_cell_length_c   9.43091440
_cell_angle_alpha   72.28205194
_cell_angle_beta   70.94006980
_cell_angle_gamma   72.80577723
_symmetry_Int_Tables_number   1
_chemical_formula_structural   RbTb5Dy(CBr6)2
_chemical_formula_sum   'Rb1 Tb5 Dy1 C2 Br12'
_cell_volume   658.04626363
_cell_formula_units_Z   1
loop_
 _symmetry_equiv_pos_site_id
 _symmetry_equiv_pos_as_xyz
  1  'x, y, z'
loop_
 _atom_site_type_symbol
 _atom_site_label
 _atom_site_symmetry_multiplicity
 _atom_site_fract_x
 _atom_site_fract_y
 _atom_site_fract_z
 _atom_site_occupancy
  Rb  Rb0  1  0.999962  0.500006  0.000005  1
  Tb  Tb1  1  0.474939  0.115861  0.182332  1
  Tb  Tb2  1  0.778300  0.032712  0.406677  1
  Tb  Tb3  1  0.593483  0.723913  0.475832  1
  Tb  Tb4  1  0.406524  0.276066  0.524229  1
  Tb  Tb5  1  0.221742  0.967247  0.593452  1
  Dy  Dy6  1  0.524942  0.884109  0.817053  1
  C  C7  1  0.493111  0.026104  0.423046  1
  C  C8  1  0.506920  0.973614  0.577622  1
  Br  Br9  1  0.798498  0.159142  0.082448  1
  Br  Br10  1  0.584988  0.784208  0.140280  1
  Br  Br11  1  0.351414  0.433020  0.223646  1
  Br  Br12  1  0.136006  0.069857  0.295916  1
  Br  Br13  1  0.923297  0.721577  0.354740  1
  Br  Br14  1  0.714191  0.365126  0.430884  1
  Br  Br15  1  0.285805  0.634907  0.569146  1
  Br  Br16  1  0.076670  0.278409  0.645252  1
  Br  Br17  1  0.863152  0.930000  0.704565  1
  Br  Br18  1  0.648126  0.568152  0.776743  1
  Br  Br19  1  0.415206  0.214925  0.858755  1
  Br  Br20  1  0.202725  0.841045  0.917380  1
