# generated using pymatgen
data_Sr10Fe(RuO5)4
_symmetry_space_group_name_H-M   'P 1'
_cell_length_a   8.91430880
_cell_length_b   8.91430846
_cell_length_c   8.91430889
_cell_angle_alpha   121.20416467
_cell_angle_beta   121.20416323
_cell_angle_gamma   87.92667917
_symmetry_Int_Tables_number   1
_chemical_formula_structural   Sr10Fe(RuO5)4
_chemical_formula_sum   'Sr10 Fe1 Ru4 O20'
_cell_volume   491.43033015
_cell_formula_units_Z   1
loop_
 _symmetry_equiv_pos_site_id
 _symmetry_equiv_pos_as_xyz
  1  'x, y, z'
loop_
 _atom_site_type_symbol
 _atom_site_label
 _atom_site_symmetry_multiplicity
 _atom_site_fract_x
 _atom_site_fract_y
 _atom_site_fract_z
 _atom_site_occupancy
  Sr  Sr0  1  0.755942  0.149111  0.197470  1
  Sr  Sr1  1  0.352228  0.352228  0.000000  1
  Sr  Sr2  1  0.951641  0.558471  0.802530  1
  Sr  Sr3  1  0.558471  0.755942  0.606830  1
  Sr  Sr4  1  0.149111  0.951641  0.393170  1
  Sr  Sr5  1  0.647772  0.647772  0.000000  1
  Sr  Sr6  1  0.244058  0.850889  0.802530  1
  Sr  Sr7  1  0.850889  0.048359  0.606830  1
  Sr  Sr8  1  0.441529  0.244058  0.393170  1
  Sr  Sr9  1  0.048359  0.441529  0.197470  1
  Fe  Fe10  1  0.000000  0.000000  0.000000  1
  Ru  Ru11  1  0.596478  0.200083  0.796561  1
  Ru  Ru12  1  0.200083  0.403522  0.603603  1
  Ru  Ru13  1  0.799917  0.596478  0.396397  1
  Ru  Ru14  1  0.403522  0.799917  0.203439  1
  O  O15  1  0.562391  0.962239  0.200516  1
  O  O16  1  0.162131  0.162131  0.000000  1
  O  O17  1  0.761722  0.361875  0.799484  1
  O  O18  1  0.361875  0.562391  0.600152  1
  O  O19  1  0.962239  0.761722  0.399848  1
  O  O20  1  0.837869  0.837869  0.000000  1
  O  O21  1  0.437609  0.037761  0.799484  1
  O  O22  1  0.037761  0.238278  0.600152  1
  O  O23  1  0.638125  0.437609  0.399848  1
  O  O24  1  0.238278  0.638125  0.200516  1
  O  O25  1  0.697577  0.396499  0.094076  1
  O  O26  1  0.302423  0.603501  0.905924  1
  O  O27  1  0.898896  0.796842  0.695739  1
  O  O28  1  0.500000  0.000000  0.500000  1
  O  O29  1  0.101104  0.203158  0.304261  1
  O  O30  1  0.000000  0.500000  0.500000  1
  O  O31  1  0.603501  0.697577  0.301079  1
  O  O32  1  0.203158  0.898896  0.102054  1
  O  O33  1  0.796842  0.101104  0.897946  1
  O  O34  1  0.396499  0.302423  0.698921  1
