# generated using pymatgen
data_K4Zr6BCl18
_symmetry_space_group_name_H-M   'P 1'
_cell_length_a   10.16232833
_cell_length_b   10.16232835
_cell_length_c   9.93486300
_cell_angle_alpha   77.53911321
_cell_angle_beta   77.53911895
_cell_angle_gamma   117.78403630
_symmetry_Int_Tables_number   1
_chemical_formula_structural   K4Zr6BCl18
_chemical_formula_sum   'K4 Zr6 B1 Cl18'
_cell_volume   824.76304379
_cell_formula_units_Z   1
loop_
 _symmetry_equiv_pos_site_id
 _symmetry_equiv_pos_as_xyz
  1  'x, y, z'
loop_
 _atom_site_type_symbol
 _atom_site_label
 _atom_site_symmetry_multiplicity
 _atom_site_fract_x
 _atom_site_fract_y
 _atom_site_fract_z
 _atom_site_occupancy
  K  K0  1  0.771829  0.447385  0.675067  1
  K  K1  1  0.552615  0.228171  0.324933  1
  K  K2  1  0.228171  0.552615  0.324933  1
  K  K3  1  0.447385  0.771829  0.675067  1
  Zr  Zr4  1  0.130827  0.130827  0.144672  1
  Zr  Zr5  1  0.869173  0.869173  0.855328  1
  Zr  Zr6  1  0.949986  0.757275  0.151707  1
  Zr  Zr7  1  0.242725  0.050014  0.848293  1
  Zr  Zr8  1  0.050014  0.242725  0.848293  1
  Zr  Zr9  1  0.757275  0.949986  0.151707  1
  B  B10  1  0.000000  0.000000  0.000000  1
  Cl  Cl11  1  0.801301  0.591307  0.011318  1
  Cl  Cl12  1  0.408694  0.198699  0.988682  1
  Cl  Cl13  1  0.198699  0.408694  0.988682  1
  Cl  Cl14  1  0.591306  0.801301  0.011318  1
  Cl  Cl15  1  0.210489  0.789511  0.000000  1
  Cl  Cl16  1  0.789511  0.210489  0.000000  1
  Cl  Cl17  1  0.322806  0.322806  0.670528  1
  Cl  Cl18  1  0.677194  0.677194  0.329472  1
  Cl  Cl19  1  0.887780  0.484440  0.332463  1
  Cl  Cl20  1  0.515560  0.112220  0.667537  1
  Cl  Cl21  1  0.112220  0.515560  0.667537  1
  Cl  Cl22  1  0.484440  0.887780  0.332463  1
  Cl  Cl23  1  0.277623  0.277623  0.300051  1
  Cl  Cl24  1  0.722377  0.722377  0.699949  1
  Cl  Cl25  1  0.083182  0.875784  0.322572  1
  Cl  Cl26  1  0.124216  0.916818  0.677428  1
  Cl  Cl27  1  0.916818  0.124216  0.677428  1
  Cl  Cl28  1  0.875784  0.083182  0.322572  1
