# generated using pymatgen
data_TbLu3Cr4F28
_symmetry_space_group_name_H-M   'P 1'
_cell_length_a   5.42375267
_cell_length_b   8.65650065
_cell_length_c   11.56489416
_cell_angle_alpha   63.10608665
_cell_angle_beta   90.08065298
_cell_angle_gamma   90.00057819
_symmetry_Int_Tables_number   1
_chemical_formula_structural   TbLu3Cr4F28
_chemical_formula_sum   'Tb1 Lu3 Cr4 F28'
_cell_volume   484.25379858
_cell_formula_units_Z   1
loop_
 _symmetry_equiv_pos_site_id
 _symmetry_equiv_pos_as_xyz
  1  'x, y, z'
loop_
 _atom_site_type_symbol
 _atom_site_label
 _atom_site_symmetry_multiplicity
 _atom_site_fract_x
 _atom_site_fract_y
 _atom_site_fract_z
 _atom_site_occupancy
  Tb  Tb0  1  0.234687  0.812533  0.765120  1
  Lu  Lu1  1  0.267335  0.812992  0.264422  1
  Lu  Lu2  1  0.732323  0.192214  0.734456  1
  Lu  Lu3  1  0.767379  0.187863  0.235499  1
  Cr  Cr4  1  0.758408  0.725233  0.046235  1
  Cr  Cr5  1  0.241661  0.271801  0.957751  1
  Cr  Cr6  1  0.258762  0.276296  0.455022  1
  Cr  Cr7  1  0.742955  0.725171  0.541046  1
  F  F8  1  0.937398  0.706624  0.418564  1
  F  F9  1  0.063794  0.293545  0.578017  1
  F  F10  1  0.437561  0.291679  0.079621  1
  F  F11  1  0.565895  0.705940  0.922644  1
  F  F12  1  0.473412  0.730238  0.139464  1
  F  F13  1  0.525702  0.269898  0.862714  1
  F  F14  1  0.974819  0.270311  0.360794  1
  F  F15  1  0.026431  0.727752  0.634306  1
  F  F16  1  0.952863  0.744680  0.171971  1
  F  F17  1  0.046286  0.253901  0.830862  1
  F  F18  1  0.453918  0.255937  0.329545  1
  F  F19  1  0.553572  0.742118  0.668551  1
  F  F20  1  0.766739  0.487038  0.140051  1
  F  F21  1  0.230334  0.508353  0.862751  1
  F  F22  1  0.268334  0.513385  0.360672  1
  F  F23  1  0.731581  0.487203  0.636991  1
  F  F24  1  0.950503  0.278831  0.047701  1
  F  F25  1  0.048511  0.716851  0.958619  1
  F  F26  1  0.449232  0.719904  0.452194  1
  F  F27  1  0.549809  0.281325  0.545834  1
  F  F28  1  0.741599  0.961991  0.451450  1
  F  F29  1  0.258654  0.039572  0.545323  1
  F  F30  1  0.241382  0.035429  0.048271  1
  F  F31  1  0.758517  0.961224  0.954069  1
  F  F32  1  0.586272  0.975427  0.227761  1
  F  F33  1  0.413938  0.033425  0.773053  1
  F  F34  1  0.086046  0.025064  0.272126  1
  F  F35  1  0.903388  0.978253  0.726527  1
