# generated using pymatgen
data_Hf7Zr3Sn6Sb
_symmetry_space_group_name_H-M   'P 1'
_cell_length_a   5.91374900
_cell_length_b   8.61036294
_cell_length_c   8.61044200
_cell_angle_alpha   119.99990074
_cell_angle_beta   90.00028484
_cell_angle_gamma   89.99936702
_symmetry_Int_Tables_number   1
_chemical_formula_structural   Hf7Zr3Sn6Sb
_chemical_formula_sum   'Hf7 Zr3 Sn6 Sb1'
_cell_volume   379.70022758
_cell_formula_units_Z   1
loop_
 _symmetry_equiv_pos_site_id
 _symmetry_equiv_pos_as_xyz
  1  'x, y, z'
loop_
 _atom_site_type_symbol
 _atom_site_label
 _atom_site_symmetry_multiplicity
 _atom_site_fract_x
 _atom_site_fract_y
 _atom_site_fract_z
 _atom_site_occupancy
  Hf  Hf0  1  0.500056  0.333336  0.666664  1
  Hf  Hf1  1  0.500057  0.666668  0.333334  1
  Hf  Hf2  1  0.998825  0.666669  0.333331  1
  Hf  Hf3  1  0.998824  0.333336  0.666665  1
  Hf  Hf4  1  0.773905  0.267534  0.000003  1
  Hf  Hf5  1  0.773897  0.732460  0.732463  1
  Hf  Hf6  1  0.773894  0.999999  0.267537  1
  Zr  Zr7  1  0.226001  0.735353  0.000002  1
  Zr  Zr8  1  0.226008  0.264646  0.264648  1
  Zr  Zr9  1  0.226013  0.999999  0.735350  1
  Sn  Sn10  1  0.742112  0.611041  0.999994  1
  Sn  Sn11  1  0.742116  0.388953  0.388954  1
  Sn  Sn12  1  0.742115  0.000006  0.611052  1
  Sn  Sn13  1  0.257470  0.389906  0.000000  1
  Sn  Sn14  1  0.257469  0.610094  0.610088  1
  Sn  Sn15  1  0.257465  0.000007  0.389914  1
  Sb  Sb16  1  0.503771  0.999998  0.999999  1
