# generated using pymatgen
data_CaNd3Al18CoPd5
_symmetry_space_group_name_H-M   'P 1'
_cell_length_a   7.66202735
_cell_length_b   7.65956065
_cell_length_c   9.59005856
_cell_angle_alpha   89.95562526
_cell_angle_beta   89.94486519
_cell_angle_gamma   119.36732310
_symmetry_Int_Tables_number   1
_chemical_formula_structural   CaNd3Al18CoPd5
_chemical_formula_sum   'Ca1 Nd3 Al18 Co1 Pd5'
_cell_volume   490.49252572
_cell_formula_units_Z   1
loop_
 _symmetry_equiv_pos_site_id
 _symmetry_equiv_pos_as_xyz
  1  'x, y, z'
loop_
 _atom_site_type_symbol
 _atom_site_label
 _atom_site_symmetry_multiplicity
 _atom_site_fract_x
 _atom_site_fract_y
 _atom_site_fract_z
 _atom_site_occupancy
  Ca  Ca0  1  0.002251  0.325487  0.750507  1
  Nd  Nd1  1  0.331210  0.008070  0.750316  1
  Nd  Nd2  1  0.992253  0.667636  0.249691  1
  Nd  Nd3  1  0.672780  0.997763  0.249464  1
  Al  Al4  1  0.657419  0.991229  0.926994  1
  Al  Al5  1  0.997483  0.663541  0.576548  1
  Al  Al6  1  0.135313  0.134184  0.248346  1
  Al  Al7  1  0.659581  0.666897  0.046588  1
  Al  Al8  1  0.334766  0.336833  0.556753  1
  Al  Al9  1  0.332342  0.340901  0.950810  1
  Al  Al10  1  0.663549  0.664557  0.445696  1
  Al  Al11  1  0.334135  0.989314  0.070697  1
  Al  Al12  1  0.005694  0.336243  0.426782  1
  Al  Al13  1  0.340269  0.552701  0.240506  1
  Al  Al14  1  0.011019  0.344286  0.069147  1
  Al  Al15  1  0.542292  0.339451  0.248492  1
  Al  Al16  1  0.658446  0.455297  0.751555  1
  Al  Al17  1  0.866793  0.864023  0.751793  1
  Al  Al18  1  0.011233  0.663816  0.926397  1
  Al  Al19  1  0.665282  0.996406  0.576899  1
  Al  Al20  1  0.334689  0.002685  0.426369  1
  Al  Al21  1  0.445907  0.660141  0.759356  1
  Co  Co22  1  0.331628  0.669931  0.000278  1
  Pd  Pd23  1  0.672155  0.328784  0.499468  1
  Pd  Pd24  1  0.672419  0.328554  0.000515  1
  Pd  Pd25  1  0.328889  0.671122  0.499829  1
  Pd  Pd26  1  0.000331  0.999820  0.000344  1
  Pd  Pd27  1  0.999874  0.000327  0.499860  1
