# generated using pymatgen
data_Y3ErPdPt3O14
_symmetry_space_group_name_H-M   'P 1'
_cell_length_a   7.25750070
_cell_length_b   7.25750138
_cell_length_c   7.26862005
_cell_angle_alpha   60.05059268
_cell_angle_beta   60.05060062
_cell_angle_gamma   60.00000653
_symmetry_Int_Tables_number   1
_chemical_formula_structural   Y3ErPdPt3O14
_chemical_formula_sum   'Y3 Er1 Pd1 Pt3 O14'
_cell_volume   270.92115358
_cell_formula_units_Z   1
loop_
 _symmetry_equiv_pos_site_id
 _symmetry_equiv_pos_as_xyz
  1  'x, y, z'
loop_
 _atom_site_type_symbol
 _atom_site_label
 _atom_site_symmetry_multiplicity
 _atom_site_fract_x
 _atom_site_fract_y
 _atom_site_fract_z
 _atom_site_occupancy
  Y  Y0  1  0.625000  0.625000  0.625000  1
  Y  Y1  1  0.625000  0.125000  0.625000  1
  Y  Y2  1  0.125000  0.625000  0.625000  1
  Er  Er3  1  0.625000  0.625000  0.125000  1
  Pd  Pd4  1  0.125000  0.125000  0.625000  1
  Pt  Pt5  1  0.625000  0.125000  0.125000  1
  Pt  Pt6  1  0.125000  0.125000  0.125000  1
  Pt  Pt7  1  0.125000  0.625000  0.125000  1
  O  O8  1  0.034697  0.466863  0.463745  1
  O  O9  1  0.783681  0.783681  0.214193  1
  O  O10  1  0.783681  0.218444  0.214193  1
  O  O11  1  0.748737  0.748737  0.753789  1
  O  O12  1  0.031556  0.466319  0.035807  1
  O  O13  1  0.466863  0.034697  0.463745  1
  O  O14  1  0.034697  0.034697  0.463745  1
  O  O15  1  0.501263  0.501263  0.496211  1
  O  O16  1  0.215303  0.215303  0.786255  1
  O  O17  1  0.218444  0.783681  0.214193  1
  O  O18  1  0.783137  0.215303  0.786255  1
  O  O19  1  0.466319  0.031556  0.035807  1
  O  O20  1  0.466319  0.466319  0.035807  1
  O  O21  1  0.215303  0.783137  0.786255  1
