# generated using pymatgen
data_SrNd(Si7Ir3)2
_symmetry_space_group_name_H-M   'P 1'
_cell_length_a   8.09934249
_cell_length_b   8.09934310
_cell_length_c   8.09934268
_cell_angle_alpha   56.70986516
_cell_angle_beta   56.70985334
_cell_angle_gamma   56.70986180
_symmetry_Int_Tables_number   1
_chemical_formula_structural   SrNd(Si7Ir3)2
_chemical_formula_sum   'Sr1 Nd1 Si14 Ir6'
_cell_volume   347.15233516
_cell_formula_units_Z   1
loop_
 _symmetry_equiv_pos_site_id
 _symmetry_equiv_pos_as_xyz
  1  'x, y, z'
loop_
 _atom_site_type_symbol
 _atom_site_label
 _atom_site_symmetry_multiplicity
 _atom_site_fract_x
 _atom_site_fract_y
 _atom_site_fract_z
 _atom_site_occupancy
  Sr  Sr0  1  0.500000  0.500000  0.500000  1
  Nd  Nd1  1  0.000000  0.000000  0.000000  1
  Si  Si2  1  0.064154  0.850142  0.672642  1
  Si  Si3  1  0.672642  0.064154  0.850142  1
  Si  Si4  1  0.850142  0.672642  0.064154  1
  Si  Si5  1  0.173393  0.350896  0.563967  1
  Si  Si6  1  0.563967  0.173393  0.350896  1
  Si  Si7  1  0.350896  0.563967  0.173393  1
  Si  Si8  1  0.935846  0.149858  0.327358  1
  Si  Si9  1  0.327358  0.935846  0.149858  1
  Si  Si10  1  0.149858  0.327358  0.935846  1
  Si  Si11  1  0.826607  0.649104  0.436033  1
  Si  Si12  1  0.436033  0.826607  0.649104  1
  Si  Si13  1  0.649104  0.436033  0.826607  1
  Si  Si14  1  0.750069  0.750069  0.750069  1
  Si  Si15  1  0.249931  0.249931  0.249931  1
  Ir  Ir16  1  0.066044  0.751891  0.430299  1
  Ir  Ir17  1  0.430299  0.066044  0.751891  1
  Ir  Ir18  1  0.751891  0.430299  0.066044  1
  Ir  Ir19  1  0.933956  0.248109  0.569701  1
  Ir  Ir20  1  0.569701  0.933956  0.248109  1
  Ir  Ir21  1  0.248109  0.569701  0.933956  1
