# generated using pymatgen
data_Yb2ScPtO6
_symmetry_space_group_name_H-M   'P 1'
_cell_length_a   5.65050700
_cell_length_b   5.43221182
_cell_length_c   9.52553015
_cell_angle_alpha   54.77193910
_cell_angle_beta   90.00000000
_cell_angle_gamma   90.00000000
_symmetry_Int_Tables_number   1
_chemical_formula_structural   Yb2ScPtO6
_chemical_formula_sum   'Yb4 Sc2 Pt2 O12'
_cell_volume   238.83733857
_cell_formula_units_Z   2
loop_
 _symmetry_equiv_pos_site_id
 _symmetry_equiv_pos_as_xyz
  1  'x, y, z'
loop_
 _atom_site_type_symbol
 _atom_site_label
 _atom_site_symmetry_multiplicity
 _atom_site_fract_x
 _atom_site_fract_y
 _atom_site_fract_z
 _atom_site_occupancy
  Yb  Yb0  1  0.438321  0.232619  0.749931  1
  Yb  Yb1  1  0.561679  0.767381  0.250069  1
  Yb  Yb2  1  0.938321  0.767381  0.750069  1
  Yb  Yb3  1  0.061679  0.232619  0.249931  1
  Sc  Sc4  1  0.000000  0.000000  0.000000  1
  Sc  Sc5  1  0.500000  0.000000  0.500000  1
  Pt  Pt6  1  0.000000  0.500000  0.500000  1
  Pt  Pt7  1  0.500000  0.500000  0.000000  1
  O  O8  1  0.036854  0.361841  0.744117  1
  O  O9  1  0.963146  0.638159  0.255883  1
  O  O10  1  0.536854  0.638159  0.755883  1
  O  O11  1  0.463146  0.361841  0.244117  1
  O  O12  1  0.696326  0.852602  0.944617  1
  O  O13  1  0.303674  0.147398  0.055383  1
  O  O14  1  0.196326  0.147398  0.555383  1
  O  O15  1  0.803674  0.852602  0.444617  1
  O  O16  1  0.204969  0.744753  0.944586  1
  O  O17  1  0.795031  0.255247  0.055414  1
  O  O18  1  0.704969  0.255247  0.555414  1
  O  O19  1  0.295031  0.744753  0.444586  1
