# generated using pymatgen
data_Dy2Tm3In2Bi
_symmetry_space_group_name_H-M   'P 1'
_cell_length_a   6.54981500
_cell_length_b   8.98082342
_cell_length_c   8.98498400
_cell_angle_alpha   120.01357632
_cell_angle_beta   89.99954733
_cell_angle_gamma   89.99983329
_symmetry_Int_Tables_number   1
_chemical_formula_structural   Dy2Tm3In2Bi
_chemical_formula_sum   'Dy4 Tm6 In4 Bi2'
_cell_volume   457.65024711
_cell_formula_units_Z   2
loop_
 _symmetry_equiv_pos_site_id
 _symmetry_equiv_pos_as_xyz
  1  'x, y, z'
loop_
 _atom_site_type_symbol
 _atom_site_label
 _atom_site_symmetry_multiplicity
 _atom_site_fract_x
 _atom_site_fract_y
 _atom_site_fract_z
 _atom_site_occupancy
  Dy  Dy0  1  0.749998  0.228699  0.990844  1
  Dy  Dy1  1  0.749997  0.771169  0.762097  1
  Dy  Dy2  1  0.250000  0.764539  0.000471  1
  Dy  Dy3  1  0.249998  0.235574  0.236002  1
  Tm  Tm4  1  0.493017  0.328673  0.667275  1
  Tm  Tm5  1  0.493007  0.671333  0.338599  1
  Tm  Tm6  1  0.006992  0.671326  0.338594  1
  Tm  Tm7  1  0.006980  0.328675  0.667279  1
  Tm  Tm8  1  0.749999  0.999972  0.239984  1
  Tm  Tm9  1  0.249998  0.000035  0.762356  1
  In  In10  1  0.750003  0.999975  0.595336  1
  In  In11  1  0.250017  0.397411  0.002428  1
  In  In12  1  0.249998  0.602630  0.605032  1
  In  In13  1  0.249994  0.000058  0.398381  1
  Bi  Bi14  1  0.750001  0.604110  0.999760  1
  Bi  Bi15  1  0.750000  0.395821  0.395565  1
