# generated using pymatgen
data_Ce6CuSb8Pt2Rh3
_symmetry_space_group_name_H-M   'P 1'
_cell_length_a   8.47756868
_cell_length_b   8.47054704
_cell_length_c   8.47303385
_cell_angle_alpha   109.34087518
_cell_angle_beta   109.25488006
_cell_angle_gamma   109.78984217
_symmetry_Int_Tables_number   1
_chemical_formula_structural   Ce6CuSb8Pt2Rh3
_chemical_formula_sum   'Ce6 Cu1 Sb8 Pt2 Rh3'
_cell_volume   468.53490986
_cell_formula_units_Z   1
loop_
 _symmetry_equiv_pos_site_id
 _symmetry_equiv_pos_as_xyz
  1  'x, y, z'
loop_
 _atom_site_type_symbol
 _atom_site_label
 _atom_site_symmetry_multiplicity
 _atom_site_fract_x
 _atom_site_fract_y
 _atom_site_fract_z
 _atom_site_occupancy
  Ce  Ce0  1  0.879640  0.256400  0.130980  1
  Ce  Ce1  1  0.620117  0.747603  0.373083  1
  Ce  Ce2  1  0.251955  0.122257  0.873666  1
  Ce  Ce3  1  0.748620  0.378419  0.626275  1
  Ce  Ce4  1  0.128156  0.874220  0.250438  1
  Ce  Ce5  1  0.371438  0.621877  0.746013  1
  Cu  Cu6  1  0.874816  0.125232  0.750798  1
  Sb  Sb7  1  0.667379  0.496799  0.995684  1
  Sb  Sb8  1  0.506534  0.005121  0.669109  1
  Sb  Sb9  1  0.002797  0.672042  0.502741  1
  Sb  Sb10  1  0.837785  0.837799  0.830346  1
  Sb  Sb11  1  0.497296  0.998209  0.167637  1
  Sb  Sb12  1  0.162870  0.493689  0.998357  1
  Sb  Sb13  1  0.997530  0.165285  0.504746  1
  Sb  Sb14  1  0.328027  0.330103  0.330499  1
  Pt  Pt15  1  0.749349  0.874906  0.123102  1
  Pt  Pt16  1  0.625561  0.376321  0.250614  1
  Rh  Rh17  1  0.372727  0.250070  0.624646  1
  Rh  Rh18  1  0.125083  0.747115  0.874154  1
  Rh  Rh19  1  0.252319  0.626532  0.377111  1
