# generated using pymatgen
data_La5Tl2Ga
_symmetry_space_group_name_H-M   'P 1'
_cell_length_a   9.52406787
_cell_length_b   9.52406766
_cell_length_c   9.52406800
_cell_angle_alpha   96.22324852
_cell_angle_beta   96.22325444
_cell_angle_gamma   141.55399861
_symmetry_Int_Tables_number   1
_chemical_formula_structural   La5Tl2Ga
_chemical_formula_sum   'La10 Tl4 Ga2'
_cell_volume   507.20822562
_cell_formula_units_Z   2
loop_
 _symmetry_equiv_pos_site_id
 _symmetry_equiv_pos_as_xyz
  1  'x, y, z'
loop_
 _atom_site_type_symbol
 _atom_site_label
 _atom_site_symmetry_multiplicity
 _atom_site_fract_x
 _atom_site_fract_y
 _atom_site_fract_z
 _atom_site_occupancy
  La  La0  1  0.750000  0.250000  0.500000  1
  La  La1  1  0.250000  0.750000  0.500000  1
  La  La2  1  0.916547  0.212957  0.129505  1
  La  La3  1  0.212957  0.083453  0.296410  1
  La  La4  1  0.787043  0.916547  0.703590  1
  La  La5  1  0.083453  0.787043  0.870495  1
  La  La6  1  0.712957  0.416547  0.129505  1
  La  La7  1  0.287043  0.583453  0.870495  1
  La  La8  1  0.583453  0.712957  0.296410  1
  La  La9  1  0.416547  0.287043  0.703590  1
  Tl  Tl10  1  0.838718  0.661282  0.500000  1
  Tl  Tl11  1  0.661282  0.161282  0.822564  1
  Tl  Tl12  1  0.338718  0.838718  0.177436  1
  Tl  Tl13  1  0.161282  0.338718  0.500000  1
  Ga  Ga14  1  0.750000  0.750000  0.000000  1
  Ga  Ga15  1  0.250000  0.250000  0.000000  1
