# generated using pymatgen
data_La8Si12PdAu3
_symmetry_space_group_name_H-M   'P 1'
_cell_length_a   8.35654300
_cell_length_b   8.35654279
_cell_length_c   8.89010800
_cell_angle_alpha   90.00000000
_cell_angle_beta   90.00000000
_cell_angle_gamma   120.00000477
_symmetry_Int_Tables_number   1
_chemical_formula_structural   La8Si12PdAu3
_chemical_formula_sum   'La8 Si12 Pd1 Au3'
_cell_volume   537.63921908
_cell_formula_units_Z   1
loop_
 _symmetry_equiv_pos_site_id
 _symmetry_equiv_pos_as_xyz
  1  'x, y, z'
loop_
 _atom_site_type_symbol
 _atom_site_label
 _atom_site_symmetry_multiplicity
 _atom_site_fract_x
 _atom_site_fract_y
 _atom_site_fract_z
 _atom_site_occupancy
  La  La0  1  0.500634  0.499366  0.747789  1
  La  La1  1  0.501015  0.498985  0.252092  1
  La  La2  1  0.998732  0.499366  0.747789  1
  La  La3  1  0.997969  0.498985  0.252092  1
  La  La4  1  0.500634  0.001268  0.747789  1
  La  La5  1  0.501015  0.002031  0.252092  1
  La  La6  1  0.000000  0.000000  0.748578  1
  La  La7  1  0.000000  0.000000  0.251674  1
  Si  Si8  1  0.836871  0.163129  0.001059  1
  Si  Si9  1  0.163663  0.836337  0.998978  1
  Si  Si10  1  0.326257  0.163129  0.001059  1
  Si  Si11  1  0.162076  0.837924  0.499604  1
  Si  Si12  1  0.672675  0.836337  0.998978  1
  Si  Si13  1  0.833368  0.166632  0.500621  1
  Si  Si14  1  0.836871  0.673743  0.001059  1
  Si  Si15  1  0.675849  0.837924  0.499604  1
  Si  Si16  1  0.163663  0.327325  0.998978  1
  Si  Si17  1  0.333264  0.166632  0.500621  1
  Si  Si18  1  0.162076  0.324151  0.499604  1
  Si  Si19  1  0.833368  0.666736  0.500621  1
  Pd  Pd20  1  0.666667  0.333333  0.500218  1
  Au  Au21  1  0.666667  0.333333  0.998594  1
  Au  Au22  1  0.333333  0.666667  0.001142  1
  Au  Au23  1  0.333333  0.666667  0.499367  1
