# generated using pymatgen
data_La2Ce2HoPb4
_symmetry_space_group_name_H-M   'P 1'
_cell_length_a   8.37346000
_cell_length_b   8.51277200
_cell_length_c   16.20348100
_cell_angle_alpha   90.00000000
_cell_angle_beta   90.00000000
_cell_angle_gamma   90.00000000
_symmetry_Int_Tables_number   1
_chemical_formula_structural   La2Ce2HoPb4
_chemical_formula_sum   'La8 Ce8 Ho4 Pb16'
_cell_volume   1155.00609486
_cell_formula_units_Z   4
loop_
 _symmetry_equiv_pos_site_id
 _symmetry_equiv_pos_as_xyz
  1  'x, y, z'
loop_
 _atom_site_type_symbol
 _atom_site_label
 _atom_site_symmetry_multiplicity
 _atom_site_fract_x
 _atom_site_fract_y
 _atom_site_fract_z
 _atom_site_occupancy
  La  La0  1  0.476552  0.679298  0.597222  1
  La  La1  1  0.976552  0.820702  0.902778  1
  La  La2  1  0.523448  0.320702  0.097222  1
  La  La3  1  0.023448  0.179298  0.402778  1
  La  La4  1  0.523448  0.320702  0.402778  1
  La  La5  1  0.023448  0.179298  0.097222  1
  La  La6  1  0.476552  0.679298  0.902778  1
  La  La7  1  0.976552  0.820702  0.597222  1
  Ce  Ce8  1  0.633066  0.156302  0.619619  1
  Ce  Ce9  1  0.133066  0.343698  0.880381  1
  Ce  Ce10  1  0.366934  0.843698  0.119619  1
  Ce  Ce11  1  0.866934  0.656302  0.380381  1
  Ce  Ce12  1  0.366934  0.843698  0.380381  1
  Ce  Ce13  1  0.866934  0.656302  0.119619  1
  Ce  Ce14  1  0.633066  0.156302  0.880381  1
  Ce  Ce15  1  0.133066  0.343698  0.619619  1
  Ho  Ho16  1  0.800086  0.495474  0.750000  1
  Ho  Ho17  1  0.300086  0.004526  0.750000  1
  Ho  Ho18  1  0.199914  0.504526  0.250000  1
  Ho  Ho19  1  0.699914  0.995474  0.250000  1
  Pb  Pb20  1  0.708622  0.962917  0.454302  1
  Pb  Pb21  1  0.208622  0.537083  0.045698  1
  Pb  Pb22  1  0.291378  0.037083  0.954302  1
  Pb  Pb23  1  0.791378  0.462917  0.545698  1
  Pb  Pb24  1  0.291378  0.037083  0.545698  1
  Pb  Pb25  1  0.791378  0.462917  0.954302  1
  Pb  Pb26  1  0.708622  0.962917  0.045698  1
  Pb  Pb27  1  0.208622  0.537083  0.454302  1
  Pb  Pb28  1  0.438787  0.373978  0.750000  1
  Pb  Pb29  1  0.938787  0.126022  0.750000  1
  Pb  Pb30  1  0.561213  0.626022  0.250000  1
  Pb  Pb31  1  0.061213  0.873978  0.250000  1
  Pb  Pb32  1  0.667756  0.849254  0.750000  1
  Pb  Pb33  1  0.167756  0.650746  0.750000  1
  Pb  Pb34  1  0.332244  0.150746  0.250000  1
  Pb  Pb35  1  0.832244  0.349254  0.250000  1
