# generated using pymatgen
data_ThReSiWC
_symmetry_space_group_name_H-M   'P 1'
_cell_length_a   5.94655108
_cell_length_b   5.94655153
_cell_length_c   7.44914677
_cell_angle_alpha   88.34810469
_cell_angle_beta   91.65189428
_cell_angle_gamma   140.06000682
_symmetry_Int_Tables_number   1
_chemical_formula_structural   ThReSiWC
_chemical_formula_sum   'Th2 Re2 Si2 W2 C2'
_cell_volume   169.02749604
_cell_formula_units_Z   2
loop_
 _symmetry_equiv_pos_site_id
 _symmetry_equiv_pos_as_xyz
  1  'x, y, z'
loop_
 _atom_site_type_symbol
 _atom_site_label
 _atom_site_symmetry_multiplicity
 _atom_site_fract_x
 _atom_site_fract_y
 _atom_site_fract_z
 _atom_site_occupancy
  Th  Th0  1  0.541952  0.458048  0.252935  1
  Th  Th1  1  0.458048  0.541952  0.747065  1
  Re  Re2  1  0.168685  0.831315  0.567952  1
  Re  Re3  1  0.831315  0.168685  0.432048  1
  Si  Si4  1  0.263910  0.736090  0.270652  1
  Si  Si5  1  0.736090  0.263910  0.729348  1
  W  W6  1  0.820158  0.179842  0.060665  1
  W  W7  1  0.179842  0.820158  0.939335  1
  C  C8  1  0.000000  0.000000  0.000000  1
  C  C9  1  0.000000  0.000000  0.500000  1
