# generated using pymatgen
data_BaSrAs4F24
_symmetry_space_group_name_H-M   'P 1'
_cell_length_a   9.90472590
_cell_length_b   9.90472537
_cell_length_c   9.90472500
_cell_angle_alpha   131.67727262
_cell_angle_beta   131.67727763
_cell_angle_gamma   70.73922257
_symmetry_Int_Tables_number   1
_chemical_formula_structural   BaSrAs4F24
_chemical_formula_sum   'Ba1 Sr1 As4 F24'
_cell_volume   530.97829448
_cell_formula_units_Z   1
loop_
 _symmetry_equiv_pos_site_id
 _symmetry_equiv_pos_as_xyz
  1  'x, y, z'
loop_
 _atom_site_type_symbol
 _atom_site_label
 _atom_site_symmetry_multiplicity
 _atom_site_fract_x
 _atom_site_fract_y
 _atom_site_fract_z
 _atom_site_occupancy
  Ba  Ba0  1  0.750013  0.250005  0.500000  1
  Sr  Sr1  1  0.999973  0.999999  0.999982  1
  As  As2  1  0.775828  0.775807  0.000002  1
  As  As3  1  0.224170  0.224139  0.999978  1
  As  As4  1  0.985188  0.485151  0.499958  1
  As  As5  1  0.514872  0.014786  0.500055  1
  F  F6  1  0.837829  0.783828  0.215839  1
  F  F7  1  0.567983  0.621978  0.784154  1
  F  F8  1  0.384263  0.796137  0.297334  1
  F  F9  1  0.378016  0.162166  0.945997  1
  F  F10  1  0.216179  0.432018  0.053996  1
  F  F11  1  0.203899  0.501207  0.588166  1
  F  F12  1  0.650164  0.236776  0.694063  1
  F  F13  1  0.763255  0.457311  0.413426  1
  F  F14  1  0.043903  0.349833  0.586592  1
  F  F15  1  0.067326  0.271622  0.055325  1
  F  F16  1  0.216308  0.011998  0.944684  1
  F  F17  1  0.542670  0.956119  0.305922  1
  F  F18  1  0.728364  0.783696  0.795693  1
  F  F19  1  0.988014  0.932651  0.204292  1
  F  F20  1  0.312015  0.099185  0.373066  1
  F  F21  1  0.900849  0.273941  0.212926  1
  F  F22  1  0.061037  0.687952  0.787127  1
  F  F23  1  0.412158  0.330482  0.301353  1
  F  F24  1  0.029136  0.110796  0.698653  1
  F  F25  1  0.726032  0.939001  0.626901  1
  F  F26  1  0.669526  0.970869  0.081674  1
  F  F27  1  0.889194  0.587837  0.918320  1
  F  F28  1  0.498778  0.086964  0.702670  1
  F  F29  1  0.913059  0.615739  0.411852  1
