# generated using pymatgen
data_Ba2CeHoF10
_symmetry_space_group_name_H-M   'P 1'
_cell_length_a   8.56672526
_cell_length_b   8.56672503
_cell_length_c   6.07098513
_cell_angle_alpha   89.26006724
_cell_angle_beta   89.26007389
_cell_angle_gamma   149.37739309
_symmetry_Int_Tables_number   1
_chemical_formula_structural   Ba2CeHoF10
_chemical_formula_sum   'Ba2 Ce1 Ho1 F10'
_cell_volume   226.67916989
_cell_formula_units_Z   1
loop_
 _symmetry_equiv_pos_site_id
 _symmetry_equiv_pos_as_xyz
  1  'x, y, z'
loop_
 _atom_site_type_symbol
 _atom_site_label
 _atom_site_symmetry_multiplicity
 _atom_site_fract_x
 _atom_site_fract_y
 _atom_site_fract_z
 _atom_site_occupancy
  Ba  Ba0  1  0.325397  0.674603  0.750000  1
  Ba  Ba1  1  0.673553  0.326447  0.250000  1
  Ce  Ce2  1  0.927375  0.072625  0.250000  1
  Ho  Ho3  1  0.075544  0.924456  0.750000  1
  F  F4  1  0.617353  0.382647  0.750000  1
  F  F5  1  0.376384  0.623616  0.250000  1
  F  F6  1  0.812302  0.734391  0.084521  1
  F  F7  1  0.265609  0.187698  0.415479  1
  F  F8  1  0.802830  0.177354  0.003279  1
  F  F9  1  0.822646  0.197170  0.496721  1
  F  F10  1  0.196181  0.830386  0.985742  1
  F  F11  1  0.169614  0.803819  0.514258  1
  F  F12  1  0.739737  0.804523  0.605237  1
  F  F13  1  0.195477  0.260263  0.894763  1
