# generated using pymatgen
data_Sc5Nb3P12Ir11Rh5
_symmetry_space_group_name_H-M   'P 1'
_cell_length_a   12.68049419
_cell_length_b   12.68615630
_cell_length_c   3.90978000
_cell_angle_alpha   90.00000000
_cell_angle_beta   90.00000000
_cell_angle_gamma   119.96532868
_symmetry_Int_Tables_number   1
_chemical_formula_structural   Sc5Nb3P12Ir11Rh5
_chemical_formula_sum   'Sc5 Nb3 P12 Ir11 Rh5'
_cell_volume   544.87993291
_cell_formula_units_Z   1
loop_
 _symmetry_equiv_pos_site_id
 _symmetry_equiv_pos_as_xyz
  1  'x, y, z'
loop_
 _atom_site_type_symbol
 _atom_site_label
 _atom_site_symmetry_multiplicity
 _atom_site_fract_x
 _atom_site_fract_y
 _atom_site_fract_z
 _atom_site_occupancy
  Sc  Sc0  1  0.333327  0.666701  0.000000  1
  Sc  Sc1  1  0.666545  0.333369  0.000000  1
  Sc  Sc2  1  0.815612  0.999908  0.500000  1
  Sc  Sc3  1  0.999762  0.815479  0.500000  1
  Sc  Sc4  1  0.184630  0.184362  0.500000  1
  Nb  Nb5  1  0.452014  0.999492  0.000000  1
  Nb  Nb6  1  0.999958  0.452099  0.000000  1
  Nb  Nb7  1  0.547895  0.547789  0.000000  1
  P  P8  1  0.174945  0.000043  0.000000  1
  P  P9  1  0.000043  0.175082  0.000000  1
  P  P10  1  0.824828  0.824832  0.000000  1
  P  P11  1  0.167797  0.483640  0.500000  1
  P  P12  1  0.516319  0.684340  0.500000  1
  P  P13  1  0.315646  0.831888  0.500000  1
  P  P14  1  0.684602  0.516738  0.500000  1
  P  P15  1  0.832002  0.315665  0.500000  1
  P  P16  1  0.483831  0.168273  0.500000  1
  P  P17  1  0.644531  0.999962  0.000000  1
  P  P18  1  0.000034  0.644568  0.000000  1
  P  P19  1  0.355094  0.355534  0.000000  1
  Ir  Ir20  1  0.354903  0.492332  0.500000  1
  Ir  Ir21  1  0.507898  0.862992  0.500000  1
  Ir  Ir22  1  0.137049  0.644888  0.500000  1
  Ir  Ir23  1  0.862949  0.507864  0.500000  1
  Ir  Ir24  1  0.644570  0.137230  0.500000  1
  Ir  Ir25  1  0.493585  0.355440  0.500000  1
  Ir  Ir26  1  0.369972  0.178394  0.000000  1
  Ir  Ir27  1  0.279780  0.999499  0.500000  1
  Ir  Ir28  1  0.000121  0.279641  0.500000  1
  Ir  Ir29  1  0.720412  0.720378  0.500000  1
  Ir  Ir30  1  0.999756  0.999897  0.000000  1
  Rh  Rh31  1  0.178495  0.370373  0.000000  1
  Rh  Rh32  1  0.629609  0.807974  0.000000  1
  Rh  Rh33  1  0.191866  0.821562  0.000000  1
  Rh  Rh34  1  0.808060  0.629713  0.000000  1
  Rh  Rh35  1  0.821560  0.192058  0.000000  1
