# generated using pymatgen
data_Sc8Mn3CoB24
_symmetry_space_group_name_H-M   'P 1'
_cell_length_a   3.34682000
_cell_length_b   8.82059658
_cell_length_c   11.12850900
_cell_angle_alpha   89.87776302
_cell_angle_beta   90.00000000
_cell_angle_gamma   90.00000000
_symmetry_Int_Tables_number   1
_chemical_formula_structural   Sc8Mn3CoB24
_chemical_formula_sum   'Sc8 Mn3 Co1 B24'
_cell_volume   328.52339945
_cell_formula_units_Z   1
loop_
 _symmetry_equiv_pos_site_id
 _symmetry_equiv_pos_as_xyz
  1  'x, y, z'
loop_
 _atom_site_type_symbol
 _atom_site_label
 _atom_site_symmetry_multiplicity
 _atom_site_fract_x
 _atom_site_fract_y
 _atom_site_fract_z
 _atom_site_occupancy
  Sc  Sc0  1  0.000000  0.818131  0.084797  1
  Sc  Sc1  1  0.000000  0.179374  0.910813  1
  Sc  Sc2  1  0.000000  0.325467  0.418593  1
  Sc  Sc3  1  0.000000  0.677138  0.585996  1
  Sc  Sc4  1  0.000000  0.443591  0.130720  1
  Sc  Sc5  1  0.000000  0.556018  0.869679  1
  Sc  Sc6  1  0.000000  0.941451  0.370252  1
  Sc  Sc7  1  0.000000  0.057638  0.629919  1
  Mn  Mn8  1  0.000000  0.860359  0.820397  1
  Mn  Mn9  1  0.000000  0.639512  0.318737  1
  Mn  Mn10  1  0.000000  0.360613  0.680206  1
  Co  Co11  1  0.000000  0.139634  0.180092  1
  B  B12  1  0.500000  0.054044  0.065627  1
  B  B13  1  0.500000  0.946245  0.934153  1
  B  B14  1  0.500000  0.553703  0.434084  1
  B  B15  1  0.500000  0.446982  0.566625  1
  B  B16  1  0.500000  0.249714  0.079964  1
  B  B17  1  0.500000  0.748935  0.919898  1
  B  B18  1  0.500000  0.750273  0.419425  1
  B  B19  1  0.500000  0.250501  0.580590  1
  B  B20  1  0.500000  0.292511  0.236344  1
  B  B21  1  0.500000  0.706687  0.763980  1
  B  B22  1  0.500000  0.793540  0.263252  1
  B  B23  1  0.500000  0.207089  0.735469  1
  B  B24  1  0.500000  0.131002  0.317247  1
  B  B25  1  0.500000  0.869726  0.683874  1
  B  B26  1  0.500000  0.630491  0.183401  1
  B  B27  1  0.500000  0.369311  0.815949  1
  B  B28  1  0.500000  0.481404  0.288721  1
  B  B29  1  0.500000  0.518586  0.711903  1
  B  B30  1  0.500000  0.982589  0.211488  1
  B  B31  1  0.500000  0.019073  0.788292  1
  B  B32  1  0.500000  0.101619  0.472032  1
  B  B33  1  0.500000  0.899456  0.527198  1
  B  B34  1  0.500000  0.599610  0.027587  1
  B  B35  1  0.500000  0.397980  0.972697  1
