# generated using pymatgen
data_Dy6CoP12Ir5Ru12
_symmetry_space_group_name_H-M   'P 1'
_cell_length_a   3.95589500
_cell_length_b   11.17089824
_cell_length_c   12.58085995
_cell_angle_alpha   90.36732847
_cell_angle_beta   90.00000000
_cell_angle_gamma   90.00000000
_symmetry_Int_Tables_number   1
_chemical_formula_structural   Dy6CoP12Ir5Ru12
_chemical_formula_sum   'Dy6 Co1 P12 Ir5 Ru12'
_cell_volume   555.94810464
_cell_formula_units_Z   1
loop_
 _symmetry_equiv_pos_site_id
 _symmetry_equiv_pos_as_xyz
  1  'x, y, z'
loop_
 _atom_site_type_symbol
 _atom_site_label
 _atom_site_symmetry_multiplicity
 _atom_site_fract_x
 _atom_site_fract_y
 _atom_site_fract_z
 _atom_site_occupancy
  Dy  Dy0  1  0.000000  0.502809  0.521903  1
  Dy  Dy1  1  0.500000  0.998320  0.477015  1
  Dy  Dy2  1  0.500000  0.820082  0.203257  1
  Dy  Dy3  1  0.500000  0.180937  0.204048  1
  Dy  Dy4  1  0.000000  0.680779  0.797440  1
  Dy  Dy5  1  0.000000  0.318105  0.796825  1
  Co  Co6  1  0.500000  0.000497  0.011014  1
  P  P7  1  0.500000  0.499066  0.884298  1
  P  P8  1  0.000000  0.001248  0.116092  1
  P  P9  1  0.500000  0.496239  0.339205  1
  P  P10  1  0.000000  0.000131  0.654045  1
  P  P11  1  0.500000  0.304200  0.616761  1
  P  P12  1  0.500000  0.692250  0.617974  1
  P  P13  1  0.000000  0.197718  0.382728  1
  P  P14  1  0.000000  0.807598  0.382228  1
  P  P15  1  0.500000  0.848301  0.899880  1
  P  P16  1  0.500000  0.150805  0.899491  1
  P  P17  1  0.000000  0.657701  0.103868  1
  P  P18  1  0.000000  0.344089  0.104175  1
  Ir  Ir19  1  0.500000  0.498663  0.695223  1
  Ir  Ir20  1  0.000000  0.001568  0.303727  1
  Ir  Ir21  1  0.500000  0.699561  0.429329  1
  Ir  Ir22  1  0.500000  0.873616  0.716215  1
  Ir  Ir23  1  0.500000  0.122766  0.715723  1
  Ru  Ru24  1  0.500000  0.500736  0.156284  1
  Ru  Ru25  1  0.000000  0.999534  0.839565  1
  Ru  Ru26  1  0.000000  0.499953  0.986868  1
  Ru  Ru27  1  0.500000  0.329297  0.991354  1
  Ru  Ru28  1  0.500000  0.670715  0.991339  1
  Ru  Ru29  1  0.000000  0.162722  0.008692  1
  Ru  Ru30  1  0.000000  0.838171  0.008656  1
  Ru  Ru31  1  0.500000  0.298354  0.430585  1
  Ru  Ru32  1  0.000000  0.200344  0.571559  1
  Ru  Ru33  1  0.000000  0.798110  0.571323  1
  Ru  Ru34  1  0.000000  0.625758  0.284904  1
  Ru  Ru35  1  0.000000  0.379256  0.286412  1
