# generated using pymatgen
data_Nd17Y3Si15Os
_symmetry_space_group_name_H-M   'P 1'
_cell_length_a   7.65661672
_cell_length_b   7.98233618
_cell_length_c   15.09547600
_cell_angle_alpha   90.00000000
_cell_angle_beta   90.00000000
_cell_angle_gamma   89.88455154
_symmetry_Int_Tables_number   1
_chemical_formula_structural   Nd17Y3Si15Os
_chemical_formula_sum   'Nd17 Y3 Si15 Os1'
_cell_volume   922.59872989
_cell_formula_units_Z   1
loop_
 _symmetry_equiv_pos_site_id
 _symmetry_equiv_pos_as_xyz
  1  'x, y, z'
loop_
 _atom_site_type_symbol
 _atom_site_label
 _atom_site_symmetry_multiplicity
 _atom_site_fract_x
 _atom_site_fract_y
 _atom_site_fract_z
 _atom_site_occupancy
  Nd  Nd0  1  0.811216  0.320804  0.621279  1
  Nd  Nd1  1  0.462678  0.689516  0.900413  1
  Nd  Nd2  1  0.963704  0.813983  0.902177  1
  Nd  Nd3  1  0.198800  0.675909  0.126720  1
  Nd  Nd4  1  0.681892  0.813723  0.124772  1
  Nd  Nd5  1  0.310849  0.181064  0.877753  1
  Nd  Nd6  1  0.198800  0.675909  0.373280  1
  Nd  Nd7  1  0.035628  0.184950  0.099106  1
  Nd  Nd8  1  0.310849  0.181064  0.622247  1
  Nd  Nd9  1  0.530443  0.323664  0.399899  1
  Nd  Nd10  1  0.811216  0.320804  0.878721  1
  Nd  Nd11  1  0.963704  0.813983  0.597823  1
  Nd  Nd12  1  0.462678  0.689516  0.599587  1
  Nd  Nd13  1  0.035628  0.184950  0.400894  1
  Nd  Nd14  1  0.681892  0.813723  0.375228  1
  Nd  Nd15  1  0.637780  0.986400  0.750000  1
  Nd  Nd16  1  0.530443  0.323664  0.100101  1
  Y  Y17  1  0.140978  0.518226  0.750000  1
  Y  Y18  1  0.847759  0.485092  0.250000  1
  Y  Y19  1  0.363157  0.015401  0.250000  1
  Si  Si20  1  0.244375  0.366016  0.250000  1
  Si  Si21  1  0.868419  0.524318  0.457827  1
  Si  Si22  1  0.515185  0.405154  0.750000  1
  Si  Si23  1  0.635644  0.026902  0.960555  1
  Si  Si24  1  0.014784  0.098840  0.750000  1
  Si  Si25  1  0.757995  0.621119  0.750000  1
  Si  Si26  1  0.751108  0.122733  0.250000  1
  Si  Si27  1  0.360081  0.976608  0.458062  1
  Si  Si28  1  0.987861  0.904218  0.250000  1
  Si  Si29  1  0.360081  0.976608  0.041938  1
  Si  Si30  1  0.635644  0.026902  0.539445  1
  Si  Si31  1  0.140988  0.474521  0.959896  1
  Si  Si32  1  0.140988  0.474521  0.540104  1
  Si  Si33  1  0.868419  0.524318  0.042173  1
  Si  Si34  1  0.248430  0.873844  0.750000  1
  Os  Os35  1  0.489902  0.591030  0.250000  1
