# generated using pymatgen
data_Zr10In2(GaSb)3
_symmetry_space_group_name_H-M   'P 1'
_cell_length_a   8.67273492
_cell_length_b   8.67273491
_cell_length_c   5.87206400
_cell_angle_alpha   90.00000000
_cell_angle_beta   90.00000000
_cell_angle_gamma   119.87210605
_symmetry_Int_Tables_number   1
_chemical_formula_structural   Zr10In2(GaSb)3
_chemical_formula_sum   'Zr10 In2 Ga3 Sb3'
_cell_volume   382.99385819
_cell_formula_units_Z   1
loop_
 _symmetry_equiv_pos_site_id
 _symmetry_equiv_pos_as_xyz
  1  'x, y, z'
loop_
 _atom_site_type_symbol
 _atom_site_label
 _atom_site_symmetry_multiplicity
 _atom_site_fract_x
 _atom_site_fract_y
 _atom_site_fract_z
 _atom_site_occupancy
  Zr  Zr0  1  0.279744  0.279744  0.750000  1
  Zr  Zr1  1  0.735437  0.735437  0.250000  1
  Zr  Zr2  1  0.722704  0.984976  0.750000  1
  Zr  Zr3  1  0.001523  0.265711  0.250000  1
  Zr  Zr4  1  0.339377  0.665579  0.503527  1
  Zr  Zr5  1  0.665579  0.339377  0.503527  1
  Zr  Zr6  1  0.984976  0.722704  0.750000  1
  Zr  Zr7  1  0.339377  0.665579  0.996473  1
  Zr  Zr8  1  0.265711  0.001523  0.250000  1
  Zr  Zr9  1  0.665579  0.339377  0.996473  1
  In  In10  1  0.379057  0.996721  0.750000  1
  In  In11  1  0.996721  0.379057  0.750000  1
  Ga  Ga12  1  0.003174  0.003174  0.512081  1
  Ga  Ga13  1  0.613269  0.613269  0.750000  1
  Ga  Ga14  1  0.003174  0.003174  0.987919  1
  Sb  Sb15  1  0.611138  0.002901  0.250000  1
  Sb  Sb16  1  0.390558  0.390558  0.250000  1
  Sb  Sb17  1  0.002901  0.611138  0.250000  1
