# generated using pymatgen
data_HfTlAg3S4
_symmetry_space_group_name_H-M   'P 1'
_cell_length_a   6.30362100
_cell_length_b   6.30362100
_cell_length_c   6.30362100
_cell_angle_alpha   90.00000000
_cell_angle_beta   90.00000000
_cell_angle_gamma   90.00000000
_symmetry_Int_Tables_number   1
_chemical_formula_structural   HfTlAg3S4
_chemical_formula_sum   'Hf1 Tl1 Ag3 S4'
_cell_volume   250.47840033
_cell_formula_units_Z   1
loop_
 _symmetry_equiv_pos_site_id
 _symmetry_equiv_pos_as_xyz
  1  'x, y, z'
loop_
 _atom_site_type_symbol
 _atom_site_label
 _atom_site_symmetry_multiplicity
 _atom_site_fract_x
 _atom_site_fract_y
 _atom_site_fract_z
 _atom_site_occupancy
  Hf  Hf0  1  0.000000  0.000000  0.000000  1
  Tl  Tl1  1  0.500000  0.500000  0.500000  1
  Ag  Ag2  1  0.000000  0.500000  0.000000  1
  Ag  Ag3  1  0.000000  0.000000  0.500000  1
  Ag  Ag4  1  0.500000  0.000000  0.000000  1
  S  S5  1  0.220284  0.220284  0.220284  1
  S  S6  1  0.779716  0.779716  0.220284  1
  S  S7  1  0.220284  0.779716  0.779716  1
  S  S8  1  0.779716  0.220284  0.779716  1
