# generated using pymatgen
data_Dy6NbCo17(Si2P)4
_symmetry_space_group_name_H-M   'P 1'
_cell_length_a   3.75192900
_cell_length_b   10.68259500
_cell_length_c   12.37614600
_cell_angle_alpha   90.00000000
_cell_angle_beta   90.00000000
_cell_angle_gamma   90.00000000
_symmetry_Int_Tables_number   1
_chemical_formula_structural   Dy6NbCo17(Si2P)4
_chemical_formula_sum   'Dy6 Nb1 Co17 Si8 P4'
_cell_volume   496.04011452
_cell_formula_units_Z   1
loop_
 _symmetry_equiv_pos_site_id
 _symmetry_equiv_pos_as_xyz
  1  'x, y, z'
loop_
 _atom_site_type_symbol
 _atom_site_label
 _atom_site_symmetry_multiplicity
 _atom_site_fract_x
 _atom_site_fract_y
 _atom_site_fract_z
 _atom_site_occupancy
  Dy  Dy0  1  0.000000  0.500000  0.528548  1
  Dy  Dy1  1  0.500000  0.000000  0.473044  1
  Dy  Dy2  1  0.500000  0.818829  0.208149  1
  Dy  Dy3  1  0.500000  0.181171  0.208149  1
  Dy  Dy4  1  0.000000  0.682183  0.796044  1
  Dy  Dy5  1  0.000000  0.317817  0.796044  1
  Nb  Nb6  1  0.500000  0.500000  0.147891  1
  Co  Co7  1  0.000000  0.000000  0.845823  1
  Co  Co8  1  0.500000  0.500000  0.699735  1
  Co  Co9  1  0.000000  0.000000  0.304182  1
  Co  Co10  1  0.000000  0.500000  0.988602  1
  Co  Co11  1  0.500000  0.000000  0.017595  1
  Co  Co12  1  0.500000  0.326591  0.994260  1
  Co  Co13  1  0.500000  0.673409  0.994260  1
  Co  Co14  1  0.000000  0.166015  0.005071  1
  Co  Co15  1  0.000000  0.833985  0.005071  1
  Co  Co16  1  0.500000  0.292730  0.429940  1
  Co  Co17  1  0.500000  0.707270  0.429940  1
  Co  Co18  1  0.000000  0.198348  0.566432  1
  Co  Co19  1  0.000000  0.801652  0.566432  1
  Co  Co20  1  0.500000  0.883010  0.705474  1
  Co  Co21  1  0.500000  0.116990  0.705474  1
  Co  Co22  1  0.000000  0.622667  0.292802  1
  Co  Co23  1  0.000000  0.377333  0.292802  1
  Si  Si24  1  0.500000  0.500000  0.884785  1
  Si  Si25  1  0.000000  0.000000  0.118184  1
  Si  Si26  1  0.500000  0.500000  0.352657  1
  Si  Si27  1  0.000000  0.000000  0.658322  1
  Si  Si28  1  0.500000  0.305405  0.615318  1
  Si  Si29  1  0.500000  0.694595  0.615318  1
  Si  Si30  1  0.500000  0.855907  0.890142  1
  Si  Si31  1  0.500000  0.144093  0.890142  1
  P  P32  1  0.000000  0.192766  0.385196  1
  P  P33  1  0.000000  0.807234  0.385196  1
  P  P34  1  0.000000  0.660989  0.101489  1
  P  P35  1  0.000000  0.339011  0.101489  1
