# generated using pymatgen
data_Mg3UGeAs5Ru7
_symmetry_space_group_name_H-M   'P 1'
_cell_length_a   7.10820651
_cell_length_b   7.09755551
_cell_length_c   6.96487414
_cell_angle_alpha   109.18071141
_cell_angle_beta   108.88824219
_cell_angle_gamma   109.99355646
_symmetry_Int_Tables_number   1
_chemical_formula_structural   Mg3UGeAs5Ru7
_chemical_formula_sum   'Mg3 U1 Ge1 As5 Ru7'
_cell_volume   271.64110063
_cell_formula_units_Z   1
loop_
 _symmetry_equiv_pos_site_id
 _symmetry_equiv_pos_as_xyz
  1  'x, y, z'
loop_
 _atom_site_type_symbol
 _atom_site_label
 _atom_site_symmetry_multiplicity
 _atom_site_fract_x
 _atom_site_fract_y
 _atom_site_fract_z
 _atom_site_occupancy
  Mg  Mg0  1  0.500640  0.000000  0.001197  1
  Mg  Mg1  1  0.001639  0.502153  0.001944  1
  Mg  Mg2  1  0.499486  0.497847  0.499791  1
  U  U3  1  0.002393  0.000000  0.500974  1
  Ge  Ge4  1  0.313503  0.000000  0.300354  1
  As  As5  1  0.999928  0.314260  0.304723  1
  As  As6  1  0.999686  0.685307  0.696821  1
  As  As7  1  0.314379  0.314693  0.011514  1
  As  As8  1  0.685668  0.685740  0.990463  1
  As  As9  1  0.682470  0.000000  0.691780  1
  Ru  Ru10  1  0.754484  0.507428  0.253728  1
  Ru  Ru11  1  0.506978  0.751418  0.253233  1
  Ru  Ru12  1  0.492761  0.246357  0.746821  1
  Ru  Ru13  1  0.755560  0.248582  0.501815  1
  Ru  Ru14  1  0.246404  0.753643  0.500464  1
  Ru  Ru15  1  0.247056  0.492572  0.746299  1
  Ru  Ru16  1  0.996964  0.000000  0.998079  1
