# generated using pymatgen
data_Sc5GaNi
_symmetry_space_group_name_H-M   'P 1'
_cell_length_a   8.80401500
_cell_length_b   8.80401549
_cell_length_c   8.42505300
_cell_angle_alpha   90.00000000
_cell_angle_beta   90.00000000
_cell_angle_gamma   119.98953451
_symmetry_Int_Tables_number   1
_chemical_formula_structural   Sc5GaNi
_chemical_formula_sum   'Sc20 Ga4 Ni4'
_cell_volume   565.60160719
_cell_formula_units_Z   4
loop_
 _symmetry_equiv_pos_site_id
 _symmetry_equiv_pos_as_xyz
  1  'x, y, z'
loop_
 _atom_site_type_symbol
 _atom_site_label
 _atom_site_symmetry_multiplicity
 _atom_site_fract_x
 _atom_site_fract_y
 _atom_site_fract_z
 _atom_site_occupancy
  Sc  Sc0  1  0.989099  0.010901  0.543112  1
  Sc  Sc1  1  0.989099  0.010901  0.956888  1
  Sc  Sc2  1  0.545256  0.454744  0.250000  1
  Sc  Sc3  1  0.539795  0.079965  0.250000  1
  Sc  Sc4  1  0.920035  0.460205  0.250000  1
  Sc  Sc5  1  0.461158  0.538842  0.750000  1
  Sc  Sc6  1  0.471635  0.911627  0.750000  1
  Sc  Sc7  1  0.088373  0.528365  0.750000  1
  Sc  Sc8  1  0.206974  0.793026  0.442529  1
  Sc  Sc9  1  0.207734  0.409845  0.441823  1
  Sc  Sc10  1  0.590155  0.792266  0.441823  1
  Sc  Sc11  1  0.788938  0.211062  0.560905  1
  Sc  Sc12  1  0.798633  0.593563  0.563937  1
  Sc  Sc13  1  0.406437  0.201367  0.563937  1
  Sc  Sc14  1  0.788938  0.211062  0.939095  1
  Sc  Sc15  1  0.798633  0.593563  0.936063  1
  Sc  Sc16  1  0.406437  0.201367  0.936063  1
  Sc  Sc17  1  0.206974  0.793026  0.057471  1
  Sc  Sc18  1  0.207734  0.409845  0.058177  1
  Sc  Sc19  1  0.590155  0.792266  0.058177  1
  Ga  Ga20  1  0.888188  0.111812  0.250000  1
  Ga  Ga21  1  0.890869  0.782473  0.250000  1
  Ga  Ga22  1  0.217527  0.109131  0.250000  1
  Ga  Ga23  1  0.129448  0.870552  0.750000  1
  Ni  Ni24  1  0.137151  0.261912  0.750000  1
  Ni  Ni25  1  0.738088  0.862849  0.750000  1
  Ni  Ni26  1  0.332808  0.667192  0.250000  1
  Ni  Ni27  1  0.663730  0.336270  0.750000  1
