# generated using pymatgen
data_Er3Lu4CoI12
_symmetry_space_group_name_H-M   'P 1'
_cell_length_a   9.61387015
_cell_length_b   9.62377940
_cell_length_c   9.62326934
_cell_angle_alpha   106.86338326
_cell_angle_beta   106.82741845
_cell_angle_gamma   106.81140130
_symmetry_Int_Tables_number   1
_chemical_formula_structural   Er3Lu4CoI12
_chemical_formula_sum   'Er3 Lu4 Co1 I12'
_cell_volume   744.83264194
_cell_formula_units_Z   1
loop_
 _symmetry_equiv_pos_site_id
 _symmetry_equiv_pos_as_xyz
  1  'x, y, z'
loop_
 _atom_site_type_symbol
 _atom_site_label
 _atom_site_symmetry_multiplicity
 _atom_site_fract_x
 _atom_site_fract_y
 _atom_site_fract_z
 _atom_site_occupancy
  Er  Er0  1  0.500172  0.499989  0.500010  1
  Er  Er1  1  0.021357  0.090450  0.286055  1
  Er  Er2  1  0.091144  0.285973  0.021054  1
  Lu  Lu3  1  0.282492  0.020392  0.089012  1
  Lu  Lu4  1  0.978544  0.909480  0.717323  1
  Lu  Lu5  1  0.910300  0.717333  0.978129  1
  Lu  Lu6  1  0.716882  0.977898  0.909460  1
  Co  Co7  1  0.999877  0.999624  0.999658  1
  I  I8  1  0.160453  0.464660  0.387490  1
  I  I9  1  0.464662  0.386750  0.160561  1
  I  I10  1  0.387669  0.160276  0.463769  1
  I  I11  1  0.839428  0.535983  0.612856  1
  I  I12  1  0.536059  0.613032  0.839476  1
  I  I13  1  0.612858  0.839425  0.536127  1
  I  I14  1  0.675302  0.071077  0.223564  1
  I  I15  1  0.071341  0.224001  0.676045  1
  I  I16  1  0.224610  0.677006  0.071465  1
  I  I17  1  0.324030  0.928729  0.775898  1
  I  I18  1  0.928354  0.774477  0.323741  1
  I  I19  1  0.774468  0.323445  0.928309  1
