# generated using pymatgen
data_Li4Zn9
_symmetry_space_group_name_H-M   'P 1'
_cell_length_a   9.74444959
_cell_length_b   9.74444948
_cell_length_c   9.74445140
_cell_angle_alpha   29.86897171
_cell_angle_beta   29.86897325
_cell_angle_gamma   29.86897659
_symmetry_Int_Tables_number   1
_chemical_formula_structural   Li4Zn9
_chemical_formula_sum   'Li4 Zn9'
_cell_volume   203.23811376
_cell_formula_units_Z   1
loop_
 _symmetry_equiv_pos_site_id
 _symmetry_equiv_pos_as_xyz
  1  'x, y, z'
loop_
 _atom_site_type_symbol
 _atom_site_label
 _atom_site_symmetry_multiplicity
 _atom_site_fract_x
 _atom_site_fract_y
 _atom_site_fract_z
 _atom_site_occupancy
  Li  Li0  1  0.833039  0.833039  0.833039  1
  Li  Li1  1  0.166961  0.166961  0.166961  1
  Li  Li2  1  0.649002  0.649002  0.649002  1
  Li  Li3  1  0.350998  0.350998  0.350998  1
  Zn  Zn4  1  0.000000  0.000000  0.000000  1
  Zn  Zn5  1  0.909877  0.413231  0.909877  1
  Zn  Zn6  1  0.909877  0.909877  0.413231  1
  Zn  Zn7  1  0.413231  0.909877  0.909877  1
  Zn  Zn8  1  0.090123  0.586769  0.090123  1
  Zn  Zn9  1  0.090123  0.090123  0.586769  1
  Zn  Zn10  1  0.586769  0.090123  0.090123  1
  Zn  Zn11  1  0.546029  0.546029  0.546029  1
  Zn  Zn12  1  0.453971  0.453971  0.453971  1
