# generated using pymatgen
data_Ce3Dy6Lu(Al2Ru3)2
_symmetry_space_group_name_H-M   'P 1'
_cell_length_a   8.40967410
_cell_length_b   8.40967346
_cell_length_c   8.40967396
_cell_angle_alpha   110.10359047
_cell_angle_beta   110.10360336
_cell_angle_gamma   110.10359840
_symmetry_Int_Tables_number   1
_chemical_formula_structural   Ce3Dy6Lu(Al2Ru3)2
_chemical_formula_sum   'Ce3 Dy6 Lu1 Al4 Ru6'
_cell_volume   446.80124033
_cell_formula_units_Z   1
loop_
 _symmetry_equiv_pos_site_id
 _symmetry_equiv_pos_as_xyz
  1  'x, y, z'
loop_
 _atom_site_type_symbol
 _atom_site_label
 _atom_site_symmetry_multiplicity
 _atom_site_fract_x
 _atom_site_fract_y
 _atom_site_fract_z
 _atom_site_occupancy
  Ce  Ce0  1  0.252649  0.198879  0.943923  1
  Ce  Ce1  1  0.943923  0.252649  0.198879  1
  Ce  Ce2  1  0.198879  0.943923  0.252649  1
  Dy  Dy3  1  0.314989  0.566937  0.751478  1
  Dy  Dy4  1  0.751478  0.314989  0.566937  1
  Dy  Dy5  1  0.566937  0.751478  0.314989  1
  Dy  Dy6  1  0.721422  0.506929  0.994526  1
  Dy  Dy7  1  0.994526  0.721422  0.506929  1
  Dy  Dy8  1  0.506929  0.994526  0.721422  1
  Lu  Lu9  1  0.782951  0.782951  0.782951  1
  Al  Al10  1  0.415820  0.415820  0.415820  1
  Al  Al11  1  0.093073  0.498020  0.000722  1
  Al  Al12  1  0.000722  0.093073  0.498020  1
  Al  Al13  1  0.498020  0.000722  0.093073  1
  Ru  Ru14  1  0.899665  0.118017  0.753830  1
  Ru  Ru15  1  0.753830  0.899665  0.118017  1
  Ru  Ru16  1  0.118017  0.753830  0.899665  1
  Ru  Ru17  1  0.224301  0.596404  0.365468  1
  Ru  Ru18  1  0.365468  0.224301  0.596404  1
  Ru  Ru19  1  0.596404  0.365468  0.224301  1
