# generated using pymatgen
data_TbPa3Pd3PtPb2
_symmetry_space_group_name_H-M   'P 1'
_cell_length_a   7.88621968
_cell_length_b   7.91371279
_cell_length_c   3.68083700
_cell_angle_alpha   90.00000000
_cell_angle_beta   90.00000000
_cell_angle_gamma   89.37214922
_symmetry_Int_Tables_number   1
_chemical_formula_structural   TbPa3Pd3PtPb2
_chemical_formula_sum   'Tb1 Pa3 Pd3 Pt1 Pb2'
_cell_volume   229.70458592
_cell_formula_units_Z   1
loop_
 _symmetry_equiv_pos_site_id
 _symmetry_equiv_pos_as_xyz
  1  'x, y, z'
loop_
 _atom_site_type_symbol
 _atom_site_label
 _atom_site_symmetry_multiplicity
 _atom_site_fract_x
 _atom_site_fract_y
 _atom_site_fract_z
 _atom_site_occupancy
  Tb  Tb0  1  0.324714  0.828366  0.500000  1
  Pa  Pa1  1  0.667461  0.173359  0.500000  1
  Pa  Pa2  1  0.177318  0.322556  0.500000  1
  Pa  Pa3  1  0.827502  0.672854  0.500000  1
  Pd  Pd4  1  0.115318  0.615235  0.000000  1
  Pd  Pd5  1  0.636816  0.875795  0.000000  1
  Pd  Pd6  1  0.868023  0.368356  0.000000  1
  Pt  Pt7  1  0.381628  0.134682  0.000000  1
  Pb  Pb8  1  0.003828  0.996227  0.000000  1
  Pb  Pb9  1  0.497390  0.512567  0.000000  1
