# generated using pymatgen
data_Nd16Cd4Pd2RuPt
_symmetry_space_group_name_H-M   'P 1'
_cell_length_a   10.03912868
_cell_length_b   10.03359240
_cell_length_c   10.03359231
_cell_angle_alpha   59.58860325
_cell_angle_beta   59.63050406
_cell_angle_gamma   59.63051017
_symmetry_Int_Tables_number   1
_chemical_formula_structural   Nd16Cd4Pd2RuPt
_chemical_formula_sum   'Nd16 Cd4 Pd2 Ru1 Pt1'
_cell_volume   708.42262176
_cell_formula_units_Z   1
loop_
 _symmetry_equiv_pos_site_id
 _symmetry_equiv_pos_as_xyz
  1  'x, y, z'
loop_
 _atom_site_type_symbol
 _atom_site_label
 _atom_site_symmetry_multiplicity
 _atom_site_fract_x
 _atom_site_fract_y
 _atom_site_fract_z
 _atom_site_occupancy
  Nd  Nd0  1  0.352445  0.351302  0.351302  1
  Nd  Nd1  1  0.348525  0.347222  0.950568  1
  Nd  Nd2  1  0.348525  0.950568  0.347222  1
  Nd  Nd3  1  0.949009  0.347984  0.347984  1
  Nd  Nd4  1  0.815694  0.189135  0.189135  1
  Nd  Nd5  1  0.189279  0.808617  0.808617  1
  Nd  Nd6  1  0.189512  0.816935  0.188985  1
  Nd  Nd7  1  0.808082  0.188757  0.809467  1
  Nd  Nd8  1  0.189512  0.188985  0.816935  1
  Nd  Nd9  1  0.808082  0.809467  0.188757  1
  Nd  Nd10  1  0.936453  0.564694  0.564694  1
  Nd  Nd11  1  0.559805  0.936893  0.936893  1
  Nd  Nd12  1  0.564737  0.936335  0.563870  1
  Nd  Nd13  1  0.936818  0.559513  0.936516  1
  Nd  Nd14  1  0.564737  0.563870  0.936335  1
  Nd  Nd15  1  0.936818  0.936516  0.559513  1
  Cd  Cd16  1  0.579848  0.579786  0.579786  1
  Cd  Cd17  1  0.580698  0.580576  0.257624  1
  Cd  Cd18  1  0.580698  0.257624  0.580576  1
  Cd  Cd19  1  0.257526  0.580556  0.580556  1
  Pd  Pd20  1  0.144453  0.145198  0.571154  1
  Pd  Pd21  1  0.144453  0.571154  0.145198  1
  Ru  Ru22  1  0.143061  0.143014  0.143014  1
  Pt  Pt23  1  0.571230  0.145298  0.145298  1
