# generated using pymatgen
data_Ba4As4Ir3Pt
_symmetry_space_group_name_H-M   'P 1'
_cell_length_a   6.75950408
_cell_length_b   6.75950408
_cell_length_c   6.75950408
_cell_angle_alpha   89.98730176
_cell_angle_beta   90.01269824
_cell_angle_gamma   90.01269824
_symmetry_Int_Tables_number   1
_chemical_formula_structural   Ba4As4Ir3Pt
_chemical_formula_sum   'Ba4 As4 Ir3 Pt1'
_cell_volume   308.84777158
_cell_formula_units_Z   1
loop_
 _symmetry_equiv_pos_site_id
 _symmetry_equiv_pos_as_xyz
  1  'x, y, z'
loop_
 _atom_site_type_symbol
 _atom_site_label
 _atom_site_symmetry_multiplicity
 _atom_site_fract_x
 _atom_site_fract_y
 _atom_site_fract_z
 _atom_site_occupancy
  Ba  Ba0  1  0.625718  0.374282  0.874282  1
  Ba  Ba1  1  0.376315  0.874310  0.628280  1
  Ba  Ba2  1  0.125690  0.128280  0.123685  1
  Ba  Ba3  1  0.871720  0.623685  0.374310  1
  As  As4  1  0.165295  0.346139  0.659860  1
  As  As5  1  0.653861  0.159860  0.334705  1
  As  As6  1  0.339996  0.660004  0.160004  1
  As  As7  1  0.840140  0.834705  0.846139  1
  Ir  Ir8  1  0.590693  0.906093  0.091407  1
  Ir  Ir9  1  0.093907  0.591407  0.909307  1
  Ir  Ir10  1  0.408593  0.409307  0.406093  1
  Pt  Pt11  1  0.908073  0.091927  0.591927  1
