# generated using pymatgen
data_Tb16Ho3LuPb16
_symmetry_space_group_name_H-M   'P 1'
_cell_length_a   8.19785800
_cell_length_b   8.29402460
_cell_length_c   15.67901700
_cell_angle_alpha   90.00000000
_cell_angle_beta   90.00000000
_cell_angle_gamma   89.96442339
_symmetry_Int_Tables_number   1
_chemical_formula_structural   Tb16Ho3LuPb16
_chemical_formula_sum   'Tb16 Ho3 Lu1 Pb16'
_cell_volume   1066.06689621
_cell_formula_units_Z   1
loop_
 _symmetry_equiv_pos_site_id
 _symmetry_equiv_pos_as_xyz
  1  'x, y, z'
loop_
 _atom_site_type_symbol
 _atom_site_label
 _atom_site_symmetry_multiplicity
 _atom_site_fract_x
 _atom_site_fract_y
 _atom_site_fract_z
 _atom_site_occupancy
  Tb  Tb0  1  0.376521  0.840932  0.879582  1
  Tb  Tb1  1  0.877251  0.658657  0.620433  1
  Tb  Tb2  1  0.623156  0.158980  0.379428  1
  Tb  Tb3  1  0.123205  0.341028  0.120326  1
  Tb  Tb4  1  0.623156  0.158980  0.120572  1
  Tb  Tb5  1  0.123205  0.341028  0.379674  1
  Tb  Tb6  1  0.376521  0.840932  0.620418  1
  Tb  Tb7  1  0.877251  0.658657  0.879567  1
  Tb  Tb8  1  0.533745  0.323545  0.899943  1
  Tb  Tb9  1  0.034159  0.177047  0.600028  1
  Tb  Tb10  1  0.466087  0.676680  0.399935  1
  Tb  Tb11  1  0.966049  0.823346  0.100237  1
  Tb  Tb12  1  0.466087  0.676680  0.100065  1
  Tb  Tb13  1  0.966049  0.823346  0.399763  1
  Tb  Tb14  1  0.533745  0.323545  0.600057  1
  Tb  Tb15  1  0.034159  0.177047  0.899972  1
  Ho  Ho16  1  0.708722  0.996281  0.750000  1
  Ho  Ho17  1  0.791222  0.496227  0.250000  1
  Ho  Ho18  1  0.291228  0.003865  0.250000  1
  Lu  Lu19  1  0.209044  0.504109  0.750000  1
  Pb  Pb20  1  0.281421  0.033138  0.043450  1
  Pb  Pb21  1  0.781287  0.466575  0.456502  1
  Pb  Pb22  1  0.718626  0.966656  0.543136  1
  Pb  Pb23  1  0.218659  0.533026  0.956267  1
  Pb  Pb24  1  0.718626  0.966656  0.956864  1
  Pb  Pb25  1  0.218659  0.533026  0.543733  1
  Pb  Pb26  1  0.281421  0.033138  0.456550  1
  Pb  Pb27  1  0.781287  0.466575  0.043498  1
  Pb  Pb28  1  0.571375  0.625305  0.750000  1
  Pb  Pb29  1  0.072555  0.873656  0.750000  1
  Pb  Pb30  1  0.427554  0.373938  0.250000  1
  Pb  Pb31  1  0.927712  0.126349  0.250000  1
  Pb  Pb32  1  0.345529  0.154135  0.750000  1
  Pb  Pb33  1  0.846056  0.347364  0.750000  1
  Pb  Pb34  1  0.654262  0.846974  0.250000  1
  Pb  Pb35  1  0.154414  0.652585  0.250000  1
