# generated using pymatgen
data_Hf4Ti2GaBi2
_symmetry_space_group_name_H-M   'P 1'
_cell_length_a   7.45062681
_cell_length_b   7.45960797
_cell_length_c   3.97100500
_cell_angle_alpha   90.00000000
_cell_angle_beta   90.00000000
_cell_angle_gamma   120.03988847
_symmetry_Int_Tables_number   1
_chemical_formula_structural   Hf4Ti2GaBi2
_chemical_formula_sum   'Hf4 Ti2 Ga1 Bi2'
_cell_volume   191.05797870
_cell_formula_units_Z   1
loop_
 _symmetry_equiv_pos_site_id
 _symmetry_equiv_pos_as_xyz
  1  'x, y, z'
loop_
 _atom_site_type_symbol
 _atom_site_label
 _atom_site_symmetry_multiplicity
 _atom_site_fract_x
 _atom_site_fract_y
 _atom_site_fract_z
 _atom_site_occupancy
  Hf  Hf0  1  0.385655  0.998944  0.000000  1
  Hf  Hf1  1  0.000000  0.387599  0.000000  1
  Hf  Hf2  1  0.614346  0.613290  0.000000  1
  Hf  Hf3  1  0.000000  0.767215  0.500000  1
  Ti  Ti4  1  0.770446  0.001058  0.500000  1
  Ti  Ti5  1  0.229553  0.230611  0.500000  1
  Ga  Ga6  1  0.000000  0.010784  0.000000  1
  Bi  Bi7  1  0.660402  0.325451  0.500000  1
  Bi  Bi8  1  0.339598  0.665049  0.500000  1
