# generated using pymatgen
data_ScBe8Os3
_symmetry_space_group_name_H-M   'P 1'
_cell_length_a   4.40288200
_cell_length_b   4.40288143
_cell_length_c   7.29223500
_cell_angle_alpha   90.00000000
_cell_angle_beta   90.00000000
_cell_angle_gamma   120.00000431
_symmetry_Int_Tables_number   1
_chemical_formula_structural   ScBe8Os3
_chemical_formula_sum   'Sc1 Be8 Os3'
_cell_volume   122.42364464
_cell_formula_units_Z   1
loop_
 _symmetry_equiv_pos_site_id
 _symmetry_equiv_pos_as_xyz
  1  'x, y, z'
loop_
 _atom_site_type_symbol
 _atom_site_label
 _atom_site_symmetry_multiplicity
 _atom_site_fract_x
 _atom_site_fract_y
 _atom_site_fract_z
 _atom_site_occupancy
  Sc  Sc0  1  0.333333  0.666667  0.066057  1
  Be  Be1  1  0.000000  0.000000  0.500242  1
  Be  Be2  1  0.000000  0.000000  0.993695  1
  Be  Be3  1  0.830149  0.169851  0.262889  1
  Be  Be4  1  0.830149  0.660296  0.262889  1
  Be  Be5  1  0.339704  0.169851  0.262889  1
  Be  Be6  1  0.167278  0.832722  0.739526  1
  Be  Be7  1  0.167278  0.334556  0.739526  1
  Be  Be8  1  0.665444  0.832722  0.739526  1
  Os  Os9  1  0.333333  0.666667  0.436368  1
  Os  Os10  1  0.666667  0.333333  0.568784  1
  Os  Os11  1  0.666667  0.333333  0.927611  1
