# generated using pymatgen
data_La3Mg2CdGe2Pd
_symmetry_space_group_name_H-M   'P 1'
_cell_length_a   7.50491394
_cell_length_b   7.50491377
_cell_length_c   4.53242600
_cell_angle_alpha   90.00000000
_cell_angle_beta   90.00000000
_cell_angle_gamma   119.42663807
_symmetry_Int_Tables_number   1
_chemical_formula_structural   La3Mg2CdGe2Pd
_chemical_formula_sum   'La3 Mg2 Cd1 Ge2 Pd1'
_cell_volume   222.34791585
_cell_formula_units_Z   1
loop_
 _symmetry_equiv_pos_site_id
 _symmetry_equiv_pos_as_xyz
  1  'x, y, z'
loop_
 _atom_site_type_symbol
 _atom_site_label
 _atom_site_symmetry_multiplicity
 _atom_site_fract_x
 _atom_site_fract_y
 _atom_site_fract_z
 _atom_site_occupancy
  La  La0  1  0.414615  0.414615  0.500000  1
  La  La1  1  0.589253  0.997943  0.500000  1
  La  La2  1  0.997943  0.589253  0.500000  1
  Mg  Mg3  1  0.233960  0.999015  0.000000  1
  Mg  Mg4  1  0.999015  0.233960  0.000000  1
  Cd  Cd5  1  0.761741  0.761741  0.000000  1
  Ge  Ge6  1  0.664944  0.326309  0.000000  1
  Ge  Ge7  1  0.326309  0.664944  0.000000  1
  Pd  Pd8  1  0.012219  0.012219  0.500000  1
