# generated using pymatgen
data_Er12Cd11HgC4
_symmetry_space_group_name_H-M   'P 1'
_cell_length_a   9.50841376
_cell_length_b   9.50244373
_cell_length_c   9.50180701
_cell_angle_alpha   119.99751059
_cell_angle_beta   90.00448457
_cell_angle_gamma   119.98187164
_symmetry_Int_Tables_number   1
_chemical_formula_structural   Er12Cd11HgC4
_chemical_formula_sum   'Er12 Cd11 Hg1 C4'
_cell_volume   607.22953251
_cell_formula_units_Z   1
loop_
 _symmetry_equiv_pos_site_id
 _symmetry_equiv_pos_as_xyz
  1  'x, y, z'
loop_
 _atom_site_type_symbol
 _atom_site_label
 _atom_site_symmetry_multiplicity
 _atom_site_fract_x
 _atom_site_fract_y
 _atom_site_fract_z
 _atom_site_occupancy
  Er  Er0  1  0.935871  0.371458  0.185226  1
  Er  Er1  1  0.935853  0.749600  0.185228  1
  Er  Er2  1  0.313825  0.749432  0.185020  1
  Er  Er3  1  0.686987  0.249008  0.435911  1
  Er  Er4  1  0.686990  0.873906  0.435910  1
  Er  Er5  1  0.062510  0.249194  0.435864  1
  Er  Er6  1  0.313426  0.126736  0.562737  1
  Er  Er7  1  0.313426  0.749447  0.562731  1
  Er  Er8  1  0.936432  0.749743  0.563023  1
  Er  Er9  1  0.686637  0.249636  0.812622  1
  Er  Er10  1  0.062498  0.625298  0.812105  1
  Er  Er11  1  0.062550  0.249355  0.812127  1
  Cd  Cd12  1  0.999845  0.999536  0.999357  1
  Cd  Cd13  1  0.499433  0.999164  0.998548  1
  Cd  Cd14  1  0.499572  0.498929  0.998918  1
  Cd  Cd15  1  0.292181  0.083623  0.208141  1
  Cd  Cd16  1  0.292097  0.416995  0.208105  1
  Cd  Cd17  1  0.624771  0.416251  0.208423  1
  Cd  Cd18  1  0.499640  0.499277  0.499125  1
  Cd  Cd19  1  0.375393  0.583858  0.792133  1
  Cd  Cd20  1  0.707626  0.583505  0.791693  1
  Cd  Cd21  1  0.707946  0.916137  0.792017  1
  Cd  Cd22  1  0.291194  0.082668  0.874254  1
  Hg  Hg23  1  0.712811  0.925906  0.138539  1
  C  C24  1  0.000920  0.502237  0.003540  1
  C  C25  1  0.001251  0.998388  0.499696  1
  C  C26  1  0.497064  0.998183  0.499305  1
  C  C27  1  0.001257  0.502542  0.499707  1
