# generated using pymatgen
data_CsSb3(SO7)2
_symmetry_space_group_name_H-M   'P 1'
_cell_length_a   8.77884213
_cell_length_b   8.77884205
_cell_length_c   8.77884402
_cell_angle_alpha   48.12772386
_cell_angle_beta   48.12772798
_cell_angle_gamma   48.12772573
_symmetry_Int_Tables_number   1
_chemical_formula_structural   CsSb3(SO7)2
_chemical_formula_sum   'Cs1 Sb3 S2 O14'
_cell_volume   343.77787809
_cell_formula_units_Z   1
loop_
 _symmetry_equiv_pos_site_id
 _symmetry_equiv_pos_as_xyz
  1  'x, y, z'
loop_
 _atom_site_type_symbol
 _atom_site_label
 _atom_site_symmetry_multiplicity
 _atom_site_fract_x
 _atom_site_fract_y
 _atom_site_fract_z
 _atom_site_occupancy
  Cs  Cs0  1  0.999997  0.999997  0.999997  1
  Sb  Sb1  1  0.000008  0.500007  0.000008  1
  Sb  Sb2  1  0.000008  0.000008  0.500007  1
  Sb  Sb3  1  0.500007  0.000008  0.000008  1
  S  S4  1  0.722118  0.722118  0.722118  1
  S  S5  1  0.277888  0.277888  0.277888  1
  O  O6  1  0.660668  0.660668  0.660668  1
  O  O7  1  0.339337  0.339337  0.339337  1
  O  O8  1  0.860041  0.516650  0.860041  1
  O  O9  1  0.860041  0.860041  0.516650  1
  O  O10  1  0.516650  0.860041  0.860041  1
  O  O11  1  0.139963  0.483364  0.139963  1
  O  O12  1  0.139963  0.139963  0.483364  1
  O  O13  1  0.483364  0.139963  0.139963  1
  O  O14  1  0.724236  0.120855  0.724236  1
  O  O15  1  0.724236  0.724236  0.120855  1
  O  O16  1  0.120855  0.724236  0.724236  1
  O  O17  1  0.275784  0.879149  0.275784  1
  O  O18  1  0.275784  0.275784  0.879149  1
  O  O19  1  0.879149  0.275784  0.275784  1
