# generated using pymatgen
data_Th4B20RuRh
_symmetry_space_group_name_H-M   'P 1'
_cell_length_a   4.20100600
_cell_length_b   5.73368429
_cell_length_c   11.45893671
_cell_angle_alpha   89.58096512
_cell_angle_beta   90.00000000
_cell_angle_gamma   90.00000000
_symmetry_Int_Tables_number   1
_chemical_formula_structural   Th4B20RuRh
_chemical_formula_sum   'Th4 B20 Ru1 Rh1'
_cell_volume   276.00680100
_cell_formula_units_Z   1
loop_
 _symmetry_equiv_pos_site_id
 _symmetry_equiv_pos_as_xyz
  1  'x, y, z'
loop_
 _atom_site_type_symbol
 _atom_site_label
 _atom_site_symmetry_multiplicity
 _atom_site_fract_x
 _atom_site_fract_y
 _atom_site_fract_z
 _atom_site_occupancy
  Th  Th0  1  0.500000  0.285677  0.866952  1
  Th  Th1  1  0.500000  0.714323  0.133048  1
  Th  Th2  1  0.500000  0.793968  0.635507  1
  Th  Th3  1  0.500000  0.206032  0.364493  1
  B  B4  1  0.000000  0.117337  0.542983  1
  B  B5  1  0.000000  0.882663  0.457017  1
  B  B6  1  0.000000  0.618338  0.957134  1
  B  B7  1  0.000000  0.381662  0.042866  1
  B  B8  1  0.000000  0.132928  0.696920  1
  B  B9  1  0.000000  0.867072  0.303080  1
  B  B10  1  0.300912  0.220821  0.118932  1
  B  B11  1  0.300912  0.779179  0.881068  1
  B  B12  1  0.697974  0.720569  0.380686  1
  B  B13  1  0.697974  0.279431  0.619314  1
  B  B14  1  0.699088  0.779179  0.881068  1
  B  B15  1  0.699088  0.220821  0.118932  1
  B  B16  1  0.302026  0.279431  0.619314  1
  B  B17  1  0.302026  0.720569  0.380686  1
  B  B18  1  0.000000  0.057803  0.192717  1
  B  B19  1  0.000000  0.942197  0.807283  1
  B  B20  1  0.000000  0.557899  0.306938  1
  B  B21  1  0.000000  0.442101  0.693062  1
  B  B22  1  0.000000  0.367096  0.197676  1
  B  B23  1  0.000000  0.632904  0.802324  1
  Ru  Ru24  1  0.000000  0.000000  0.000000  1
  Rh  Rh25  1  0.000000  0.500000  0.500000  1
