# generated using pymatgen
data_Tb3Ho9Co4
_symmetry_space_group_name_H-M   'P 1'
_cell_length_a   6.93092842
_cell_length_b   9.43828200
_cell_length_c   6.20297838
_cell_angle_alpha   90.00000000
_cell_angle_beta   89.96001248
_cell_angle_gamma   90.00000000
_symmetry_Int_Tables_number   1
_chemical_formula_structural   Tb3Ho9Co4
_chemical_formula_sum   'Tb3 Ho9 Co4'
_cell_volume   405.77428811
_cell_formula_units_Z   1
loop_
 _symmetry_equiv_pos_site_id
 _symmetry_equiv_pos_as_xyz
  1  'x, y, z'
loop_
 _atom_site_type_symbol
 _atom_site_label
 _atom_site_symmetry_multiplicity
 _atom_site_fract_x
 _atom_site_fract_y
 _atom_site_fract_z
 _atom_site_occupancy
  Tb  Tb0  1  0.457830  0.750000  0.140141  1
  Tb  Tb1  1  0.957625  0.750000  0.360146  1
  Tb  Tb2  1  0.042195  0.250000  0.640780  1
  Ho  Ho3  1  0.174893  0.068102  0.175717  1
  Ho  Ho4  1  0.174893  0.431898  0.175717  1
  Ho  Ho5  1  0.674404  0.068530  0.323779  1
  Ho  Ho6  1  0.674404  0.431470  0.323779  1
  Ho  Ho7  1  0.325817  0.567673  0.675724  1
  Ho  Ho8  1  0.325817  0.932326  0.675724  1
  Ho  Ho9  1  0.824990  0.567769  0.824406  1
  Ho  Ho10  1  0.824990  0.932230  0.824406  1
  Ho  Ho11  1  0.542415  0.250000  0.858877  1
  Co  Co12  1  0.886052  0.250000  0.049876  1
  Co  Co13  1  0.386667  0.250000  0.450833  1
  Co  Co14  1  0.613531  0.750000  0.550551  1
  Co  Co15  1  0.113483  0.750000  0.949542  1
