# generated using pymatgen
data_LuRhI18
_symmetry_space_group_name_H-M   'P 1'
_cell_length_a   10.13650724
_cell_length_b   10.16368986
_cell_length_c   10.14584372
_cell_angle_alpha   88.33809849
_cell_angle_beta   88.37772655
_cell_angle_gamma   88.27279079
_symmetry_Int_Tables_number   1
_chemical_formula_structural   LuRhI18
_chemical_formula_sum   'Lu1 Rh1 I18'
_cell_volume   1043.96039893
_cell_formula_units_Z   1
loop_
 _symmetry_equiv_pos_site_id
 _symmetry_equiv_pos_as_xyz
  1  'x, y, z'
loop_
 _atom_site_type_symbol
 _atom_site_label
 _atom_site_symmetry_multiplicity
 _atom_site_fract_x
 _atom_site_fract_y
 _atom_site_fract_z
 _atom_site_occupancy
  Lu  Lu0  1  0.000000  0.000000  0.000000  1
  Rh  Rh1  1  0.500000  0.500000  0.500000  1
  I  I2  1  0.765608  0.476468  0.500073  1
  I  I3  1  0.499288  0.765109  0.476074  1
  I  I4  1  0.475777  0.499770  0.765784  1
  I  I5  1  0.234392  0.523532  0.499927  1
  I  I6  1  0.500712  0.234891  0.523926  1
  I  I7  1  0.524223  0.500230  0.234216  1
  I  I8  1  0.880107  0.381513  0.746562  1
  I  I9  1  0.745423  0.879149  0.381215  1
  I  I10  1  0.381600  0.745777  0.879675  1
  I  I11  1  0.119893  0.618487  0.253438  1
  I  I12  1  0.254577  0.120851  0.618785  1
  I  I13  1  0.618400  0.254223  0.120325  1
  I  I14  1  0.019692  0.971072  0.707462  1
  I  I15  1  0.707262  0.019868  0.969596  1
  I  I16  1  0.969811  0.708135  0.018310  1
  I  I17  1  0.980308  0.028928  0.292538  1
  I  I18  1  0.292738  0.980132  0.030404  1
  I  I19  1  0.030189  0.291865  0.981690  1
