# generated using pymatgen
data_Tb7Y7Th2(CdPt)4
_symmetry_space_group_name_H-M   'P 1'
_cell_length_a   9.79145151
_cell_length_b   9.79145122
_cell_length_c   9.77742500
_cell_angle_alpha   60.04737868
_cell_angle_beta   60.04737966
_cell_angle_gamma   60.03097119
_symmetry_Int_Tables_number   1
_chemical_formula_structural   Tb7Y7Th2(CdPt)4
_chemical_formula_sum   'Tb7 Y7 Th2 Cd4 Pt4'
_cell_volume   663.46188145
_cell_formula_units_Z   1
loop_
 _symmetry_equiv_pos_site_id
 _symmetry_equiv_pos_as_xyz
  1  'x, y, z'
loop_
 _atom_site_type_symbol
 _atom_site_label
 _atom_site_symmetry_multiplicity
 _atom_site_fract_x
 _atom_site_fract_y
 _atom_site_fract_z
 _atom_site_occupancy
  Tb  Tb0  1  0.352980  0.941018  0.353001  1
  Tb  Tb1  1  0.941018  0.352980  0.353001  1
  Tb  Tb2  1  0.811284  0.190152  0.189214  1
  Tb  Tb3  1  0.190152  0.811284  0.809349  1
  Tb  Tb4  1  0.190152  0.811284  0.189214  1
  Tb  Tb5  1  0.811284  0.190152  0.809349  1
  Tb  Tb6  1  0.188695  0.188695  0.811305  1
  Y  Y7  1  0.809430  0.809430  0.190570  1
  Y  Y8  1  0.935600  0.565315  0.565911  1
  Y  Y9  1  0.565315  0.935600  0.933175  1
  Y  Y10  1  0.565315  0.935600  0.565911  1
  Y  Y11  1  0.935600  0.565315  0.933175  1
  Y  Y12  1  0.565990  0.565990  0.934010  1
  Y  Y13  1  0.935389  0.935389  0.564611  1
  Th  Th14  1  0.350181  0.350181  0.353254  1
  Th  Th15  1  0.350181  0.350181  0.946384  1
  Cd  Cd16  1  0.583183  0.583183  0.580917  1
  Cd  Cd17  1  0.583183  0.583183  0.252719  1
  Cd  Cd18  1  0.584110  0.251592  0.582149  1
  Cd  Cd19  1  0.251592  0.584110  0.582149  1
  Pt  Pt20  1  0.142642  0.142642  0.145046  1
  Pt  Pt21  1  0.142642  0.142642  0.569669  1
  Pt  Pt22  1  0.144223  0.569859  0.142959  1
  Pt  Pt23  1  0.569859  0.144223  0.142959  1
