# generated using pymatgen
data_TmSc2(Ni3P2)3
_symmetry_space_group_name_H-M   'P 1'
_cell_length_a   3.67831800
_cell_length_b   10.34109700
_cell_length_c   12.15089800
_cell_angle_alpha   90.00000000
_cell_angle_beta   90.00000000
_cell_angle_gamma   90.00000000
_symmetry_Int_Tables_number   1
_chemical_formula_structural   TmSc2(Ni3P2)3
_chemical_formula_sum   'Tm2 Sc4 Ni18 P12'
_cell_volume   462.19395329
_cell_formula_units_Z   2
loop_
 _symmetry_equiv_pos_site_id
 _symmetry_equiv_pos_as_xyz
  1  'x, y, z'
loop_
 _atom_site_type_symbol
 _atom_site_label
 _atom_site_symmetry_multiplicity
 _atom_site_fract_x
 _atom_site_fract_y
 _atom_site_fract_z
 _atom_site_occupancy
  Tm  Tm0  1  0.000000  0.500000  0.523696  1
  Tm  Tm1  1  0.500000  0.000000  0.476304  1
  Sc  Sc2  1  0.500000  0.819153  0.205618  1
  Sc  Sc3  1  0.500000  0.180847  0.205618  1
  Sc  Sc4  1  0.000000  0.680847  0.794382  1
  Sc  Sc5  1  0.000000  0.319153  0.794382  1
  Ni  Ni6  1  0.500000  0.500000  0.159167  1
  Ni  Ni7  1  0.000000  0.000000  0.840833  1
  Ni  Ni8  1  0.500000  0.500000  0.701433  1
  Ni  Ni9  1  0.000000  0.000000  0.298567  1
  Ni  Ni10  1  0.000000  0.500000  0.984083  1
  Ni  Ni11  1  0.500000  0.000000  0.015917  1
  Ni  Ni12  1  0.500000  0.332639  0.995728  1
  Ni  Ni13  1  0.500000  0.667361  0.995728  1
  Ni  Ni14  1  0.000000  0.167361  0.004272  1
  Ni  Ni15  1  0.000000  0.832639  0.004272  1
  Ni  Ni16  1  0.500000  0.300082  0.429910  1
  Ni  Ni17  1  0.500000  0.699918  0.429910  1
  Ni  Ni18  1  0.000000  0.199918  0.570090  1
  Ni  Ni19  1  0.000000  0.800082  0.570090  1
  Ni  Ni20  1  0.500000  0.876589  0.711240  1
  Ni  Ni21  1  0.500000  0.123411  0.711240  1
  Ni  Ni22  1  0.000000  0.623411  0.288760  1
  Ni  Ni23  1  0.000000  0.376589  0.288760  1
  P  P24  1  0.500000  0.500000  0.875252  1
  P  P25  1  0.000000  0.000000  0.124748  1
  P  P26  1  0.500000  0.500000  0.346434  1
  P  P27  1  0.000000  0.000000  0.653566  1
  P  P28  1  0.500000  0.314925  0.617654  1
  P  P29  1  0.500000  0.685075  0.617654  1
  P  P30  1  0.000000  0.185075  0.382346  1
  P  P31  1  0.000000  0.814925  0.382346  1
  P  P32  1  0.500000  0.844457  0.889737  1
  P  P33  1  0.500000  0.155543  0.889737  1
  P  P34  1  0.000000  0.655543  0.110263  1
  P  P35  1  0.000000  0.344457  0.110263  1
