# generated using pymatgen
data_La3Y(SnRh2)8
_symmetry_space_group_name_H-M   'P 1'
_cell_length_a   4.43173500
_cell_length_b   9.88032179
_cell_length_c   11.93607984
_cell_angle_alpha   90.61440944
_cell_angle_beta   90.00000000
_cell_angle_gamma   90.00000000
_symmetry_Int_Tables_number   1
_chemical_formula_structural   La3Y(SnRh2)8
_chemical_formula_sum   'La3 Y1 Sn8 Rh16'
_cell_volume   522.61469514
_cell_formula_units_Z   1
loop_
 _symmetry_equiv_pos_site_id
 _symmetry_equiv_pos_as_xyz
  1  'x, y, z'
loop_
 _atom_site_type_symbol
 _atom_site_label
 _atom_site_symmetry_multiplicity
 _atom_site_fract_x
 _atom_site_fract_y
 _atom_site_fract_z
 _atom_site_occupancy
  La  La0  1  0.250000  0.152491  0.824591  1
  La  La1  1  0.250000  0.347621  0.326399  1
  La  La2  1  0.750000  0.845598  0.174522  1
  Y  Y3  1  0.750000  0.650612  0.672671  1
  Sn  Sn4  1  0.250000  0.417917  0.636683  1
  Sn  Sn5  1  0.250000  0.085718  0.133973  1
  Sn  Sn6  1  0.750000  0.588308  0.368140  1
  Sn  Sn7  1  0.750000  0.908129  0.859805  1
  Sn  Sn8  1  0.250000  0.614792  0.062263  1
  Sn  Sn9  1  0.250000  0.888336  0.564622  1
  Sn  Sn10  1  0.750000  0.384671  0.939670  1
  Sn  Sn11  1  0.750000  0.115604  0.436892  1
  Rh  Rh12  1  0.250000  0.626494  0.503407  1
  Rh  Rh13  1  0.250000  0.879323  0.991211  1
  Rh  Rh14  1  0.750000  0.383346  0.505668  1
  Rh  Rh15  1  0.750000  0.116159  0.001533  1
  Rh  Rh16  1  0.250000  0.702308  0.278532  1
  Rh  Rh17  1  0.250000  0.783177  0.771176  1
  Rh  Rh18  1  0.750000  0.297557  0.724474  1
  Rh  Rh19  1  0.750000  0.205927  0.222861  1
  Rh  Rh20  1  0.250000  0.170326  0.563680  1
  Rh  Rh21  1  0.250000  0.332315  0.063781  1
  Rh  Rh22  1  0.750000  0.834673  0.439073  1
  Rh  Rh23  1  0.750000  0.664664  0.933738  1
  Rh  Rh24  1  0.250000  0.994350  0.344744  1
  Rh  Rh25  1  0.250000  0.503942  0.845358  1
  Rh  Rh26  1  0.750000  0.008261  0.654294  1
  Rh  Rh27  1  0.750000  0.497381  0.156241  1
