# generated using pymatgen
data_YbV2(CO3)4
_symmetry_space_group_name_H-M   'P 1'
_cell_length_a   6.07684029
_cell_length_b   9.68236770
_cell_length_c   7.77943843
_cell_angle_alpha   89.74334007
_cell_angle_beta   107.51308585
_cell_angle_gamma   89.53115758
_symmetry_Int_Tables_number   1
_chemical_formula_structural   YbV2(CO3)4
_chemical_formula_sum   'Yb2 V4 C8 O24'
_cell_volume   436.48548806
_cell_formula_units_Z   2
loop_
 _symmetry_equiv_pos_site_id
 _symmetry_equiv_pos_as_xyz
  1  'x, y, z'
loop_
 _atom_site_type_symbol
 _atom_site_label
 _atom_site_symmetry_multiplicity
 _atom_site_fract_x
 _atom_site_fract_y
 _atom_site_fract_z
 _atom_site_occupancy
  Yb  Yb0  1  0.499926  0.249990  0.499967  1
  Yb  Yb1  1  0.500085  0.750000  0.500030  1
  V  V2  1  0.500253  0.749968  0.000087  1
  V  V3  1  0.499828  0.250063  0.999886  1
  V  V4  1  0.999761  0.999981  0.499923  1
  V  V5  1  0.000172  0.500036  0.500113  1
  C  C6  1  0.022678  0.245364  0.732710  1
  C  C7  1  0.022686  0.745396  0.732710  1
  C  C8  1  0.977284  0.254644  0.267302  1
  C  C9  1  0.977333  0.754628  0.267291  1
  C  C10  1  0.516881  0.000371  0.239006  1
  C  C11  1  0.516874  0.500363  0.239046  1
  C  C12  1  0.483165  0.499622  0.760975  1
  C  C13  1  0.483100  0.999616  0.760965  1
  O  O14  1  0.346828  0.445518  0.611207  1
  O  O15  1  0.346784  0.945489  0.611225  1
  O  O16  1  0.653233  0.054526  0.388762  1
  O  O17  1  0.653182  0.554453  0.388779  1
  O  O18  1  0.595774  0.420944  0.888697  1
  O  O19  1  0.595741  0.920922  0.888740  1
  O  O20  1  0.404239  0.079048  0.111269  1
  O  O21  1  0.404233  0.579032  0.111278  1
  O  O22  1  0.003057  0.386634  0.289838  1
  O  O23  1  0.002864  0.886670  0.289670  1
  O  O24  1  0.997176  0.113327  0.710339  1
  O  O25  1  0.996848  0.613384  0.710179  1
  O  O26  1  0.497277  0.366941  0.230872  1
  O  O27  1  0.497350  0.866965  0.230874  1
  O  O28  1  0.502675  0.133031  0.769134  1
  O  O29  1  0.502678  0.633036  0.769115  1
  O  O30  1  0.883109  0.327676  0.613788  1
  O  O31  1  0.883178  0.827800  0.613874  1
  O  O32  1  0.116820  0.172230  0.386110  1
  O  O33  1  0.116920  0.672323  0.386235  1
  O  O34  1  0.172621  0.295222  0.869996  1
  O  O35  1  0.172713  0.795143  0.870016  1
  O  O36  1  0.827279  0.204875  0.129960  1
  O  O37  1  0.827395  0.704769  0.130032  1
