# generated using pymatgen
data_LaPr(Sn2Rh)2
_symmetry_space_group_name_H-M   'P 1'
_cell_length_a   8.86236730
_cell_length_b   8.86236632
_cell_length_c   9.76340200
_cell_angle_alpha   90.00000000
_cell_angle_beta   90.00000000
_cell_angle_gamma   149.22015178
_symmetry_Int_Tables_number   1
_chemical_formula_structural   LaPr(Sn2Rh)2
_chemical_formula_sum   'La2 Pr2 Sn8 Rh4'
_cell_volume   392.41951180
_cell_formula_units_Z   2
loop_
 _symmetry_equiv_pos_site_id
 _symmetry_equiv_pos_as_xyz
  1  'x, y, z'
loop_
 _atom_site_type_symbol
 _atom_site_label
 _atom_site_symmetry_multiplicity
 _atom_site_fract_x
 _atom_site_fract_y
 _atom_site_fract_z
 _atom_site_occupancy
  La  La0  1  0.500000  0.500000  0.500000  1
  La  La1  1  0.500000  0.500000  0.000000  1
  Pr  Pr2  1  0.297145  0.702855  0.250000  1
  Pr  Pr3  1  0.702855  0.297145  0.750000  1
  Sn  Sn4  1  0.907701  0.092299  0.750000  1
  Sn  Sn5  1  0.924937  0.075063  0.250000  1
  Sn  Sn6  1  0.092299  0.907701  0.250000  1
  Sn  Sn7  1  0.075063  0.924937  0.750000  1
  Sn  Sn8  1  0.697688  0.302312  0.410316  1
  Sn  Sn9  1  0.302312  0.697688  0.589684  1
  Sn  Sn10  1  0.302312  0.697688  0.910316  1
  Sn  Sn11  1  0.697688  0.302312  0.089684  1
  Rh  Rh12  1  0.147215  0.852785  0.504285  1
  Rh  Rh13  1  0.852785  0.147215  0.004285  1
  Rh  Rh14  1  0.147215  0.852785  0.995715  1
  Rh  Rh15  1  0.852785  0.147215  0.495715  1
