# generated using pymatgen
data_Mg8Si6Pd3Pt5
_symmetry_space_group_name_H-M   'P 1'
_cell_length_a   10.17893333
_cell_length_b   10.18989147
_cell_length_c   7.38386800
_cell_angle_alpha   70.85422855
_cell_angle_beta   70.69848494
_cell_angle_gamma   31.13688603
_symmetry_Int_Tables_number   1
_chemical_formula_structural   Mg8Si6Pd3Pt5
_chemical_formula_sum   'Mg8 Si6 Pd3 Pt5'
_cell_volume   372.16461191
_cell_formula_units_Z   1
loop_
 _symmetry_equiv_pos_site_id
 _symmetry_equiv_pos_as_xyz
  1  'x, y, z'
loop_
 _atom_site_type_symbol
 _atom_site_label
 _atom_site_symmetry_multiplicity
 _atom_site_fract_x
 _atom_site_fract_y
 _atom_site_fract_z
 _atom_site_occupancy
  Mg  Mg0  1  0.933468  0.199933  0.329312  1
  Mg  Mg1  1  0.067175  0.799281  0.670805  1
  Mg  Mg2  1  0.796309  0.069733  0.171081  1
  Mg  Mg3  1  0.453616  0.208354  0.910885  1
  Mg  Mg4  1  0.792527  0.545894  0.591910  1
  Mg  Mg5  1  0.211275  0.451735  0.404459  1
  Mg  Mg6  1  0.202729  0.931929  0.829138  1
  Mg  Mg7  1  0.545974  0.791191  0.091079  1
  Si  Si8  1  0.292285  0.042630  0.446515  1
  Si  Si9  1  0.384146  0.614823  0.250942  1
  Si  Si10  1  0.044344  0.288317  0.950078  1
  Si  Si11  1  0.711586  0.954379  0.552560  1
  Si  Si12  1  0.954296  0.711202  0.050038  1
  Si  Si13  1  0.614497  0.385570  0.749933  1
  Pd  Pd14  1  0.935048  0.622062  0.803351  1
  Pd  Pd15  1  0.371148  0.072564  0.695406  1
  Pd  Pd16  1  0.065523  0.376247  0.196180  1
  Pt  Pt17  1  0.591196  0.283975  0.524001  1
  Pt  Pt18  1  0.714937  0.408638  0.976552  1
  Pt  Pt19  1  0.280412  0.595781  0.023044  1
  Pt  Pt20  1  0.409064  0.715152  0.476948  1
  Pt  Pt21  1  0.628444  0.930610  0.305782  1
