# generated using pymatgen
data_In2Ni2IrS2
_symmetry_space_group_name_H-M   'P 1'
_cell_length_a   5.53035567
_cell_length_b   5.62838265
_cell_length_c   5.62838272
_cell_angle_alpha   58.84979245
_cell_angle_beta   59.17891314
_cell_angle_gamma   59.17890737
_symmetry_Int_Tables_number   1
_chemical_formula_structural   In2Ni2IrS2
_chemical_formula_sum   'In2 Ni2 Ir1 S2'
_cell_volume   121.24926740
_cell_formula_units_Z   1
loop_
 _symmetry_equiv_pos_site_id
 _symmetry_equiv_pos_as_xyz
  1  'x, y, z'
loop_
 _atom_site_type_symbol
 _atom_site_label
 _atom_site_symmetry_multiplicity
 _atom_site_fract_x
 _atom_site_fract_y
 _atom_site_fract_z
 _atom_site_occupancy
  In  In0  1  0.000000  0.000000  0.000000  1
  In  In1  1  0.500000  0.500000  0.500000  1
  Ni  Ni2  1  0.000000  0.000000  0.500000  1
  Ni  Ni3  1  0.000000  0.500000  0.000000  1
  Ir  Ir4  1  0.500000  0.000000  0.000000  1
  S  S5  1  0.745734  0.709422  0.709422  1
  S  S6  1  0.254266  0.290578  0.290578  1
