# generated using pymatgen
data_CaAs4PdF24
_symmetry_space_group_name_H-M   'P 1'
_cell_length_a   9.70055224
_cell_length_b   9.70055156
_cell_length_c   9.70055136
_cell_angle_alpha   132.43328191
_cell_angle_beta   132.43327854
_cell_angle_gamma   69.54556831
_symmetry_Int_Tables_number   1
_chemical_formula_structural   CaAs4PdF24
_chemical_formula_sum   'Ca1 As4 Pd1 F24'
_cell_volume   487.78347811
_cell_formula_units_Z   1
loop_
 _symmetry_equiv_pos_site_id
 _symmetry_equiv_pos_as_xyz
  1  'x, y, z'
loop_
 _atom_site_type_symbol
 _atom_site_label
 _atom_site_symmetry_multiplicity
 _atom_site_fract_x
 _atom_site_fract_y
 _atom_site_fract_z
 _atom_site_occupancy
  Ca  Ca0  1  0.750000  0.250000  0.500000  1
  As  As1  1  0.778399  0.778399  0.000000  1
  As  As2  1  0.221601  0.221601  0.000000  1
  As  As3  1  0.974679  0.474679  0.500000  1
  As  As4  1  0.525321  0.025321  0.500000  1
  Pd  Pd5  1  0.000000  0.000000  0.000000  1
  F  F6  1  0.860224  0.749210  0.200554  1
  F  F7  1  0.548655  0.659671  0.799446  1
  F  F8  1  0.410139  0.794553  0.300439  1
  F  F9  1  0.340329  0.139776  0.888986  1
  F  F10  1  0.250790  0.451345  0.111014  1
  F  F11  1  0.205447  0.505886  0.615585  1
  F  F12  1  0.646631  0.257600  0.685746  1
  F  F13  1  0.742400  0.428146  0.389032  1
  F  F14  1  0.039115  0.353369  0.610968  1
  F  F15  1  0.097157  0.287568  0.106909  1
  F  F16  1  0.180659  0.990249  0.893091  1
  F  F17  1  0.571854  0.960885  0.314254  1
  F  F18  1  0.712432  0.819341  0.809590  1
  F  F19  1  0.009751  0.902843  0.190410  1
  F  F20  1  0.301906  0.090110  0.336098  1
  F  F21  1  0.909890  0.245989  0.211797  1
  F  F22  1  0.034193  0.698094  0.788203  1
  F  F23  1  0.440957  0.282558  0.285987  1
  F  F24  1  0.996571  0.154969  0.714013  1
  F  F25  1  0.754011  0.965807  0.663902  1
  F  F26  1  0.717442  0.003429  0.158398  1
  F  F27  1  0.845031  0.559043  0.841602  1
  F  F28  1  0.494114  0.109698  0.699561  1
  F  F29  1  0.890302  0.589861  0.384415  1
