# generated using pymatgen
data_Y4Hf3PtF28
_symmetry_space_group_name_H-M   'P 1'
_cell_length_a   5.67020028
_cell_length_b   9.02817695
_cell_length_c   12.15283672
_cell_angle_alpha   62.36817350
_cell_angle_beta   90.07440017
_cell_angle_gamma   90.05430309
_symmetry_Int_Tables_number   1
_chemical_formula_structural   Y4Hf3PtF28
_chemical_formula_sum   'Y4 Hf3 Pt1 F28'
_cell_volume   551.16676578
_cell_formula_units_Z   1
loop_
 _symmetry_equiv_pos_site_id
 _symmetry_equiv_pos_as_xyz
  1  'x, y, z'
loop_
 _atom_site_type_symbol
 _atom_site_label
 _atom_site_symmetry_multiplicity
 _atom_site_fract_x
 _atom_site_fract_y
 _atom_site_fract_z
 _atom_site_occupancy
  Y  Y0  1  0.257675  0.815004  0.267192  1
  Y  Y1  1  0.743635  0.186637  0.733144  1
  Y  Y2  1  0.757722  0.184541  0.234857  1
  Y  Y3  1  0.241070  0.815783  0.761389  1
  Hf  Hf4  1  0.756478  0.726512  0.043297  1
  Hf  Hf5  1  0.244246  0.275332  0.954970  1
  Hf  Hf6  1  0.256604  0.274809  0.455835  1
  Pt  Pt7  1  0.739970  0.727097  0.544162  1
  F  F8  1  0.934384  0.703913  0.418693  1
  F  F9  1  0.041925  0.289275  0.580675  1
  F  F10  1  0.459323  0.291255  0.079810  1
  F  F11  1  0.539143  0.710290  0.919537  1
  F  F12  1  0.484500  0.732611  0.146739  1
  F  F13  1  0.518558  0.268232  0.853686  1
  F  F14  1  0.981825  0.267616  0.354381  1
  F  F15  1  0.026175  0.726714  0.636314  1
  F  F16  1  0.965387  0.746679  0.171002  1
  F  F17  1  0.039149  0.252968  0.827650  1
  F  F18  1  0.464283  0.254951  0.328063  1
  F  F19  1  0.550362  0.742307  0.675100  1
  F  F20  1  0.775127  0.477060  0.139870  1
  F  F21  1  0.223214  0.524794  0.857959  1
  F  F22  1  0.269807  0.525082  0.360667  1
  F  F23  1  0.728441  0.481601  0.642028  1
  F  F24  1  0.950867  0.276928  0.048721  1
  F  F25  1  0.048679  0.724270  0.949216  1
  F  F26  1  0.446491  0.719722  0.458560  1
  F  F27  1  0.550355  0.280393  0.547352  1
  F  F28  1  0.742651  0.972962  0.451232  1
  F  F29  1  0.261454  0.025667  0.555561  1
  F  F30  1  0.241689  0.026182  0.058331  1
  F  F31  1  0.759348  0.975786  0.942225  1
  F  F32  1  0.578446  0.969889  0.235323  1
  F  F33  1  0.421677  0.028426  0.765485  1
  F  F34  1  0.078506  0.027497  0.270008  1
  F  F35  1  0.920835  0.971213  0.730966  1
