# generated using pymatgen
data_Th4ReTcC4
_symmetry_space_group_name_H-M   'P 1'
_cell_length_a   5.36444100
_cell_length_b   6.69246100
_cell_length_c   10.15726700
_cell_angle_alpha   90.00000000
_cell_angle_beta   90.00000000
_cell_angle_gamma   90.00000000
_symmetry_Int_Tables_number   1
_chemical_formula_structural   Th4ReTcC4
_chemical_formula_sum   'Th8 Re2 Tc2 C8'
_cell_volume   364.65921346
_cell_formula_units_Z   2
loop_
 _symmetry_equiv_pos_site_id
 _symmetry_equiv_pos_as_xyz
  1  'x, y, z'
loop_
 _atom_site_type_symbol
 _atom_site_label
 _atom_site_symmetry_multiplicity
 _atom_site_fract_x
 _atom_site_fract_y
 _atom_site_fract_z
 _atom_site_occupancy
  Th  Th0  1  0.250000  0.475407  0.777451  1
  Th  Th1  1  0.750000  0.024593  0.277451  1
  Th  Th2  1  0.250000  0.975198  0.723083  1
  Th  Th3  1  0.750000  0.524802  0.223083  1
  Th  Th4  1  0.250000  0.811413  0.048592  1
  Th  Th5  1  0.750000  0.688587  0.548592  1
  Th  Th6  1  0.250000  0.308242  0.450314  1
  Th  Th7  1  0.750000  0.191758  0.950314  1
  Re  Re8  1  0.250000  0.773589  0.362543  1
  Re  Re9  1  0.750000  0.726411  0.862543  1
  Tc  Tc10  1  0.250000  0.273142  0.137372  1
  Tc  Tc11  1  0.750000  0.226858  0.637372  1
  C  C12  1  0.250000  0.167305  0.946358  1
  C  C13  1  0.750000  0.831215  0.051905  1
  C  C14  1  0.250000  0.668785  0.551905  1
  C  C15  1  0.750000  0.332695  0.446358  1
  C  C16  1  0.250000  0.032404  0.257635  1
  C  C17  1  0.750000  0.467596  0.757635  1
  C  C18  1  0.250000  0.533969  0.244747  1
  C  C19  1  0.750000  0.966031  0.744747  1
