# generated using pymatgen
data_Rb2NaCo3F12
_symmetry_space_group_name_H-M   'P 1'
_cell_length_a   7.28912400
_cell_length_b   7.23946723
_cell_length_c   10.17116143
_cell_angle_alpha   91.62613473
_cell_angle_beta   90.00000000
_cell_angle_gamma   90.00000000
_symmetry_Int_Tables_number   1
_chemical_formula_structural   Rb2NaCo3F12
_chemical_formula_sum   'Rb4 Na2 Co6 F24'
_cell_volume   536.50967224
_cell_formula_units_Z   2
loop_
 _symmetry_equiv_pos_site_id
 _symmetry_equiv_pos_as_xyz
  1  'x, y, z'
loop_
 _atom_site_type_symbol
 _atom_site_label
 _atom_site_symmetry_multiplicity
 _atom_site_fract_x
 _atom_site_fract_y
 _atom_site_fract_z
 _atom_site_occupancy
  Rb  Rb0  1  0.750000  0.001994  0.113637  1
  Rb  Rb1  1  0.250000  0.998006  0.886363  1
  Rb  Rb2  1  0.250000  0.492376  0.636382  1
  Rb  Rb3  1  0.750000  0.507624  0.363618  1
  Na  Na4  1  0.750000  0.217546  0.745425  1
  Na  Na5  1  0.250000  0.782454  0.254575  1
  Co  Co6  1  0.500000  0.000000  0.500000  1
  Co  Co7  1  0.000000  0.000000  0.500000  1
  Co  Co8  1  0.000000  0.500000  0.000000  1
  Co  Co9  1  0.500000  0.500000  0.000000  1
  Co  Co10  1  0.750000  0.707176  0.726098  1
  Co  Co11  1  0.250000  0.292824  0.273902  1
  F  F12  1  0.750000  0.093294  0.504915  1
  F  F13  1  0.250000  0.906706  0.495085  1
  F  F14  1  0.750000  0.484488  0.634305  1
  F  F15  1  0.250000  0.515512  0.365695  1
  F  F16  1  0.250000  0.474528  0.934726  1
  F  F17  1  0.750000  0.525472  0.065274  1
  F  F18  1  0.250000  0.074943  0.176893  1
  F  F19  1  0.750000  0.925057  0.823107  1
  F  F20  1  0.956982  0.857888  0.353566  1
  F  F21  1  0.456982  0.142112  0.646434  1
  F  F22  1  0.043018  0.142112  0.646434  1
  F  F23  1  0.543018  0.857888  0.353566  1
  F  F24  1  0.939134  0.786967  0.611392  1
  F  F25  1  0.439134  0.213033  0.388608  1
  F  F26  1  0.060866  0.213033  0.388608  1
  F  F27  1  0.560866  0.786967  0.611392  1
  F  F28  1  0.046233  0.727547  0.072368  1
  F  F29  1  0.546233  0.272453  0.927632  1
  F  F30  1  0.953767  0.272453  0.927632  1
  F  F31  1  0.453767  0.727547  0.072368  1
  F  F32  1  0.445372  0.384319  0.169518  1
  F  F33  1  0.945372  0.615681  0.830482  1
  F  F34  1  0.554628  0.615681  0.830482  1
  F  F35  1  0.054628  0.384319  0.169518  1
