# generated using pymatgen
data_Cs(ZrTe2)3
_symmetry_space_group_name_H-M   'P 1'
_cell_length_a   7.00079859
_cell_length_b   7.00079745
_cell_length_c   10.06467707
_cell_angle_alpha   96.66217011
_cell_angle_beta   96.66217214
_cell_angle_gamma   119.92863737
_symmetry_Int_Tables_number   1
_chemical_formula_structural   Cs(ZrTe2)3
_chemical_formula_sum   'Cs1 Zr3 Te6'
_cell_volume   415.85966843
_cell_formula_units_Z   1
loop_
 _symmetry_equiv_pos_site_id
 _symmetry_equiv_pos_as_xyz
  1  'x, y, z'
loop_
 _atom_site_type_symbol
 _atom_site_label
 _atom_site_symmetry_multiplicity
 _atom_site_fract_x
 _atom_site_fract_y
 _atom_site_fract_z
 _atom_site_occupancy
  Cs  Cs0  1  0.000000  0.000000  0.500000  1
  Zr  Zr1  1  0.834203  0.165797  0.000000  1
  Zr  Zr2  1  0.500000  0.500000  0.000000  1
  Zr  Zr3  1  0.165797  0.834203  0.000000  1
  Te  Te4  1  0.229819  0.229819  0.181665  1
  Te  Te5  1  0.893504  0.558506  0.180713  1
  Te  Te6  1  0.558506  0.893504  0.180713  1
  Te  Te7  1  0.441494  0.106496  0.819288  1
  Te  Te8  1  0.106496  0.441494  0.819288  1
  Te  Te9  1  0.770183  0.770183  0.818336  1
