# generated using pymatgen
data_ZrTa(SiTc)2
_symmetry_space_group_name_H-M   'P 1'
_cell_length_a   3.37217600
_cell_length_b   6.94137939
_cell_length_c   11.95738824
_cell_angle_alpha   89.73566344
_cell_angle_beta   90.00000000
_cell_angle_gamma   90.00000000
_symmetry_Int_Tables_number   1
_chemical_formula_structural   ZrTa(SiTc)2
_chemical_formula_sum   'Zr3 Ta3 Si6 Tc6'
_cell_volume   279.89022001
_cell_formula_units_Z   3
loop_
 _symmetry_equiv_pos_site_id
 _symmetry_equiv_pos_as_xyz
  1  'x, y, z'
loop_
 _atom_site_type_symbol
 _atom_site_label
 _atom_site_symmetry_multiplicity
 _atom_site_fract_x
 _atom_site_fract_y
 _atom_site_fract_z
 _atom_site_occupancy
  Zr  Zr0  1  0.500000  0.297503  0.298470  1
  Zr  Zr1  1  0.500000  0.295868  0.701473  1
  Zr  Zr2  1  0.500000  0.799007  0.201816  1
  Ta  Ta3  1  0.500000  0.404332  0.999257  1
  Ta  Ta4  1  0.500000  0.901617  0.501865  1
  Ta  Ta5  1  0.500000  0.796688  0.799291  1
  Si  Si6  1  0.500000  0.003616  0.998202  1
  Si  Si7  1  0.500000  0.502262  0.499907  1
  Si  Si8  1  0.000000  0.992365  0.667720  1
  Si  Si9  1  0.000000  0.498827  0.161381  1
  Si  Si10  1  0.000000  0.503510  0.834892  1
  Si  Si11  1  0.000000  0.997126  0.338491  1
  Tc  Tc12  1  0.000000  0.244298  0.502047  1
  Tc  Tc13  1  0.000000  0.746959  0.995873  1
  Tc  Tc14  1  0.000000  0.629574  0.627653  1
  Tc  Tc15  1  0.000000  0.130057  0.123428  1
  Tc  Tc16  1  0.000000  0.127639  0.872859  1
  Tc  Tc17  1  0.000000  0.628950  0.375375  1
