# generated using pymatgen
data_Sc3Zn2SiRu3
_symmetry_space_group_name_H-M   'P 1'
_cell_length_a   7.18504600
_cell_length_b   7.18504605
_cell_length_c   3.25006700
_cell_angle_alpha   90.00000000
_cell_angle_beta   90.00000000
_cell_angle_gamma   119.99999056
_symmetry_Int_Tables_number   1
_chemical_formula_structural   Sc3Zn2SiRu3
_chemical_formula_sum   'Sc3 Zn2 Si1 Ru3'
_cell_volume   145.30551431
_cell_formula_units_Z   1
loop_
 _symmetry_equiv_pos_site_id
 _symmetry_equiv_pos_as_xyz
  1  'x, y, z'
loop_
 _atom_site_type_symbol
 _atom_site_label
 _atom_site_symmetry_multiplicity
 _atom_site_fract_x
 _atom_site_fract_y
 _atom_site_fract_z
 _atom_site_occupancy
  Sc  Sc0  1  0.381778  0.381778  0.500000  1
  Sc  Sc1  1  0.618222  0.000000  0.500000  1
  Sc  Sc2  1  0.000000  0.618222  0.500000  1
  Zn  Zn3  1  0.666667  0.333333  0.000000  1
  Zn  Zn4  1  0.333333  0.666667  0.000000  1
  Si  Si5  1  0.000000  0.000000  0.500000  1
  Ru  Ru6  1  0.747716  0.747716  0.000000  1
  Ru  Ru7  1  0.252284  0.000000  0.000000  1
  Ru  Ru8  1  0.000000  0.252284  0.000000  1
