# generated using pymatgen
data_Tb8Cd2IrRh
_symmetry_space_group_name_H-M   'P 1'
_cell_length_a   9.66371775
_cell_length_b   9.67837425
_cell_length_c   9.67837429
_cell_angle_alpha   60.12651400
_cell_angle_beta   60.05008264
_cell_angle_gamma   60.05008298
_symmetry_Int_Tables_number   1
_chemical_formula_structural   Tb8Cd2IrRh
_chemical_formula_sum   'Tb16 Cd4 Ir2 Rh2'
_cell_volume   641.17497385
_cell_formula_units_Z   2
loop_
 _symmetry_equiv_pos_site_id
 _symmetry_equiv_pos_as_xyz
  1  'x, y, z'
loop_
 _atom_site_type_symbol
 _atom_site_label
 _atom_site_symmetry_multiplicity
 _atom_site_fract_x
 _atom_site_fract_y
 _atom_site_fract_z
 _atom_site_occupancy
  Tb  Tb0  1  0.297114  0.900513  0.900513  1
  Tb  Tb1  1  0.687518  0.312562  0.686566  1
  Tb  Tb2  1  0.313354  0.686566  0.312562  1
  Tb  Tb3  1  0.060457  0.439543  0.439543  1
  Tb  Tb4  1  0.686547  0.313453  0.313453  1
  Tb  Tb5  1  0.438608  0.060987  0.440177  1
  Tb  Tb6  1  0.439410  0.060590  0.060590  1
  Tb  Tb7  1  0.901859  0.900513  0.900513  1
  Tb  Tb8  1  0.060229  0.440177  0.060987  1
  Tb  Tb9  1  0.900982  0.298622  0.899415  1
  Tb  Tb10  1  0.312388  0.687612  0.687612  1
  Tb  Tb11  1  0.900982  0.899415  0.298622  1
  Tb  Tb12  1  0.438608  0.440177  0.060987  1
  Tb  Tb13  1  0.313354  0.312562  0.686566  1
  Tb  Tb14  1  0.687518  0.686566  0.312562  1
  Tb  Tb15  1  0.060229  0.060987  0.440177  1
  Cd  Cd16  1  0.992729  0.669130  0.669130  1
  Cd  Cd17  1  0.668750  0.993542  0.668958  1
  Cd  Cd18  1  0.668750  0.668958  0.993542  1
  Cd  Cd19  1  0.669011  0.669130  0.669130  1
  Ir  Ir20  1  0.108421  0.107215  0.675943  1
  Ir  Ir21  1  0.108421  0.675943  0.107215  1
  Rh  Rh22  1  0.108562  0.107617  0.107617  1
  Rh  Rh23  1  0.676204  0.107617  0.107617  1
