# generated using pymatgen
data_Er2Sc3Si7(Pt2Rh)3
_symmetry_space_group_name_H-M   'P 1'
_cell_length_a   10.04145300
_cell_length_b   10.04145191
_cell_length_c   3.91642400
_cell_angle_alpha   90.00000000
_cell_angle_beta   90.00000000
_cell_angle_gamma   119.99999370
_symmetry_Int_Tables_number   1
_chemical_formula_structural   Er2Sc3Si7(Pt2Rh)3
_chemical_formula_sum   'Er2 Sc3 Si7 Pt6 Rh3'
_cell_volume   341.99002208
_cell_formula_units_Z   1
loop_
 _symmetry_equiv_pos_site_id
 _symmetry_equiv_pos_as_xyz
  1  'x, y, z'
loop_
 _atom_site_type_symbol
 _atom_site_label
 _atom_site_symmetry_multiplicity
 _atom_site_fract_x
 _atom_site_fract_y
 _atom_site_fract_z
 _atom_site_occupancy
  Er  Er0  1  0.000000  0.000000  0.000000  1
  Er  Er1  1  0.333333  0.666667  0.500000  1
  Sc  Sc2  1  0.894594  0.455679  0.500000  1
  Sc  Sc3  1  0.561084  0.105406  0.500000  1
  Sc  Sc4  1  0.544321  0.438916  0.500000  1
  Si  Si5  1  0.244203  0.196708  0.500000  1
  Si  Si6  1  0.803292  0.047495  0.500000  1
  Si  Si7  1  0.952505  0.755797  0.500000  1
  Si  Si8  1  0.559431  0.649961  0.000000  1
  Si  Si9  1  0.350039  0.909469  0.000000  1
  Si  Si10  1  0.090531  0.440569  0.000000  1
  Si  Si11  1  0.666667  0.333333  0.000000  1
  Pt  Pt12  1  0.312803  0.411412  0.000000  1
  Pt  Pt13  1  0.588588  0.901390  0.000000  1
  Pt  Pt14  1  0.098610  0.687197  0.000000  1
  Pt  Pt15  1  0.384325  0.173306  0.000000  1
  Pt  Pt16  1  0.826694  0.211019  0.000000  1
  Pt  Pt17  1  0.788981  0.615675  0.000000  1
  Rh  Rh18  1  0.220867  0.938797  0.500000  1
  Rh  Rh19  1  0.061203  0.282071  0.500000  1
  Rh  Rh20  1  0.717929  0.779133  0.500000  1
