# generated using pymatgen
data_Ho3ScZn2Pt3
_symmetry_space_group_name_H-M   'P 1'
_cell_length_a   7.20882900
_cell_length_b   7.30306491
_cell_length_c   4.02645200
_cell_angle_alpha   90.00000000
_cell_angle_beta   90.00000000
_cell_angle_gamma   119.57406663
_symmetry_Int_Tables_number   1
_chemical_formula_structural   Ho3ScZn2Pt3
_chemical_formula_sum   'Ho3 Sc1 Zn2 Pt3'
_cell_volume   184.36185692
_cell_formula_units_Z   1
loop_
 _symmetry_equiv_pos_site_id
 _symmetry_equiv_pos_as_xyz
  1  'x, y, z'
loop_
 _atom_site_type_symbol
 _atom_site_label
 _atom_site_symmetry_multiplicity
 _atom_site_fract_x
 _atom_site_fract_y
 _atom_site_fract_z
 _atom_site_occupancy
  Ho  Ho0  1  0.616232  0.000000  0.000000  1
  Ho  Ho1  1  0.415633  0.430342  0.000000  1
  Ho  Ho2  1  0.985290  0.569657  0.000000  1
  Sc  Sc3  1  0.235785  0.000000  0.499999  1
  Zn  Zn4  1  0.003273  0.254438  0.499999  1
  Zn  Zn5  1  0.748833  0.745562  0.499999  1
  Pt  Pt6  1  0.004332  0.000000  0.000000  1
  Pt  Pt7  1  0.656583  0.322548  0.499999  1
  Pt  Pt8  1  0.334036  0.677452  0.499999  1
