# generated using pymatgen
data_Tb15YCd4(PdRu)2
_symmetry_space_group_name_H-M   'P 1'
_cell_length_a   9.67925635
_cell_length_b   9.67547177
_cell_length_c   9.67925689
_cell_angle_alpha   60.01293578
_cell_angle_beta   60.23719358
_cell_angle_gamma   60.01293358
_symmetry_Int_Tables_number   1
_chemical_formula_structural   Tb15YCd4(PdRu)2
_chemical_formula_sum   'Tb15 Y1 Cd4 Pd2 Ru2'
_cell_volume   642.24216641
_cell_formula_units_Z   1
loop_
 _symmetry_equiv_pos_site_id
 _symmetry_equiv_pos_as_xyz
  1  'x, y, z'
loop_
 _atom_site_type_symbol
 _atom_site_label
 _atom_site_symmetry_multiplicity
 _atom_site_fract_x
 _atom_site_fract_y
 _atom_site_fract_z
 _atom_site_occupancy
  Tb  Tb0  1  0.437885  0.435618  0.066400  1
  Tb  Tb1  1  0.066400  0.060098  0.437885  1
  Tb  Tb2  1  0.437885  0.060098  0.066400  1
  Tb  Tb3  1  0.850466  0.845489  0.850466  1
  Tb  Tb4  1  0.689741  0.316131  0.304607  1
  Tb  Tb5  1  0.066400  0.435618  0.437885  1
  Tb  Tb6  1  0.304607  0.689521  0.689741  1
  Tb  Tb7  1  0.304607  0.316131  0.689741  1
  Tb  Tb8  1  0.859166  0.848138  0.444559  1
  Tb  Tb9  1  0.689741  0.689521  0.304607  1
  Tb  Tb10  1  0.444559  0.848138  0.859166  1
  Tb  Tb11  1  0.062172  0.437828  0.062172  1
  Tb  Tb12  1  0.850466  0.453577  0.850466  1
  Tb  Tb13  1  0.436685  0.063315  0.436685  1
  Tb  Tb14  1  0.311850  0.688150  0.311850  1
  Y  Y15  1  0.691244  0.308756  0.691244  1
  Cd  Cd16  1  0.081143  0.756201  0.081143  1
  Cd  Cd17  1  0.079882  0.081519  0.757078  1
  Cd  Cd18  1  0.757078  0.081519  0.079882  1
  Cd  Cd19  1  0.081143  0.081512  0.081143  1
  Pd  Pd20  1  0.640947  0.071192  0.640947  1
  Pd  Pd21  1  0.640947  0.646914  0.640947  1
  Ru  Ru22  1  0.641446  0.642507  0.073540  1
  Ru  Ru23  1  0.073540  0.642507  0.641446  1
