# generated using pymatgen
data_TbHo7Hf12Si15As
_symmetry_space_group_name_H-M   'P 1'
_cell_length_a   7.26363066
_cell_length_b   7.27453930
_cell_length_c   13.35638518
_cell_angle_alpha   89.73723617
_cell_angle_beta   89.92733833
_cell_angle_gamma   89.95161400
_symmetry_Int_Tables_number   1
_chemical_formula_structural   TbHo7Hf12Si15As
_chemical_formula_sum   'Tb1 Ho7 Hf12 Si15 As1'
_cell_volume   705.73736789
_cell_formula_units_Z   1
loop_
 _symmetry_equiv_pos_site_id
 _symmetry_equiv_pos_as_xyz
  1  'x, y, z'
loop_
 _atom_site_type_symbol
 _atom_site_label
 _atom_site_symmetry_multiplicity
 _atom_site_fract_x
 _atom_site_fract_y
 _atom_site_fract_z
 _atom_site_occupancy
  Tb  Tb0  1  0.654735  0.004460  0.284220  1
  Ho  Ho1  1  0.995782  0.345482  0.215012  1
  Ho  Ho2  1  0.004738  0.655889  0.715161  1
  Ho  Ho3  1  0.152674  0.499462  0.466756  1
  Ho  Ho4  1  0.506530  0.842624  0.033734  1
  Ho  Ho5  1  0.844474  0.503404  0.964747  1
  Ho  Ho6  1  0.496198  0.154614  0.535864  1
  Ho  Ho7  1  0.345047  0.996053  0.785150  1
  Hf  Hf8  1  0.174390  0.175104  0.000032  1
  Hf  Hf9  1  0.826381  0.826332  0.500179  1
  Hf  Hf10  1  0.324957  0.677433  0.249774  1
  Hf  Hf11  1  0.674548  0.325417  0.750049  1
  Hf  Hf12  1  0.149357  0.995819  0.372992  1
  Hf  Hf13  1  0.851190  0.003499  0.874728  1
  Hf  Hf14  1  0.502961  0.649718  0.624877  1
  Hf  Hf15  1  0.351372  0.496733  0.875393  1
  Hf  Hf16  1  0.494903  0.348536  0.124983  1
  Hf  Hf17  1  0.652907  0.506402  0.376878  1
  Hf  Hf18  1  0.997042  0.149732  0.625598  1
  Hf  Hf19  1  0.000716  0.848284  0.124187  1
  Si  Si20  1  0.637792  0.705256  0.816979  1
  Si  Si21  1  0.204035  0.863095  0.566597  1
  Si  Si22  1  0.137696  0.794674  0.932142  1
  Si  Si23  1  0.795126  0.138683  0.067401  1
  Si  Si24  1  0.862831  0.204729  0.432770  1
  Si  Si25  1  0.295702  0.361799  0.682578  1
  Si  Si26  1  0.703232  0.635788  0.183233  1
  Si  Si27  1  0.293774  0.038995  0.179684  1
  Si  Si28  1  0.704924  0.951156  0.685646  1
  Si  Si29  1  0.451252  0.795884  0.436045  1
  Si  Si30  1  0.204243  0.547906  0.064537  1
  Si  Si31  1  0.549052  0.204292  0.935750  1
  Si  Si32  1  0.795122  0.451432  0.565159  1
  Si  Si33  1  0.049126  0.295675  0.814195  1
  Si  Si34  1  0.952207  0.704408  0.314680  1
  As  As35  1  0.362983  0.301233  0.322284  1
