# generated using pymatgen
data_Lu12TlCo2Ru3
_symmetry_space_group_name_H-M   'P 1'
_cell_length_a   8.20310190
_cell_length_b   8.20310133
_cell_length_c   8.20310000
_cell_angle_alpha   112.86473055
_cell_angle_beta   110.08641578
_cell_angle_gamma   105.54566046
_symmetry_Int_Tables_number   1
_chemical_formula_structural   Lu12TlCo2Ru3
_chemical_formula_sum   'Lu12 Tl1 Co2 Ru3'
_cell_volume   423.17413943
_cell_formula_units_Z   1
loop_
 _symmetry_equiv_pos_site_id
 _symmetry_equiv_pos_as_xyz
  1  'x, y, z'
loop_
 _atom_site_type_symbol
 _atom_site_label
 _atom_site_symmetry_multiplicity
 _atom_site_fract_x
 _atom_site_fract_y
 _atom_site_fract_z
 _atom_site_occupancy
  Lu  Lu0  1  0.822518  0.724911  0.547434  1
  Lu  Lu1  1  0.177482  0.275089  0.452566  1
  Lu  Lu2  1  0.177476  0.724911  0.902395  1
  Lu  Lu3  1  0.822524  0.275089  0.097605  1
  Lu  Lu4  1  0.679471  0.362836  0.683366  1
  Lu  Lu5  1  0.320529  0.637164  0.316634  1
  Lu  Lu6  1  0.679473  0.996109  0.316636  1
  Lu  Lu7  1  0.320527  0.003891  0.683364  1
  Lu  Lu8  1  0.581251  0.769193  0.812057  1
  Lu  Lu9  1  0.418749  0.230807  0.187943  1
  Lu  Lu10  1  0.957136  0.769193  0.187941  1
  Lu  Lu11  1  0.042864  0.230807  0.812059  1
  Tl  Tl12  1  0.500000  0.500000  0.000000  1
  Co  Co13  1  0.111217  0.611216  0.499999  1
  Co  Co14  1  0.888783  0.388784  0.500001  1
  Ru  Ru15  1  0.660971  0.000000  0.660971  1
  Ru  Ru16  1  0.339029  0.000000  0.339029  1
  Ru  Ru17  1  0.000000  0.000000  0.000000  1
