# generated using pymatgen
data_Zr4Al24OsPt8
_symmetry_space_group_name_H-M   'P 1'
_cell_length_a   7.45846504
_cell_length_b   7.48018226
_cell_length_c   12.95964626
_cell_angle_alpha   84.63828007
_cell_angle_beta   78.98446010
_cell_angle_gamma   59.91311354
_symmetry_Int_Tables_number   1
_chemical_formula_structural   Zr4Al24OsPt8
_chemical_formula_sum   'Zr4 Al24 Os1 Pt8'
_cell_volume   614.08221984
_cell_formula_units_Z   1
loop_
 _symmetry_equiv_pos_site_id
 _symmetry_equiv_pos_as_xyz
  1  'x, y, z'
loop_
 _atom_site_type_symbol
 _atom_site_label
 _atom_site_symmetry_multiplicity
 _atom_site_fract_x
 _atom_site_fract_y
 _atom_site_fract_z
 _atom_site_occupancy
  Zr  Zr0  1  0.391785  0.168194  0.811834  1
  Zr  Zr1  1  0.608215  0.831806  0.188166  1
  Zr  Zr2  1  0.732696  0.498539  0.811449  1
  Zr  Zr3  1  0.267304  0.501461  0.188551  1
  Al  Al4  1  0.686152  0.829191  0.943573  1
  Al  Al5  1  0.313848  0.170809  0.056427  1
  Al  Al6  1  0.145554  0.832624  0.564008  1
  Al  Al7  1  0.854446  0.167376  0.435992  1
  Al  Al8  1  0.480658  0.166692  0.561345  1
  Al  Al9  1  0.519342  0.833308  0.438655  1
  Al  Al10  1  0.221665  0.164428  0.322087  1
  Al  Al11  1  0.778335  0.835572  0.677913  1
  Al  Al12  1  0.436849  0.505716  0.677903  1
  Al  Al13  1  0.563151  0.494284  0.322097  1
  Al  Al14  1  0.107785  0.162739  0.675505  1
  Al  Al15  1  0.892215  0.837261  0.324495  1
  Al  Al16  1  0.351398  0.496654  0.943628  1
  Al  Al17  1  0.648602  0.503346  0.056372  1
  Al  Al18  1  0.016233  0.174133  0.951081  1
  Al  Al19  1  0.983767  0.825867  0.048919  1
  Al  Al20  1  0.187486  0.499635  0.439364  1
  Al  Al21  1  0.812514  0.500365  0.560636  1
  Al  Al22  1  0.729508  0.162511  0.182985  1
  Al  Al23  1  0.270492  0.837489  0.817015  1
  Al  Al24  1  0.060715  0.625248  0.817820  1
  Al  Al25  1  0.939285  0.374752  0.182180  1
  Al  Al26  1  0.850769  0.047888  0.816337  1
  Al  Al27  1  0.149231  0.952112  0.183664  1
  Os  Os28  1  0.000000  0.500000  0.000000  1
  Pt  Pt29  1  0.120011  0.491317  0.639802  1
  Pt  Pt30  1  0.879989  0.508683  0.360198  1
  Pt  Pt31  1  0.656606  0.171939  0.999595  1
  Pt  Pt32  1  0.343394  0.828061  0.000405  1
  Pt  Pt33  1  0.536310  0.166191  0.361506  1
  Pt  Pt34  1  0.463690  0.833809  0.638494  1
  Pt  Pt35  1  0.778079  0.176912  0.637186  1
  Pt  Pt36  1  0.221921  0.823088  0.362814  1
