# generated using pymatgen
data_LaPr5TeO12
_symmetry_space_group_name_H-M   'P 1'
_cell_length_a   6.80625569
_cell_length_b   6.82137354
_cell_length_c   6.82242732
_cell_angle_alpha   98.76955649
_cell_angle_beta   98.49981501
_cell_angle_gamma   98.49198043
_symmetry_Int_Tables_number   1
_chemical_formula_structural   LaPr5TeO12
_chemical_formula_sum   'La1 Pr5 Te1 O12'
_cell_volume   304.88023941
_cell_formula_units_Z   1
loop_
 _symmetry_equiv_pos_site_id
 _symmetry_equiv_pos_as_xyz
  1  'x, y, z'
loop_
 _atom_site_type_symbol
 _atom_site_label
 _atom_site_symmetry_multiplicity
 _atom_site_fract_x
 _atom_site_fract_y
 _atom_site_fract_z
 _atom_site_occupancy
  La  La0  1  0.854336  0.690078  0.394325  1
  Pr  Pr1  1  0.145607  0.309233  0.609655  1
  Pr  Pr2  1  0.391065  0.855158  0.691412  1
  Pr  Pr3  1  0.690419  0.390231  0.855435  1
  Pr  Pr4  1  0.308532  0.608445  0.144330  1
  Pr  Pr5  1  0.608421  0.144674  0.309191  1
  Te  Te6  1  0.000638  0.000855  0.000181  1
  O  O7  1  0.068286  0.287822  0.968919  1
  O  O8  1  0.035067  0.934958  0.714127  1
  O  O9  1  0.406185  0.560331  0.822515  1
  O  O10  1  0.176559  0.593548  0.440542  1
  O  O11  1  0.713332  0.031610  0.930780  1
  O  O12  1  0.440470  0.176719  0.594587  1
  O  O13  1  0.559032  0.821286  0.404892  1
  O  O14  1  0.287443  0.968675  0.069244  1
  O  O15  1  0.822147  0.403217  0.560074  1
  O  O16  1  0.591895  0.438266  0.177201  1
  O  O17  1  0.968823  0.070942  0.285842  1
  O  O18  1  0.931740  0.713951  0.026750  1
