# generated using pymatgen
data_ErTh2Co(CuSb2)2
_symmetry_space_group_name_H-M   'P 1'
_cell_length_a   8.34583592
_cell_length_b   8.34585354
_cell_length_c   8.34583533
_cell_angle_alpha   109.98141745
_cell_angle_beta   108.45517380
_cell_angle_gamma   109.98141609
_symmetry_Int_Tables_number   1
_chemical_formula_structural   ErTh2Co(CuSb2)2
_chemical_formula_sum   'Er2 Th4 Co2 Cu4 Sb8'
_cell_volume   447.39229777
_cell_formula_units_Z   2
loop_
 _symmetry_equiv_pos_site_id
 _symmetry_equiv_pos_as_xyz
  1  'x, y, z'
loop_
 _atom_site_type_symbol
 _atom_site_label
 _atom_site_symmetry_multiplicity
 _atom_site_fract_x
 _atom_site_fract_y
 _atom_site_fract_z
 _atom_site_occupancy
  Er  Er0  1  0.874974  0.249966  0.125045  1
  Er  Er1  1  0.625045  0.749966  0.374974  1
  Th  Th2  1  0.249992  0.118943  0.868933  1
  Th  Th3  1  0.750004  0.381060  0.631063  1
  Th  Th4  1  0.131063  0.881060  0.250004  1
  Th  Th5  1  0.368933  0.618943  0.749992  1
  Co  Co6  1  0.374993  0.250002  0.625002  1
  Co  Co7  1  0.125002  0.750002  0.874993  1
  Cu  Cu8  1  0.250012  0.622295  0.372296  1
  Cu  Cu9  1  0.749988  0.877713  0.127700  1
  Cu  Cu10  1  0.627700  0.377713  0.249988  1
  Cu  Cu11  1  0.872296  0.122295  0.750012  1
  Sb  Sb12  1  0.659652  0.497402  0.998496  1
  Sb  Sb13  1  0.501138  0.002620  0.662252  1
  Sb  Sb14  1  0.998877  0.661134  0.501480  1
  Sb  Sb15  1  0.840357  0.838866  0.837745  1
  Sb  Sb16  1  0.498496  0.997402  0.159652  1
  Sb  Sb17  1  0.162252  0.502620  0.001138  1
  Sb  Sb18  1  0.001480  0.161134  0.498877  1
  Sb  Sb19  1  0.337745  0.338866  0.340357  1
