# generated using pymatgen
data_CeSmFe10P7Rh2
_symmetry_space_group_name_H-M   'P 1'
_cell_length_a   9.09045508
_cell_length_b   9.12118956
_cell_length_c   3.71601000
_cell_angle_alpha   90.00000000
_cell_angle_beta   90.00000000
_cell_angle_gamma   119.92707268
_symmetry_Int_Tables_number   1
_chemical_formula_structural   CeSmFe10P7Rh2
_chemical_formula_sum   'Ce1 Sm1 Fe10 P7 Rh2'
_cell_volume   267.03198916
_cell_formula_units_Z   1
loop_
 _symmetry_equiv_pos_site_id
 _symmetry_equiv_pos_as_xyz
  1  'x, y, z'
loop_
 _atom_site_type_symbol
 _atom_site_label
 _atom_site_symmetry_multiplicity
 _atom_site_fract_x
 _atom_site_fract_y
 _atom_site_fract_z
 _atom_site_occupancy
  Ce  Ce0  1  0.337810  0.665196  0.000000  1
  Sm  Sm1  1  0.666282  0.335675  0.500000  1
  Fe  Fe2  1  0.425365  0.368989  0.000000  1
  Fe  Fe3  1  0.634795  0.055617  0.000000  1
  Fe  Fe4  1  0.938653  0.576227  0.000000  1
  Fe  Fe5  1  0.151436  0.883202  0.000000  1
  Fe  Fe6  1  0.118445  0.270611  0.000000  1
  Fe  Fe7  1  0.728322  0.844758  0.000000  1
  Fe  Fe8  1  0.566167  0.617084  0.500000  1
  Fe  Fe9  1  0.216695  0.122798  0.500000  1
  Fe  Fe10  1  0.882512  0.091769  0.500000  1
  Fe  Fe11  1  0.899759  0.786363  0.500000  1
  P  P12  1  0.407935  0.117010  0.000000  1
  P  P13  1  0.882821  0.291582  0.000000  1
  P  P14  1  0.696377  0.589322  0.000000  1
  P  P15  1  0.098275  0.715096  0.500000  1
  P  P16  1  0.297547  0.395983  0.500000  1
  P  P17  1  0.612076  0.887750  0.500000  1
  P  P18  1  0.999665  0.000961  0.000000  1
  Rh  Rh19  1  0.386118  0.946687  0.500000  1
  Rh  Rh20  1  0.052942  0.437320  0.500000  1
