# generated using pymatgen
data_Y4ReIrRu6
_symmetry_space_group_name_H-M   'P 1'
_cell_length_a   5.16964813
_cell_length_b   5.29428779
_cell_length_c   8.94854200
_cell_angle_alpha   90.00000000
_cell_angle_beta   90.00000000
_cell_angle_gamma   116.98879551
_symmetry_Int_Tables_number   1
_chemical_formula_structural   Y4ReIrRu6
_chemical_formula_sum   'Y4 Re1 Ir1 Ru6'
_cell_volume   218.24532876
_cell_formula_units_Z   1
loop_
 _symmetry_equiv_pos_site_id
 _symmetry_equiv_pos_as_xyz
  1  'x, y, z'
loop_
 _atom_site_type_symbol
 _atom_site_label
 _atom_site_symmetry_multiplicity
 _atom_site_fract_x
 _atom_site_fract_y
 _atom_site_fract_z
 _atom_site_occupancy
  Y  Y0  1  0.338424  0.665660  0.434051  1
  Y  Y1  1  0.668172  0.326995  0.564754  1
  Y  Y2  1  0.668172  0.326995  0.935246  1
  Y  Y3  1  0.338424  0.665660  0.065949  1
  Re  Re4  1  0.160467  0.839345  0.750000  1
  Ir  Ir5  1  0.167393  0.350104  0.750000  1
  Ru  Ru6  1  0.327397  0.164972  0.250000  1
  Ru  Ru7  1  0.839097  0.672220  0.250000  1
  Ru  Ru8  1  0.652263  0.836583  0.750000  1
  Ru  Ru9  1  0.008587  0.984570  0.999447  1
  Ru  Ru10  1  0.823016  0.182326  0.250000  1
  Ru  Ru11  1  0.008587  0.984570  0.500553  1
