# generated using pymatgen
data_Lu4AlPt
_symmetry_space_group_name_H-M   'P 1'
_cell_length_a   9.39557780
_cell_length_b   9.39557782
_cell_length_c   9.39557800
_cell_angle_alpha   59.99999936
_cell_angle_beta   59.99999929
_cell_angle_gamma   59.99999756
_symmetry_Int_Tables_number   1
_chemical_formula_structural   Lu4AlPt
_chemical_formula_sum   'Lu16 Al4 Pt4'
_cell_volume   586.48306893
_cell_formula_units_Z   4
loop_
 _symmetry_equiv_pos_site_id
 _symmetry_equiv_pos_as_xyz
  1  'x, y, z'
loop_
 _atom_site_type_symbol
 _atom_site_label
 _atom_site_symmetry_multiplicity
 _atom_site_fract_x
 _atom_site_fract_y
 _atom_site_fract_z
 _atom_site_occupancy
  Lu  Lu0  1  0.604682  0.604682  0.604682  1
  Lu  Lu1  1  0.604682  0.604682  0.185956  1
  Lu  Lu2  1  0.604682  0.185956  0.604682  1
  Lu  Lu3  1  0.185956  0.604682  0.604682  1
  Lu  Lu4  1  0.057483  0.442517  0.442517  1
  Lu  Lu5  1  0.442517  0.057483  0.057483  1
  Lu  Lu6  1  0.442517  0.057483  0.442517  1
  Lu  Lu7  1  0.057483  0.442517  0.057483  1
  Lu  Lu8  1  0.442517  0.442517  0.057483  1
  Lu  Lu9  1  0.057483  0.057483  0.442517  1
  Lu  Lu10  1  0.185591  0.814409  0.814409  1
  Lu  Lu11  1  0.814409  0.185591  0.185591  1
  Lu  Lu12  1  0.814409  0.185591  0.814409  1
  Lu  Lu13  1  0.185591  0.814409  0.185591  1
  Lu  Lu14  1  0.814409  0.814409  0.185591  1
  Lu  Lu15  1  0.185591  0.185591  0.814409  1
  Al  Al16  1  0.828980  0.828980  0.828980  1
  Al  Al17  1  0.828980  0.828980  0.513060  1
  Al  Al18  1  0.828980  0.513060  0.828980  1
  Al  Al19  1  0.513060  0.828980  0.828980  1
  Pt  Pt20  1  0.393244  0.393244  0.393244  1
  Pt  Pt21  1  0.393244  0.393244  0.820268  1
  Pt  Pt22  1  0.393244  0.820268  0.393244  1
  Pt  Pt23  1  0.820268  0.393244  0.393244  1
