# generated using pymatgen
data_Ba2EuThTe8
_symmetry_space_group_name_H-M   'P 1'
_cell_length_a   8.87959837
_cell_length_b   8.87959878
_cell_length_c   10.89830767
_cell_angle_alpha   53.84824481
_cell_angle_beta   53.84824359
_cell_angle_gamma   41.29889343
_symmetry_Int_Tables_number   1
_chemical_formula_structural   Ba2EuThTe8
_chemical_formula_sum   'Ba2 Eu1 Th1 Te8'
_cell_volume   440.23220321
_cell_formula_units_Z   1
loop_
 _symmetry_equiv_pos_site_id
 _symmetry_equiv_pos_as_xyz
  1  'x, y, z'
loop_
 _atom_site_type_symbol
 _atom_site_label
 _atom_site_symmetry_multiplicity
 _atom_site_fract_x
 _atom_site_fract_y
 _atom_site_fract_z
 _atom_site_occupancy
  Ba  Ba0  1  0.898242  0.898242  0.311095  1
  Ba  Ba1  1  0.102258  0.102258  0.692353  1
  Eu  Eu2  1  0.634320  0.634320  0.232555  1
  Th  Th3  1  0.368491  0.368491  0.761721  1
  Te  Te4  1  0.123256  0.597302  0.038119  1
  Te  Te5  1  0.377912  0.910339  0.951715  1
  Te  Te6  1  0.910339  0.377912  0.951715  1
  Te  Te7  1  0.597302  0.123256  0.038119  1
  Te  Te8  1  0.095928  0.095928  0.352667  1
  Te  Te9  1  0.902131  0.902131  0.653741  1
  Te  Te10  1  0.611529  0.611529  0.555883  1
  Te  Te11  1  0.378289  0.378289  0.460315  1
