# generated using pymatgen
data_Sc19Ga3Si13Mo
_symmetry_space_group_name_H-M   'P 1'
_cell_length_a   6.90722143
_cell_length_b   7.18799532
_cell_length_c   13.74072383
_cell_angle_alpha   90.04687203
_cell_angle_beta   89.54117732
_cell_angle_gamma   89.75669620
_symmetry_Int_Tables_number   1
_chemical_formula_structural   Sc19Ga3Si13Mo
_chemical_formula_sum   'Sc19 Ga3 Si13 Mo1'
_cell_volume   682.18595946
_cell_formula_units_Z   1
loop_
 _symmetry_equiv_pos_site_id
 _symmetry_equiv_pos_as_xyz
  1  'x, y, z'
loop_
 _atom_site_type_symbol
 _atom_site_label
 _atom_site_symmetry_multiplicity
 _atom_site_fract_x
 _atom_site_fract_y
 _atom_site_fract_z
 _atom_site_occupancy
  Sc  Sc0  1  0.839894  0.006540  0.248202  1
  Sc  Sc1  1  0.340017  0.496744  0.248338  1
  Sc  Sc2  1  0.659691  0.507703  0.749994  1
  Sc  Sc3  1  0.991520  0.679881  0.603704  1
  Sc  Sc4  1  0.008339  0.324088  0.402677  1
  Sc  Sc5  1  0.511715  0.178764  0.402777  1
  Sc  Sc6  1  0.013627  0.319997  0.093128  1
  Sc  Sc7  1  0.488602  0.821025  0.602264  1
  Sc  Sc8  1  0.990338  0.686303  0.899813  1
  Sc  Sc9  1  0.484596  0.821750  0.902057  1
  Sc  Sc10  1  0.513923  0.180954  0.094371  1
  Sc  Sc11  1  0.333829  0.323026  0.629506  1
  Sc  Sc12  1  0.669020  0.674540  0.374106  1
  Sc  Sc13  1  0.170174  0.829744  0.374398  1
  Sc  Sc14  1  0.671949  0.676203  0.123722  1
  Sc  Sc15  1  0.828782  0.169193  0.629536  1
  Sc  Sc16  1  0.328978  0.320154  0.874165  1
  Sc  Sc17  1  0.825995  0.169812  0.872966  1
  Sc  Sc18  1  0.173741  0.827149  0.121335  1
  Ga  Ga19  1  0.165905  0.028623  0.546272  1
  Ga  Ga20  1  0.834313  0.967633  0.461758  1
  Ga  Ga21  1  0.335101  0.535014  0.463138  1
  Si  Si22  1  0.031886  0.386031  0.752078  1
  Si  Si23  1  0.969702  0.607764  0.247924  1
  Si  Si24  1  0.468040  0.895059  0.247863  1
  Si  Si25  1  0.519757  0.091686  0.751672  1
  Si  Si26  1  0.280261  0.646659  0.751652  1
  Si  Si27  1  0.717752  0.366154  0.247996  1
  Si  Si28  1  0.216435  0.137031  0.247589  1
  Si  Si29  1  0.793348  0.863441  0.751808  1
  Si  Si30  1  0.840449  0.968497  0.037458  1
  Si  Si31  1  0.666765  0.466473  0.539438  1
  Si  Si32  1  0.156307  0.027991  0.952735  1
  Si  Si33  1  0.662379  0.467472  0.960699  1
  Si  Si34  1  0.343395  0.532072  0.037186  1
  Mo  Mo35  1  0.153478  0.998822  0.755674  1
