# generated using pymatgen
data_TbNd2CoSn6
_symmetry_space_group_name_H-M   'P 1'
_cell_length_a   8.56694917
_cell_length_b   8.56695029
_cell_length_c   13.38296800
_cell_angle_alpha   90.00000000
_cell_angle_beta   90.00000000
_cell_angle_gamma   148.68725886
_symmetry_Int_Tables_number   1
_chemical_formula_structural   TbNd2CoSn6
_chemical_formula_sum   'Tb2 Nd4 Co2 Sn12'
_cell_volume   510.46410126
_cell_formula_units_Z   2
loop_
 _symmetry_equiv_pos_site_id
 _symmetry_equiv_pos_as_xyz
  1  'x, y, z'
loop_
 _atom_site_type_symbol
 _atom_site_label
 _atom_site_symmetry_multiplicity
 _atom_site_fract_x
 _atom_site_fract_y
 _atom_site_fract_z
 _atom_site_occupancy
  Tb  Tb0  1  0.898979  0.101021  0.750000  1
  Tb  Tb1  1  0.101021  0.898979  0.250000  1
  Nd  Nd2  1  0.900143  0.099857  0.092195  1
  Nd  Nd3  1  0.099857  0.900143  0.592195  1
  Nd  Nd4  1  0.099857  0.900143  0.907805  1
  Nd  Nd5  1  0.900143  0.099857  0.407805  1
  Co  Co6  1  0.297446  0.702554  0.250000  1
  Co  Co7  1  0.702554  0.297446  0.750000  1
  Sn  Sn8  1  0.754968  0.245032  0.572036  1
  Sn  Sn9  1  0.427784  0.572216  0.579201  1
  Sn  Sn10  1  0.572216  0.427784  0.420799  1
  Sn  Sn11  1  0.733636  0.266364  0.250000  1
  Sn  Sn12  1  0.266364  0.733636  0.750000  1
  Sn  Sn13  1  0.245032  0.754968  0.072036  1
  Sn  Sn14  1  0.245032  0.754968  0.427964  1
  Sn  Sn15  1  0.572216  0.427784  0.079201  1
  Sn  Sn16  1  0.453256  0.546744  0.250000  1
  Sn  Sn17  1  0.546744  0.453256  0.750000  1
  Sn  Sn18  1  0.754968  0.245032  0.927964  1
  Sn  Sn19  1  0.427784  0.572216  0.920799  1
