# generated using pymatgen
data_Yb8Co3N8
_symmetry_space_group_name_H-M   'P 1'
_cell_length_a   8.97363494
_cell_length_b   8.97363438
_cell_length_c   6.96487298
_cell_angle_alpha   75.18520495
_cell_angle_beta   75.18520788
_cell_angle_gamma   31.67593222
_symmetry_Int_Tables_number   1
_chemical_formula_structural   Yb8Co3N8
_chemical_formula_sum   'Yb8 Co3 N8'
_cell_volume   283.91955374
_cell_formula_units_Z   1
loop_
 _symmetry_equiv_pos_site_id
 _symmetry_equiv_pos_as_xyz
  1  'x, y, z'
loop_
 _atom_site_type_symbol
 _atom_site_label
 _atom_site_symmetry_multiplicity
 _atom_site_fract_x
 _atom_site_fract_y
 _atom_site_fract_z
 _atom_site_occupancy
  Yb  Yb0  1  0.971480  0.971480  0.258660  1
  Yb  Yb1  1  0.028520  0.028520  0.741340  1
  Yb  Yb2  1  0.667477  0.667477  0.525393  1
  Yb  Yb3  1  0.332523  0.332523  0.474607  1
  Yb  Yb4  1  0.595530  0.595530  0.034496  1
  Yb  Yb5  1  0.404470  0.404470  0.965504  1
  Yb  Yb6  1  0.199823  0.199823  0.190071  1
  Yb  Yb7  1  0.800177  0.800177  0.809929  1
  Co  Co8  1  0.500000  0.500000  0.500000  1
  Co  Co9  1  0.812918  0.812918  0.205632  1
  Co  Co10  1  0.187082  0.187082  0.794368  1
  N  N11  1  0.899985  0.899985  0.000722  1
  N  N12  1  0.100015  0.100015  0.999278  1
  N  N13  1  0.823582  0.823582  0.445846  1
  N  N14  1  0.176418  0.176418  0.554154  1
  N  N15  1  0.716982  0.716982  0.165358  1
  N  N16  1  0.283018  0.283018  0.834642  1
  N  N17  1  0.471439  0.471439  0.274810  1
  N  N18  1  0.528561  0.528561  0.725190  1
