# generated using pymatgen
data_Zr2Co9SnB6
_symmetry_space_group_name_H-M   'P 1'
_cell_length_a   5.71922491
_cell_length_b   5.71922498
_cell_length_c   5.71922481
_cell_angle_alpha   95.30870195
_cell_angle_beta   95.30870815
_cell_angle_gamma   95.30871069
_symmetry_Int_Tables_number   1
_chemical_formula_structural   Zr2Co9SnB6
_chemical_formula_sum   'Zr2 Co9 Sn1 B6'
_cell_volume   184.50528467
_cell_formula_units_Z   1
loop_
 _symmetry_equiv_pos_site_id
 _symmetry_equiv_pos_as_xyz
  1  'x, y, z'
loop_
 _atom_site_type_symbol
 _atom_site_label
 _atom_site_symmetry_multiplicity
 _atom_site_fract_x
 _atom_site_fract_y
 _atom_site_fract_z
 _atom_site_occupancy
  Zr  Zr0  1  0.672840  0.672840  0.672840  1
  Zr  Zr1  1  0.327160  0.327160  0.327160  1
  Co  Co2  1  0.000000  0.000000  0.500000  1
  Co  Co3  1  0.500000  0.000000  0.000000  1
  Co  Co4  1  0.000000  0.500000  0.000000  1
  Co  Co5  1  0.700315  0.201392  0.700315  1
  Co  Co6  1  0.700315  0.700315  0.201392  1
  Co  Co7  1  0.201392  0.700315  0.700315  1
  Co  Co8  1  0.299685  0.798608  0.299685  1
  Co  Co9  1  0.299685  0.299685  0.798608  1
  Co  Co10  1  0.798608  0.299685  0.299685  1
  Sn  Sn11  1  0.000000  0.000000  0.000000  1
  B  B12  1  0.614548  0.385452  0.000000  1
  B  B13  1  0.000000  0.614548  0.385452  1
  B  B14  1  0.385452  0.000000  0.614548  1
  B  B15  1  0.000000  0.385452  0.614548  1
  B  B16  1  0.614548  0.000000  0.385452  1
  B  B17  1  0.385452  0.614548  0.000000  1
