# generated using pymatgen
data_Hf2TiIr5
_symmetry_space_group_name_H-M   'P 1'
_cell_length_a   4.15979500
_cell_length_b   5.58229300
_cell_length_c   11.03783200
_cell_angle_alpha   90.00000000
_cell_angle_beta   90.00000000
_cell_angle_gamma   90.00000000
_symmetry_Int_Tables_number   1
_chemical_formula_structural   Hf2TiIr5
_chemical_formula_sum   'Hf4 Ti2 Ir10'
_cell_volume   256.31164384
_cell_formula_units_Z   2
loop_
 _symmetry_equiv_pos_site_id
 _symmetry_equiv_pos_as_xyz
  1  'x, y, z'
loop_
 _atom_site_type_symbol
 _atom_site_label
 _atom_site_symmetry_multiplicity
 _atom_site_fract_x
 _atom_site_fract_y
 _atom_site_fract_z
 _atom_site_occupancy
  Hf  Hf0  1  0.500000  0.180703  0.641717  1
  Hf  Hf1  1  0.500000  0.819297  0.358283  1
  Hf  Hf2  1  0.500000  0.680703  0.858283  1
  Hf  Hf3  1  0.500000  0.319297  0.141717  1
  Ti  Ti4  1  0.000000  0.500000  0.500000  1
  Ti  Ti5  1  0.000000  0.000000  0.000000  1
  Ir  Ir6  1  0.500000  0.191070  0.892829  1
  Ir  Ir7  1  0.500000  0.808930  0.107171  1
  Ir  Ir8  1  0.500000  0.691070  0.607171  1
  Ir  Ir9  1  0.500000  0.308930  0.392829  1
  Ir  Ir10  1  0.000000  0.437047  0.744181  1
  Ir  Ir11  1  0.000000  0.562953  0.255819  1
  Ir  Ir12  1  0.000000  0.000000  0.500000  1
  Ir  Ir13  1  0.000000  0.500000  0.000000  1
  Ir  Ir14  1  0.000000  0.062953  0.244181  1
  Ir  Ir15  1  0.000000  0.937047  0.755819  1
