# generated using pymatgen
data_DyTm3NiOs7
_symmetry_space_group_name_H-M   'P 1'
_cell_length_a   5.26488953
_cell_length_b   5.26489056
_cell_length_c   8.77077400
_cell_angle_alpha   89.75398684
_cell_angle_beta   90.24601321
_cell_angle_gamma   120.84681942
_symmetry_Int_Tables_number   1
_chemical_formula_structural   DyTm3NiOs7
_chemical_formula_sum   'Dy1 Tm3 Ni1 Os7'
_cell_volume   208.72399391
_cell_formula_units_Z   1
loop_
 _symmetry_equiv_pos_site_id
 _symmetry_equiv_pos_as_xyz
  1  'x, y, z'
loop_
 _atom_site_type_symbol
 _atom_site_label
 _atom_site_symmetry_multiplicity
 _atom_site_fract_x
 _atom_site_fract_y
 _atom_site_fract_z
 _atom_site_occupancy
  Dy  Dy0  1  0.334157  0.665843  0.066152  1
  Tm  Tm1  1  0.334231  0.665769  0.434588  1
  Tm  Tm2  1  0.668868  0.331132  0.562555  1
  Tm  Tm3  1  0.668741  0.331259  0.936563  1
  Ni  Ni4  1  0.828635  0.171365  0.251576  1
  Os  Os5  1  0.006342  0.993658  0.497516  1
  Os  Os6  1  0.006756  0.993244  0.001869  1
  Os  Os7  1  0.821486  0.660281  0.250851  1
  Os  Os8  1  0.339719  0.178514  0.250851  1
  Os  Os9  1  0.166390  0.833610  0.749314  1
  Os  Os10  1  0.171259  0.346584  0.749083  1
  Os  Os11  1  0.653416  0.828741  0.749083  1
