# generated using pymatgen
data_TbDy2Y(ReB6)2
_symmetry_space_group_name_H-M   'P 1'
_cell_length_a   3.68897700
_cell_length_b   9.18818104
_cell_length_c   11.57843300
_cell_angle_alpha   89.99432508
_cell_angle_beta   90.00000000
_cell_angle_gamma   90.00000000
_symmetry_Int_Tables_number   1
_chemical_formula_structural   TbDy2Y(ReB6)2
_chemical_formula_sum   'Tb2 Dy4 Y2 Re4 B24'
_cell_volume   392.45085165
_cell_formula_units_Z   2
loop_
 _symmetry_equiv_pos_site_id
 _symmetry_equiv_pos_as_xyz
  1  'x, y, z'
loop_
 _atom_site_type_symbol
 _atom_site_label
 _atom_site_symmetry_multiplicity
 _atom_site_fract_x
 _atom_site_fract_y
 _atom_site_fract_z
 _atom_site_occupancy
  Tb  Tb0  1  0.000000  0.323633  0.413844  1
  Tb  Tb1  1  0.000000  0.676367  0.586156  1
  Dy  Dy2  1  0.000000  0.942978  0.369778  1
  Dy  Dy3  1  0.000000  0.057022  0.630222  1
  Dy  Dy4  1  0.000000  0.442984  0.129928  1
  Dy  Dy5  1  0.000000  0.557016  0.870072  1
  Y  Y6  1  0.000000  0.823630  0.086001  1
  Y  Y7  1  0.000000  0.176370  0.913999  1
  Re  Re8  1  0.000000  0.638598  0.320646  1
  Re  Re9  1  0.000000  0.361402  0.679354  1
  Re  Re10  1  0.000000  0.138486  0.179106  1
  Re  Re11  1  0.000000  0.861514  0.820894  1
  B  B12  1  0.500000  0.553438  0.432534  1
  B  B13  1  0.500000  0.446562  0.567466  1
  B  B14  1  0.500000  0.053280  0.067148  1
  B  B15  1  0.500000  0.946720  0.932852  1
  B  B16  1  0.500000  0.748945  0.418077  1
  B  B17  1  0.500000  0.251055  0.581923  1
  B  B18  1  0.500000  0.248830  0.081523  1
  B  B19  1  0.500000  0.751170  0.918477  1
  B  B20  1  0.500000  0.791852  0.265374  1
  B  B21  1  0.500000  0.208148  0.734626  1
  B  B22  1  0.500000  0.291654  0.234173  1
  B  B23  1  0.500000  0.708346  0.765827  1
  B  B24  1  0.500000  0.630908  0.185671  1
  B  B25  1  0.500000  0.369092  0.814329  1
  B  B26  1  0.500000  0.130734  0.313905  1
  B  B27  1  0.500000  0.869266  0.686095  1
  B  B28  1  0.500000  0.982559  0.211765  1
  B  B29  1  0.500000  0.017441  0.788235  1
  B  B30  1  0.500000  0.482746  0.287836  1
  B  B31  1  0.500000  0.517254  0.712164  1
  B  B32  1  0.500000  0.600206  0.028016  1
  B  B33  1  0.500000  0.399794  0.971984  1
  B  B34  1  0.500000  0.099632  0.472111  1
  B  B35  1  0.500000  0.900368  0.527889  1
