# generated using pymatgen
data_RbMnPtO4
_symmetry_space_group_name_H-M   'P 1'
_cell_length_a   6.29694922
_cell_length_b   8.06272417
_cell_length_c   6.29695000
_cell_angle_alpha   124.30845555
_cell_angle_beta   120.25137826
_cell_angle_gamma   79.85650680
_symmetry_Int_Tables_number   1
_chemical_formula_structural   RbMnPtO4
_chemical_formula_sum   'Rb2 Mn2 Pt2 O8'
_cell_volume   225.49491778
_cell_formula_units_Z   2
loop_
 _symmetry_equiv_pos_site_id
 _symmetry_equiv_pos_as_xyz
  1  'x, y, z'
loop_
 _atom_site_type_symbol
 _atom_site_label
 _atom_site_symmetry_multiplicity
 _atom_site_fract_x
 _atom_site_fract_y
 _atom_site_fract_z
 _atom_site_occupancy
  Rb  Rb0  1  0.584645  0.967607  0.882962  1
  Rb  Rb1  1  0.922228  0.959293  0.537065  1
  Mn  Mn2  1  0.496333  0.456850  0.460518  1
  Mn  Mn3  1  0.002179  0.470791  0.968611  1
  Pt  Pt4  1  0.000401  0.464752  0.466303  1
  Pt  Pt5  1  0.498449  0.464752  0.964351  1
  O  O6  1  0.806979  0.320996  0.515705  1
  O  O7  1  0.305292  0.320996  0.014017  1
  O  O8  1  0.289895  0.300031  0.510135  1
  O  O9  1  0.208224  0.628691  0.920467  1
  O  O10  1  0.794204  0.302114  0.007909  1
  O  O11  1  0.691515  0.607482  0.913252  1
  O  O12  1  0.705426  0.628163  0.422738  1
  O  O13  1  0.194232  0.607482  0.415967  1
