# generated using pymatgen
data_La10Ir5Os
_symmetry_space_group_name_H-M   'P 1'
_cell_length_a   11.40165200
_cell_length_b   11.40165200
_cell_length_c   6.66596400
_cell_angle_alpha   90.00000000
_cell_angle_beta   90.00000000
_cell_angle_gamma   90.00000000
_symmetry_Int_Tables_number   1
_chemical_formula_structural   La10Ir5Os
_chemical_formula_sum   'La20 Ir10 Os2'
_cell_volume   866.55977717
_cell_formula_units_Z   2
loop_
 _symmetry_equiv_pos_site_id
 _symmetry_equiv_pos_as_xyz
  1  'x, y, z'
loop_
 _atom_site_type_symbol
 _atom_site_label
 _atom_site_symmetry_multiplicity
 _atom_site_fract_x
 _atom_site_fract_y
 _atom_site_fract_z
 _atom_site_occupancy
  La  La0  1  0.295142  0.088736  0.385074  1
  La  La1  1  0.295142  0.911264  0.885074  1
  La  La2  1  0.704858  0.088736  0.885074  1
  La  La3  1  0.704858  0.911264  0.385074  1
  La  La4  1  0.588736  0.795142  0.885074  1
  La  La5  1  0.588736  0.204858  0.385074  1
  La  La6  1  0.411264  0.795142  0.385074  1
  La  La7  1  0.411264  0.204858  0.885074  1
  La  La8  1  0.208236  0.408891  0.615164  1
  La  La9  1  0.208236  0.591109  0.115164  1
  La  La10  1  0.791764  0.408891  0.115164  1
  La  La11  1  0.791764  0.591109  0.615164  1
  La  La12  1  0.908891  0.708236  0.115164  1
  La  La13  1  0.908891  0.291764  0.615164  1
  La  La14  1  0.091109  0.708236  0.615164  1
  La  La15  1  0.091109  0.291764  0.115164  1
  La  La16  1  0.000000  0.000000  0.497817  1
  La  La17  1  0.000000  0.000000  0.997817  1
  La  La18  1  0.500000  0.500000  0.997817  1
  La  La19  1  0.500000  0.500000  0.497817  1
  Ir  Ir20  1  0.848780  0.154625  0.250483  1
  Ir  Ir21  1  0.848780  0.845375  0.750483  1
  Ir  Ir22  1  0.151220  0.154625  0.750483  1
  Ir  Ir23  1  0.151220  0.845375  0.250483  1
  Ir  Ir24  1  0.654625  0.348780  0.750483  1
  Ir  Ir25  1  0.654625  0.651220  0.250483  1
  Ir  Ir26  1  0.345375  0.348780  0.250483  1
  Ir  Ir27  1  0.345375  0.651220  0.750483  1
  Ir  Ir28  1  0.000000  0.500000  0.884393  1
  Ir  Ir29  1  0.000000  0.500000  0.384393  1
  Os  Os30  1  0.500000  0.000000  0.117083  1
  Os  Os31  1  0.500000  0.000000  0.617083  1
