# generated using pymatgen
data_Dy19YCd3Hg3Ru2
_symmetry_space_group_name_H-M   'P 1'
_cell_length_a   9.58967900
_cell_length_b   9.58879677
_cell_length_c   9.79078000
_cell_angle_alpha   90.00000000
_cell_angle_beta   90.00000000
_cell_angle_gamma   119.99695981
_symmetry_Int_Tables_number   1
_chemical_formula_structural   Dy19YCd3Hg3Ru2
_chemical_formula_sum   'Dy19 Y1 Cd3 Hg3 Ru2'
_cell_volume   779.70337061
_cell_formula_units_Z   1
loop_
 _symmetry_equiv_pos_site_id
 _symmetry_equiv_pos_as_xyz
  1  'x, y, z'
loop_
 _atom_site_type_symbol
 _atom_site_label
 _atom_site_symmetry_multiplicity
 _atom_site_fract_x
 _atom_site_fract_y
 _atom_site_fract_z
 _atom_site_occupancy
  Dy  Dy0  1  0.999970  0.999984  0.491175  1
  Dy  Dy1  1  0.999970  0.999984  0.008825  1
  Dy  Dy2  1  0.209632  0.790600  0.439259  1
  Dy  Dy3  1  0.209632  0.419033  0.439259  1
  Dy  Dy4  1  0.580846  0.790424  0.439405  1
  Dy  Dy5  1  0.790046  0.209685  0.559823  1
  Dy  Dy6  1  0.790046  0.580360  0.559823  1
  Dy  Dy7  1  0.419594  0.209797  0.559891  1
  Dy  Dy8  1  0.790046  0.209685  0.940177  1
  Dy  Dy9  1  0.790046  0.580360  0.940177  1
  Dy  Dy10  1  0.419594  0.209797  0.940109  1
  Dy  Dy11  1  0.209632  0.790600  0.060741  1
  Dy  Dy12  1  0.209632  0.419033  0.060741  1
  Dy  Dy13  1  0.580846  0.790424  0.060595  1
  Dy  Dy14  1  0.541235  0.458747  0.250000  1
  Dy  Dy15  1  0.541235  0.082489  0.250000  1
  Dy  Dy16  1  0.917552  0.458776  0.250000  1
  Dy  Dy17  1  0.458904  0.541113  0.750000  1
  Dy  Dy18  1  0.458904  0.917792  0.750000  1
  Y  Y19  1  0.082662  0.541331  0.750000  1
  Cd  Cd20  1  0.113310  0.886901  0.750000  1
  Cd  Cd21  1  0.113310  0.226409  0.750000  1
  Cd  Cd22  1  0.773495  0.886747  0.750000  1
  Hg  Hg23  1  0.879871  0.120158  0.250000  1
  Hg  Hg24  1  0.879871  0.759715  0.250000  1
  Hg  Hg25  1  0.240297  0.120149  0.250000  1
  Ru  Ru26  1  0.333349  0.666675  0.250000  1
  Ru  Ru27  1  0.666470  0.333234  0.750000  1
