# generated using pymatgen
data_Os(PtRh3)2
_symmetry_space_group_name_H-M   'P 1'
_cell_length_a   6.12840542
_cell_length_b   6.13373797
_cell_length_c   6.12840449
_cell_angle_alpha   95.64701284
_cell_angle_beta   95.74166808
_cell_angle_gamma   143.20412448
_symmetry_Int_Tables_number   1
_chemical_formula_structural   Os(PtRh3)2
_chemical_formula_sum   'Os1 Pt2 Rh6'
_cell_volume   130.98605299
_cell_formula_units_Z   1
loop_
 _symmetry_equiv_pos_site_id
 _symmetry_equiv_pos_as_xyz
  1  'x, y, z'
loop_
 _atom_site_type_symbol
 _atom_site_label
 _atom_site_symmetry_multiplicity
 _atom_site_fract_x
 _atom_site_fract_y
 _atom_site_fract_z
 _atom_site_occupancy
  Os  Os0  1  0.000000  0.000000  0.000000  1
  Pt  Pt1  1  0.669583  0.000000  0.669583  1
  Pt  Pt2  1  0.330417  0.000000  0.330417  1
  Rh  Rh3  1  0.339119  0.337889  0.677211  1
  Rh  Rh4  1  0.660881  0.662111  0.322789  1
  Rh  Rh5  1  0.660678  0.337889  0.998771  1
  Rh  Rh6  1  0.339322  0.662111  0.001229  1
  Rh  Rh7  1  0.000122  0.325912  0.325790  1
  Rh  Rh8  1  0.999878  0.674088  0.674210  1
