# generated using pymatgen
data_Pr2Tc2Ge2C
_symmetry_space_group_name_H-M   'P 1'
_cell_length_a   6.01036474
_cell_length_b   6.01036462
_cell_length_c   7.26348969
_cell_angle_alpha   124.35053536
_cell_angle_beta   124.35053233
_cell_angle_gamma   40.51653885
_symmetry_Int_Tables_number   1
_chemical_formula_structural   Pr2Tc2Ge2C
_chemical_formula_sum   'Pr2 Tc2 Ge2 C1'
_cell_volume   136.18590600
_cell_formula_units_Z   1
loop_
 _symmetry_equiv_pos_site_id
 _symmetry_equiv_pos_as_xyz
  1  'x, y, z'
loop_
 _atom_site_type_symbol
 _atom_site_label
 _atom_site_symmetry_multiplicity
 _atom_site_fract_x
 _atom_site_fract_y
 _atom_site_fract_z
 _atom_site_occupancy
  Pr  Pr0  1  0.565818  0.565818  0.297137  1
  Pr  Pr1  1  0.434182  0.434182  0.702863  1
  Tc  Tc2  1  0.199000  0.199000  0.085082  1
  Tc  Tc3  1  0.801000  0.801000  0.914917  1
  Ge  Ge4  1  0.843495  0.843495  0.298129  1
  Ge  Ge5  1  0.156506  0.156506  0.701871  1
  C  C6  1  0.000000  0.000000  0.000000  1
