# generated using pymatgen
data_LiTb16Hg3Pt4
_symmetry_space_group_name_H-M   'P 1'
_cell_length_a   9.69009445
_cell_length_b   9.69009482
_cell_length_c   9.69009408
_cell_angle_alpha   60.10903718
_cell_angle_beta   60.10903477
_cell_angle_gamma   60.10903465
_symmetry_Int_Tables_number   1
_chemical_formula_structural   LiTb16Hg3Pt4
_chemical_formula_sum   'Li1 Tb16 Hg3 Pt4'
_cell_volume   644.97160117
_cell_formula_units_Z   1
loop_
 _symmetry_equiv_pos_site_id
 _symmetry_equiv_pos_as_xyz
  1  'x, y, z'
loop_
 _atom_site_type_symbol
 _atom_site_label
 _atom_site_symmetry_multiplicity
 _atom_site_fract_x
 _atom_site_fract_y
 _atom_site_fract_z
 _atom_site_occupancy
  Li  Li0  1  0.567347  0.567347  0.567347  1
  Tb  Tb1  1  0.352892  0.352892  0.352892  1
  Tb  Tb2  1  0.353703  0.353703  0.940188  1
  Tb  Tb3  1  0.353703  0.940188  0.353703  1
  Tb  Tb4  1  0.940188  0.353703  0.353703  1
  Tb  Tb5  1  0.809344  0.192837  0.192837  1
  Tb  Tb6  1  0.188215  0.812900  0.812900  1
  Tb  Tb7  1  0.192837  0.809344  0.192837  1
  Tb  Tb8  1  0.812900  0.188215  0.812900  1
  Tb  Tb9  1  0.192837  0.192837  0.809344  1
  Tb  Tb10  1  0.812900  0.812900  0.188215  1
  Tb  Tb11  1  0.937275  0.564921  0.564921  1
  Tb  Tb12  1  0.563209  0.936812  0.936812  1
  Tb  Tb13  1  0.564921  0.937275  0.564921  1
  Tb  Tb14  1  0.936812  0.563209  0.936812  1
  Tb  Tb15  1  0.564921  0.564921  0.937275  1
  Tb  Tb16  1  0.936812  0.936812  0.563209  1
  Hg  Hg17  1  0.587964  0.587964  0.241671  1
  Hg  Hg18  1  0.587964  0.241671  0.587964  1
  Hg  Hg19  1  0.241671  0.587964  0.587964  1
  Pt  Pt20  1  0.144886  0.144886  0.144886  1
  Pt  Pt21  1  0.143271  0.143271  0.570156  1
  Pt  Pt22  1  0.143271  0.570156  0.143271  1
  Pt  Pt23  1  0.570156  0.143271  0.143271  1
