# generated using pymatgen
data_K3Tm(AsS2)6
_symmetry_space_group_name_H-M   'P 1'
_cell_length_a   9.49589900
_cell_length_b   9.49589845
_cell_length_c   7.86766500
_cell_angle_alpha   90.00000000
_cell_angle_beta   90.00000000
_cell_angle_gamma   119.99999749
_symmetry_Int_Tables_number   1
_chemical_formula_structural   K3Tm(AsS2)6
_chemical_formula_sum   'K3 Tm1 As6 S12'
_cell_volume   614.39638371
_cell_formula_units_Z   1
loop_
 _symmetry_equiv_pos_site_id
 _symmetry_equiv_pos_as_xyz
  1  'x, y, z'
loop_
 _atom_site_type_symbol
 _atom_site_label
 _atom_site_symmetry_multiplicity
 _atom_site_fract_x
 _atom_site_fract_y
 _atom_site_fract_z
 _atom_site_occupancy
  K  K0  1  0.000000  0.000000  0.000000  1
  K  K1  1  0.333333  0.666667  0.851265  1
  K  K2  1  0.666667  0.333333  0.148735  1
  Tm  Tm3  1  0.000000  0.000000  0.500000  1
  As  As4  1  0.286523  0.835621  0.376315  1
  As  As5  1  0.164379  0.450902  0.376315  1
  As  As6  1  0.549098  0.713477  0.376315  1
  As  As7  1  0.713477  0.164379  0.623685  1
  As  As8  1  0.835621  0.549098  0.623685  1
  As  As9  1  0.450902  0.286523  0.623685  1
  S  S10  1  0.251150  0.040497  0.295467  1
  S  S11  1  0.959503  0.210655  0.295467  1
  S  S12  1  0.789345  0.748850  0.295467  1
  S  S13  1  0.748850  0.959503  0.704533  1
  S  S14  1  0.040497  0.789345  0.704533  1
  S  S15  1  0.210655  0.251150  0.704533  1
  S  S16  1  0.520798  0.903948  0.216567  1
  S  S17  1  0.096052  0.616848  0.216567  1
  S  S18  1  0.383152  0.479202  0.216567  1
  S  S19  1  0.479202  0.096052  0.783433  1
  S  S20  1  0.903948  0.383152  0.783433  1
  S  S21  1  0.616848  0.520798  0.783433  1
