# generated using pymatgen
data_Sb7Te3Pd5
_symmetry_space_group_name_H-M   'P 1'
_cell_length_a   20.28703321
_cell_length_b   20.28703320
_cell_length_c   6.45872256
_cell_angle_alpha   71.61987124
_cell_angle_beta   71.61987186
_cell_angle_gamma   8.34013037
_symmetry_Int_Tables_number   1
_chemical_formula_structural   Sb7Te3Pd5
_chemical_formula_sum   'Sb7 Te3 Pd5'
_cell_volume   365.78948809
_cell_formula_units_Z   1
loop_
 _symmetry_equiv_pos_site_id
 _symmetry_equiv_pos_as_xyz
  1  'x, y, z'
loop_
 _atom_site_type_symbol
 _atom_site_label
 _atom_site_symmetry_multiplicity
 _atom_site_fract_x
 _atom_site_fract_y
 _atom_site_fract_z
 _atom_site_occupancy
  Sb  Sb0  1  0.677538  0.677538  0.715635  1
  Sb  Sb1  1  0.277900  0.277900  0.736653  1
  Sb  Sb2  1  0.874759  0.874759  0.756496  1
  Sb  Sb3  1  0.536175  0.536175  0.264111  1
  Sb  Sb4  1  0.136065  0.136065  0.245579  1
  Sb  Sb5  1  0.733268  0.733268  0.264603  1
  Sb  Sb6  1  0.333993  0.333993  0.283490  1
  Te  Te7  1  0.934293  0.934293  0.294063  1
  Te  Te8  1  0.076795  0.076795  0.708810  1
  Te  Te9  1  0.476903  0.476903  0.727879  1
  Pd  Pd10  1  0.005685  0.005685  0.999715  1
  Pd  Pd11  1  0.605786  0.605786  0.979030  1
  Pd  Pd12  1  0.206695  0.206695  0.984152  1
  Pd  Pd13  1  0.804313  0.804313  0.018649  1
  Pd  Pd14  1  0.405553  0.405553  0.021137  1
