# generated using pymatgen
data_K2LiLuAs2
_symmetry_space_group_name_H-M   'P 1'
_cell_length_a   10.25704150
_cell_length_b   10.25704168
_cell_length_c   6.68363700
_cell_angle_alpha   90.00000000
_cell_angle_beta   90.00000000
_cell_angle_gamma   98.74888770
_symmetry_Int_Tables_number   1
_chemical_formula_structural   K2LiLuAs2
_chemical_formula_sum   'K8 Li4 Lu4 As8'
_cell_volume   694.98304492
_cell_formula_units_Z   4
loop_
 _symmetry_equiv_pos_site_id
 _symmetry_equiv_pos_as_xyz
  1  'x, y, z'
loop_
 _atom_site_type_symbol
 _atom_site_label
 _atom_site_symmetry_multiplicity
 _atom_site_fract_x
 _atom_site_fract_y
 _atom_site_fract_z
 _atom_site_occupancy
  K  K0  1  0.068622  0.431378  0.750000  1
  K  K1  1  0.677441  0.322559  0.788888  1
  K  K2  1  0.322559  0.677441  0.211112  1
  K  K3  1  0.568622  0.931378  0.750000  1
  K  K4  1  0.431378  0.068622  0.250000  1
  K  K5  1  0.931378  0.568622  0.250000  1
  K  K6  1  0.822559  0.177441  0.288888  1
  K  K7  1  0.177441  0.822559  0.711112  1
  Li  Li8  1  0.118803  0.118803  0.500000  1
  Li  Li9  1  0.881197  0.881197  0.500000  1
  Li  Li10  1  0.381197  0.381197  0.000000  1
  Li  Li11  1  0.618803  0.618803  0.000000  1
  Lu  Lu12  1  0.868597  0.868597  0.000000  1
  Lu  Lu13  1  0.368597  0.368597  0.500000  1
  Lu  Lu14  1  0.631403  0.631403  0.500000  1
  Lu  Lu15  1  0.131403  0.131403  0.000000  1
  As  As16  1  0.846621  0.653379  0.750000  1
  As  As17  1  0.094682  0.905318  0.233722  1
  As  As18  1  0.405318  0.594682  0.733722  1
  As  As19  1  0.594682  0.405318  0.266278  1
  As  As20  1  0.653379  0.846621  0.250000  1
  As  As21  1  0.153379  0.346621  0.250000  1
  As  As22  1  0.346621  0.153379  0.750000  1
  As  As23  1  0.905318  0.094682  0.766278  1
