# generated using pymatgen
data_Lu5PaAl18
_symmetry_space_group_name_H-M   'P 1'
_cell_length_a   14.56218829
_cell_length_b   14.56218868
_cell_length_c   14.56218844
_cell_angle_alpha   24.12547856
_cell_angle_beta   24.12547312
_cell_angle_gamma   24.12548068
_symmetry_Int_Tables_number   1
_chemical_formula_structural   Lu5PaAl18
_chemical_formula_sum   'Lu5 Pa1 Al18'
_cell_volume   453.38068208
_cell_formula_units_Z   1
loop_
 _symmetry_equiv_pos_site_id
 _symmetry_equiv_pos_as_xyz
  1  'x, y, z'
loop_
 _atom_site_type_symbol
 _atom_site_label
 _atom_site_symmetry_multiplicity
 _atom_site_fract_x
 _atom_site_fract_y
 _atom_site_fract_z
 _atom_site_occupancy
  Lu  Lu0  1  0.890578  0.890578  0.890578  1
  Lu  Lu1  1  0.390562  0.390562  0.390562  1
  Lu  Lu2  1  0.999596  0.999596  0.999596  1
  Lu  Lu3  1  0.499934  0.499934  0.499934  1
  Lu  Lu4  1  0.609671  0.609671  0.609671  1
  Pa  Pa5  1  0.109397  0.109397  0.109397  1
  Al  Al6  1  0.918490  0.374469  0.374469  1
  Al  Al7  1  0.416377  0.873099  0.873099  1
  Al  Al8  1  0.374469  0.374469  0.918490  1
  Al  Al9  1  0.873099  0.873099  0.416377  1
  Al  Al10  1  0.374469  0.918490  0.374469  1
  Al  Al11  1  0.873099  0.416377  0.873099  1
  Al  Al12  1  0.582511  0.125914  0.125914  1
  Al  Al13  1  0.083413  0.625613  0.625613  1
  Al  Al14  1  0.125914  0.125914  0.582511  1
  Al  Al15  1  0.625613  0.625613  0.083413  1
  Al  Al16  1  0.125914  0.582511  0.125914  1
  Al  Al17  1  0.625613  0.083413  0.625613  1
  Al  Al18  1  0.499240  0.499240  0.000362  1
  Al  Al19  1  0.001393  0.001393  0.499654  1
  Al  Al20  1  0.499240  0.000362  0.499240  1
  Al  Al21  1  0.001393  0.499654  0.001393  1
  Al  Al22  1  0.000362  0.499240  0.499240  1
  Al  Al23  1  0.499654  0.001393  0.001393  1
