# generated using pymatgen
data_Nd3Zn3CuPdPt
_symmetry_space_group_name_H-M   'P 1'
_cell_length_a   7.33995300
_cell_length_b   7.33995432
_cell_length_c   4.03548100
_cell_angle_alpha   90.00000000
_cell_angle_beta   90.00000000
_cell_angle_gamma   119.99999854
_symmetry_Int_Tables_number   1
_chemical_formula_structural   Nd3Zn3CuPdPt
_chemical_formula_sum   'Nd3 Zn3 Cu1 Pd1 Pt1'
_cell_volume   188.28363807
_cell_formula_units_Z   1
loop_
 _symmetry_equiv_pos_site_id
 _symmetry_equiv_pos_as_xyz
  1  'x, y, z'
loop_
 _atom_site_type_symbol
 _atom_site_label
 _atom_site_symmetry_multiplicity
 _atom_site_fract_x
 _atom_site_fract_y
 _atom_site_fract_z
 _atom_site_occupancy
  Nd  Nd0  1  0.408769  0.406356  0.000000  1
  Nd  Nd1  1  0.593644  0.002413  0.000000  1
  Nd  Nd2  1  0.997587  0.591231  0.000000  1
  Zn  Zn3  1  0.766771  0.766646  0.500000  1
  Zn  Zn4  1  0.233354  0.000126  0.500000  1
  Zn  Zn5  1  0.999874  0.233229  0.500000  1
  Cu  Cu6  1  0.000000  0.000000  0.000000  1
  Pd  Pd7  1  0.333333  0.666667  0.500000  1
  Pt  Pt8  1  0.666667  0.333333  0.500000  1
