# generated using pymatgen
data_Sr2Li4Y2Si7Ge
_symmetry_space_group_name_H-M   'P 1'
_cell_length_a   3.84925600
_cell_length_b   7.94224656
_cell_length_c   10.66615134
_cell_angle_alpha   89.46804805
_cell_angle_beta   90.00000000
_cell_angle_gamma   90.00000000
_symmetry_Int_Tables_number   1
_chemical_formula_structural   Sr2Li4Y2Si7Ge
_chemical_formula_sum   'Sr2 Li4 Y2 Si7 Ge1'
_cell_volume   326.06875400
_cell_formula_units_Z   1
loop_
 _symmetry_equiv_pos_site_id
 _symmetry_equiv_pos_as_xyz
  1  'x, y, z'
loop_
 _atom_site_type_symbol
 _atom_site_label
 _atom_site_symmetry_multiplicity
 _atom_site_fract_x
 _atom_site_fract_y
 _atom_site_fract_z
 _atom_site_occupancy
  Sr  Sr0  1  0.250000  0.639446  0.634874  1
  Sr  Sr1  1  0.750000  0.359620  0.365826  1
  Li  Li2  1  0.250000  0.001430  0.388992  1
  Li  Li3  1  0.750000  0.997484  0.612304  1
  Li  Li4  1  0.250000  0.493671  0.109312  1
  Li  Li5  1  0.750000  0.511454  0.889548  1
  Y  Y6  1  0.250000  0.124335  0.865483  1
  Y  Y7  1  0.750000  0.872586  0.132965  1
  Si  Si8  1  0.250000  0.740327  0.940575  1
  Si  Si9  1  0.750000  0.782127  0.418395  1
  Si  Si10  1  0.250000  0.217414  0.581744  1
  Si  Si11  1  0.750000  0.843774  0.832563  1
  Si  Si12  1  0.250000  0.152318  0.169913  1
  Si  Si13  1  0.750000  0.321027  0.688797  1
  Si  Si14  1  0.250000  0.677698  0.311981  1
  Ge  Ge15  1  0.750000  0.265289  0.056727  1
