# generated using pymatgen
data_Y2Tm2Ga3SiRu4
_symmetry_space_group_name_H-M   'P 1'
_cell_length_a   4.43990500
_cell_length_b   7.09437132
_cell_length_c   7.15598605
_cell_angle_alpha   90.33021117
_cell_angle_beta   90.00000000
_cell_angle_gamma   90.00000000
_symmetry_Int_Tables_number   1
_chemical_formula_structural   Y2Tm2Ga3SiRu4
_chemical_formula_sum   'Y2 Tm2 Ga3 Si1 Ru4'
_cell_volume   225.39790034
_cell_formula_units_Z   1
loop_
 _symmetry_equiv_pos_site_id
 _symmetry_equiv_pos_as_xyz
  1  'x, y, z'
loop_
 _atom_site_type_symbol
 _atom_site_label
 _atom_site_symmetry_multiplicity
 _atom_site_fract_x
 _atom_site_fract_y
 _atom_site_fract_z
 _atom_site_occupancy
  Y  Y0  1  0.750000  0.013868  0.193235  1
  Y  Y1  1  0.750000  0.513480  0.308555  1
  Tm  Tm2  1  0.250000  0.477229  0.696530  1
  Tm  Tm3  1  0.250000  0.985624  0.805211  1
  Ga  Ga4  1  0.250000  0.302027  0.105379  1
  Ga  Ga5  1  0.250000  0.800683  0.398602  1
  Ga  Ga6  1  0.750000  0.694619  0.891556  1
  Si  Si7  1  0.750000  0.196826  0.602119  1
  Ru  Ru8  1  0.250000  0.662246  0.062477  1
  Ru  Ru9  1  0.250000  0.164734  0.449213  1
  Ru  Ru10  1  0.750000  0.857141  0.568978  1
  Ru  Ru11  1  0.750000  0.331525  0.918144  1
