# generated using pymatgen
data_Tb8Hf9Si16MoW2
_symmetry_space_group_name_H-M   'P 1'
_cell_length_a   7.19434337
_cell_length_b   7.19434401
_cell_length_c   13.16719000
_cell_angle_alpha   90.11263361
_cell_angle_beta   90.11263677
_cell_angle_gamma   90.11980878
_symmetry_Int_Tables_number   1
_chemical_formula_structural   Tb8Hf9Si16MoW2
_chemical_formula_sum   'Tb8 Hf9 Si16 Mo1 W2'
_cell_volume   681.51094264
_cell_formula_units_Z   1
loop_
 _symmetry_equiv_pos_site_id
 _symmetry_equiv_pos_as_xyz
  1  'x, y, z'
loop_
 _atom_site_type_symbol
 _atom_site_label
 _atom_site_symmetry_multiplicity
 _atom_site_fract_x
 _atom_site_fract_y
 _atom_site_fract_z
 _atom_site_occupancy
  Tb  Tb0  1  0.999197  0.344269  0.215395  1
  Tb  Tb1  1  0.003538  0.656603  0.714744  1
  Tb  Tb2  1  0.154947  0.499693  0.464052  1
  Tb  Tb3  1  0.500307  0.845053  0.035948  1
  Tb  Tb4  1  0.846130  0.501955  0.967686  1
  Tb  Tb5  1  0.498045  0.153870  0.532314  1
  Tb  Tb6  1  0.343397  0.996462  0.785256  1
  Tb  Tb7  1  0.655731  0.000803  0.284605  1
  Hf  Hf8  1  0.675401  0.324599  0.750000  1
  Hf  Hf9  1  0.146752  0.992712  0.373554  1
  Hf  Hf10  1  0.854607  0.004805  0.876584  1
  Hf  Hf11  1  0.506159  0.649740  0.621299  1
  Hf  Hf12  1  0.350260  0.493841  0.878701  1
  Hf  Hf13  1  0.492701  0.352265  0.125381  1
  Hf  Hf14  1  0.647735  0.507299  0.374619  1
  Hf  Hf15  1  0.995195  0.145393  0.623416  1
  Hf  Hf16  1  0.007288  0.853248  0.126446  1
  Si  Si17  1  0.361121  0.297273  0.316495  1
  Si  Si18  1  0.637790  0.705073  0.817141  1
  Si  Si19  1  0.202993  0.861482  0.565605  1
  Si  Si20  1  0.138518  0.797007  0.934395  1
  Si  Si21  1  0.797725  0.138228  0.067045  1
  Si  Si22  1  0.861772  0.202275  0.432955  1
  Si  Si23  1  0.294927  0.362210  0.682859  1
  Si  Si24  1  0.702727  0.638879  0.183505  1
  Si  Si25  1  0.295481  0.051380  0.183955  1
  Si  Si26  1  0.705062  0.947496  0.682006  1
  Si  Si27  1  0.449320  0.795252  0.432549  1
  Si  Si28  1  0.204748  0.550680  0.067451  1
  Si  Si29  1  0.547033  0.203125  0.936110  1
  Si  Si30  1  0.796875  0.452967  0.563890  1
  Si  Si31  1  0.052504  0.294938  0.817994  1
  Si  Si32  1  0.948620  0.704519  0.316045  1
  Mo  Mo33  1  0.324152  0.675848  0.250000  1
  W  W34  1  0.176746  0.175507  0.001387  1
  W  W35  1  0.824493  0.823254  0.498613  1
