# generated using pymatgen
data_Cs4SbOsCl12
_symmetry_space_group_name_H-M   'P 1'
_cell_length_a   7.59755304
_cell_length_b   7.59806004
_cell_length_c   10.62555500
_cell_angle_alpha   90.00000000
_cell_angle_beta   90.00000000
_cell_angle_gamma   89.98847721
_symmetry_Int_Tables_number   1
_chemical_formula_structural   Cs4SbOsCl12
_chemical_formula_sum   'Cs4 Sb1 Os1 Cl12'
_cell_volume   613.37783228
_cell_formula_units_Z   1
loop_
 _symmetry_equiv_pos_site_id
 _symmetry_equiv_pos_as_xyz
  1  'x, y, z'
loop_
 _atom_site_type_symbol
 _atom_site_label
 _atom_site_symmetry_multiplicity
 _atom_site_fract_x
 _atom_site_fract_y
 _atom_site_fract_z
 _atom_site_occupancy
  Cs  Cs0  1  0.500000  0.000000  0.742339  1
  Cs  Cs1  1  0.000000  0.500000  0.257655  1
  Cs  Cs2  1  0.500000  0.000000  0.257661  1
  Cs  Cs3  1  0.000000  0.500000  0.742345  1
  Sb  Sb4  1  0.500000  0.500000  0.500000  1
  Os  Os5  1  0.000000  0.000000  0.000000  1
  Cl  Cl6  1  0.000000  0.000000  0.780023  1
  Cl  Cl7  1  0.500000  0.500000  0.254815  1
  Cl  Cl8  1  0.741706  0.741680  0.500000  1
  Cl  Cl9  1  0.218788  0.218755  0.000000  1
  Cl  Cl10  1  0.741757  0.258274  0.500000  1
  Cl  Cl11  1  0.218828  0.781204  0.000000  1
  Cl  Cl12  1  0.000000  0.000000  0.219977  1
  Cl  Cl13  1  0.500000  0.500000  0.745185  1
  Cl  Cl14  1  0.258294  0.258320  0.500000  1
  Cl  Cl15  1  0.781212  0.781245  0.000000  1
  Cl  Cl16  1  0.258243  0.741726  0.500000  1
  Cl  Cl17  1  0.781172  0.218796  0.000000  1
