# generated using pymatgen
data_MnZn3As(PN2)6
_symmetry_space_group_name_H-M   'P 1'
_cell_length_a   7.21035202
_cell_length_b   7.21035186
_cell_length_c   7.15753400
_cell_angle_alpha   109.32290205
_cell_angle_beta   109.32290161
_cell_angle_gamma   109.61913201
_symmetry_Int_Tables_number   1
_chemical_formula_structural   MnZn3As(PN2)6
_chemical_formula_sum   'Mn1 Zn3 As1 P6 N12'
_cell_volume   286.97636858
_cell_formula_units_Z   1
loop_
 _symmetry_equiv_pos_site_id
 _symmetry_equiv_pos_as_xyz
  1  'x, y, z'
loop_
 _atom_site_type_symbol
 _atom_site_label
 _atom_site_symmetry_multiplicity
 _atom_site_fract_x
 _atom_site_fract_y
 _atom_site_fract_z
 _atom_site_occupancy
  Mn  Mn0  1  0.000000  0.000000  0.650574  1
  Zn  Zn1  1  0.336925  0.336925  0.333292  1
  Zn  Zn2  1  0.000000  0.663075  0.996368  1
  Zn  Zn3  1  0.663075  0.000000  0.996368  1
  As  As4  1  0.000000  0.000000  0.996925  1
  P  P5  1  0.502102  0.250715  0.751982  1
  P  P6  1  0.497898  0.748612  0.249879  1
  P  P7  1  0.749285  0.251388  0.501267  1
  P  P8  1  0.250715  0.502102  0.751982  1
  P  P9  1  0.748612  0.497898  0.249879  1
  P  P10  1  0.251388  0.749285  0.501267  1
  N  N11  1  0.000000  0.725035  0.446786  1
  N  N12  1  0.271859  0.716300  0.272904  1
  N  N13  1  0.283700  0.555561  0.556604  1
  N  N14  1  0.559601  0.559601  0.287664  1
  N  N15  1  0.555561  0.283700  0.556604  1
  N  N16  1  0.725035  0.000000  0.446786  1
  N  N17  1  0.440399  0.000000  0.728063  1
  N  N18  1  0.728141  0.444439  0.001045  1
  N  N19  1  0.274965  0.274965  0.721751  1
  N  N20  1  0.716300  0.271859  0.272904  1
  N  N21  1  0.000000  0.440399  0.728063  1
  N  N22  1  0.444439  0.728141  0.001045  1
