# generated using pymatgen
data_Bi6Ir2RhO18
_symmetry_space_group_name_H-M   'P 1'
_cell_length_a   9.28329300
_cell_length_b   9.28329226
_cell_length_c   5.21930900
_cell_angle_alpha   90.00000000
_cell_angle_beta   90.00000000
_cell_angle_gamma   119.99999291
_symmetry_Int_Tables_number   1
_chemical_formula_structural   Bi6Ir2RhO18
_chemical_formula_sum   'Bi6 Ir2 Rh1 O18'
_cell_volume   389.53613697
_cell_formula_units_Z   1
loop_
 _symmetry_equiv_pos_site_id
 _symmetry_equiv_pos_as_xyz
  1  'x, y, z'
loop_
 _atom_site_type_symbol
 _atom_site_label
 _atom_site_symmetry_multiplicity
 _atom_site_fract_x
 _atom_site_fract_y
 _atom_site_fract_z
 _atom_site_occupancy
  Bi  Bi0  1  0.993121  0.372946  0.500179  1
  Bi  Bi1  1  0.292721  0.289730  0.000498  1
  Bi  Bi2  1  0.997008  0.707279  0.000498  1
  Bi  Bi3  1  0.627054  0.620175  0.500179  1
  Bi  Bi4  1  0.379825  0.006879  0.500179  1
  Bi  Bi5  1  0.710270  0.002992  0.000498  1
  Ir  Ir6  1  0.000000  0.000000  0.503335  1
  Ir  Ir7  1  0.333333  0.666667  0.000810  1
  Rh  Rh8  1  0.666667  0.333333  0.998077  1
  O  O9  1  0.078361  0.198164  0.715724  1
  O  O10  1  0.229742  0.466633  0.214970  1
  O  O11  1  0.134947  0.594761  0.787353  1
  O  O12  1  0.405239  0.540186  0.787353  1
  O  O13  1  0.236892  0.770258  0.214970  1
  O  O14  1  0.119803  0.921639  0.715724  1
  O  O15  1  0.533367  0.763108  0.214970  1
  O  O16  1  0.199166  0.078697  0.286878  1
  O  O17  1  0.459814  0.865053  0.787353  1
  O  O18  1  0.801836  0.880197  0.715724  1
  O  O19  1  0.461945  0.228859  0.776707  1
  O  O20  1  0.595376  0.132597  0.216949  1
  O  O21  1  0.537221  0.404624  0.216949  1
  O  O22  1  0.771141  0.233085  0.776707  1
  O  O23  1  0.921303  0.120469  0.286878  1
  O  O24  1  0.766915  0.538055  0.776707  1
  O  O25  1  0.867403  0.462779  0.216949  1
  O  O26  1  0.879531  0.800834  0.286878  1
