# generated using pymatgen
data_La4Nd3Ho3Sn8
_symmetry_space_group_name_H-M   'P 1'
_cell_length_a   8.23078200
_cell_length_b   8.39484054
_cell_length_c   15.93635700
_cell_angle_alpha   89.90097431
_cell_angle_beta   90.00000000
_cell_angle_gamma   90.00000000
_symmetry_Int_Tables_number   1
_chemical_formula_structural   La4Nd3Ho3Sn8
_chemical_formula_sum   'La8 Nd6 Ho6 Sn16'
_cell_volume   1101.13851045
_cell_formula_units_Z   2
loop_
 _symmetry_equiv_pos_site_id
 _symmetry_equiv_pos_as_xyz
  1  'x, y, z'
loop_
 _atom_site_type_symbol
 _atom_site_label
 _atom_site_symmetry_multiplicity
 _atom_site_fract_x
 _atom_site_fract_y
 _atom_site_fract_z
 _atom_site_occupancy
  La  La0  1  0.514823  0.320346  0.901444  1
  La  La1  1  0.014823  0.179654  0.598556  1
  La  La2  1  0.484677  0.680619  0.403843  1
  La  La3  1  0.984677  0.819381  0.096157  1
  La  La4  1  0.484690  0.681080  0.096904  1
  La  La5  1  0.984690  0.818920  0.403096  1
  La  La6  1  0.516112  0.320230  0.598293  1
  La  La7  1  0.016112  0.179770  0.901707  1
  Nd  Nd8  1  0.363334  0.836994  0.878568  1
  Nd  Nd9  1  0.863334  0.663006  0.621432  1
  Nd  Nd10  1  0.637763  0.164203  0.378301  1
  Nd  Nd11  1  0.137763  0.335797  0.121699  1
  Nd  Nd12  1  0.638989  0.163285  0.119419  1
  Nd  Nd13  1  0.138989  0.336715  0.380581  1
  Ho  Ho14  1  0.360009  0.837660  0.624937  1
  Ho  Ho15  1  0.860009  0.662340  0.875063  1
  Ho  Ho16  1  0.194398  0.502963  0.749511  1
  Ho  Ho17  1  0.694398  0.997037  0.750489  1
  Ho  Ho18  1  0.805818  0.498051  0.249668  1
  Ho  Ho19  1  0.305818  0.001949  0.250332  1
  Sn  Sn20  1  0.297961  0.035771  0.044055  1
  Sn  Sn21  1  0.797961  0.464229  0.455945  1
  Sn  Sn22  1  0.693095  0.961574  0.544770  1
  Sn  Sn23  1  0.193095  0.538426  0.955230  1
  Sn  Sn24  1  0.706770  0.958415  0.954995  1
  Sn  Sn25  1  0.206770  0.541585  0.545005  1
  Sn  Sn26  1  0.300137  0.033276  0.460132  1
  Sn  Sn27  1  0.800137  0.466724  0.039868  1
  Sn  Sn28  1  0.559337  0.620988  0.750213  1
  Sn  Sn29  1  0.059337  0.879012  0.749787  1
  Sn  Sn30  1  0.440561  0.381734  0.249600  1
  Sn  Sn31  1  0.940561  0.118266  0.250400  1
  Sn  Sn32  1  0.322511  0.143450  0.749082  1
  Sn  Sn33  1  0.822511  0.356550  0.750918  1
  Sn  Sn34  1  0.679016  0.855169  0.249848  1
  Sn  Sn35  1  0.179016  0.644831  0.250152  1
