# generated using pymatgen
data_Cs(NbTe2)3
_symmetry_space_group_name_H-M   'P 1'
_cell_length_a   6.46394600
_cell_length_b   6.46394785
_cell_length_c   20.24649300
_cell_angle_alpha   90.00000000
_cell_angle_beta   90.00000000
_cell_angle_gamma   120.00000078
_symmetry_Int_Tables_number   1
_chemical_formula_structural   Cs(NbTe2)3
_chemical_formula_sum   'Cs2 Nb6 Te12'
_cell_volume   732.61532548
_cell_formula_units_Z   2
loop_
 _symmetry_equiv_pos_site_id
 _symmetry_equiv_pos_as_xyz
  1  'x, y, z'
loop_
 _atom_site_type_symbol
 _atom_site_label
 _atom_site_symmetry_multiplicity
 _atom_site_fract_x
 _atom_site_fract_y
 _atom_site_fract_z
 _atom_site_occupancy
  Cs  Cs0  1  0.000000  0.000000  0.000000  1
  Cs  Cs1  1  0.000000  0.000000  0.500000  1
  Nb  Nb2  1  0.000000  0.000000  0.750000  1
  Nb  Nb3  1  0.000000  0.000000  0.250000  1
  Nb  Nb4  1  0.333333  0.666667  0.250000  1
  Nb  Nb5  1  0.666667  0.333333  0.750000  1
  Nb  Nb6  1  0.666667  0.333333  0.250000  1
  Nb  Nb7  1  0.333333  0.666667  0.750000  1
  Te  Te8  1  0.334660  0.000000  0.160216  1
  Te  Te9  1  0.000000  0.334660  0.160216  1
  Te  Te10  1  0.665340  0.665340  0.160216  1
  Te  Te11  1  0.334660  0.334660  0.660216  1
  Te  Te12  1  0.665340  0.665340  0.339784  1
  Te  Te13  1  0.665340  0.000000  0.660216  1
  Te  Te14  1  0.000000  0.665340  0.660216  1
  Te  Te15  1  0.000000  0.665340  0.839784  1
  Te  Te16  1  0.334660  0.334660  0.839784  1
  Te  Te17  1  0.000000  0.334660  0.339784  1
  Te  Te18  1  0.334660  0.000000  0.339784  1
  Te  Te19  1  0.665340  0.000000  0.839784  1
