# generated using pymatgen
data_LaPr3(SeO4)6
_symmetry_space_group_name_H-M   'P 1'
_cell_length_a   10.36026929
_cell_length_b   10.36026900
_cell_length_c   10.36026904
_cell_angle_alpha   57.88155322
_cell_angle_beta   57.88155848
_cell_angle_gamma   57.88155343
_symmetry_Int_Tables_number   1
_chemical_formula_structural   LaPr3(SeO4)6
_chemical_formula_sum   'La1 Pr3 Se6 O24'
_cell_volume   748.08264879
_cell_formula_units_Z   1
loop_
 _symmetry_equiv_pos_site_id
 _symmetry_equiv_pos_as_xyz
  1  'x, y, z'
loop_
 _atom_site_type_symbol
 _atom_site_label
 _atom_site_symmetry_multiplicity
 _atom_site_fract_x
 _atom_site_fract_y
 _atom_site_fract_z
 _atom_site_occupancy
  La  La0  1  0.356260  0.356260  0.356260  1
  Pr  Pr1  1  0.643824  0.643824  0.643824  1
  Pr  Pr2  1  0.143841  0.143841  0.143841  1
  Pr  Pr3  1  0.856209  0.856209  0.856209  1
  Se  Se4  1  0.249878  0.536674  0.962849  1
  Se  Se5  1  0.463862  0.035639  0.750904  1
  Se  Se6  1  0.035639  0.750904  0.463862  1
  Se  Se7  1  0.962849  0.249878  0.536674  1
  Se  Se8  1  0.536674  0.962849  0.249878  1
  Se  Se9  1  0.750904  0.463862  0.035639  1
  O  O10  1  0.006714  0.774851  0.625082  1
  O  O11  1  0.774851  0.625082  0.006714  1
  O  O12  1  0.412687  0.564008  0.798574  1
  O  O13  1  0.273882  0.507979  0.124035  1
  O  O14  1  0.625082  0.006714  0.774851  1
  O  O15  1  0.492734  0.874893  0.726099  1
  O  O16  1  0.200431  0.588413  0.436567  1
  O  O17  1  0.087259  0.701179  0.935517  1
  O  O18  1  0.299055  0.063428  0.913232  1
  O  O19  1  0.436567  0.200431  0.588413  1
  O  O20  1  0.063428  0.913232  0.299055  1
  O  O21  1  0.874893  0.726099  0.492734  1
  O  O22  1  0.124035  0.273882  0.507979  1
  O  O23  1  0.935517  0.087259  0.701179  1
  O  O24  1  0.564008  0.798574  0.412687  1
  O  O25  1  0.701179  0.935517  0.087259  1
  O  O26  1  0.913232  0.299055  0.063428  1
  O  O27  1  0.798574  0.412687  0.564008  1
  O  O28  1  0.507979  0.124035  0.273882  1
  O  O29  1  0.375227  0.992438  0.225776  1
  O  O30  1  0.726099  0.492734  0.874893  1
  O  O31  1  0.588413  0.436567  0.200431  1
  O  O32  1  0.225776  0.375227  0.992438  1
  O  O33  1  0.992438  0.225776  0.375227  1
