# generated using pymatgen
data_Nb8VCdS16
_symmetry_space_group_name_H-M   'P 1'
_cell_length_a   6.72566800
_cell_length_b   6.72566907
_cell_length_c   12.89498300
_cell_angle_alpha   90.00000000
_cell_angle_beta   90.00000000
_cell_angle_gamma   120.00000459
_symmetry_Int_Tables_number   1
_chemical_formula_structural   Nb8VCdS16
_chemical_formula_sum   'Nb8 V1 Cd1 S16'
_cell_volume   505.15226565
_cell_formula_units_Z   1
loop_
 _symmetry_equiv_pos_site_id
 _symmetry_equiv_pos_as_xyz
  1  'x, y, z'
loop_
 _atom_site_type_symbol
 _atom_site_label
 _atom_site_symmetry_multiplicity
 _atom_site_fract_x
 _atom_site_fract_y
 _atom_site_fract_z
 _atom_site_occupancy
  Nb  Nb0  1  0.000000  0.000000  0.261760  1
  Nb  Nb1  1  0.000000  0.000000  0.738240  1
  Nb  Nb2  1  0.505083  0.010165  0.263288  1
  Nb  Nb3  1  0.494917  0.989835  0.736712  1
  Nb  Nb4  1  0.989835  0.494917  0.263288  1
  Nb  Nb5  1  0.010165  0.505083  0.736712  1
  Nb  Nb6  1  0.505083  0.494917  0.263288  1
  Nb  Nb7  1  0.494917  0.505083  0.736712  1
  V  V8  1  0.000000  0.000000  0.500000  1
  Cd  Cd9  1  0.000000  0.000000  0.000000  1
  S  S10  1  0.333333  0.666667  0.613292  1
  S  S11  1  0.666667  0.333333  0.386708  1
  S  S12  1  0.666667  0.333333  0.139909  1
  S  S13  1  0.333333  0.666667  0.860091  1
  S  S14  1  0.169674  0.339349  0.141645  1
  S  S15  1  0.830326  0.660651  0.858355  1
  S  S16  1  0.660651  0.830326  0.141645  1
  S  S17  1  0.835060  0.670120  0.616329  1
  S  S18  1  0.339349  0.169674  0.858355  1
  S  S19  1  0.164940  0.329880  0.383671  1
  S  S20  1  0.169674  0.830326  0.141645  1
  S  S21  1  0.329880  0.164940  0.616329  1
  S  S22  1  0.830326  0.169674  0.858355  1
  S  S23  1  0.670120  0.835060  0.383671  1
  S  S24  1  0.835060  0.164940  0.616329  1
  S  S25  1  0.164940  0.835060  0.383671  1
