# generated using pymatgen
data_Ac(AlPt)2
_symmetry_space_group_name_H-M   'P 1'
_cell_length_a   6.51758106
_cell_length_b   6.51758122
_cell_length_c   6.51758081
_cell_angle_alpha   142.01784097
_cell_angle_beta   142.01783951
_cell_angle_gamma   54.80192895
_symmetry_Int_Tables_number   1
_chemical_formula_structural   Ac(AlPt)2
_chemical_formula_sum   'Ac1 Al2 Pt2'
_cell_volume   104.11881001
_cell_formula_units_Z   1
loop_
 _symmetry_equiv_pos_site_id
 _symmetry_equiv_pos_as_xyz
  1  'x, y, z'
loop_
 _atom_site_type_symbol
 _atom_site_label
 _atom_site_symmetry_multiplicity
 _atom_site_fract_x
 _atom_site_fract_y
 _atom_site_fract_z
 _atom_site_occupancy
  Ac  Ac0  1  0.000000  0.000000  0.000000  1
  Al  Al1  1  0.750000  0.250000  0.500000  1
  Al  Al2  1  0.250000  0.750000  0.500000  1
  Pt  Pt3  1  0.373629  0.373629  0.000000  1
  Pt  Pt4  1  0.626371  0.626371  0.000000  1
