# generated using pymatgen
data_Rb4ReTcN6
_symmetry_space_group_name_H-M   'P 1'
_cell_length_a   6.96325652
_cell_length_b   6.96325523
_cell_length_c   13.77899900
_cell_angle_alpha   90.00000000
_cell_angle_beta   90.00000000
_cell_angle_gamma   127.49374469
_symmetry_Int_Tables_number   1
_chemical_formula_structural   Rb4ReTcN6
_chemical_formula_sum   'Rb8 Re2 Tc2 N12'
_cell_volume   530.08487233
_cell_formula_units_Z   2
loop_
 _symmetry_equiv_pos_site_id
 _symmetry_equiv_pos_as_xyz
  1  'x, y, z'
loop_
 _atom_site_type_symbol
 _atom_site_label
 _atom_site_symmetry_multiplicity
 _atom_site_fract_x
 _atom_site_fract_y
 _atom_site_fract_z
 _atom_site_occupancy
  Rb  Rb0  1  0.864047  0.135953  0.425766  1
  Rb  Rb1  1  0.362907  0.637093  0.073227  1
  Rb  Rb2  1  0.635953  0.364047  0.925766  1
  Rb  Rb3  1  0.137093  0.862907  0.573227  1
  Rb  Rb4  1  0.445450  0.554550  0.637145  1
  Rb  Rb5  1  0.554748  0.445252  0.362132  1
  Rb  Rb6  1  0.054550  0.945450  0.137145  1
  Rb  Rb7  1  0.945252  0.054748  0.862132  1
  Re  Re8  1  0.242919  0.757081  0.325261  1
  Re  Re9  1  0.257081  0.742919  0.825261  1
  Tc  Tc10  1  0.757312  0.242688  0.674414  1
  Tc  Tc11  1  0.742688  0.257312  0.174414  1
  N  N12  1  0.974266  0.526787  0.750210  1
  N  N13  1  0.525734  0.973213  0.250210  1
  N  N14  1  0.026787  0.474266  0.250210  1
  N  N15  1  0.473213  0.025734  0.750210  1
  N  N16  1  0.394936  0.605064  0.858754  1
  N  N17  1  0.606554  0.393446  0.141723  1
  N  N18  1  0.105064  0.894936  0.358754  1
  N  N19  1  0.677975  0.322025  0.568982  1
  N  N20  1  0.176547  0.823453  0.932175  1
  N  N21  1  0.822025  0.177975  0.068982  1
  N  N22  1  0.323453  0.676547  0.432175  1
  N  N23  1  0.893446  0.106554  0.641723  1
