# generated using pymatgen
data_CsAlGeSe4
_symmetry_space_group_name_H-M   'P 1'
_cell_length_a   17.35007800
_cell_length_b   7.34191710
_cell_length_c   8.17824864
_cell_angle_alpha   70.24827840
_cell_angle_beta   90.00000000
_cell_angle_gamma   90.00000000
_symmetry_Int_Tables_number   1
_chemical_formula_structural   CsAlGeSe4
_chemical_formula_sum   'Cs4 Al4 Ge4 Se16'
_cell_volume   980.47694034
_cell_formula_units_Z   4
loop_
 _symmetry_equiv_pos_site_id
 _symmetry_equiv_pos_as_xyz
  1  'x, y, z'
loop_
 _atom_site_type_symbol
 _atom_site_label
 _atom_site_symmetry_multiplicity
 _atom_site_fract_x
 _atom_site_fract_y
 _atom_site_fract_z
 _atom_site_occupancy
  Cs  Cs0  1  0.398085  0.962017  0.177350  1
  Cs  Cs1  1  0.898085  0.037983  0.822650  1
  Cs  Cs2  1  0.602088  0.521301  0.824878  1
  Cs  Cs3  1  0.102088  0.478699  0.175122  1
  Al  Al4  1  0.582573  0.172442  0.470712  1
  Al  Al5  1  0.082573  0.827558  0.529288  1
  Al  Al6  1  0.271672  0.594156  0.704189  1
  Al  Al7  1  0.771672  0.405844  0.295811  1
  Ge  Ge8  1  0.419609  0.328380  0.536427  1
  Ge  Ge9  1  0.919609  0.671620  0.463573  1
  Ge  Ge10  1  0.725576  0.911793  0.277400  1
  Ge  Ge11  1  0.225576  0.088207  0.722600  1
  Se  Se12  1  0.595549  0.894367  0.376400  1
  Se  Se13  1  0.095549  0.105633  0.623600  1
  Se  Se14  1  0.407497  0.600230  0.631185  1
  Se  Se15  1  0.907497  0.399770  0.368815  1
  Se  Se16  1  0.799772  0.785068  0.542276  1
  Se  Se17  1  0.299772  0.214932  0.457724  1
  Se  Se18  1  0.200696  0.725078  0.443704  1
  Se  Se19  1  0.700696  0.274922  0.556296  1
  Se  Se20  1  0.766996  0.224980  0.096295  1
  Se  Se21  1  0.266996  0.775020  0.903705  1
  Se  Se22  1  0.235943  0.278780  0.906430  1
  Se  Se23  1  0.735943  0.721220  0.093570  1
  Se  Se24  1  0.999890  0.915492  0.271484  1
  Se  Se25  1  0.499890  0.084508  0.728516  1
  Se  Se26  1  0.994052  0.594131  0.725069  1
  Se  Se27  1  0.494052  0.405869  0.274931  1
