# generated using pymatgen
data_Nd16Cd4NiRu2Pt
_symmetry_space_group_name_H-M   'P 1'
_cell_length_a   9.89974029
_cell_length_b   9.93843727
_cell_length_c   9.93843656
_cell_angle_alpha   60.16580202
_cell_angle_beta   59.90726960
_cell_angle_gamma   59.90726989
_symmetry_Int_Tables_number   1
_chemical_formula_structural   Nd16Cd4NiRu2Pt
_chemical_formula_sum   'Nd16 Cd4 Ni1 Ru2 Pt1'
_cell_volume   691.31270373
_cell_formula_units_Z   1
loop_
 _symmetry_equiv_pos_site_id
 _symmetry_equiv_pos_as_xyz
  1  'x, y, z'
loop_
 _atom_site_type_symbol
 _atom_site_label
 _atom_site_symmetry_multiplicity
 _atom_site_fract_x
 _atom_site_fract_y
 _atom_site_fract_z
 _atom_site_occupancy
  Nd  Nd0  1  0.598863  0.595395  0.595395  1
  Nd  Nd1  1  0.603507  0.601325  0.202754  1
  Nd  Nd2  1  0.603507  0.202754  0.601325  1
  Nd  Nd3  1  0.203574  0.599853  0.599853  1
  Nd  Nd4  1  0.052585  0.441590  0.441590  1
  Nd  Nd5  1  0.437194  0.060014  0.060014  1
  Nd  Nd6  1  0.438968  0.054339  0.442308  1
  Nd  Nd7  1  0.059246  0.439361  0.058995  1
  Nd  Nd8  1  0.438968  0.442308  0.054339  1
  Nd  Nd9  1  0.059246  0.058995  0.439361  1
  Nd  Nd10  1  0.189977  0.811653  0.811653  1
  Nd  Nd11  1  0.810085  0.187829  0.187829  1
  Nd  Nd12  1  0.809008  0.189775  0.815782  1
  Nd  Nd13  1  0.189446  0.812175  0.189723  1
  Nd  Nd14  1  0.809008  0.815782  0.189775  1
  Nd  Nd15  1  0.189446  0.189723  0.812175  1
  Cd  Cd16  1  0.829371  0.830070  0.830070  1
  Cd  Cd17  1  0.829891  0.829521  0.509892  1
  Cd  Cd18  1  0.829891  0.509892  0.829521  1
  Cd  Cd19  1  0.509749  0.829860  0.829860  1
  Ni  Ni20  1  0.825347  0.391398  0.391398  1
  Ru  Ru21  1  0.394132  0.388385  0.827427  1
  Ru  Ru22  1  0.394132  0.827427  0.388385  1
  Pt  Pt23  1  0.394859  0.390572  0.390572  1
