# generated using pymatgen
data_Ca2Y2Sb6Rh7
_symmetry_space_group_name_H-M   'P 1'
_cell_length_a   7.65095125
_cell_length_b   7.65095216
_cell_length_c   7.62641893
_cell_angle_alpha   109.49585072
_cell_angle_beta   109.49585850
_cell_angle_gamma   109.55204955
_symmetry_Int_Tables_number   1
_chemical_formula_structural   Ca2Y2Sb6Rh7
_chemical_formula_sum   'Ca2 Y2 Sb6 Rh7'
_cell_volume   343.10759324
_cell_formula_units_Z   1
loop_
 _symmetry_equiv_pos_site_id
 _symmetry_equiv_pos_as_xyz
  1  'x, y, z'
loop_
 _atom_site_type_symbol
 _atom_site_label
 _atom_site_symmetry_multiplicity
 _atom_site_fract_x
 _atom_site_fract_y
 _atom_site_fract_z
 _atom_site_occupancy
  Ca  Ca0  1  0.000000  0.000000  0.500000  1
  Ca  Ca1  1  0.500000  0.500000  0.500000  1
  Y  Y2  1  0.500000  0.000000  0.000000  1
  Y  Y3  1  0.000000  0.500000  0.000000  1
  Sb  Sb4  1  0.319115  0.002997  0.322111  1
  Sb  Sb5  1  0.997003  0.680885  0.677889  1
  Sb  Sb6  1  0.680421  0.680421  0.000000  1
  Sb  Sb7  1  0.680885  0.997003  0.677889  1
  Sb  Sb8  1  0.002997  0.319115  0.322111  1
  Sb  Sb9  1  0.319579  0.319579  0.000000  1
  Rh  Rh10  1  0.249720  0.505692  0.755412  1
  Rh  Rh11  1  0.505692  0.249720  0.755412  1
  Rh  Rh12  1  0.750000  0.250000  0.500000  1
  Rh  Rh13  1  0.494308  0.750280  0.244588  1
  Rh  Rh14  1  0.000000  0.000000  0.000000  1
  Rh  Rh15  1  0.250000  0.750000  0.500000  1
  Rh  Rh16  1  0.750280  0.494308  0.244588  1
