# generated using pymatgen
data_K4Ti6CoBr18
_symmetry_space_group_name_H-M   'P 1'
_cell_length_a   10.33294548
_cell_length_b   10.52355564
_cell_length_c   10.64363100
_cell_angle_alpha   118.46378382
_cell_angle_beta   100.23271852
_cell_angle_gamma   103.87124873
_symmetry_Int_Tables_number   1
_chemical_formula_structural   K4Ti6CoBr18
_chemical_formula_sum   'K4 Ti6 Co1 Br18'
_cell_volume   928.23065164
_cell_formula_units_Z   1
loop_
 _symmetry_equiv_pos_site_id
 _symmetry_equiv_pos_as_xyz
  1  'x, y, z'
loop_
 _atom_site_type_symbol
 _atom_site_label
 _atom_site_symmetry_multiplicity
 _atom_site_fract_x
 _atom_site_fract_y
 _atom_site_fract_z
 _atom_site_occupancy
  K  K0  1  0.652077  0.536480  0.227181  1
  K  K1  1  0.347923  0.463520  0.772819  1
  K  K2  1  0.687765  0.227128  0.564763  1
  K  K3  1  0.312235  0.772872  0.435237  1
  Ti  Ti4  1  0.151358  0.055646  0.229300  1
  Ti  Ti5  1  0.848642  0.944354  0.770700  1
  Ti  Ti6  1  0.861742  0.128781  0.135148  1
  Ti  Ti7  1  0.138258  0.871219  0.864852  1
  Ti  Ti8  1  0.145955  0.237576  0.044696  1
  Ti  Ti9  1  0.854045  0.762424  0.955304  1
  Co  Co10  1  0.000000  0.000000  0.000000  1
  Br  Br11  1  0.011412  0.399876  0.191255  1
  Br  Br12  1  0.988588  0.600124  0.808745  1
  Br  Br13  1  0.321725  0.322491  0.300336  1
  Br  Br14  1  0.678275  0.677509  0.699664  1
  Br  Br15  1  0.319568  0.513737  0.098250  1
  Br  Br16  1  0.680432  0.486263  0.901750  1
  Br  Br17  1  0.004393  0.801644  0.201613  1
  Br  Br18  1  0.995607  0.198356  0.798387  1
  Br  Br19  1  0.709046  0.271282  0.283882  1
  Br  Br20  1  0.290954  0.728718  0.716118  1
  Br  Br21  1  0.307515  0.124210  0.906216  1
  Br  Br22  1  0.692485  0.875790  0.093784  1
  Br  Br23  1  0.018009  0.198961  0.398233  1
  Br  Br24  1  0.981991  0.801039  0.601767  1
  Br  Br25  1  0.311506  0.925103  0.106769  1
  Br  Br26  1  0.688494  0.074897  0.893231  1
  Br  Br27  1  0.331677  0.120044  0.494322  1
  Br  Br28  1  0.668323  0.879956  0.505678  1
