# generated using pymatgen
data_Hf2V3Rh
_symmetry_space_group_name_H-M   'P 1'
_cell_length_a   5.13845513
_cell_length_b   5.21275429
_cell_length_c   5.13845600
_cell_angle_alpha   60.47039430
_cell_angle_beta   60.00000725
_cell_angle_gamma   60.47039557
_symmetry_Int_Tables_number   1
_chemical_formula_structural   Hf2V3Rh
_chemical_formula_sum   'Hf2 V3 Rh1'
_cell_volume   98.00968985
_cell_formula_units_Z   1
loop_
 _symmetry_equiv_pos_site_id
 _symmetry_equiv_pos_as_xyz
  1  'x, y, z'
loop_
 _atom_site_type_symbol
 _atom_site_label
 _atom_site_symmetry_multiplicity
 _atom_site_fract_x
 _atom_site_fract_y
 _atom_site_fract_z
 _atom_site_occupancy
  Hf  Hf0  1  0.250399  0.248804  0.250399  1
  Hf  Hf1  1  0.999601  0.001196  0.999601  1
  V  V2  1  0.625000  0.625000  0.125000  1
  V  V3  1  0.125000  0.625000  0.625000  1
  V  V4  1  0.625000  0.625000  0.625000  1
  Rh  Rh5  1  0.625000  0.125000  0.625000  1
