# generated using pymatgen
data_Pr8Si12PdAu3
_symmetry_space_group_name_H-M   'P 1'
_cell_length_a   8.31035900
_cell_length_b   8.31035924
_cell_length_c   8.71307600
_cell_angle_alpha   90.00000000
_cell_angle_beta   90.00000000
_cell_angle_gamma   120.00000301
_symmetry_Int_Tables_number   1
_chemical_formula_structural   Pr8Si12PdAu3
_chemical_formula_sum   'Pr8 Si12 Pd1 Au3'
_cell_volume   521.12475506
_cell_formula_units_Z   1
loop_
 _symmetry_equiv_pos_site_id
 _symmetry_equiv_pos_as_xyz
  1  'x, y, z'
loop_
 _atom_site_type_symbol
 _atom_site_label
 _atom_site_symmetry_multiplicity
 _atom_site_fract_x
 _atom_site_fract_y
 _atom_site_fract_z
 _atom_site_occupancy
  Pr  Pr0  1  0.500794  0.499206  0.747762  1
  Pr  Pr1  1  0.501176  0.498824  0.251981  1
  Pr  Pr2  1  0.998412  0.499206  0.747762  1
  Pr  Pr3  1  0.997647  0.498824  0.251981  1
  Pr  Pr4  1  0.500794  0.001588  0.747762  1
  Pr  Pr5  1  0.501176  0.002353  0.251981  1
  Pr  Pr6  1  0.000000  0.000000  0.748299  1
  Pr  Pr7  1  0.000000  0.000000  0.252140  1
  Si  Si8  1  0.836238  0.163762  0.001081  1
  Si  Si9  1  0.164152  0.835848  0.998970  1
  Si  Si10  1  0.327523  0.163762  0.001081  1
  Si  Si11  1  0.162577  0.837423  0.499691  1
  Si  Si12  1  0.671696  0.835848  0.998970  1
  Si  Si13  1  0.832396  0.167604  0.500559  1
  Si  Si14  1  0.836238  0.672477  0.001081  1
  Si  Si15  1  0.674846  0.837423  0.499691  1
  Si  Si16  1  0.164152  0.328304  0.998970  1
  Si  Si17  1  0.335208  0.167604  0.500559  1
  Si  Si18  1  0.162577  0.325154  0.499691  1
  Si  Si19  1  0.832396  0.664792  0.500559  1
  Pd  Pd20  1  0.666667  0.333333  0.500595  1
  Au  Au21  1  0.666667  0.333333  0.998378  1
  Au  Au22  1  0.333333  0.666667  0.001185  1
  Au  Au23  1  0.333333  0.666667  0.499268  1
