# generated using pymatgen
data_Ce2Ho2Zn7CuRu2
_symmetry_space_group_name_H-M   'P 1'
_cell_length_a   7.11674316
_cell_length_b   7.11674316
_cell_length_c   5.10928348
_cell_angle_alpha   90.15483061
_cell_angle_beta   90.15483061
_cell_angle_gamma   90.37303717
_symmetry_Int_Tables_number   1
_chemical_formula_structural   Ce2Ho2Zn7CuRu2
_chemical_formula_sum   'Ce2 Ho2 Zn7 Cu1 Ru2'
_cell_volume   258.76777293
_cell_formula_units_Z   1
loop_
 _symmetry_equiv_pos_site_id
 _symmetry_equiv_pos_as_xyz
  1  'x, y, z'
loop_
 _atom_site_type_symbol
 _atom_site_label
 _atom_site_symmetry_multiplicity
 _atom_site_fract_x
 _atom_site_fract_y
 _atom_site_fract_z
 _atom_site_occupancy
  Ce  Ce0  1  0.003546  0.996789  0.004699  1
  Ce  Ce1  1  0.496789  0.503546  0.004699  1
  Ho  Ho2  1  0.004797  0.504797  0.768786  1
  Ho  Ho3  1  0.496204  0.996204  0.227875  1
  Zn  Zn4  1  0.819873  0.684795  0.290674  1
  Zn  Zn5  1  0.813428  0.313428  0.287119  1
  Zn  Zn6  1  0.314728  0.184717  0.710508  1
  Zn  Zn7  1  0.184795  0.319873  0.290674  1
  Zn  Zn8  1  0.686282  0.186282  0.714699  1
  Zn  Zn9  1  0.684717  0.814728  0.710508  1
  Zn  Zn10  1  0.310852  0.810852  0.704063  1
  Cu  Cu11  1  0.182524  0.682524  0.282864  1
  Ru  Ru12  1  0.503161  0.498302  0.501417  1
  Ru  Ru13  1  0.998302  0.003161  0.501417  1
