# generated using pymatgen
data_Zr2TaSi2Ru5
_symmetry_space_group_name_H-M   'P 1'
_cell_length_a   9.76335100
_cell_length_b   9.76335100
_cell_length_c   3.30437200
_cell_angle_alpha   90.00000000
_cell_angle_beta   90.00000000
_cell_angle_gamma   90.00000000
_symmetry_Int_Tables_number   1
_chemical_formula_structural   Zr2TaSi2Ru5
_chemical_formula_sum   'Zr4 Ta2 Si4 Ru10'
_cell_volume   314.98272733
_cell_formula_units_Z   2
loop_
 _symmetry_equiv_pos_site_id
 _symmetry_equiv_pos_as_xyz
  1  'x, y, z'
loop_
 _atom_site_type_symbol
 _atom_site_label
 _atom_site_symmetry_multiplicity
 _atom_site_fract_x
 _atom_site_fract_y
 _atom_site_fract_z
 _atom_site_occupancy
  Zr  Zr0  1  0.826301  0.673699  0.000000  1
  Zr  Zr1  1  0.173699  0.326301  0.000000  1
  Zr  Zr2  1  0.326301  0.826301  0.000000  1
  Zr  Zr3  1  0.673699  0.173699  0.000000  1
  Ta  Ta4  1  0.500000  0.500000  0.000000  1
  Ta  Ta5  1  0.000000  0.000000  0.000000  1
  Si  Si6  1  0.623689  0.876311  0.000000  1
  Si  Si7  1  0.376311  0.123689  0.000000  1
  Si  Si8  1  0.123689  0.623689  0.000000  1
  Si  Si9  1  0.876311  0.376311  0.000000  1
  Ru  Ru10  1  0.569666  0.708608  0.500000  1
  Ru  Ru11  1  0.430334  0.291392  0.500000  1
  Ru  Ru12  1  0.069666  0.791392  0.500000  1
  Ru  Ru13  1  0.930334  0.208608  0.500000  1
  Ru  Ru14  1  0.291392  0.569666  0.500000  1
  Ru  Ru15  1  0.708608  0.430334  0.500000  1
  Ru  Ru16  1  0.208608  0.069666  0.500000  1
  Ru  Ru17  1  0.791392  0.930334  0.500000  1
  Ru  Ru18  1  0.500000  0.000000  0.500000  1
  Ru  Ru19  1  0.000000  0.500000  0.500000  1
