# generated using pymatgen
data_Pr2YCd3AgPb2
_symmetry_space_group_name_H-M   'P 1'
_cell_length_a   7.62231444
_cell_length_b   7.62231348
_cell_length_c   4.73255100
_cell_angle_alpha   90.00000000
_cell_angle_beta   90.00000000
_cell_angle_gamma   119.29003586
_symmetry_Int_Tables_number   1
_chemical_formula_structural   Pr2YCd3AgPb2
_chemical_formula_sum   'Pr2 Y1 Cd3 Ag1 Pb2'
_cell_volume   239.80726096
_cell_formula_units_Z   1
loop_
 _symmetry_equiv_pos_site_id
 _symmetry_equiv_pos_as_xyz
  1  'x, y, z'
loop_
 _atom_site_type_symbol
 _atom_site_label
 _atom_site_symmetry_multiplicity
 _atom_site_fract_x
 _atom_site_fract_y
 _atom_site_fract_z
 _atom_site_occupancy
  Pr  Pr0  1  0.998377  0.586015  0.500000  1
  Pr  Pr1  1  0.586015  0.998377  0.500000  1
  Y  Y2  1  0.408240  0.408240  0.500000  1
  Cd  Cd3  1  0.772803  0.772803  0.000000  1
  Cd  Cd4  1  0.231051  0.998558  0.000000  1
  Cd  Cd5  1  0.998558  0.231051  0.000000  1
  Ag  Ag6  1  0.007835  0.007835  0.500000  1
  Pb  Pb7  1  0.660776  0.336346  0.000000  1
  Pb  Pb8  1  0.336346  0.660776  0.000000  1
