# generated using pymatgen
data_Dy4ErV3(Co4P3)4
_symmetry_space_group_name_H-M   'P 1'
_cell_length_a   12.04874216
_cell_length_b   12.04874309
_cell_length_c   3.66805100
_cell_angle_alpha   90.00000000
_cell_angle_beta   90.00000000
_cell_angle_gamma   119.98122083
_symmetry_Int_Tables_number   1
_chemical_formula_structural   Dy4ErV3(Co4P3)4
_chemical_formula_sum   'Dy4 Er1 V3 Co16 P12'
_cell_volume   461.24492764
_cell_formula_units_Z   1
loop_
 _symmetry_equiv_pos_site_id
 _symmetry_equiv_pos_as_xyz
  1  'x, y, z'
loop_
 _atom_site_type_symbol
 _atom_site_label
 _atom_site_symmetry_multiplicity
 _atom_site_fract_x
 _atom_site_fract_y
 _atom_site_fract_z
 _atom_site_occupancy
  Dy  Dy0  1  0.666737  0.333265  0.000000  1
  Dy  Dy1  1  0.333265  0.666737  0.000000  1
  Dy  Dy2  1  0.813830  0.000076  0.500000  1
  Dy  Dy3  1  0.000076  0.813830  0.500000  1
  Er  Er4  1  0.186126  0.186126  0.500000  1
  V  V5  1  0.556442  0.556442  0.000000  1
  V  V6  1  0.443216  0.000486  0.000000  1
  V  V7  1  0.000486  0.443216  0.000000  1
  Co  Co8  1  0.823618  0.199968  0.000000  1
  Co  Co9  1  0.800152  0.623372  0.000000  1
  Co  Co10  1  0.375967  0.176994  0.000000  1
  Co  Co11  1  0.199968  0.823618  0.000000  1
  Co  Co12  1  0.623372  0.800152  0.000000  1
  Co  Co13  1  0.176994  0.375967  0.000000  1
  Co  Co14  1  0.644749  0.126014  0.500000  1
  Co  Co15  1  0.874029  0.518602  0.500000  1
  Co  Co16  1  0.481001  0.355067  0.500000  1
  Co  Co17  1  0.126014  0.644749  0.500000  1
  Co  Co18  1  0.518602  0.874029  0.500000  1
  Co  Co19  1  0.355067  0.481001  0.500000  1
  Co  Co20  1  0.717932  0.717932  0.500000  1
  Co  Co21  1  0.281820  0.000531  0.500000  1
  Co  Co22  1  0.000531  0.281820  0.500000  1
  Co  Co23  1  0.000268  0.000268  0.000000  1
  P  P24  1  0.362680  0.362680  0.000000  1
  P  P25  1  0.636423  0.000001  0.000000  1
  P  P26  1  0.000001  0.636423  0.000000  1
  P  P27  1  0.836122  0.315840  0.500000  1
  P  P28  1  0.683859  0.519753  0.500000  1
  P  P29  1  0.480088  0.164162  0.500000  1
  P  P30  1  0.315840  0.836122  0.500000  1
  P  P31  1  0.519753  0.683859  0.500000  1
  P  P32  1  0.164162  0.480088  0.500000  1
  P  P33  1  0.820471  0.820471  0.000000  1
  P  P34  1  0.179574  0.000766  0.000000  1
  P  P35  1  0.000766  0.179574  0.000000  1
