# generated using pymatgen
data_Er5InBi2
_symmetry_space_group_name_H-M   'P 1'
_cell_length_a   9.01245913
_cell_length_b   9.01245971
_cell_length_c   6.46684400
_cell_angle_alpha   90.00000000
_cell_angle_beta   90.00000000
_cell_angle_gamma   119.62163904
_symmetry_Int_Tables_number   1
_chemical_formula_structural   Er5InBi2
_chemical_formula_sum   'Er10 In2 Bi4'
_cell_volume   456.61782894
_cell_formula_units_Z   2
loop_
 _symmetry_equiv_pos_site_id
 _symmetry_equiv_pos_as_xyz
  1  'x, y, z'
loop_
 _atom_site_type_symbol
 _atom_site_label
 _atom_site_symmetry_multiplicity
 _atom_site_fract_x
 _atom_site_fract_y
 _atom_site_fract_z
 _atom_site_occupancy
  Er  Er0  1  0.668902  0.329147  0.003489  1
  Er  Er1  1  0.329147  0.668902  0.003489  1
  Er  Er2  1  0.329147  0.668902  0.496511  1
  Er  Er3  1  0.668902  0.329147  0.496511  1
  Er  Er4  1  0.762698  0.762698  0.750000  1
  Er  Er5  1  0.234117  0.997909  0.750000  1
  Er  Er6  1  0.997909  0.234117  0.750000  1
  Er  Er7  1  0.233597  0.233597  0.250000  1
  Er  Er8  1  0.766425  0.008741  0.250000  1
  Er  Er9  1  0.008741  0.766425  0.250000  1
  In  In10  1  0.396779  0.002248  0.250000  1
  In  In11  1  0.002248  0.396779  0.250000  1
  Bi  Bi12  1  0.393643  0.393643  0.750000  1
  Bi  Bi13  1  0.602290  0.996524  0.750000  1
  Bi  Bi14  1  0.996524  0.602290  0.750000  1
  Bi  Bi15  1  0.608931  0.608931  0.250000  1
