# generated using pymatgen
data_ScPa5(AlPt)6
_symmetry_space_group_name_H-M   'P 1'
_cell_length_a   7.01616366
_cell_length_b   7.01186270
_cell_length_c   8.32948200
_cell_angle_alpha   90.00000000
_cell_angle_beta   90.00000000
_cell_angle_gamma   120.08780157
_symmetry_Int_Tables_number   1
_chemical_formula_structural   ScPa5(AlPt)6
_chemical_formula_sum   'Sc1 Pa5 Al6 Pt6'
_cell_volume   354.56578051
_cell_formula_units_Z   1
loop_
 _symmetry_equiv_pos_site_id
 _symmetry_equiv_pos_as_xyz
  1  'x, y, z'
loop_
 _atom_site_type_symbol
 _atom_site_label
 _atom_site_symmetry_multiplicity
 _atom_site_fract_x
 _atom_site_fract_y
 _atom_site_fract_z
 _atom_site_occupancy
  Sc  Sc0  1  0.409397  0.409591  0.250000  1
  Pa  Pa1  1  0.998548  0.579389  0.750000  1
  Pa  Pa2  1  0.000061  0.575946  0.250000  1
  Pa  Pa3  1  0.577177  0.001243  0.250000  1
  Pa  Pa4  1  0.579852  0.997909  0.750000  1
  Pa  Pa5  1  0.429260  0.430208  0.750000  1
  Al  Al6  1  0.004802  0.239691  0.497938  1
  Al  Al7  1  0.756026  0.756320  0.007409  1
  Al  Al8  1  0.004802  0.239691  0.002062  1
  Al  Al9  1  0.240813  0.005366  0.497779  1
  Al  Al10  1  0.240813  0.005366  0.002221  1
  Al  Al11  1  0.756026  0.756320  0.492591  1
  Pt  Pt12  1  0.331675  0.668570  0.497504  1
  Pt  Pt13  1  0.668501  0.332595  0.498388  1
  Pt  Pt14  1  0.668501  0.332595  0.001612  1
  Pt  Pt15  1  0.999470  0.998920  0.250000  1
  Pt  Pt16  1  0.002601  0.001708  0.750000  1
  Pt  Pt17  1  0.331675  0.668570  0.002496  1
