# generated using pymatgen
data_TbDyLu2(Al3Ir)6
_symmetry_space_group_name_H-M   'P 1'
_cell_length_a   7.53692421
_cell_length_b   7.53809419
_cell_length_c   9.44150300
_cell_angle_alpha   90.00000000
_cell_angle_beta   90.00000000
_cell_angle_gamma   119.47196073
_symmetry_Int_Tables_number   1
_chemical_formula_structural   TbDyLu2(Al3Ir)6
_chemical_formula_sum   'Tb1 Dy1 Lu2 Al18 Ir6'
_cell_volume   466.99668385
_cell_formula_units_Z   1
loop_
 _symmetry_equiv_pos_site_id
 _symmetry_equiv_pos_as_xyz
  1  'x, y, z'
loop_
 _atom_site_type_symbol
 _atom_site_label
 _atom_site_symmetry_multiplicity
 _atom_site_fract_x
 _atom_site_fract_y
 _atom_site_fract_z
 _atom_site_occupancy
  Tb  Tb0  1  0.672101  0.994771  0.250000  1
  Dy  Dy1  1  0.994794  0.671761  0.250000  1
  Lu  Lu2  1  0.005415  0.327421  0.750000  1
  Lu  Lu3  1  0.327553  0.005665  0.750000  1
  Al  Al4  1  0.130295  0.130386  0.250000  1
  Al  Al5  1  0.870819  0.871210  0.750000  1
  Al  Al6  1  0.001224  0.335430  0.073347  1
  Al  Al7  1  0.999726  0.664423  0.923346  1
  Al  Al8  1  0.999726  0.664423  0.576654  1
  Al  Al9  1  0.335350  0.001094  0.426638  1
  Al  Al10  1  0.001224  0.335430  0.426653  1
  Al  Al11  1  0.664431  0.999829  0.576120  1
  Al  Al12  1  0.664431  0.999829  0.923880  1
  Al  Al13  1  0.335350  0.001094  0.073362  1
  Al  Al14  1  0.332600  0.332644  0.553109  1
  Al  Al15  1  0.666793  0.666689  0.450247  1
  Al  Al16  1  0.666793  0.666689  0.049753  1
  Al  Al17  1  0.332600  0.332644  0.946891  1
  Al  Al18  1  0.340336  0.548857  0.250000  1
  Al  Al19  1  0.659475  0.449743  0.750000  1
  Al  Al20  1  0.548593  0.339568  0.250000  1
  Al  Al21  1  0.449842  0.659975  0.750000  1
  Ir  Ir22  1  0.671979  0.327690  0.999126  1
  Ir  Ir23  1  0.327448  0.671857  0.999146  1
  Ir  Ir24  1  0.327448  0.671857  0.500854  1
  Ir  Ir25  1  0.671979  0.327690  0.500874  1
  Ir  Ir26  1  0.000837  0.000666  0.998891  1
  Ir  Ir27  1  0.000837  0.000666  0.501109  1
