# generated using pymatgen
data_Dy7Ho5Co4TcBi
_symmetry_space_group_name_H-M   'P 1'
_cell_length_a   8.32653670
_cell_length_b   8.32682978
_cell_length_c   8.32653722
_cell_angle_alpha   111.54438762
_cell_angle_beta   110.53614676
_cell_angle_gamma   106.37702770
_symmetry_Int_Tables_number   1
_chemical_formula_structural   Dy7Ho5Co4TcBi
_chemical_formula_sum   'Dy7 Ho5 Co4 Tc1 Bi1'
_cell_volume   443.41905847
_cell_formula_units_Z   1
loop_
 _symmetry_equiv_pos_site_id
 _symmetry_equiv_pos_as_xyz
  1  'x, y, z'
loop_
 _atom_site_type_symbol
 _atom_site_label
 _atom_site_symmetry_multiplicity
 _atom_site_fract_x
 _atom_site_fract_y
 _atom_site_fract_z
 _atom_site_occupancy
  Dy  Dy0  1  0.817642  0.716850  0.534347  1
  Dy  Dy1  1  0.182496  0.283163  0.465721  1
  Dy  Dy2  1  0.182505  0.716850  0.899207  1
  Dy  Dy3  1  0.817441  0.283163  0.100668  1
  Dy  Dy4  1  0.689835  0.380935  0.691101  1
  Dy  Dy5  1  0.310085  0.619100  0.309014  1
  Dy  Dy6  1  0.689909  0.998829  0.308921  1
  Ho  Ho7  1  0.310142  0.001056  0.690914  1
  Ho  Ho8  1  0.589972  0.786440  0.803646  1
  Ho  Ho9  1  0.409966  0.213614  0.196262  1
  Ho  Ho10  1  0.982794  0.786440  0.196468  1
  Ho  Ho11  1  0.017352  0.213614  0.803647  1
  Co  Co12  1  0.621643  0.999968  0.621798  1
  Co  Co13  1  0.378170  0.999968  0.378326  1
  Co  Co14  1  0.110671  0.610717  0.500045  1
  Co  Co15  1  0.889425  0.389414  0.499989  1
  Tc  Tc16  1  0.999993  0.999979  0.999986  1
  Bi  Bi17  1  0.499958  0.499898  0.999939  1
