# generated using pymatgen
data_Zr3GaPt2N
_symmetry_space_group_name_H-M   'P 1'
_cell_length_a   8.65020501
_cell_length_b   8.65020538
_cell_length_c   8.65020500
_cell_angle_alpha   59.99999763
_cell_angle_beta   59.99999621
_cell_angle_gamma   59.99999890
_symmetry_Int_Tables_number   1
_chemical_formula_structural   Zr3GaPt2N
_chemical_formula_sum   'Zr12 Ga4 Pt8 N4'
_cell_volume   457.68238464
_cell_formula_units_Z   4
loop_
 _symmetry_equiv_pos_site_id
 _symmetry_equiv_pos_as_xyz
  1  'x, y, z'
loop_
 _atom_site_type_symbol
 _atom_site_label
 _atom_site_symmetry_multiplicity
 _atom_site_fract_x
 _atom_site_fract_y
 _atom_site_fract_z
 _atom_site_occupancy
  Zr  Zr0  1  0.810088  0.810088  0.189912  1
  Zr  Zr1  1  0.189912  0.189912  0.810088  1
  Zr  Zr2  1  0.810088  0.189912  0.810088  1
  Zr  Zr3  1  0.189912  0.810088  0.189912  1
  Zr  Zr4  1  0.189912  0.810088  0.810088  1
  Zr  Zr5  1  0.810088  0.189912  0.189912  1
  Zr  Zr6  1  0.439912  0.439912  0.060088  1
  Zr  Zr7  1  0.060088  0.060088  0.439912  1
  Zr  Zr8  1  0.439912  0.060088  0.439912  1
  Zr  Zr9  1  0.060088  0.439912  0.060088  1
  Zr  Zr10  1  0.060088  0.439912  0.439912  1
  Zr  Zr11  1  0.439912  0.060088  0.060088  1
  Ga  Ga12  1  0.125000  0.625000  0.625000  1
  Ga  Ga13  1  0.625000  0.125000  0.625000  1
  Ga  Ga14  1  0.625000  0.625000  0.125000  1
  Ga  Ga15  1  0.625000  0.625000  0.625000  1
  Pt  Pt16  1  0.766756  0.411081  0.411081  1
  Pt  Pt17  1  0.411081  0.766756  0.411081  1
  Pt  Pt18  1  0.411081  0.411081  0.766756  1
  Pt  Pt19  1  0.411081  0.411081  0.411081  1
  Pt  Pt20  1  0.483244  0.838919  0.838919  1
  Pt  Pt21  1  0.838919  0.483244  0.838919  1
  Pt  Pt22  1  0.838919  0.838919  0.483244  1
  Pt  Pt23  1  0.838919  0.838919  0.838919  1
  N  N24  1  0.625000  0.125000  0.125000  1
  N  N25  1  0.125000  0.625000  0.125000  1
  N  N26  1  0.125000  0.125000  0.625000  1
  N  N27  1  0.125000  0.125000  0.125000  1
