# generated using pymatgen
data_Nd4ZnCd2CuPd2
_symmetry_space_group_name_H-M   'P 1'
_cell_length_a   7.88851808
_cell_length_b   7.89585157
_cell_length_c   3.87928100
_cell_angle_alpha   90.00000000
_cell_angle_beta   90.00000000
_cell_angle_gamma   89.07374479
_symmetry_Int_Tables_number   1
_chemical_formula_structural   Nd4ZnCd2CuPd2
_chemical_formula_sum   'Nd4 Zn1 Cd2 Cu1 Pd2'
_cell_volume   241.59552594
_cell_formula_units_Z   1
loop_
 _symmetry_equiv_pos_site_id
 _symmetry_equiv_pos_as_xyz
  1  'x, y, z'
loop_
 _atom_site_type_symbol
 _atom_site_label
 _atom_site_symmetry_multiplicity
 _atom_site_fract_x
 _atom_site_fract_y
 _atom_site_fract_z
 _atom_site_occupancy
  Nd  Nd0  1  0.676116  0.178671  0.500000  1
  Nd  Nd1  1  0.333488  0.836781  0.500000  1
  Nd  Nd2  1  0.168873  0.313692  0.500000  1
  Nd  Nd3  1  0.814180  0.666881  0.500000  1
  Zn  Zn4  1  0.122634  0.623201  0.000000  1
  Cd  Cd5  1  0.997776  0.992804  0.000000  1
  Cd  Cd6  1  0.494827  0.500810  0.000000  1
  Cu  Cu7  1  0.625457  0.882567  0.000000  1
  Pd  Pd8  1  0.881998  0.382875  0.000000  1
  Pd  Pd9  1  0.384650  0.121717  0.000000  1
