# generated using pymatgen
data_Na2Nd3P12Ru9Rh10
_symmetry_space_group_name_H-M   'P 1'
_cell_length_a   12.62501500
_cell_length_b   12.63341081
_cell_length_c   3.97963700
_cell_angle_alpha   90.00000000
_cell_angle_beta   90.00000000
_cell_angle_gamma   119.97802118
_symmetry_Int_Tables_number   1
_chemical_formula_structural   Na2Nd3P12Ru9Rh10
_chemical_formula_sum   'Na2 Nd3 P12 Ru9 Rh10'
_cell_volume   549.82281264
_cell_formula_units_Z   1
loop_
 _symmetry_equiv_pos_site_id
 _symmetry_equiv_pos_as_xyz
  1  'x, y, z'
loop_
 _atom_site_type_symbol
 _atom_site_label
 _atom_site_symmetry_multiplicity
 _atom_site_fract_x
 _atom_site_fract_y
 _atom_site_fract_z
 _atom_site_occupancy
  Na  Na0  1  0.999834  0.184590  0.500000  1
  Na  Na1  1  0.815244  0.815410  0.500000  1
  Nd  Nd2  1  0.179264  0.000000  0.500000  1
  Nd  Nd3  1  0.666634  0.332815  0.000000  1
  Nd  Nd4  1  0.333817  0.667185  0.000000  1
  P  P5  1  0.997614  0.815570  0.000000  1
  P  P6  1  0.182043  0.184430  0.000000  1
  P  P7  1  0.815744  0.000000  0.000000  1
  P  P8  1  0.691370  0.168551  0.500000  1
  P  P9  1  0.829785  0.520649  0.500000  1
  P  P10  1  0.480071  0.311608  0.500000  1
  P  P11  1  0.168463  0.688392  0.500000  1
  P  P12  1  0.522819  0.831449  0.500000  1
  P  P13  1  0.309136  0.479351  0.500000  1
  P  P14  1  0.000522  0.371198  0.000000  1
  P  P15  1  0.629324  0.628802  0.000000  1
  P  P16  1  0.371618  0.000000  0.000000  1
  Ru  Ru17  1  0.000159  0.714825  0.500000  1
  Ru  Ru18  1  0.285334  0.285175  0.500000  1
  Ru  Ru19  1  0.718065  0.000000  0.500000  1
  Ru  Ru20  1  0.875468  0.363086  0.500000  1
  Ru  Ru21  1  0.638088  0.513527  0.500000  1
  Ru  Ru22  1  0.488137  0.125406  0.500000  1
  Ru  Ru23  1  0.362731  0.874594  0.500000  1
  Ru  Ru24  1  0.512382  0.636914  0.500000  1
  Ru  Ru25  1  0.124561  0.486473  0.500000  1
  Rh  Rh26  1  0.002752  0.551927  0.000000  1
  Rh  Rh27  1  0.450825  0.448073  0.000000  1
  Rh  Rh28  1  0.551055  0.000000  0.000000  1
  Rh  Rh29  1  0.808041  0.184629  0.000000  1
  Rh  Rh30  1  0.815893  0.623485  0.000000  1
  Rh  Rh31  1  0.375630  0.193198  0.000000  1
  Rh  Rh32  1  0.182433  0.806802  0.000000  1
  Rh  Rh33  1  0.623413  0.815371  0.000000  1
  Rh  Rh34  1  0.192409  0.376515  0.000000  1
  Rh  Rh35  1  0.999322  0.000000  0.000000  1
