# generated using pymatgen
data_RbLa2CoH12Ru
_symmetry_space_group_name_H-M   'P 1'
_cell_length_a   4.99937200
_cell_length_b   4.99937187
_cell_length_c   8.53609900
_cell_angle_alpha   90.00000000
_cell_angle_beta   90.00000000
_cell_angle_gamma   120.00000089
_symmetry_Int_Tables_number   1
_chemical_formula_structural   RbLa2CoH12Ru
_chemical_formula_sum   'Rb1 La2 Co1 H12 Ru1'
_cell_volume   184.76553612
_cell_formula_units_Z   1
loop_
 _symmetry_equiv_pos_site_id
 _symmetry_equiv_pos_as_xyz
  1  'x, y, z'
loop_
 _atom_site_type_symbol
 _atom_site_label
 _atom_site_symmetry_multiplicity
 _atom_site_fract_x
 _atom_site_fract_y
 _atom_site_fract_z
 _atom_site_occupancy
  Rb  Rb0  1  0.000000  0.000000  0.001180  1
  La  La1  1  0.666667  0.333333  0.349986  1
  La  La2  1  0.333333  0.666667  0.638643  1
  Co  Co3  1  0.666667  0.333333  0.724393  1
  H  H4  1  0.168471  0.831529  0.392355  1
  H  H5  1  0.663058  0.831529  0.392355  1
  H  H6  1  0.168471  0.336942  0.392355  1
  H  H7  1  0.819248  0.180752  0.625430  1
  H  H8  1  0.361503  0.180752  0.625430  1
  H  H9  1  0.819248  0.638497  0.625430  1
  H  H10  1  0.534003  0.068004  0.839457  1
  H  H11  1  0.534003  0.465997  0.839457  1
  H  H12  1  0.931996  0.465997  0.839457  1
  H  H13  1  0.480617  0.961235  0.146246  1
  H  H14  1  0.480617  0.519383  0.146246  1
  H  H15  1  0.038765  0.519383  0.146246  1
  Ru  Ru16  1  0.333333  0.666667  0.275337  1
