# generated using pymatgen
data_Y6Lu4InSn5
_symmetry_space_group_name_H-M   'P 1'
_cell_length_a   8.91943271
_cell_length_b   8.91943331
_cell_length_c   6.51584900
_cell_angle_alpha   90.00000000
_cell_angle_beta   90.00000000
_cell_angle_gamma   119.91074891
_symmetry_Int_Tables_number   1
_chemical_formula_structural   Y6Lu4InSn5
_chemical_formula_sum   'Y6 Lu4 In1 Sn5'
_cell_volume   449.33062589
_cell_formula_units_Z   1
loop_
 _symmetry_equiv_pos_site_id
 _symmetry_equiv_pos_as_xyz
  1  'x, y, z'
loop_
 _atom_site_type_symbol
 _atom_site_label
 _atom_site_symmetry_multiplicity
 _atom_site_fract_x
 _atom_site_fract_y
 _atom_site_fract_z
 _atom_site_occupancy
  Y  Y0  1  0.759863  0.759863  0.750000  1
  Y  Y1  1  0.240227  0.001038  0.750000  1
  Y  Y2  1  0.001038  0.240227  0.750000  1
  Y  Y3  1  0.239623  0.239623  0.250000  1
  Y  Y4  1  0.760172  0.999948  0.250000  1
  Y  Y5  1  0.999948  0.760172  0.250000  1
  Lu  Lu6  1  0.666390  0.333363  0.999224  1
  Lu  Lu7  1  0.333363  0.666390  0.999224  1
  Lu  Lu8  1  0.333363  0.666390  0.500776  1
  Lu  Lu9  1  0.666390  0.333363  0.500776  1
  In  In10  1  0.396775  0.396775  0.750000  1
  Sn  Sn11  1  0.603789  0.999984  0.750000  1
  Sn  Sn12  1  0.999984  0.603789  0.750000  1
  Sn  Sn13  1  0.603442  0.603442  0.250000  1
  Sn  Sn14  1  0.396126  0.999507  0.250000  1
  Sn  Sn15  1  0.999507  0.396126  0.250000  1
