# generated using pymatgen
data_AcZnGa3
_symmetry_space_group_name_H-M   'P 1'
_cell_length_a   4.49598832
_cell_length_b   4.49598880
_cell_length_c   6.23320609
_cell_angle_alpha   68.85999111
_cell_angle_beta   68.85999252
_cell_angle_gamma   89.99999718
_symmetry_Int_Tables_number   1
_chemical_formula_structural   AcZnGa3
_chemical_formula_sum   'Ac1 Zn1 Ga3'
_cell_volume   108.37730726
_cell_formula_units_Z   1
loop_
 _symmetry_equiv_pos_site_id
 _symmetry_equiv_pos_as_xyz
  1  'x, y, z'
loop_
 _atom_site_type_symbol
 _atom_site_label
 _atom_site_symmetry_multiplicity
 _atom_site_fract_x
 _atom_site_fract_y
 _atom_site_fract_z
 _atom_site_occupancy
  Ac  Ac0  1  0.000000  0.000000  0.000000  1
  Zn  Zn1  1  0.750000  0.250000  0.500000  1
  Ga  Ga2  1  0.379306  0.379306  0.241389  1
  Ga  Ga3  1  0.620694  0.620694  0.758611  1
  Ga  Ga4  1  0.250000  0.750000  0.500000  1
