# generated using pymatgen
data_Dy11YCo4CuSn
_symmetry_space_group_name_H-M   'P 1'
_cell_length_a   8.31816872
_cell_length_b   8.33002357
_cell_length_c   8.33002348
_cell_angle_alpha   107.09011058
_cell_angle_beta   110.27089716
_cell_angle_gamma   111.14146073
_symmetry_Int_Tables_number   1
_chemical_formula_structural   Dy11YCo4CuSn
_chemical_formula_sum   'Dy11 Y1 Co4 Cu1 Sn1'
_cell_volume   443.37761499
_cell_formula_units_Z   1
loop_
 _symmetry_equiv_pos_site_id
 _symmetry_equiv_pos_as_xyz
  1  'x, y, z'
loop_
 _atom_site_type_symbol
 _atom_site_label
 _atom_site_symmetry_multiplicity
 _atom_site_fract_x
 _atom_site_fract_y
 _atom_site_fract_z
 _atom_site_occupancy
  Dy  Dy0  1  0.106173  0.291482  0.814691  1
  Dy  Dy1  1  0.893962  0.708705  0.185257  1
  Dy  Dy2  1  0.523360  0.708900  0.814459  1
  Dy  Dy3  1  0.305765  0.620776  0.315012  1
  Dy  Dy4  1  0.305765  0.990753  0.684989  1
  Dy  Dy5  1  0.694514  0.379446  0.685522  1
  Dy  Dy6  1  0.694514  0.008992  0.315068  1
  Dy  Dy7  1  0.199706  0.214716  0.414954  1
  Dy  Dy8  1  0.800403  0.785856  0.585917  1
  Dy  Dy9  1  0.199706  0.784751  0.984989  1
  Dy  Dy10  1  0.800403  0.214487  0.014548  1
  Y  Y11  1  0.477041  0.290629  0.186411  1
  Co  Co12  1  0.499500  0.612935  0.111524  1
  Co  Co13  1  0.499500  0.387976  0.886565  1
  Co  Co14  1  0.377032  0.000132  0.376901  1
  Co  Co15  1  0.623180  0.999925  0.623255  1
  Cu  Cu16  1  0.999721  0.999611  0.000109  1
  Sn  Sn17  1  0.999753  0.499925  0.499828  1
