# generated using pymatgen
data_Co2Ni(MoO4)3
_symmetry_space_group_name_H-M   'P 1'
_cell_length_a   7.02264503
_cell_length_b   8.41960799
_cell_length_c   9.74966900
_cell_angle_alpha   95.99076483
_cell_angle_beta   106.95025344
_cell_angle_gamma   101.79198100
_symmetry_Int_Tables_number   1
_chemical_formula_structural   Co2Ni(MoO4)3
_chemical_formula_sum   'Co4 Ni2 Mo6 O24'
_cell_volume   531.45860775
_cell_formula_units_Z   2
loop_
 _symmetry_equiv_pos_site_id
 _symmetry_equiv_pos_as_xyz
  1  'x, y, z'
loop_
 _atom_site_type_symbol
 _atom_site_label
 _atom_site_symmetry_multiplicity
 _atom_site_fract_x
 _atom_site_fract_y
 _atom_site_fract_z
 _atom_site_occupancy
  Co  Co0  1  0.254202  0.699018  0.906155  1
  Co  Co1  1  0.745798  0.300982  0.093845  1
  Co  Co2  1  0.537497  0.691795  0.493595  1
  Co  Co3  1  0.462503  0.308205  0.506405  1
  Ni  Ni4  1  0.962928  0.887025  0.715240  1
  Ni  Ni5  1  0.037072  0.112975  0.284760  1
  Mo  Mo6  1  0.504040  0.992832  0.756939  1
  Mo  Mo7  1  0.495960  0.007168  0.243061  1
  Mo  Mo8  1  0.699332  0.601536  0.841196  1
  Mo  Mo9  1  0.300668  0.398464  0.158804  1
  Mo  Mo10  1  0.978661  0.701285  0.379904  1
  Mo  Mo11  1  0.021339  0.298715  0.620096  1
  O  O12  1  0.258294  0.870805  0.761662  1
  O  O13  1  0.741706  0.129195  0.238338  1
  O  O14  1  0.558096  0.711146  0.924388  1
  O  O15  1  0.441904  0.288854  0.075612  1
  O  O16  1  0.552964  0.522857  0.649399  1
  O  O17  1  0.447036  0.477143  0.350601  1
  O  O18  1  0.547316  0.856869  0.352041  1
  O  O19  1  0.452684  0.143131  0.647959  1
  O  O20  1  0.658708  0.096238  0.932333  1
  O  O21  1  0.341292  0.903762  0.067667  1
  O  O22  1  0.653211  0.869033  0.682958  1
  O  O23  1  0.346789  0.130967  0.317042  1
  O  O24  1  0.023718  0.123852  0.710206  1
  O  O25  1  0.976282  0.876148  0.289794  1
  O  O26  1  0.047511  0.270799  0.143460  1
  O  O27  1  0.952489  0.729201  0.856540  1
  O  O28  1  0.149804  0.482757  0.749437  1
  O  O29  1  0.850196  0.517243  0.250563  1
  O  O30  1  0.142372  0.275080  0.476625  1
  O  O31  1  0.857628  0.724920  0.523375  1
  O  O32  1  0.256017  0.563908  0.068350  1
  O  O33  1  0.743983  0.436092  0.931650  1
  O  O34  1  0.239298  0.701168  0.465840  1
  O  O35  1  0.760702  0.298832  0.534160  1
