# generated using pymatgen
data_Li4Ac3Pb4
_symmetry_space_group_name_H-M   'P 1'
_cell_length_a   5.01394632
_cell_length_b   7.63995020
_cell_length_c   9.38803066
_cell_angle_alpha   114.01015452
_cell_angle_beta   105.48816442
_cell_angle_gamma   90.00000587
_symmetry_Int_Tables_number   1
_chemical_formula_structural   Li4Ac3Pb4
_chemical_formula_sum   'Li4 Ac3 Pb4'
_cell_volume   314.15366963
_cell_formula_units_Z   1
loop_
 _symmetry_equiv_pos_site_id
 _symmetry_equiv_pos_as_xyz
  1  'x, y, z'
loop_
 _atom_site_type_symbol
 _atom_site_label
 _atom_site_symmetry_multiplicity
 _atom_site_fract_x
 _atom_site_fract_y
 _atom_site_fract_z
 _atom_site_occupancy
  Li  Li0  1  0.672465  0.982962  0.344930  1
  Li  Li1  1  0.327535  0.017038  0.655070  1
  Li  Li2  1  0.327535  0.638034  0.655070  1
  Li  Li3  1  0.672465  0.361966  0.344930  1
  Ac  Ac4  1  0.000000  0.000000  0.000000  1
  Ac  Ac5  1  0.130713  0.630713  0.261426  1
  Ac  Ac6  1  0.869287  0.369287  0.738574  1
  Pb  Pb7  1  0.500000  0.699820  0.000000  1
  Pb  Pb8  1  0.500000  0.300180  0.000000  1
  Pb  Pb9  1  0.786047  0.786047  0.572094  1
  Pb  Pb10  1  0.213953  0.213953  0.427906  1
