# generated using pymatgen
data_DyEr3Ga6CoCu
_symmetry_space_group_name_H-M   'P 1'
_cell_length_a   6.96767100
_cell_length_b   8.75957211
_cell_length_c   8.75957300
_cell_angle_alpha   119.99999960
_cell_angle_beta   90.00000000
_cell_angle_gamma   90.00000000
_symmetry_Int_Tables_number   1
_chemical_formula_structural   DyEr3Ga6CoCu
_chemical_formula_sum   'Dy2 Er6 Ga12 Co2 Cu2'
_cell_volume   463.00331190
_cell_formula_units_Z   2
loop_
 _symmetry_equiv_pos_site_id
 _symmetry_equiv_pos_as_xyz
  1  'x, y, z'
loop_
 _atom_site_type_symbol
 _atom_site_label
 _atom_site_symmetry_multiplicity
 _atom_site_fract_x
 _atom_site_fract_y
 _atom_site_fract_z
 _atom_site_occupancy
  Dy  Dy0  1  0.745550  0.000000  0.000000  1
  Dy  Dy1  1  0.254450  0.000000  0.000000  1
  Er  Er2  1  0.742162  0.476826  0.523174  1
  Er  Er3  1  0.257838  0.523174  0.476826  1
  Er  Er4  1  0.742162  0.046349  0.523174  1
  Er  Er5  1  0.257838  0.953651  0.476826  1
  Er  Er6  1  0.742162  0.476826  0.953651  1
  Er  Er7  1  0.257838  0.523174  0.046349  1
  Ga  Ga8  1  0.954739  0.830503  0.169497  1
  Ga  Ga9  1  0.045261  0.169497  0.830503  1
  Ga  Ga10  1  0.954739  0.338994  0.169497  1
  Ga  Ga11  1  0.454703  0.172997  0.827003  1
  Ga  Ga12  1  0.045261  0.661006  0.830503  1
  Ga  Ga13  1  0.545297  0.827003  0.172997  1
  Ga  Ga14  1  0.954739  0.830503  0.661006  1
  Ga  Ga15  1  0.454703  0.654005  0.827003  1
  Ga  Ga16  1  0.045261  0.169497  0.338994  1
  Ga  Ga17  1  0.545297  0.345995  0.172997  1
  Ga  Ga18  1  0.454703  0.172997  0.345995  1
  Ga  Ga19  1  0.545297  0.827003  0.654005  1
  Co  Co20  1  0.486552  0.333333  0.666667  1
  Co  Co21  1  0.513448  0.666667  0.333333  1
  Cu  Cu22  1  0.948553  0.666667  0.333333  1
  Cu  Cu23  1  0.051447  0.333333  0.666667  1
