# generated using pymatgen
data_Dy13Y5Sc2(Cd3Ru)2
_symmetry_space_group_name_H-M   'P 1'
_cell_length_a   9.53464000
_cell_length_b   9.53463969
_cell_length_c   9.78298400
_cell_angle_alpha   90.00000000
_cell_angle_beta   90.00000000
_cell_angle_gamma   120.00055507
_symmetry_Int_Tables_number   1
_chemical_formula_structural   Dy13Y5Sc2(Cd3Ru)2
_chemical_formula_sum   'Dy13 Y5 Sc2 Cd6 Ru2'
_cell_volume   770.20818855
_cell_formula_units_Z   1
loop_
 _symmetry_equiv_pos_site_id
 _symmetry_equiv_pos_as_xyz
  1  'x, y, z'
loop_
 _atom_site_type_symbol
 _atom_site_label
 _atom_site_symmetry_multiplicity
 _atom_site_fract_x
 _atom_site_fract_y
 _atom_site_fract_z
 _atom_site_occupancy
  Dy  Dy0  1  0.208373  0.791627  0.440712  1
  Dy  Dy1  1  0.208414  0.416746  0.440688  1
  Dy  Dy2  1  0.583254  0.791586  0.440688  1
  Dy  Dy3  1  0.791629  0.208371  0.559310  1
  Dy  Dy4  1  0.791587  0.583231  0.559274  1
  Dy  Dy5  1  0.416769  0.208413  0.559274  1
  Dy  Dy6  1  0.791629  0.208371  0.940690  1
  Dy  Dy7  1  0.791587  0.583231  0.940726  1
  Dy  Dy8  1  0.416769  0.208413  0.940726  1
  Dy  Dy9  1  0.208373  0.791627  0.059288  1
  Dy  Dy10  1  0.208414  0.416746  0.059312  1
  Dy  Dy11  1  0.583254  0.791586  0.059312  1
  Dy  Dy12  1  0.540939  0.459061  0.250000  1
  Y  Y13  1  0.540990  0.081999  0.250000  1
  Y  Y14  1  0.918001  0.459010  0.250000  1
  Y  Y15  1  0.459021  0.540979  0.750000  1
  Y  Y16  1  0.459020  0.918046  0.750000  1
  Y  Y17  1  0.081954  0.540980  0.750000  1
  Sc  Sc18  1  0.000006  0.999994  0.500012  1
  Sc  Sc19  1  0.000006  0.999994  0.999988  1
  Cd  Cd20  1  0.889078  0.110922  0.250000  1
  Cd  Cd21  1  0.889049  0.778131  0.250000  1
  Cd  Cd22  1  0.221869  0.110951  0.250000  1
  Cd  Cd23  1  0.110928  0.889072  0.750000  1
  Cd  Cd24  1  0.110929  0.221859  0.750000  1
  Cd  Cd25  1  0.778141  0.889071  0.750000  1
  Ru  Ru26  1  0.333353  0.666647  0.250000  1
  Ru  Ru27  1  0.666663  0.333337  0.750000  1
