# generated using pymatgen
data_Ni2HgSe3
_symmetry_space_group_name_H-M   'P 1'
_cell_length_a   7.12187900
_cell_length_b   7.12187863
_cell_length_c   5.39250500
_cell_angle_alpha   90.00000000
_cell_angle_beta   90.00000000
_cell_angle_gamma   119.99999707
_symmetry_Int_Tables_number   1
_chemical_formula_structural   Ni2HgSe3
_chemical_formula_sum   'Ni4 Hg2 Se6'
_cell_volume   236.87016365
_cell_formula_units_Z   2
loop_
 _symmetry_equiv_pos_site_id
 _symmetry_equiv_pos_as_xyz
  1  'x, y, z'
loop_
 _atom_site_type_symbol
 _atom_site_label
 _atom_site_symmetry_multiplicity
 _atom_site_fract_x
 _atom_site_fract_y
 _atom_site_fract_z
 _atom_site_occupancy
  Ni  Ni0  1  0.000000  0.000000  0.000000  1
  Ni  Ni1  1  0.500000  0.000000  0.000000  1
  Ni  Ni2  1  0.000000  0.500000  0.000000  1
  Ni  Ni3  1  0.500000  0.500000  0.000000  1
  Hg  Hg4  1  0.333333  0.666666  0.346719  1
  Hg  Hg5  1  0.666667  0.333334  0.653281  1
  Se  Se6  1  0.343800  0.171900  0.217543  1
  Se  Se7  1  0.828100  0.171900  0.217543  1
  Se  Se8  1  0.828099  0.656200  0.217543  1
  Se  Se9  1  0.171900  0.343799  0.782457  1
  Se  Se10  1  0.171900  0.828099  0.782457  1
  Se  Se11  1  0.656199  0.828099  0.782457  1
