# generated using pymatgen
data_Er3Tm9InFe3Ag
_symmetry_space_group_name_H-M   'P 1'
_cell_length_a   8.19298953
_cell_length_b   8.19287204
_cell_length_c   8.19298875
_cell_angle_alpha   110.17146012
_cell_angle_beta   106.81724966
_cell_angle_gamma   111.46048378
_symmetry_Int_Tables_number   1
_chemical_formula_structural   Er3Tm9InFe3Ag
_chemical_formula_sum   'Er3 Tm9 In1 Fe3 Ag1'
_cell_volume   422.61267436
_cell_formula_units_Z   1
loop_
 _symmetry_equiv_pos_site_id
 _symmetry_equiv_pos_as_xyz
  1  'x, y, z'
loop_
 _atom_site_type_symbol
 _atom_site_label
 _atom_site_symmetry_multiplicity
 _atom_site_fract_x
 _atom_site_fract_y
 _atom_site_fract_z
 _atom_site_occupancy
  Er  Er0  1  0.193218  0.442568  0.249350  1
  Er  Er1  1  0.806491  0.557189  0.750698  1
  Er  Er2  1  0.193443  0.943996  0.750552  1
  Tm  Tm3  1  0.960417  0.189226  0.770993  1
  Tm  Tm4  1  0.806572  0.055470  0.248899  1
  Tm  Tm5  1  0.039620  0.811174  0.228875  1
  Tm  Tm6  1  0.418233  0.189226  0.228809  1
  Tm  Tm7  1  0.582299  0.811174  0.771553  1
  Tm  Tm8  1  0.308541  0.308345  0.617100  1
  Tm  Tm9  1  0.691103  0.692003  0.382731  1
  Tm  Tm10  1  0.691245  0.308345  0.999805  1
  Tm  Tm11  1  0.309271  0.692003  0.000899  1
  In  In12  1  0.499984  0.999883  0.499899  1
  Fe  Fe13  1  0.383124  0.382907  0.999784  1
  Fe  Fe14  1  0.616916  0.617000  0.000084  1
  Fe  Fe15  1  0.999960  0.000346  0.000385  1
  Ag  Ag16  1  0.999561  0.499147  0.499586  1
