# generated using pymatgen
data_Tm6Pb5
_symmetry_space_group_name_H-M   'P 1'
_cell_length_a   6.54822981
_cell_length_b   9.36197868
_cell_length_c   11.65168673
_cell_angle_alpha   113.68721685
_cell_angle_beta   106.31984600
_cell_angle_gamma   90.00000095
_symmetry_Int_Tables_number   1
_chemical_formula_structural   Tm6Pb5
_chemical_formula_sum   'Tm12 Pb10'
_cell_volume   622.56506360
_cell_formula_units_Z   2
loop_
 _symmetry_equiv_pos_site_id
 _symmetry_equiv_pos_as_xyz
  1  'x, y, z'
loop_
 _atom_site_type_symbol
 _atom_site_label
 _atom_site_symmetry_multiplicity
 _atom_site_fract_x
 _atom_site_fract_y
 _atom_site_fract_z
 _atom_site_occupancy
  Tm  Tm0  1  0.559927  0.326090  0.119854  1
  Tm  Tm1  1  0.059928  0.793764  0.119854  1
  Tm  Tm2  1  0.641722  0.030535  0.283445  1
  Tm  Tm3  1  0.141722  0.252910  0.283445  1
  Tm  Tm4  1  0.445159  0.695159  0.390317  1
  Tm  Tm5  1  0.945158  0.695159  0.390317  1
  Tm  Tm6  1  0.054841  0.304841  0.609683  1
  Tm  Tm7  1  0.554841  0.304841  0.609683  1
  Tm  Tm8  1  0.858278  0.747090  0.716555  1
  Tm  Tm9  1  0.358278  0.969465  0.716555  1
  Tm  Tm10  1  0.940072  0.206236  0.880146  1
  Tm  Tm11  1  0.440073  0.673910  0.880146  1
  Pb  Pb12  1  0.250000  0.000000  0.000000  1
  Pb  Pb13  1  0.750000  0.000000  0.000000  1
  Pb  Pb14  1  0.075086  0.474838  0.150172  1
  Pb  Pb15  1  0.575086  0.675335  0.150172  1
  Pb  Pb16  1  0.206909  0.009630  0.413816  1
  Pb  Pb17  1  0.706909  0.404186  0.413816  1
  Pb  Pb18  1  0.293091  0.595813  0.586183  1
  Pb  Pb19  1  0.793091  0.990370  0.586183  1
  Pb  Pb20  1  0.424914  0.324665  0.849829  1
  Pb  Pb21  1  0.924914  0.525163  0.849829  1
