# generated using pymatgen
data_YbDy3(B4Ru)4
_symmetry_space_group_name_H-M   'P 1'
_cell_length_a   3.54805300
_cell_length_b   5.96263719
_cell_length_c   11.52579437
_cell_angle_alpha   89.97095407
_cell_angle_beta   90.00000000
_cell_angle_gamma   90.00000000
_symmetry_Int_Tables_number   1
_chemical_formula_structural   YbDy3(B4Ru)4
_chemical_formula_sum   'Yb1 Dy3 B16 Ru4'
_cell_volume   243.83682490
_cell_formula_units_Z   1
loop_
 _symmetry_equiv_pos_site_id
 _symmetry_equiv_pos_as_xyz
  1  'x, y, z'
loop_
 _atom_site_type_symbol
 _atom_site_label
 _atom_site_symmetry_multiplicity
 _atom_site_fract_x
 _atom_site_fract_y
 _atom_site_fract_z
 _atom_site_occupancy
  Yb  Yb0  1  0.500000  0.870391  0.649707  1
  Dy  Dy1  1  0.500000  0.628355  0.150190  1
  Dy  Dy2  1  0.500000  0.371158  0.848693  1
  Dy  Dy3  1  0.500000  0.128366  0.350791  1
  B  B4  1  0.000000  0.975768  0.191727  1
  B  B5  1  0.000000  0.024692  0.808087  1
  B  B6  1  0.000000  0.475232  0.308605  1
  B  B7  1  0.000000  0.524393  0.691202  1
  B  B8  1  0.000000  0.788665  0.315157  1
  B  B9  1  0.000000  0.211551  0.685009  1
  B  B10  1  0.000000  0.288425  0.185640  1
  B  B11  1  0.000000  0.712587  0.814132  1
  B  B12  1  0.000000  0.863967  0.469900  1
  B  B13  1  0.000000  0.135717  0.530566  1
  B  B14  1  0.000000  0.363842  0.030417  1
  B  B15  1  0.000000  0.636035  0.969733  1
  B  B16  1  0.000000  0.887612  0.046870  1
  B  B17  1  0.000000  0.111710  0.952982  1
  B  B18  1  0.000000  0.388222  0.453925  1
  B  B19  1  0.000000  0.613621  0.547120  1
  Ru  Ru20  1  0.500000  0.639567  0.407819  1
  Ru  Ru21  1  0.500000  0.360556  0.590940  1
  Ru  Ru22  1  0.500000  0.140188  0.092201  1
  Ru  Ru23  1  0.500000  0.859379  0.908583  1
