# generated using pymatgen
data_Sc2AsPt2Rh3
_symmetry_space_group_name_H-M   'P 1'
_cell_length_a   4.07325500
_cell_length_b   5.57682700
_cell_length_c   11.02463500
_cell_angle_alpha   90.00000000
_cell_angle_beta   90.00000000
_cell_angle_gamma   90.00000000
_symmetry_Int_Tables_number   1
_chemical_formula_structural   Sc2AsPt2Rh3
_chemical_formula_sum   'Sc4 As2 Pt4 Rh6'
_cell_volume   250.43382776
_cell_formula_units_Z   2
loop_
 _symmetry_equiv_pos_site_id
 _symmetry_equiv_pos_as_xyz
  1  'x, y, z'
loop_
 _atom_site_type_symbol
 _atom_site_label
 _atom_site_symmetry_multiplicity
 _atom_site_fract_x
 _atom_site_fract_y
 _atom_site_fract_z
 _atom_site_occupancy
  Sc  Sc0  1  0.500000  0.323457  0.363505  1
  Sc  Sc1  1  0.500000  0.676543  0.636495  1
  Sc  Sc2  1  0.500000  0.176543  0.863505  1
  Sc  Sc3  1  0.500000  0.823457  0.136495  1
  As  As4  1  0.000000  0.000000  0.500000  1
  As  As5  1  0.000000  0.500000  0.000000  1
  Pt  Pt6  1  0.000000  0.931845  0.747863  1
  Pt  Pt7  1  0.000000  0.068155  0.252137  1
  Pt  Pt8  1  0.000000  0.431845  0.752137  1
  Pt  Pt9  1  0.000000  0.568155  0.247863  1
  Rh  Rh10  1  0.500000  0.316860  0.107740  1
  Rh  Rh11  1  0.500000  0.683140  0.892260  1
  Rh  Rh12  1  0.500000  0.816860  0.392260  1
  Rh  Rh13  1  0.500000  0.183140  0.607740  1
  Rh  Rh14  1  0.000000  0.500000  0.500000  1
  Rh  Rh15  1  0.000000  0.000000  0.000000  1
