# generated using pymatgen
data_Tb12Pr8Ga5Si11
_symmetry_space_group_name_H-M   'P 1'
_cell_length_a   7.60074908
_cell_length_b   7.91486017
_cell_length_c   15.13925311
_cell_angle_alpha   90.00342143
_cell_angle_beta   90.09195028
_cell_angle_gamma   89.91216415
_symmetry_Int_Tables_number   1
_chemical_formula_structural   Tb12Pr8Ga5Si11
_chemical_formula_sum   'Tb12 Pr8 Ga5 Si11'
_cell_volume   910.75805661
_cell_formula_units_Z   1
loop_
 _symmetry_equiv_pos_site_id
 _symmetry_equiv_pos_as_xyz
  1  'x, y, z'
loop_
 _atom_site_type_symbol
 _atom_site_label
 _atom_site_symmetry_multiplicity
 _atom_site_fract_x
 _atom_site_fract_y
 _atom_site_fract_z
 _atom_site_occupancy
  Tb  Tb0  1  0.325453  0.173858  0.623399  1
  Tb  Tb1  1  0.674661  0.821206  0.375989  1
  Tb  Tb2  1  0.661745  0.992082  0.751491  1
  Tb  Tb3  1  0.173752  0.678845  0.376130  1
  Tb  Tb4  1  0.824818  0.323323  0.876531  1
  Tb  Tb5  1  0.825404  0.325214  0.623055  1
  Tb  Tb6  1  0.838713  0.492316  0.250526  1
  Tb  Tb7  1  0.339923  0.006032  0.251580  1
  Tb  Tb8  1  0.328264  0.176132  0.874547  1
  Tb  Tb9  1  0.173088  0.673601  0.125425  1
  Tb  Tb10  1  0.672922  0.826177  0.124683  1
  Tb  Tb11  1  0.161157  0.507139  0.750821  1
  Pr  Pr12  1  0.020055  0.178145  0.399737  1
  Pr  Pr13  1  0.519563  0.322186  0.400100  1
  Pr  Pr14  1  0.483053  0.679866  0.899148  1
  Pr  Pr15  1  0.480188  0.681978  0.599764  1
  Pr  Pr16  1  0.980125  0.818175  0.599491  1
  Pr  Pr17  1  0.980234  0.825000  0.899610  1
  Pr  Pr18  1  0.518249  0.319476  0.101702  1
  Pr  Pr19  1  0.018198  0.179587  0.102186  1
  Ga  Ga20  1  0.154091  0.463083  0.537106  1
  Ga  Ga21  1  0.844088  0.536831  0.038678  1
  Ga  Ga22  1  0.344543  0.963537  0.037726  1
  Ga  Ga23  1  0.155200  0.464122  0.961007  1
  Ga  Ga24  1  0.653861  0.036322  0.537217  1
  Si  Si25  1  0.274329  0.879916  0.749339  1
  Si  Si26  1  0.467193  0.610355  0.251400  1
  Si  Si27  1  0.032437  0.111357  0.749129  1
  Si  Si28  1  0.533565  0.391373  0.749047  1
  Si  Si29  1  0.967735  0.889550  0.250616  1
  Si  Si30  1  0.723479  0.120830  0.251349  1
  Si  Si31  1  0.350815  0.967311  0.459967  1
  Si  Si32  1  0.850263  0.533006  0.460057  1
  Si  Si33  1  0.775547  0.619889  0.749038  1
  Si  Si34  1  0.223998  0.378475  0.251249  1
  Si  Si35  1  0.649292  0.033705  0.961161  1
