# generated using pymatgen
data_Ac4TaIrO12
_symmetry_space_group_name_H-M   'P 1'
_cell_length_a   5.59828600
_cell_length_b   9.67348279
_cell_length_c   10.54080400
_cell_angle_alpha   88.98001606
_cell_angle_beta   90.00000000
_cell_angle_gamma   90.00000000
_symmetry_Int_Tables_number   1
_chemical_formula_structural   Ac4TaIrO12
_chemical_formula_sum   'Ac8 Ta2 Ir2 O24'
_cell_volume   570.74598127
_cell_formula_units_Z   2
loop_
 _symmetry_equiv_pos_site_id
 _symmetry_equiv_pos_as_xyz
  1  'x, y, z'
loop_
 _atom_site_type_symbol
 _atom_site_label
 _atom_site_symmetry_multiplicity
 _atom_site_fract_x
 _atom_site_fract_y
 _atom_site_fract_z
 _atom_site_occupancy
  Ac  Ac0  1  0.028813  0.105065  0.455278  1
  Ac  Ac1  1  0.528813  0.394935  0.544722  1
  Ac  Ac2  1  0.967037  0.602315  0.042595  1
  Ac  Ac3  1  0.467037  0.897685  0.957405  1
  Ac  Ac4  1  0.017950  0.228312  0.864644  1
  Ac  Ac5  1  0.517950  0.271688  0.135356  1
  Ac  Ac6  1  0.972654  0.711694  0.642569  1
  Ac  Ac7  1  0.472654  0.788306  0.357431  1
  Ta  Ta8  1  0.456279  0.503849  0.858507  1
  Ta  Ta9  1  0.956279  0.996151  0.141493  1
  Ir  Ir10  1  0.544885  0.002972  0.636070  1
  Ir  Ir11  1  0.044885  0.497028  0.363930  1
  O  O12  1  0.244351  0.409662  0.991597  1
  O  O13  1  0.744351  0.090338  0.008403  1
  O  O14  1  0.751864  0.911473  0.509615  1
  O  O15  1  0.251864  0.588527  0.490385  1
  O  O16  1  0.216434  0.108431  0.054537  1
  O  O17  1  0.716434  0.391569  0.945463  1
  O  O18  1  0.785122  0.609742  0.431858  1
  O  O19  1  0.285122  0.890258  0.568142  1
  O  O20  1  0.298646  0.367443  0.328094  1
  O  O21  1  0.798646  0.132557  0.671906  1
  O  O22  1  0.687229  0.863344  0.170731  1
  O  O23  1  0.187229  0.636656  0.829269  1
  O  O24  1  0.168458  0.952023  0.285548  1
  O  O25  1  0.668458  0.547977  0.714452  1
  O  O26  1  0.839310  0.438243  0.235583  1
  O  O27  1  0.339310  0.061757  0.764417  1
  O  O28  1  0.176471  0.630885  0.249676  1
  O  O29  1  0.676471  0.869115  0.750324  1
  O  O30  1  0.815931  0.135171  0.259231  1
  O  O31  1  0.315931  0.364829  0.740769  1
  O  O32  1  0.069182  0.847739  0.026853  1
  O  O33  1  0.569182  0.652261  0.973147  1
  O  O34  1  0.959383  0.362531  0.493025  1
  O  O35  1  0.459383  0.137469  0.506975  1
