# generated using pymatgen
data_LaPr15(CoHg)4
_symmetry_space_group_name_H-M   'P 1'
_cell_length_a   9.86420245
_cell_length_b   9.85215439
_cell_length_c   9.85099936
_cell_angle_alpha   60.23888508
_cell_angle_beta   60.13785197
_cell_angle_gamma   60.13317806
_symmetry_Int_Tables_number   1
_chemical_formula_structural   LaPr15(CoHg)4
_chemical_formula_sum   'La1 Pr15 Co4 Hg4'
_cell_volume   679.55742280
_cell_formula_units_Z   1
loop_
 _symmetry_equiv_pos_site_id
 _symmetry_equiv_pos_as_xyz
  1  'x, y, z'
loop_
 _atom_site_type_symbol
 _atom_site_label
 _atom_site_symmetry_multiplicity
 _atom_site_fract_x
 _atom_site_fract_y
 _atom_site_fract_z
 _atom_site_occupancy
  La  La0  1  0.289381  0.903247  0.903128  1
  Pr  Pr1  1  0.689406  0.688771  0.309722  1
  Pr  Pr2  1  0.900950  0.901849  0.295400  1
  Pr  Pr3  1  0.310734  0.690565  0.309995  1
  Pr  Pr4  1  0.690318  0.310202  0.310153  1
  Pr  Pr5  1  0.060667  0.441076  0.441242  1
  Pr  Pr6  1  0.440215  0.060553  0.060556  1
  Pr  Pr7  1  0.060233  0.060536  0.439878  1
  Pr  Pr8  1  0.310721  0.310009  0.690577  1
  Pr  Pr9  1  0.441326  0.060972  0.440416  1
  Pr  Pr10  1  0.902031  0.903257  0.903146  1
  Pr  Pr11  1  0.441405  0.440338  0.060965  1
  Pr  Pr12  1  0.310353  0.688522  0.688502  1
  Pr  Pr13  1  0.689411  0.309729  0.688755  1
  Pr  Pr14  1  0.060214  0.439802  0.060526  1
  Pr  Pr15  1  0.901003  0.295350  0.901779  1
  Co  Co16  1  0.110389  0.107943  0.107942  1
  Co  Co17  1  0.109138  0.106909  0.673023  1
  Co  Co18  1  0.672020  0.108015  0.107999  1
  Co  Co19  1  0.109142  0.673006  0.106921  1
  Hg  Hg20  1  0.667390  0.666590  0.998787  1
  Hg  Hg21  1  0.998266  0.667144  0.667141  1
  Hg  Hg22  1  0.667403  0.998761  0.666600  1
  Hg  Hg23  1  0.667884  0.666853  0.666846  1
