# generated using pymatgen
data_DyLu7(AlPt)2
_symmetry_space_group_name_H-M   'P 1'
_cell_length_a   9.41909040
_cell_length_b   9.41909022
_cell_length_c   9.41358100
_cell_angle_alpha   60.01935697
_cell_angle_beta   60.01935760
_cell_angle_gamma   59.96130035
_symmetry_Int_Tables_number   1
_chemical_formula_structural   DyLu7(AlPt)2
_chemical_formula_sum   'Dy2 Lu14 Al4 Pt4'
_cell_volume   590.55117759
_cell_formula_units_Z   2
loop_
 _symmetry_equiv_pos_site_id
 _symmetry_equiv_pos_as_xyz
  1  'x, y, z'
loop_
 _atom_site_type_symbol
 _atom_site_label
 _atom_site_symmetry_multiplicity
 _atom_site_fract_x
 _atom_site_fract_y
 _atom_site_fract_z
 _atom_site_occupancy
  Dy  Dy0  1  0.565363  0.565363  0.934637  1
  Dy  Dy1  1  0.934637  0.934637  0.565362  1
  Lu  Lu2  1  0.354075  0.354075  0.354420  1
  Lu  Lu3  1  0.354075  0.354075  0.937432  1
  Lu  Lu4  1  0.354420  0.937432  0.354075  1
  Lu  Lu5  1  0.937432  0.354420  0.354075  1
  Lu  Lu6  1  0.806963  0.193037  0.193037  1
  Lu  Lu7  1  0.193037  0.806963  0.806963  1
  Lu  Lu8  1  0.193037  0.806963  0.193037  1
  Lu  Lu9  1  0.806963  0.193037  0.806963  1
  Lu  Lu10  1  0.192990  0.192990  0.807010  1
  Lu  Lu11  1  0.807010  0.807010  0.192990  1
  Lu  Lu12  1  0.936505  0.563495  0.563495  1
  Lu  Lu13  1  0.563495  0.936505  0.936505  1
  Lu  Lu14  1  0.563495  0.936505  0.563495  1
  Lu  Lu15  1  0.936505  0.563494  0.936505  1
  Al  Al16  1  0.578072  0.578072  0.577841  1
  Al  Al17  1  0.578072  0.578072  0.266015  1
  Al  Al18  1  0.577841  0.266015  0.578072  1
  Al  Al19  1  0.266015  0.577841  0.578072  1
  Pt  Pt20  1  0.143700  0.143700  0.141983  1
  Pt  Pt21  1  0.143700  0.143700  0.570620  1
  Pt  Pt22  1  0.141983  0.570620  0.143700  1
  Pt  Pt23  1  0.570620  0.141983  0.143700  1
