# generated using pymatgen
data_Hf9Zr3Al8(NiC)4
_symmetry_space_group_name_H-M   'P 1'
_cell_length_a   8.52793297
_cell_length_b   8.52489552
_cell_length_c   8.53450277
_cell_angle_alpha   59.98758901
_cell_angle_beta   60.04833527
_cell_angle_gamma   60.05924532
_symmetry_Int_Tables_number   1
_chemical_formula_structural   Hf9Zr3Al8(NiC)4
_chemical_formula_sum   'Hf9 Zr3 Al8 Ni4 C4'
_cell_volume   439.04381600
_cell_formula_units_Z   1
loop_
 _symmetry_equiv_pos_site_id
 _symmetry_equiv_pos_as_xyz
  1  'x, y, z'
loop_
 _atom_site_type_symbol
 _atom_site_label
 _atom_site_symmetry_multiplicity
 _atom_site_fract_x
 _atom_site_fract_y
 _atom_site_fract_z
 _atom_site_occupancy
  Hf  Hf0  1  0.943509  0.943700  0.556308  1
  Hf  Hf1  1  0.692655  0.307284  0.307563  1
  Hf  Hf2  1  0.307503  0.693419  0.691770  1
  Hf  Hf3  1  0.692764  0.693465  0.307000  1
  Hf  Hf4  1  0.693403  0.307060  0.692465  1
  Hf  Hf5  1  0.306409  0.694011  0.306453  1
  Hf  Hf6  1  0.557824  0.942629  0.556907  1
  Hf  Hf7  1  0.557268  0.943196  0.943038  1
  Hf  Hf8  1  0.943016  0.557439  0.556324  1
  Zr  Zr9  1  0.943395  0.556985  0.943389  1
  Zr  Zr10  1  0.306770  0.306611  0.692982  1
  Zr  Zr11  1  0.556232  0.556335  0.943634  1
  Al  Al12  1  0.920681  0.237387  0.920756  1
  Al  Al13  1  0.329549  0.329102  0.012205  1
  Al  Al14  1  0.011587  0.329321  0.329774  1
  Al  Al15  1  0.329408  0.329056  0.329479  1
  Al  Al16  1  0.237873  0.920734  0.920524  1
  Al  Al17  1  0.920548  0.920880  0.920572  1
  Al  Al18  1  0.920267  0.920622  0.238471  1
  Al  Al19  1  0.329616  0.011501  0.329623  1
  Ni  Ni20  1  0.123998  0.625561  0.126563  1
  Ni  Ni21  1  0.124395  0.124463  0.624148  1
  Ni  Ni22  1  0.625078  0.123318  0.125756  1
  Ni  Ni23  1  0.125167  0.122708  0.127513  1
  C  C24  1  0.628243  0.122836  0.624692  1
  C  C25  1  0.622237  0.626282  0.128839  1
  C  C26  1  0.124872  0.628810  0.621134  1
  C  C27  1  0.625734  0.625284  0.622117  1
