# generated using pymatgen
data_Lu4Ge3P3Ir7
_symmetry_space_group_name_H-M   'P 1'
_cell_length_a   7.11749491
_cell_length_b   7.11749447
_cell_length_c   7.14645400
_cell_angle_alpha   109.55366058
_cell_angle_beta   109.55365930
_cell_angle_gamma   109.38864953
_symmetry_Int_Tables_number   1
_chemical_formula_structural   Lu4Ge3P3Ir7
_chemical_formula_sum   'Lu4 Ge3 P3 Ir7'
_cell_volume   278.40701899
_cell_formula_units_Z   1
loop_
 _symmetry_equiv_pos_site_id
 _symmetry_equiv_pos_as_xyz
  1  'x, y, z'
loop_
 _atom_site_type_symbol
 _atom_site_label
 _atom_site_symmetry_multiplicity
 _atom_site_fract_x
 _atom_site_fract_y
 _atom_site_fract_z
 _atom_site_occupancy
  Lu  Lu0  1  0.000000  0.000000  0.465326  1
  Lu  Lu1  1  0.000000  0.513452  0.001364  1
  Lu  Lu2  1  0.513452  0.000000  0.001364  1
  Lu  Lu3  1  0.486548  0.486548  0.487912  1
  Ge  Ge4  1  0.302606  0.302606  0.991622  1
  Ge  Ge5  1  0.697394  0.000000  0.689016  1
  Ge  Ge6  1  0.000000  0.697394  0.689016  1
  P  P7  1  0.662441  0.662441  0.996218  1
  P  P8  1  0.337559  0.000000  0.333776  1
  P  P9  1  0.000000  0.337559  0.333776  1
  Ir  Ir10  1  0.750017  0.250626  0.496648  1
  Ir  Ir11  1  0.749374  0.499392  0.246022  1
  Ir  Ir12  1  0.500608  0.249983  0.746630  1
  Ir  Ir13  1  0.249983  0.500608  0.746630  1
  Ir  Ir14  1  0.250626  0.750017  0.496648  1
  Ir  Ir15  1  0.499392  0.749374  0.246022  1
  Ir  Ir16  1  0.000000  0.000000  0.032011  1
