# generated using pymatgen
data_DyTm4Rh5
_symmetry_space_group_name_H-M   'P 1'
_cell_length_a   3.39430900
_cell_length_b   3.39430900
_cell_length_c   16.94292600
_cell_angle_alpha   90.00000000
_cell_angle_beta   90.00000000
_cell_angle_gamma   90.00000000
_symmetry_Int_Tables_number   1
_chemical_formula_structural   DyTm4Rh5
_chemical_formula_sum   'Dy1 Tm4 Rh5'
_cell_volume   195.20510239
_cell_formula_units_Z   1
loop_
 _symmetry_equiv_pos_site_id
 _symmetry_equiv_pos_as_xyz
  1  'x, y, z'
loop_
 _atom_site_type_symbol
 _atom_site_label
 _atom_site_symmetry_multiplicity
 _atom_site_fract_x
 _atom_site_fract_y
 _atom_site_fract_z
 _atom_site_occupancy
  Dy  Dy0  1  0.000000  0.000000  0.000000  1
  Tm  Tm1  1  0.000000  0.000000  0.200544  1
  Tm  Tm2  1  0.000000  0.000000  0.400025  1
  Tm  Tm3  1  0.000000  0.000000  0.599975  1
  Tm  Tm4  1  0.000000  0.000000  0.799456  1
  Rh  Rh5  1  0.500000  0.500000  0.101761  1
  Rh  Rh6  1  0.500000  0.500000  0.299990  1
  Rh  Rh7  1  0.500000  0.500000  0.500000  1
  Rh  Rh8  1  0.500000  0.500000  0.700010  1
  Rh  Rh9  1  0.500000  0.500000  0.898239  1
