# generated using pymatgen
data_RbBiRh3Pb5
_symmetry_space_group_name_H-M   'P 1'
_cell_length_a   14.40341341
_cell_length_b   14.40341401
_cell_length_c   4.63020900
_cell_angle_alpha   90.00000000
_cell_angle_beta   90.00000000
_cell_angle_gamma   145.52883138
_symmetry_Int_Tables_number   1
_chemical_formula_structural   RbBiRh3Pb5
_chemical_formula_sum   'Rb2 Bi2 Rh6 Pb10'
_cell_volume   543.67748191
_cell_formula_units_Z   2
loop_
 _symmetry_equiv_pos_site_id
 _symmetry_equiv_pos_as_xyz
  1  'x, y, z'
loop_
 _atom_site_type_symbol
 _atom_site_label
 _atom_site_symmetry_multiplicity
 _atom_site_fract_x
 _atom_site_fract_y
 _atom_site_fract_z
 _atom_site_occupancy
  Rb  Rb0  1  0.586086  0.414868  0.250000  1
  Rb  Rb1  1  0.414868  0.586086  0.750000  1
  Bi  Bi2  1  0.759371  0.851870  0.250000  1
  Bi  Bi3  1  0.851870  0.759371  0.750000  1
  Rh  Rh4  1  0.971633  0.409461  0.750000  1
  Rh  Rh5  1  0.959509  0.031930  0.750000  1
  Rh  Rh6  1  0.030067  0.594914  0.250000  1
  Rh  Rh7  1  0.031930  0.959509  0.250000  1
  Rh  Rh8  1  0.409461  0.971633  0.250000  1
  Rh  Rh9  1  0.594914  0.030067  0.750000  1
  Pb  Pb10  1  0.142558  0.238895  0.250000  1
  Pb  Pb11  1  0.523132  0.869527  0.250000  1
  Pb  Pb12  1  0.130424  0.478274  0.250000  1
  Pb  Pb13  1  0.869527  0.523132  0.750000  1
  Pb  Pb14  1  0.238895  0.142558  0.750000  1
  Pb  Pb15  1  0.750207  0.252451  0.250000  1
  Pb  Pb16  1  0.252451  0.750207  0.750000  1
  Pb  Pb17  1  0.138158  0.866664  0.250000  1
  Pb  Pb18  1  0.866664  0.138158  0.750000  1
  Pb  Pb19  1  0.478274  0.130424  0.750000  1
