# generated using pymatgen
data_LiHg2ClO2
_symmetry_space_group_name_H-M   'P 1'
_cell_length_a   6.43808500
_cell_length_b   6.43808424
_cell_length_c   9.13785400
_cell_angle_alpha   90.00000000
_cell_angle_beta   90.00000000
_cell_angle_gamma   120.00000902
_symmetry_Int_Tables_number   1
_chemical_formula_structural   LiHg2ClO2
_chemical_formula_sum   'Li3 Hg6 Cl3 O6'
_cell_volume   328.01081896
_cell_formula_units_Z   3
loop_
 _symmetry_equiv_pos_site_id
 _symmetry_equiv_pos_as_xyz
  1  'x, y, z'
loop_
 _atom_site_type_symbol
 _atom_site_label
 _atom_site_symmetry_multiplicity
 _atom_site_fract_x
 _atom_site_fract_y
 _atom_site_fract_z
 _atom_site_occupancy
  Li  Li0  1  0.000000  0.000000  0.166667  1
  Li  Li1  1  0.000000  0.000000  0.833333  1
  Li  Li2  1  0.000000  0.000000  0.500000  1
  Hg  Hg3  1  0.500000  0.500000  0.007085  1
  Hg  Hg4  1  0.000000  0.500000  0.340418  1
  Hg  Hg5  1  0.500000  0.000000  0.673751  1
  Hg  Hg6  1  0.000000  0.500000  0.992915  1
  Hg  Hg7  1  0.500000  0.500000  0.659582  1
  Hg  Hg8  1  0.500000  0.000000  0.326249  1
  Cl  Cl9  1  0.500000  0.000000  0.000000  1
  Cl  Cl10  1  0.500000  0.500000  0.333333  1
  Cl  Cl11  1  0.000000  0.500000  0.666667  1
  O  O12  1  0.867349  0.734698  0.000000  1
  O  O13  1  0.132651  0.867349  0.333333  1
  O  O14  1  0.734698  0.867349  0.666667  1
  O  O15  1  0.265302  0.132651  0.666667  1
  O  O16  1  0.132651  0.265302  0.000000  1
  O  O17  1  0.867349  0.132651  0.333333  1
