# generated using pymatgen
data_Dy2Lu3In4IrPt
_symmetry_space_group_name_H-M   'P 1'
_cell_length_a   3.59562900
_cell_length_b   8.09335442
_cell_length_c   18.07045395
_cell_angle_alpha   89.72517673
_cell_angle_beta   90.00000000
_cell_angle_gamma   90.00000000
_symmetry_Int_Tables_number   1
_chemical_formula_structural   Dy2Lu3In4IrPt
_chemical_formula_sum   'Dy4 Lu6 In8 Ir2 Pt2'
_cell_volume   525.85680774
_cell_formula_units_Z   2
loop_
 _symmetry_equiv_pos_site_id
 _symmetry_equiv_pos_as_xyz
  1  'x, y, z'
loop_
 _atom_site_type_symbol
 _atom_site_label
 _atom_site_symmetry_multiplicity
 _atom_site_fract_x
 _atom_site_fract_y
 _atom_site_fract_z
 _atom_site_occupancy
  Dy  Dy0  1  0.000000  0.249578  0.719850  1
  Dy  Dy1  1  0.000000  0.750422  0.280150  1
  Dy  Dy2  1  0.000000  0.000000  0.000000  1
  Dy  Dy3  1  0.000000  0.500000  0.500000  1
  Lu  Lu4  1  0.000000  0.116862  0.411063  1
  Lu  Lu5  1  0.000000  0.883138  0.588937  1
  Lu  Lu6  1  0.000000  0.383713  0.912077  1
  Lu  Lu7  1  0.000000  0.616287  0.087923  1
  Lu  Lu8  1  0.000000  0.233747  0.222368  1
  Lu  Lu9  1  0.000000  0.766253  0.777632  1
  In  In10  1  0.500000  0.421139  0.350595  1
  In  In11  1  0.500000  0.578861  0.649405  1
  In  In12  1  0.500000  0.072926  0.850948  1
  In  In13  1  0.500000  0.927074  0.149052  1
  In  In14  1  0.500000  0.295082  0.065230  1
  In  In15  1  0.500000  0.704918  0.934770  1
  In  In16  1  0.500000  0.201288  0.565544  1
  In  In17  1  0.500000  0.798712  0.434456  1
  Ir  Ir18  1  0.500000  0.025249  0.304108  1
  Ir  Ir19  1  0.500000  0.974751  0.695892  1
  Pt  Pt20  1  0.500000  0.484111  0.804677  1
  Pt  Pt21  1  0.500000  0.515889  0.195323  1
