# generated using pymatgen
data_La2BC
_symmetry_space_group_name_H-M   'P 1'
_cell_length_a   7.28413946
_cell_length_b   7.28413923
_cell_length_c   9.82781049
_cell_angle_alpha   49.12655615
_cell_angle_beta   49.12655761
_cell_angle_gamma   29.65039518
_symmetry_Int_Tables_number   1
_chemical_formula_structural   La2BC
_chemical_formula_sum   'La4 B2 C2'
_cell_volume   189.87577680
_cell_formula_units_Z   2
loop_
 _symmetry_equiv_pos_site_id
 _symmetry_equiv_pos_as_xyz
  1  'x, y, z'
loop_
 _atom_site_type_symbol
 _atom_site_label
 _atom_site_symmetry_multiplicity
 _atom_site_fract_x
 _atom_site_fract_y
 _atom_site_fract_z
 _atom_site_occupancy
  La  La0  1  0.786980  0.786980  0.623165  1
  La  La1  1  0.213020  0.213020  0.376835  1
  La  La2  1  0.445514  0.445514  0.860387  1
  La  La3  1  0.554486  0.554486  0.139613  1
  B  B4  1  0.071960  0.071960  0.893077  1
  B  B5  1  0.928040  0.928040  0.106923  1
  C  C6  1  0.873244  0.873244  0.302707  1
  C  C7  1  0.126756  0.126756  0.697293  1
