# generated using pymatgen
data_Hf3Zr6In14Co6Re
_symmetry_space_group_name_H-M   'P 1'
_cell_length_a   9.44973786
_cell_length_b   9.46603250
_cell_length_c   9.45710210
_cell_angle_alpha   60.06739389
_cell_angle_beta   60.02575466
_cell_angle_gamma   60.05692605
_symmetry_Int_Tables_number   1
_chemical_formula_structural   Hf3Zr6In14Co6Re
_chemical_formula_sum   'Hf3 Zr6 In14 Co6 Re1'
_cell_volume   598.85660772
_cell_formula_units_Z   1
loop_
 _symmetry_equiv_pos_site_id
 _symmetry_equiv_pos_as_xyz
  1  'x, y, z'
loop_
 _atom_site_type_symbol
 _atom_site_label
 _atom_site_symmetry_multiplicity
 _atom_site_fract_x
 _atom_site_fract_y
 _atom_site_fract_z
 _atom_site_occupancy
  Hf  Hf0  1  0.119589  0.641498  0.119324  1
  Hf  Hf1  1  0.359852  0.878856  0.879962  1
  Hf  Hf2  1  0.881331  0.878856  0.879962  1
  Zr  Zr3  1  0.633346  0.121732  0.122336  1
  Zr  Zr4  1  0.500178  0.499589  0.500056  1
  Zr  Zr5  1  0.879193  0.876326  0.365288  1
  Zr  Zr6  1  0.122586  0.121732  0.122336  1
  Zr  Zr7  1  0.878851  0.365199  0.877100  1
  Zr  Zr8  1  0.121987  0.121263  0.634763  1
  In  In9  1  0.500840  0.841692  0.156627  1
  In  In10  1  0.500529  0.840581  0.500316  1
  In  In11  1  0.500241  0.158061  0.499943  1
  In  In12  1  0.500095  0.499736  0.841429  1
  In  In13  1  0.159874  0.499417  0.499621  1
  In  In14  1  0.841754  0.158061  0.499943  1
  In  In15  1  0.158574  0.840581  0.500316  1
  In  In16  1  0.500516  0.156600  0.842368  1
  In  In17  1  0.158740  0.499736  0.841429  1
  In  In18  1  0.500115  0.499626  0.158462  1
  In  In19  1  0.841087  0.499417  0.499621  1
  In  In20  1  0.841798  0.499626  0.158462  1
  In  In21  1  0.248255  0.254636  0.248853  1
  In  In22  1  0.747086  0.753023  0.752804  1
  Co  Co23  1  0.778696  0.776035  0.221705  1
  Co  Co24  1  0.223565  0.776035  0.221705  1
  Co  Co25  1  0.222631  0.776269  0.778469  1
  Co  Co26  1  0.223538  0.221589  0.777131  1
  Co  Co27  1  0.777742  0.221589  0.777131  1
  Co  Co28  1  0.777554  0.222410  0.222482  1
  Re  Re29  1  0.999858  0.000229  0.000055  1
