# generated using pymatgen
data_HoScP7(Rh3W)3
_symmetry_space_group_name_H-M   'P 1'
_cell_length_a   3.92603000
_cell_length_b   9.49532100
_cell_length_c   9.49487000
_cell_angle_alpha   119.99973093
_cell_angle_beta   89.99996743
_cell_angle_gamma   90.00001784
_symmetry_Int_Tables_number   1
_chemical_formula_structural   HoScP7(Rh3W)3
_chemical_formula_sum   'Ho1 Sc1 P7 Rh9 W3'
_cell_volume   306.53784310
_cell_formula_units_Z   1
loop_
 _symmetry_equiv_pos_site_id
 _symmetry_equiv_pos_as_xyz
  1  'x, y, z'
loop_
 _atom_site_type_symbol
 _atom_site_label
 _atom_site_symmetry_multiplicity
 _atom_site_fract_x
 _atom_site_fract_y
 _atom_site_fract_z
 _atom_site_occupancy
  Ho  Ho0  1  0.261898  0.666642  0.333301  1
  Sc  Sc1  1  0.762265  0.333338  0.666678  1
  P  P2  1  0.261802  0.999999  0.999957  1
  P  P3  1  0.761887  0.880053  0.591723  1
  P  P4  1  0.761882  0.408266  0.288333  1
  P  P5  1  0.761876  0.711656  0.119911  1
  P  P6  1  0.261944  0.120350  0.415777  1
  P  P7  1  0.261933  0.584252  0.704594  1
  P  P8  1  0.261916  0.295442  0.879675  1
  Rh  Rh9  1  0.261872  0.885857  0.160524  1
  Rh  Rh10  1  0.261870  0.839449  0.725240  1
  Rh  Rh11  1  0.261859  0.274712  0.114203  1
  Rh  Rh12  1  0.761896  0.611488  0.559865  1
  Rh  Rh13  1  0.761882  0.440080  0.051571  1
  Rh  Rh14  1  0.761899  0.948338  0.388487  1
  Rh  Rh15  1  0.261903  0.368797  0.440597  1
  Rh  Rh16  1  0.261900  0.559478  0.928259  1
  Rh  Rh17  1  0.261912  0.071789  0.631234  1
  W  W18  1  0.761870  0.090568  0.869943  1
  W  W19  1  0.761868  0.130111  0.220747  1
  W  W20  1  0.761867  0.779331  0.909382  1
