# generated using pymatgen
data_Dy7Sn23(IrOs2)2
_symmetry_space_group_name_H-M   'P 1'
_cell_length_a   9.86487944
_cell_length_b   9.89059467
_cell_length_c   10.11169858
_cell_angle_alpha   90.00000309
_cell_angle_beta   89.88624014
_cell_angle_gamma   120.08627347
_symmetry_Int_Tables_number   1
_chemical_formula_structural   Dy7Sn23(IrOs2)2
_chemical_formula_sum   'Dy7 Sn23 Ir2 Os4'
_cell_volume   853.66913439
_cell_formula_units_Z   1
loop_
 _symmetry_equiv_pos_site_id
 _symmetry_equiv_pos_as_xyz
  1  'x, y, z'
loop_
 _atom_site_type_symbol
 _atom_site_label
 _atom_site_symmetry_multiplicity
 _atom_site_fract_x
 _atom_site_fract_y
 _atom_site_fract_z
 _atom_site_occupancy
  Dy  Dy0  1  0.000000  0.000000  0.000000  1
  Dy  Dy1  1  0.484556  0.516916  0.304744  1
  Dy  Dy2  1  0.515444  0.483084  0.695256  1
  Dy  Dy3  1  0.484556  0.967641  0.304744  1
  Dy  Dy4  1  0.515444  0.032359  0.695256  1
  Dy  Dy5  1  0.032658  0.516329  0.304041  1
  Dy  Dy6  1  0.967342  0.483671  0.695959  1
  Sn  Sn7  1  0.349685  0.997741  0.000470  1
  Sn  Sn8  1  0.650315  0.002259  0.999530  1
  Sn  Sn9  1  0.000000  0.349016  0.000000  1
  Sn  Sn10  1  0.000000  0.650984  0.000000  1
  Sn  Sn11  1  0.650315  0.648055  0.999530  1
  Sn  Sn12  1  0.349685  0.351945  0.000470  1
  Sn  Sn13  1  0.330892  0.665447  0.824611  1
  Sn  Sn14  1  0.669108  0.334553  0.175389  1
  Sn  Sn15  1  0.000000  0.000000  0.500000  1
  Sn  Sn16  1  0.778956  0.220613  0.461201  1
  Sn  Sn17  1  0.221044  0.779387  0.538799  1
  Sn  Sn18  1  0.778956  0.558344  0.461201  1
  Sn  Sn19  1  0.221044  0.441656  0.538799  1
  Sn  Sn20  1  0.441768  0.220884  0.461411  1
  Sn  Sn21  1  0.558232  0.779116  0.538589  1
  Sn  Sn22  1  0.334378  0.667189  0.127248  1
  Sn  Sn23  1  0.665622  0.332811  0.872752  1
  Sn  Sn24  1  0.116011  0.883003  0.281754  1
  Sn  Sn25  1  0.883989  0.116997  0.718246  1
  Sn  Sn26  1  0.116011  0.233008  0.281754  1
  Sn  Sn27  1  0.883989  0.766992  0.718246  1
  Sn  Sn28  1  0.767222  0.883611  0.275868  1
  Sn  Sn29  1  0.232778  0.116389  0.724132  1
  Ir  Ir30  1  0.339651  0.169825  0.200170  1
  Ir  Ir31  1  0.660349  0.830175  0.799830  1
  Os  Os32  1  0.829928  0.169512  0.201324  1
  Os  Os33  1  0.170072  0.830488  0.798676  1
  Os  Os34  1  0.829928  0.660417  0.201324  1
  Os  Os35  1  0.170072  0.339583  0.798676  1
