# generated using pymatgen
data_LiEr3Ag2Pb3
_symmetry_space_group_name_H-M   'P 1'
_cell_length_a   7.41994251
_cell_length_b   7.41994230
_cell_length_c   4.60250900
_cell_angle_alpha   90.00000000
_cell_angle_beta   90.00000000
_cell_angle_gamma   120.41862857
_symmetry_Int_Tables_number   1
_chemical_formula_structural   LiEr3Ag2Pb3
_chemical_formula_sum   'Li1 Er3 Ag2 Pb3'
_cell_volume   218.51377908
_cell_formula_units_Z   1
loop_
 _symmetry_equiv_pos_site_id
 _symmetry_equiv_pos_as_xyz
  1  'x, y, z'
loop_
 _atom_site_type_symbol
 _atom_site_label
 _atom_site_symmetry_multiplicity
 _atom_site_fract_x
 _atom_site_fract_y
 _atom_site_fract_z
 _atom_site_occupancy
  Li  Li0  1  0.769688  0.769688  0.000000  1
  Er  Er1  1  0.563404  0.004533  0.500000  1
  Er  Er2  1  0.421375  0.421375  0.500000  1
  Er  Er3  1  0.004533  0.563404  0.500000  1
  Ag  Ag4  1  0.998910  0.241963  0.000000  1
  Ag  Ag5  1  0.241963  0.998910  0.000000  1
  Pb  Pb6  1  0.981894  0.981894  0.500000  1
  Pb  Pb7  1  0.348273  0.669961  0.000000  1
  Pb  Pb8  1  0.669961  0.348273  0.000000  1
