# generated using pymatgen
data_CsTmBeS3
_symmetry_space_group_name_H-M   'P 1'
_cell_length_a   8.04030575
_cell_length_b   8.04030607
_cell_length_c   10.33480900
_cell_angle_alpha   90.00000000
_cell_angle_beta   90.00000000
_cell_angle_gamma   152.11095213
_symmetry_Int_Tables_number   1
_chemical_formula_structural   CsTmBeS3
_chemical_formula_sum   'Cs2 Tm2 Be2 S6'
_cell_volume   312.51544933
_cell_formula_units_Z   2
loop_
 _symmetry_equiv_pos_site_id
 _symmetry_equiv_pos_as_xyz
  1  'x, y, z'
loop_
 _atom_site_type_symbol
 _atom_site_label
 _atom_site_symmetry_multiplicity
 _atom_site_fract_x
 _atom_site_fract_y
 _atom_site_fract_z
 _atom_site_occupancy
  Cs  Cs0  1  0.239633  0.760367  0.250000  1
  Cs  Cs1  1  0.760367  0.239633  0.750000  1
  Tm  Tm2  1  0.500000  0.500000  0.000000  1
  Tm  Tm3  1  0.500000  0.500000  0.500000  1
  Be  Be4  1  0.961617  0.038383  0.250000  1
  Be  Be5  1  0.038383  0.961617  0.750000  1
  S  S6  1  0.891695  0.108304  0.077179  1
  S  S7  1  0.544787  0.455213  0.250000  1
  S  S8  1  0.891695  0.108304  0.422820  1
  S  S9  1  0.108304  0.891695  0.577180  1
  S  S10  1  0.455213  0.544787  0.750000  1
  S  S11  1  0.108304  0.891695  0.922820  1
