# generated using pymatgen
data_V5Ga3(GeO5)4
_symmetry_space_group_name_H-M   'P 1'
_cell_length_a   8.24069350
_cell_length_b   6.00180200
_cell_length_c   8.49127059
_cell_angle_alpha   90.00000000
_cell_angle_beta   90.06954784
_cell_angle_gamma   90.00000000
_symmetry_Int_Tables_number   1
_chemical_formula_structural   V5Ga3(GeO5)4
_chemical_formula_sum   'V5 Ga3 Ge4 O20'
_cell_volume   419.96953345
_cell_formula_units_Z   1
loop_
 _symmetry_equiv_pos_site_id
 _symmetry_equiv_pos_as_xyz
  1  'x, y, z'
loop_
 _atom_site_type_symbol
 _atom_site_label
 _atom_site_symmetry_multiplicity
 _atom_site_fract_x
 _atom_site_fract_y
 _atom_site_fract_z
 _atom_site_occupancy
  V  V0  1  0.999551  0.255833  0.999557  1
  V  V1  1  0.999551  0.744167  0.999557  1
  V  V2  1  0.369837  0.000000  0.140691  1
  V  V3  1  0.500372  0.245618  0.501852  1
  V  V4  1  0.500372  0.754382  0.501852  1
  Ga  Ga5  1  0.866179  0.500000  0.361721  1
  Ga  Ga6  1  0.132114  0.500000  0.637362  1
  Ga  Ga7  1  0.634108  0.000000  0.859198  1
  Ge  Ge8  1  0.240162  0.500000  0.247567  1
  Ge  Ge9  1  0.746472  0.000000  0.253328  1
  Ge  Ge10  1  0.256788  0.000000  0.747394  1
  Ge  Ge11  1  0.757605  0.500000  0.753312  1
  O  O12  1  0.602507  0.000000  0.097126  1
  O  O13  1  0.223047  0.260301  0.123759  1
  O  O14  1  0.223047  0.739699  0.123759  1
  O  O15  1  0.927382  0.500000  0.143231  1
  O  O16  1  0.930579  0.000000  0.145851  1
  O  O17  1  0.426752  0.500000  0.353454  1
  O  O18  1  0.429736  0.000000  0.362891  1
  O  O19  1  0.727284  0.242338  0.374361  1
  O  O20  1  0.727284  0.757662  0.374361  1
  O  O21  1  0.098128  0.500000  0.402866  1
  O  O22  1  0.899020  0.500000  0.597147  1
  O  O23  1  0.272607  0.242524  0.625020  1
  O  O24  1  0.272607  0.757476  0.625020  1
  O  O25  1  0.576200  0.000000  0.641873  1
  O  O26  1  0.571437  0.500000  0.646539  1
  O  O27  1  0.072072  0.000000  0.854953  1
  O  O28  1  0.068333  0.500000  0.854963  1
  O  O29  1  0.772919  0.257550  0.875283  1
  O  O30  1  0.772919  0.742450  0.875283  1
  O  O31  1  0.403029  0.000000  0.898870  1
