# generated using pymatgen
data_Y6SnPd5PtPb5
_symmetry_space_group_name_H-M   'P 1'
_cell_length_a   7.84081039
_cell_length_b   7.86796833
_cell_length_c   7.74811609
_cell_angle_alpha   90.01533605
_cell_angle_beta   89.99965186
_cell_angle_gamma   119.92231592
_symmetry_Int_Tables_number   1
_chemical_formula_structural   Y6SnPd5PtPb5
_chemical_formula_sum   'Y6 Sn1 Pd5 Pt1 Pb5'
_cell_volume   414.27594590
_cell_formula_units_Z   1
loop_
 _symmetry_equiv_pos_site_id
 _symmetry_equiv_pos_as_xyz
  1  'x, y, z'
loop_
 _atom_site_type_symbol
 _atom_site_label
 _atom_site_symmetry_multiplicity
 _atom_site_fract_x
 _atom_site_fract_y
 _atom_site_fract_z
 _atom_site_occupancy
  Y  Y0  1  0.400658  0.998701  0.249905  1
  Y  Y1  1  0.599403  0.602702  0.249087  1
  Y  Y2  1  0.999537  0.398862  0.249378  1
  Y  Y3  1  0.397749  0.993252  0.750203  1
  Y  Y4  1  0.596866  0.605377  0.750882  1
  Y  Y5  1  0.004863  0.401303  0.750795  1
  Sn  Sn6  1  0.735775  0.002483  0.500113  1
  Pd  Pd7  1  0.342153  0.673875  0.494768  1
  Pd  Pd8  1  0.667001  0.333584  0.993392  1
  Pd  Pd9  1  0.668572  0.325774  0.506306  1
  Pd  Pd10  1  0.994580  0.000017  0.255284  1
  Pd  Pd11  1  0.994618  0.000014  0.744837  1
  Pt  Pt12  1  0.333546  0.666550  0.004695  1
  Pb  Pb13  1  0.737558  0.005194  0.000020  1
  Pb  Pb14  1  0.269605  0.267670  0.500047  1
  Pb  Pb15  1  0.996315  0.729615  0.500083  1
  Pb  Pb16  1  0.995270  0.734145  0.000115  1
  Pb  Pb17  1  0.265929  0.260882  0.000093  1
