# generated using pymatgen
data_TbSc3Al18(Pd2Rh)2
_symmetry_space_group_name_H-M   'P 1'
_cell_length_a   7.54525184
_cell_length_b   7.55158408
_cell_length_c   9.34263000
_cell_angle_alpha   90.00000000
_cell_angle_beta   90.00000000
_cell_angle_gamma   119.67229910
_symmetry_Int_Tables_number   1
_chemical_formula_structural   TbSc3Al18(Pd2Rh)2
_chemical_formula_sum   'Tb1 Sc3 Al18 Pd4 Rh2'
_cell_volume   462.52608498
_cell_formula_units_Z   1
loop_
 _symmetry_equiv_pos_site_id
 _symmetry_equiv_pos_as_xyz
  1  'x, y, z'
loop_
 _atom_site_type_symbol
 _atom_site_label
 _atom_site_symmetry_multiplicity
 _atom_site_fract_x
 _atom_site_fract_y
 _atom_site_fract_z
 _atom_site_occupancy
  Tb  Tb0  1  0.994593  0.667661  0.750000  1
  Sc  Sc1  1  0.004740  0.330697  0.250000  1
  Sc  Sc2  1  0.668382  0.994965  0.750000  1
  Sc  Sc3  1  0.332197  0.006279  0.250000  1
  Al  Al4  1  0.123872  0.125046  0.750000  1
  Al  Al5  1  0.878468  0.880087  0.250000  1
  Al  Al6  1  0.996983  0.327066  0.574691  1
  Al  Al7  1  0.003880  0.669099  0.416355  1
  Al  Al8  1  0.003880  0.669099  0.083645  1
  Al  Al9  1  0.334285  0.000364  0.925503  1
  Al  Al10  1  0.996983  0.327066  0.925309  1
  Al  Al11  1  0.668845  0.003873  0.079846  1
  Al  Al12  1  0.668845  0.003873  0.420154  1
  Al  Al13  1  0.334285  0.000364  0.574497  1
  Al  Al14  1  0.326690  0.326802  0.063622  1
  Al  Al15  1  0.669827  0.672724  0.944470  1
  Al  Al16  1  0.669827  0.672724  0.555530  1
  Al  Al17  1  0.326690  0.326802  0.436378  1
  Al  Al18  1  0.342698  0.549597  0.750000  1
  Al  Al19  1  0.658195  0.447647  0.250000  1
  Al  Al20  1  0.545879  0.337889  0.750000  1
  Al  Al21  1  0.448376  0.659566  0.250000  1
  Pd  Pd22  1  0.672994  0.328358  0.499543  1
  Pd  Pd23  1  0.327225  0.672226  0.499531  1
  Pd  Pd24  1  0.327225  0.672226  0.000469  1
  Pd  Pd25  1  0.672994  0.328358  0.000457  1
  Rh  Rh26  1  0.000571  0.999774  0.499183  1
  Rh  Rh27  1  0.000571  0.999774  0.000817  1
