# generated using pymatgen
data_HoMn(ReO4)6
_symmetry_space_group_name_H-M   'P 1'
_cell_length_a   10.48536800
_cell_length_b   10.48536745
_cell_length_c   5.99009800
_cell_angle_alpha   90.00000000
_cell_angle_beta   90.00000000
_cell_angle_gamma   119.99999542
_symmetry_Int_Tables_number   1
_chemical_formula_structural   HoMn(ReO4)6
_chemical_formula_sum   'Ho1 Mn1 Re6 O24'
_cell_volume   570.33747851
_cell_formula_units_Z   1
loop_
 _symmetry_equiv_pos_site_id
 _symmetry_equiv_pos_as_xyz
  1  'x, y, z'
loop_
 _atom_site_type_symbol
 _atom_site_label
 _atom_site_symmetry_multiplicity
 _atom_site_fract_x
 _atom_site_fract_y
 _atom_site_fract_z
 _atom_site_occupancy
  Ho  Ho0  1  0.666667  0.333333  0.750000  1
  Mn  Mn1  1  0.333333  0.666667  0.250000  1
  Re  Re2  1  0.098652  0.406979  0.750000  1
  Re  Re3  1  0.394419  0.293505  0.250000  1
  Re  Re4  1  0.593021  0.691672  0.750000  1
  Re  Re5  1  0.899085  0.605581  0.250000  1
  Re  Re6  1  0.308328  0.901348  0.750000  1
  Re  Re7  1  0.706495  0.100915  0.250000  1
  O  O8  1  0.481387  0.649052  0.509432  1
  O  O9  1  0.350948  0.832335  0.509432  1
  O  O10  1  0.833558  0.727747  0.250000  1
  O  O11  1  0.122704  0.845359  0.750000  1
  O  O12  1  0.272253  0.105811  0.250000  1
  O  O13  1  0.154641  0.277344  0.750000  1
  O  O14  1  0.508415  0.342544  0.010757  1
  O  O15  1  0.894189  0.166442  0.250000  1
  O  O16  1  0.090661  0.702724  0.250000  1
  O  O17  1  0.167665  0.518613  0.990568  1
  O  O18  1  0.167665  0.518613  0.509432  1
  O  O19  1  0.905174  0.318671  0.750000  1
  O  O20  1  0.297276  0.387938  0.250000  1
  O  O21  1  0.681329  0.586503  0.750000  1
  O  O22  1  0.834129  0.491585  0.489243  1
  O  O23  1  0.413497  0.094826  0.750000  1
  O  O24  1  0.657456  0.165871  0.010757  1
  O  O25  1  0.481387  0.649052  0.990568  1
  O  O26  1  0.350948  0.832335  0.990568  1
  O  O27  1  0.657456  0.165871  0.489243  1
  O  O28  1  0.508415  0.342544  0.489243  1
  O  O29  1  0.834129  0.491585  0.010757  1
  O  O30  1  0.722656  0.877296  0.750000  1
  O  O31  1  0.612062  0.909339  0.250000  1
