# generated using pymatgen
data_Er2Pa(SnIr)3
_symmetry_space_group_name_H-M   'P 1'
_cell_length_a   7.43112430
_cell_length_b   7.43112409
_cell_length_c   3.96575400
_cell_angle_alpha   90.00000000
_cell_angle_beta   90.00000000
_cell_angle_gamma   119.16286074
_symmetry_Int_Tables_number   1
_chemical_formula_structural   Er2Pa(SnIr)3
_chemical_formula_sum   'Er2 Pa1 Sn3 Ir3'
_cell_volume   191.23505226
_cell_formula_units_Z   1
loop_
 _symmetry_equiv_pos_site_id
 _symmetry_equiv_pos_as_xyz
  1  'x, y, z'
loop_
 _atom_site_type_symbol
 _atom_site_label
 _atom_site_symmetry_multiplicity
 _atom_site_fract_x
 _atom_site_fract_y
 _atom_site_fract_z
 _atom_site_occupancy
  Er  Er0  1  0.595209  0.000694  0.500000  1
  Er  Er1  1  0.000694  0.595209  0.500000  1
  Pa  Pa2  1  0.413246  0.413246  0.500000  1
  Sn  Sn3  1  0.755052  0.755052  0.000000  1
  Sn  Sn4  1  0.256569  0.986427  0.000000  1
  Sn  Sn5  1  0.986427  0.256569  0.000000  1
  Ir  Ir6  1  0.644855  0.335722  0.000000  1
  Ir  Ir7  1  0.335722  0.644855  0.000000  1
  Ir  Ir8  1  0.012227  0.012227  0.500000  1
