# generated using pymatgen
data_Pr3Ag2Hg3Ir
_symmetry_space_group_name_H-M   'P 1'
_cell_length_a   8.16264300
_cell_length_b   8.16264258
_cell_length_c   3.86396900
_cell_angle_alpha   90.00000000
_cell_angle_beta   90.00000000
_cell_angle_gamma   119.99999766
_symmetry_Int_Tables_number   1
_chemical_formula_structural   Pr3Ag2Hg3Ir
_chemical_formula_sum   'Pr3 Ag2 Hg3 Ir1'
_cell_volume   222.95943659
_cell_formula_units_Z   1
loop_
 _symmetry_equiv_pos_site_id
 _symmetry_equiv_pos_as_xyz
  1  'x, y, z'
loop_
 _atom_site_type_symbol
 _atom_site_label
 _atom_site_symmetry_multiplicity
 _atom_site_fract_x
 _atom_site_fract_y
 _atom_site_fract_z
 _atom_site_occupancy
  Pr  Pr0  1  0.388666  0.419762  0.500000  1
  Pr  Pr1  1  0.580238  0.968904  0.500000  1
  Pr  Pr2  1  0.031096  0.611334  0.500000  1
  Ag  Ag3  1  0.666667  0.333333  0.000000  1
  Ag  Ag4  1  0.000000  0.000000  0.500000  1
  Hg  Hg5  1  0.735062  0.724824  0.000000  1
  Hg  Hg6  1  0.275176  0.010238  0.000000  1
  Hg  Hg7  1  0.989762  0.264938  0.000000  1
  Ir  Ir8  1  0.333333  0.666667  0.000000  1
