# generated using pymatgen
data_Rb12Ga3FeSe12
_symmetry_space_group_name_H-M   'P 1'
_cell_length_a   10.81574930
_cell_length_b   10.81574970
_cell_length_c   13.73860077
_cell_angle_alpha   89.96078101
_cell_angle_beta   89.96077897
_cell_angle_gamma   140.53625188
_symmetry_Int_Tables_number   1
_chemical_formula_structural   Rb12Ga3FeSe12
_chemical_formula_sum   'Rb12 Ga3 Fe1 Se12'
_cell_volume   1021.48459456
_cell_formula_units_Z   1
loop_
 _symmetry_equiv_pos_site_id
 _symmetry_equiv_pos_as_xyz
  1  'x, y, z'
loop_
 _atom_site_type_symbol
 _atom_site_label
 _atom_site_symmetry_multiplicity
 _atom_site_fract_x
 _atom_site_fract_y
 _atom_site_fract_z
 _atom_site_occupancy
  Rb  Rb0  1  0.848757  0.848149  0.667575  1
  Rb  Rb1  1  0.151851  0.151243  0.332425  1
  Rb  Rb2  1  0.651381  0.651923  0.168225  1
  Rb  Rb3  1  0.348077  0.348619  0.831775  1
  Rb  Rb4  1  0.161151  0.516171  0.126569  1
  Rb  Rb5  1  0.483829  0.838849  0.873431  1
  Rb  Rb6  1  0.985806  0.339355  0.627138  1
  Rb  Rb7  1  0.660645  0.014194  0.372862  1
  Rb  Rb8  1  0.839851  0.484701  0.872523  1
  Rb  Rb9  1  0.515299  0.160149  0.127477  1
  Rb  Rb10  1  0.015455  0.660843  0.373282  1
  Rb  Rb11  1  0.339157  0.984545  0.626718  1
  Ga  Ga12  1  0.915789  0.084211  0.000000  1
  Ga  Ga13  1  0.417302  0.582698  0.500000  1
  Ga  Ga14  1  0.084023  0.915977  0.000000  1
  Fe  Fe15  1  0.581901  0.418099  0.500000  1
  Se  Se16  1  0.295017  0.294347  0.578611  1
  Se  Se17  1  0.705653  0.704983  0.421389  1
  Se  Se18  1  0.203240  0.203340  0.078338  1
  Se  Se19  1  0.796660  0.796760  0.921662  1
  Se  Se20  1  0.688109  0.989539  0.117965  1
  Se  Se21  1  0.010461  0.311891  0.882035  1
  Se  Se22  1  0.510225  0.809374  0.618389  1
  Se  Se23  1  0.190626  0.489775  0.381611  1
  Se  Se24  1  0.311633  0.010732  0.881777  1
  Se  Se25  1  0.989268  0.688367  0.118223  1
  Se  Se26  1  0.494343  0.195511  0.384486  1
  Se  Se27  1  0.804489  0.505657  0.615514  1
