# generated using pymatgen
data_Tb12Si11Tc
_symmetry_space_group_name_H-M   'P 1'
_cell_length_a   3.85744300
_cell_length_b   5.72937517
_cell_length_c   24.11964300
_cell_angle_alpha   82.55146433
_cell_angle_beta   90.00000000
_cell_angle_gamma   90.00000000
_symmetry_Int_Tables_number   1
_chemical_formula_structural   Tb12Si11Tc
_chemical_formula_sum   'Tb12 Si11 Tc1'
_cell_volume   528.56377925
_cell_formula_units_Z   1
loop_
 _symmetry_equiv_pos_site_id
 _symmetry_equiv_pos_as_xyz
  1  'x, y, z'
loop_
 _atom_site_type_symbol
 _atom_site_label
 _atom_site_symmetry_multiplicity
 _atom_site_fract_x
 _atom_site_fract_y
 _atom_site_fract_z
 _atom_site_occupancy
  Tb  Tb0  1  0.750000  0.349241  0.063113  1
  Tb  Tb1  1  0.250000  0.658552  0.938951  1
  Tb  Tb2  1  0.750000  0.523486  0.225886  1
  Tb  Tb3  1  0.250000  0.467787  0.772902  1
  Tb  Tb4  1  0.750000  0.166433  0.394257  1
  Tb  Tb5  1  0.250000  0.826462  0.606545  1
  Tb  Tb6  1  0.750000  0.351043  0.560148  1
  Tb  Tb7  1  0.250000  0.642884  0.440500  1
  Tb  Tb8  1  0.750000  0.992962  0.726498  1
  Tb  Tb9  1  0.250000  0.996734  0.273434  1
  Tb  Tb10  1  0.750000  0.168102  0.892088  1
  Tb  Tb11  1  0.250000  0.835510  0.106499  1
  Si  Si12  1  0.750000  0.877400  0.011337  1
  Si  Si13  1  0.250000  0.142289  0.986413  1
  Si  Si14  1  0.750000  0.061933  0.178221  1
  Si  Si15  1  0.250000  0.954722  0.820540  1
  Si  Si16  1  0.750000  0.703136  0.346496  1
  Si  Si17  1  0.250000  0.288952  0.653906  1
  Si  Si18  1  0.750000  0.863371  0.512363  1
  Si  Si19  1  0.250000  0.132412  0.488031  1
  Si  Si20  1  0.750000  0.530277  0.678927  1
  Si  Si21  1  0.250000  0.463832  0.321988  1
  Si  Si22  1  0.750000  0.682681  0.844918  1
  Tc  Tc23  1  0.250000  0.319801  0.156039  1
