# generated using pymatgen
data_Nb12Al8Co3NiN4
_symmetry_space_group_name_H-M   'P 1'
_cell_length_a   8.20746094
_cell_length_b   8.20746061
_cell_length_c   8.19922232
_cell_angle_alpha   59.96675782
_cell_angle_beta   59.96676110
_cell_angle_gamma   60.00000072
_symmetry_Int_Tables_number   1
_chemical_formula_structural   Nb12Al8Co3NiN4
_chemical_formula_sum   'Nb12 Al8 Co3 Ni1 N4'
_cell_volume   390.35245320
_cell_formula_units_Z   1
loop_
 _symmetry_equiv_pos_site_id
 _symmetry_equiv_pos_as_xyz
  1  'x, y, z'
loop_
 _atom_site_type_symbol
 _atom_site_label
 _atom_site_symmetry_multiplicity
 _atom_site_fract_x
 _atom_site_fract_y
 _atom_site_fract_z
 _atom_site_occupancy
  Nb  Nb0  1  0.811632  0.811632  0.188983  1
  Nb  Nb1  1  0.189300  0.189300  0.810334  1
  Nb  Nb2  1  0.811067  0.189300  0.810334  1
  Nb  Nb3  1  0.187753  0.811632  0.188983  1
  Nb  Nb4  1  0.189300  0.811067  0.810334  1
  Nb  Nb5  1  0.811632  0.187753  0.188983  1
  Nb  Nb6  1  0.438368  0.438368  0.061017  1
  Nb  Nb7  1  0.060700  0.060700  0.439666  1
  Nb  Nb8  1  0.438933  0.060700  0.439666  1
  Nb  Nb9  1  0.062247  0.438368  0.061017  1
  Nb  Nb10  1  0.060700  0.438933  0.439666  1
  Nb  Nb11  1  0.438368  0.062247  0.061017  1
  Al  Al12  1  0.747107  0.417432  0.418030  1
  Al  Al13  1  0.417432  0.747107  0.418030  1
  Al  Al14  1  0.418461  0.418461  0.744618  1
  Al  Al15  1  0.417432  0.417432  0.418030  1
  Al  Al16  1  0.502893  0.832568  0.831970  1
  Al  Al17  1  0.832568  0.502893  0.831970  1
  Al  Al18  1  0.831539  0.831539  0.505382  1
  Al  Al19  1  0.832568  0.832568  0.831970  1
  Co  Co20  1  0.125000  0.625000  0.625000  1
  Co  Co21  1  0.625000  0.125000  0.625000  1
  Co  Co22  1  0.625000  0.625000  0.625000  1
  Ni  Ni23  1  0.625000  0.625000  0.125000  1
  N  N24  1  0.625000  0.125000  0.125000  1
  N  N25  1  0.125000  0.625000  0.125000  1
  N  N26  1  0.125000  0.125000  0.625000  1
  N  N27  1  0.125000  0.125000  0.125000  1
