# generated using pymatgen
data_CaNd9(Ho5Si8)2
_symmetry_space_group_name_H-M   'P 1'
_cell_length_a   7.74880258
_cell_length_b   7.75523370
_cell_length_c   14.40527900
_cell_angle_alpha   89.86552324
_cell_angle_beta   90.23026173
_cell_angle_gamma   90.01756229
_symmetry_Int_Tables_number   1
_chemical_formula_structural   CaNd9(Ho5Si8)2
_chemical_formula_sum   'Ca1 Nd9 Ho10 Si16'
_cell_volume   865.65818022
_cell_formula_units_Z   1
loop_
 _symmetry_equiv_pos_site_id
 _symmetry_equiv_pos_as_xyz
  1  'x, y, z'
loop_
 _atom_site_type_symbol
 _atom_site_label
 _atom_site_symmetry_multiplicity
 _atom_site_fract_x
 _atom_site_fract_y
 _atom_site_fract_z
 _atom_site_occupancy
  Ca  Ca0  1  0.686510  0.682957  0.999629  1
  Nd  Nd1  1  0.010892  0.864306  0.125419  1
  Nd  Nd2  1  0.638142  0.990764  0.458680  1
  Nd  Nd3  1  0.363908  0.007451  0.954293  1
  Nd  Nd4  1  0.989195  0.639407  0.542445  1
  Nd  Nd5  1  0.491815  0.862610  0.207351  1
  Nd  Nd6  1  0.508928  0.139418  0.707602  1
  Nd  Nd7  1  0.861801  0.489769  0.791411  1
  Nd  Nd8  1  0.137596  0.510457  0.294393  1
  Nd  Nd9  1  0.010282  0.362211  0.043098  1
  Ho  Ho10  1  0.490088  0.363050  0.124140  1
  Ho  Ho11  1  0.990464  0.137088  0.625649  1
  Ho  Ho12  1  0.864285  0.007644  0.873792  1
  Ho  Ho13  1  0.137203  0.991369  0.375625  1
  Ho  Ho14  1  0.508900  0.636394  0.624095  1
  Ho  Ho15  1  0.365808  0.490355  0.873131  1
  Ho  Ho16  1  0.635373  0.510106  0.377972  1
  Ho  Ho17  1  0.315208  0.316557  0.500660  1
  Ho  Ho18  1  0.183666  0.814123  0.748438  1
  Ho  Ho19  1  0.812998  0.185119  0.250994  1
  Si  Si20  1  0.288643  0.934356  0.561425  1
  Si  Si21  1  0.709516  0.076954  0.061117  1
  Si  Si22  1  0.933118  0.289772  0.439449  1
  Si  Si23  1  0.434129  0.212709  0.312380  1
  Si  Si24  1  0.565659  0.789333  0.807421  1
  Si  Si25  1  0.210780  0.433309  0.688176  1
  Si  Si26  1  0.786650  0.561835  0.194083  1
  Si  Si27  1  0.075829  0.706898  0.934390  1
  Si  Si28  1  0.798239  0.844010  0.690388  1
  Si  Si29  1  0.202844  0.160886  0.195333  1
  Si  Si30  1  0.841348  0.797695  0.312346  1
  Si  Si31  1  0.344269  0.703885  0.440981  1
  Si  Si32  1  0.652715  0.289900  0.937333  1
  Si  Si33  1  0.703193  0.345807  0.560673  1
  Si  Si34  1  0.295085  0.649886  0.057381  1
  Si  Si35  1  0.154925  0.201604  0.808305  1
