# generated using pymatgen
data_Dy2P6Pb2N13
_symmetry_space_group_name_H-M   'P 1'
_cell_length_a   7.34268127
_cell_length_b   7.41264032
_cell_length_c   7.34268200
_cell_angle_alpha   109.41844741
_cell_angle_beta   109.19201867
_cell_angle_gamma   109.41846052
_symmetry_Int_Tables_number   1
_chemical_formula_structural   Dy2P6Pb2N13
_chemical_formula_sum   'Dy2 P6 Pb2 N13'
_cell_volume   309.10343176
_cell_formula_units_Z   1
loop_
 _symmetry_equiv_pos_site_id
 _symmetry_equiv_pos_as_xyz
  1  'x, y, z'
loop_
 _atom_site_type_symbol
 _atom_site_label
 _atom_site_symmetry_multiplicity
 _atom_site_fract_x
 _atom_site_fract_y
 _atom_site_fract_z
 _atom_site_occupancy
  Dy  Dy0  1  0.662442  0.000000  0.997934  1
  Dy  Dy1  1  0.997934  0.000000  0.662442  1
  P  P2  1  0.257352  0.749424  0.506876  1
  P  P3  1  0.757451  0.250576  0.507929  1
  P  P4  1  0.757276  0.500000  0.257276  1
  P  P5  1  0.257276  0.500000  0.757276  1
  P  P6  1  0.506876  0.749424  0.257352  1
  P  P7  1  0.507929  0.250576  0.757451  1
  Pb  Pb8  1  0.998953  0.729807  0.998953  1
  Pb  Pb9  1  0.269145  0.270193  0.269145  1
  N  N10  1  0.916622  0.000000  0.916622  1
  N  N11  1  0.720279  0.293316  0.299592  1
  N  N12  1  0.302066  0.714381  0.302066  1
  N  N13  1  0.315727  0.597972  0.604704  1
  N  N14  1  0.604704  0.597972  0.315727  1
  N  N15  1  0.426963  0.706684  0.006276  1
  N  N16  1  0.006276  0.706684  0.426963  1
  N  N17  1  0.587685  0.285619  0.587685  1
  N  N18  1  0.718693  0.000000  0.404274  1
  N  N19  1  0.404274  0.000000  0.718693  1
  N  N20  1  0.717755  0.402028  0.006732  1
  N  N21  1  0.299592  0.293316  0.720279  1
  N  N22  1  0.006732  0.402028  0.717755  1
