# generated using pymatgen
data_Er5TlHg3Pt2
_symmetry_space_group_name_H-M   'P 1'
_cell_length_a   3.62384400
_cell_length_b   7.97851947
_cell_length_c   18.20441100
_cell_angle_alpha   90.57191025
_cell_angle_beta   90.00000000
_cell_angle_gamma   90.00000000
_symmetry_Int_Tables_number   1
_chemical_formula_structural   Er5TlHg3Pt2
_chemical_formula_sum   'Er10 Tl2 Hg6 Pt4'
_cell_volume   526.31627414
_cell_formula_units_Z   2
loop_
 _symmetry_equiv_pos_site_id
 _symmetry_equiv_pos_as_xyz
  1  'x, y, z'
loop_
 _atom_site_type_symbol
 _atom_site_label
 _atom_site_symmetry_multiplicity
 _atom_site_fract_x
 _atom_site_fract_y
 _atom_site_fract_z
 _atom_site_occupancy
  Er  Er0  1  0.000000  0.107772  0.413502  1
  Er  Er1  1  0.000000  0.892228  0.586498  1
  Er  Er2  1  0.000000  0.388385  0.914258  1
  Er  Er3  1  0.000000  0.611615  0.085742  1
  Er  Er4  1  0.000000  0.234804  0.213288  1
  Er  Er5  1  0.000000  0.765196  0.786712  1
  Er  Er6  1  0.000000  0.253669  0.720604  1
  Er  Er7  1  0.000000  0.746331  0.279396  1
  Er  Er8  1  0.000000  0.000000  0.000000  1
  Er  Er9  1  0.000000  0.500000  0.500000  1
  Tl  Tl10  1  0.500000  0.424028  0.353018  1
  Tl  Tl11  1  0.500000  0.575972  0.646982  1
  Hg  Hg12  1  0.500000  0.079242  0.857007  1
  Hg  Hg13  1  0.500000  0.920758  0.142993  1
  Hg  Hg14  1  0.500000  0.288429  0.061311  1
  Hg  Hg15  1  0.500000  0.711571  0.938689  1
  Hg  Hg16  1  0.500000  0.211268  0.562787  1
  Hg  Hg17  1  0.500000  0.788732  0.437213  1
  Pt  Pt18  1  0.500000  0.027705  0.301466  1
  Pt  Pt19  1  0.500000  0.972295  0.698534  1
  Pt  Pt20  1  0.500000  0.474883  0.803728  1
  Pt  Pt21  1  0.500000  0.525117  0.196272  1
