# generated using pymatgen
data_Y8Ta11Si16Ru
_symmetry_space_group_name_H-M   'P 1'
_cell_length_a   6.82117208
_cell_length_b   7.05861825
_cell_length_c   13.34463200
_cell_angle_alpha   90.00000000
_cell_angle_beta   90.00000000
_cell_angle_gamma   89.84137386
_symmetry_Int_Tables_number   1
_chemical_formula_structural   Y8Ta11Si16Ru
_chemical_formula_sum   'Y8 Ta11 Si16 Ru1'
_cell_volume   642.51554285
_cell_formula_units_Z   1
loop_
 _symmetry_equiv_pos_site_id
 _symmetry_equiv_pos_as_xyz
  1  'x, y, z'
loop_
 _atom_site_type_symbol
 _atom_site_label
 _atom_site_symmetry_multiplicity
 _atom_site_fract_x
 _atom_site_fract_y
 _atom_site_fract_z
 _atom_site_occupancy
  Y  Y0  1  0.499810  0.327951  0.095217  1
  Y  Y1  1  0.000471  0.170588  0.404946  1
  Y  Y2  1  0.498662  0.670939  0.595328  1
  Y  Y3  1  0.998992  0.828928  0.904206  1
  Y  Y4  1  0.498662  0.670939  0.904672  1
  Y  Y5  1  0.998992  0.828928  0.595794  1
  Y  Y6  1  0.499810  0.327951  0.404783  1
  Y  Y7  1  0.000471  0.170588  0.095054  1
  Ta  Ta8  1  0.663844  0.010026  0.750000  1
  Ta  Ta9  1  0.164424  0.488448  0.750000  1
  Ta  Ta10  1  0.335780  0.990980  0.250000  1
  Ta  Ta11  1  0.838014  0.326564  0.624305  1
  Ta  Ta12  1  0.337725  0.174287  0.874385  1
  Ta  Ta13  1  0.164366  0.673243  0.126661  1
  Ta  Ta14  1  0.663133  0.828787  0.373700  1
  Ta  Ta15  1  0.164366  0.673243  0.373339  1
  Ta  Ta16  1  0.663133  0.828787  0.126300  1
  Ta  Ta17  1  0.838014  0.326564  0.875695  1
  Ta  Ta18  1  0.337725  0.174287  0.625615  1
  Si  Si19  1  0.797346  0.626797  0.750000  1
  Si  Si20  1  0.297794  0.872203  0.750000  1
  Si  Si21  1  0.194094  0.375796  0.250000  1
  Si  Si22  1  0.702193  0.130524  0.250000  1
  Si  Si23  1  0.542028  0.378224  0.750000  1
  Si  Si24  1  0.040463  0.121197  0.750000  1
  Si  Si25  1  0.466922  0.620495  0.250000  1
  Si  Si26  1  0.955313  0.874238  0.250000  1
  Si  Si27  1  0.665157  0.037832  0.541299  1
  Si  Si28  1  0.165043  0.462170  0.959525  1
  Si  Si29  1  0.335503  0.962481  0.041560  1
  Si  Si30  1  0.836064  0.539963  0.457250  1
  Si  Si31  1  0.335503  0.962481  0.458440  1
  Si  Si32  1  0.836064  0.539963  0.042750  1
  Si  Si33  1  0.665157  0.037832  0.958701  1
  Si  Si34  1  0.165043  0.462170  0.540475  1
  Ru  Ru35  1  0.833920  0.503600  0.250000  1
