# generated using pymatgen
data_Dy4YZr3(Co4As3)4
_symmetry_space_group_name_H-M   'P 1'
_cell_length_a   12.73745300
_cell_length_b   12.73745249
_cell_length_c   3.83543600
_cell_angle_alpha   90.00000000
_cell_angle_beta   90.00000000
_cell_angle_gamma   120.00000392
_symmetry_Int_Tables_number   1
_chemical_formula_structural   Dy4YZr3(Co4As3)4
_chemical_formula_sum   'Dy4 Y1 Zr3 Co16 As12'
_cell_volume   538.90290718
_cell_formula_units_Z   1
loop_
 _symmetry_equiv_pos_site_id
 _symmetry_equiv_pos_as_xyz
  1  'x, y, z'
loop_
 _atom_site_type_symbol
 _atom_site_label
 _atom_site_symmetry_multiplicity
 _atom_site_fract_x
 _atom_site_fract_y
 _atom_site_fract_z
 _atom_site_occupancy
  Dy  Dy0  1  0.182539  0.182540  0.500000  1
  Dy  Dy1  1  0.817460  0.999999  0.500000  1
  Dy  Dy2  1  0.000001  0.817461  0.500000  1
  Dy  Dy3  1  0.333333  0.666667  0.000000  1
  Y  Y4  1  0.666667  0.333333  0.000000  1
  Zr  Zr5  1  0.560529  0.560536  0.000000  1
  Zr  Zr6  1  0.439464  0.999993  0.000000  1
  Zr  Zr7  1  0.000007  0.439471  0.000000  1
  Co  Co8  1  0.719476  0.719475  0.500000  1
  Co  Co9  1  0.280525  0.000001  0.500000  1
  Co  Co10  1  0.999999  0.280524  0.500000  1
  Co  Co11  1  0.177408  0.373680  0.000000  1
  Co  Co12  1  0.626320  0.803728  0.000000  1
  Co  Co13  1  0.196272  0.822592  0.000000  1
  Co  Co14  1  0.803737  0.626340  0.000000  1
  Co  Co15  1  0.822603  0.196263  0.000000  1
  Co  Co16  1  0.373660  0.177397  0.000000  1
  Co  Co17  1  0.356634  0.479154  0.500000  1
  Co  Co18  1  0.520846  0.877481  0.500000  1
  Co  Co19  1  0.122519  0.643366  0.500000  1
  Co  Co20  1  0.877510  0.520872  0.500000  1
  Co  Co21  1  0.643363  0.122490  0.500000  1
  Co  Co22  1  0.479128  0.356637  0.500000  1
  Co  Co23  1  0.000000  0.000000  0.000000  1
  As  As24  1  0.822496  0.822496  0.000000  1
  As  As25  1  0.177504  0.000000  0.000000  1
  As  As26  1  0.000000  0.177504  0.000000  1
  As  As27  1  0.173226  0.481827  0.500000  1
  As  As28  1  0.518173  0.691399  0.500000  1
  As  As29  1  0.308601  0.826774  0.500000  1
  As  As30  1  0.691406  0.518223  0.500000  1
  As  As31  1  0.826817  0.308594  0.500000  1
  As  As32  1  0.481777  0.173183  0.500000  1
  As  As33  1  0.351542  0.351540  0.000000  1
  As  As34  1  0.648460  0.000002  0.000000  1
  As  As35  1  0.999998  0.648458  0.000000  1
