# generated using pymatgen
data_Er4Al18CuAgOs3Pd
_symmetry_space_group_name_H-M   'P 1'
_cell_length_a   7.56066979
_cell_length_b   7.56066950
_cell_length_c   9.45651300
_cell_angle_alpha   90.02612941
_cell_angle_beta   90.02612183
_cell_angle_gamma   119.22058032
_symmetry_Int_Tables_number   1
_chemical_formula_structural   Er4Al18CuAgOs3Pd
_chemical_formula_sum   'Er4 Al18 Cu1 Ag1 Os3 Pd1'
_cell_volume   471.78011247
_cell_formula_units_Z   1
loop_
 _symmetry_equiv_pos_site_id
 _symmetry_equiv_pos_as_xyz
  1  'x, y, z'
loop_
 _atom_site_type_symbol
 _atom_site_label
 _atom_site_symmetry_multiplicity
 _atom_site_fract_x
 _atom_site_fract_y
 _atom_site_fract_z
 _atom_site_occupancy
  Er  Er0  1  0.995632  0.673980  0.246509  1
  Er  Er1  1  0.006640  0.326700  0.752600  1
  Er  Er2  1  0.673300  0.993360  0.247400  1
  Er  Er3  1  0.326020  0.004368  0.753491  1
  Al  Al4  1  0.126635  0.128684  0.248853  1
  Al  Al5  1  0.871316  0.873365  0.751147  1
  Al  Al6  1  0.995469  0.329953  0.074400  1
  Al  Al7  1  0.995706  0.661642  0.924303  1
  Al  Al8  1  0.991828  0.668229  0.580247  1
  Al  Al9  1  0.331771  0.008172  0.419753  1
  Al  Al10  1  0.995417  0.327534  0.422071  1
  Al  Al11  1  0.672466  0.004583  0.577929  1
  Al  Al12  1  0.670047  0.004531  0.925600  1
  Al  Al13  1  0.338358  0.004294  0.075697  1
  Al  Al14  1  0.329003  0.326136  0.558494  1
  Al  Al15  1  0.673864  0.670997  0.441506  1
  Al  Al16  1  0.672922  0.666687  0.047797  1
  Al  Al17  1  0.333313  0.327078  0.952203  1
  Al  Al18  1  0.342161  0.548384  0.241688  1
  Al  Al19  1  0.656165  0.447765  0.754252  1
  Al  Al20  1  0.552235  0.343835  0.245748  1
  Al  Al21  1  0.451616  0.657839  0.758312  1
  Cu  Cu22  1  0.327190  0.672810  0.000000  1
  Ag  Ag23  1  0.326147  0.673853  0.500000  1
  Os  Os24  1  0.672594  0.327406  0.000000  1
  Os  Os25  1  0.001697  0.998303  0.000000  1
  Os  Os26  1  0.999547  0.000453  0.500000  1
  Pd  Pd27  1  0.670945  0.329055  0.500000  1
