# generated using pymatgen
data_Tl(BrO3)3
_symmetry_space_group_name_H-M   'P 1'
_cell_length_a   9.60433000
_cell_length_b   9.60432884
_cell_length_c   5.96762400
_cell_angle_alpha   90.00000000
_cell_angle_beta   90.00000000
_cell_angle_gamma   119.99999115
_symmetry_Int_Tables_number   1
_chemical_formula_structural   Tl(BrO3)3
_chemical_formula_sum   'Tl2 Br6 O18'
_cell_volume   476.72312274
_cell_formula_units_Z   2
loop_
 _symmetry_equiv_pos_site_id
 _symmetry_equiv_pos_as_xyz
  1  'x, y, z'
loop_
 _atom_site_type_symbol
 _atom_site_label
 _atom_site_symmetry_multiplicity
 _atom_site_fract_x
 _atom_site_fract_y
 _atom_site_fract_z
 _atom_site_occupancy
  Tl  Tl0  1  0.666667  0.333333  0.688862  1
  Tl  Tl1  1  0.333333  0.666667  0.188862  1
  Br  Br2  1  0.676948  0.016993  0.366848  1
  Br  Br3  1  0.323052  0.983007  0.866848  1
  Br  Br4  1  0.016993  0.340045  0.866848  1
  Br  Br5  1  0.340045  0.323052  0.366848  1
  Br  Br6  1  0.983007  0.659955  0.366848  1
  Br  Br7  1  0.659955  0.676948  0.866848  1
  O  O8  1  0.765877  0.827225  0.037085  1
  O  O9  1  0.938652  0.765877  0.537085  1
  O  O10  1  0.827225  0.061348  0.537085  1
  O  O11  1  0.172775  0.938652  0.037085  1
  O  O12  1  0.061348  0.234123  0.037085  1
  O  O13  1  0.234123  0.172775  0.537085  1
  O  O14  1  0.723452  0.541869  0.930194  1
  O  O15  1  0.181583  0.723452  0.430194  1
  O  O16  1  0.535629  0.427672  0.469151  1
  O  O17  1  0.107957  0.535629  0.969151  1
  O  O18  1  0.427672  0.892043  0.969151  1
  O  O19  1  0.572328  0.107957  0.469151  1
  O  O20  1  0.892043  0.464371  0.469151  1
  O  O21  1  0.464371  0.572328  0.969151  1
  O  O22  1  0.276548  0.458131  0.430194  1
  O  O23  1  0.818417  0.276548  0.930194  1
  O  O24  1  0.458131  0.181583  0.930194  1
  O  O25  1  0.541869  0.818417  0.430194  1
