# generated using pymatgen
data_Tb8Si12AgPt3
_symmetry_space_group_name_H-M   'P 1'
_cell_length_a   8.16565100
_cell_length_b   8.16564971
_cell_length_c   8.11172700
_cell_angle_alpha   90.00000000
_cell_angle_beta   90.00000000
_cell_angle_gamma   120.00000119
_symmetry_Int_Tables_number   1
_chemical_formula_structural   Tb8Si12AgPt3
_chemical_formula_sum   'Tb8 Si12 Ag1 Pt3'
_cell_volume   468.40930335
_cell_formula_units_Z   1
loop_
 _symmetry_equiv_pos_site_id
 _symmetry_equiv_pos_as_xyz
  1  'x, y, z'
loop_
 _atom_site_type_symbol
 _atom_site_label
 _atom_site_symmetry_multiplicity
 _atom_site_fract_x
 _atom_site_fract_y
 _atom_site_fract_z
 _atom_site_occupancy
  Tb  Tb0  1  0.502344  0.004691  0.247713  1
  Tb  Tb1  1  0.501452  0.002911  0.752255  1
  Tb  Tb2  1  0.995308  0.497656  0.247708  1
  Tb  Tb3  1  0.997089  0.498546  0.752259  1
  Tb  Tb4  1  0.502347  0.497657  0.247714  1
  Tb  Tb5  1  0.501454  0.498546  0.752254  1
  Tb  Tb6  1  0.999999  0.000002  0.249325  1
  Tb  Tb7  1  0.999999  0.000002  0.750539  1
  Si  Si8  1  0.165834  0.331667  0.998639  1
  Si  Si9  1  0.834597  0.669202  0.001252  1
  Si  Si10  1  0.668335  0.834165  0.998639  1
  Si  Si11  1  0.833486  0.666975  0.501496  1
  Si  Si12  1  0.330795  0.165405  0.001253  1
  Si  Si13  1  0.162061  0.324127  0.498653  1
  Si  Si14  1  0.165835  0.834161  0.998640  1
  Si  Si15  1  0.333018  0.166512  0.501496  1
  Si  Si16  1  0.834597  0.165407  0.001252  1
  Si  Si17  1  0.675874  0.837936  0.498655  1
  Si  Si18  1  0.833486  0.166517  0.501495  1
  Si  Si19  1  0.162061  0.837934  0.498654  1
  Ag  Ag20  1  0.333338  0.666682  0.499061  1
  Pt  Pt21  1  0.333315  0.666708  0.002579  1
  Pt  Pt22  1  0.666687  0.333292  0.998160  1
  Pt  Pt23  1  0.666690  0.333299  0.500307  1
