# generated using pymatgen
data_AlGa2RhSe6
_symmetry_space_group_name_H-M   'P 1'
_cell_length_a   10.41797500
_cell_length_b   3.81517800
_cell_length_c   12.70521200
_cell_angle_alpha   90.00000000
_cell_angle_beta   90.00000000
_cell_angle_gamma   90.00000000
_symmetry_Int_Tables_number   1
_chemical_formula_structural   AlGa2RhSe6
_chemical_formula_sum   'Al2 Ga4 Rh2 Se12'
_cell_volume   504.98680700
_cell_formula_units_Z   2
loop_
 _symmetry_equiv_pos_site_id
 _symmetry_equiv_pos_as_xyz
  1  'x, y, z'
loop_
 _atom_site_type_symbol
 _atom_site_label
 _atom_site_symmetry_multiplicity
 _atom_site_fract_x
 _atom_site_fract_y
 _atom_site_fract_z
 _atom_site_occupancy
  Al  Al0  1  0.896582  0.249999  0.111939  1
  Al  Al1  1  0.396581  0.249999  0.388061  1
  Ga  Ga2  1  0.261535  0.749999  0.207944  1
  Ga  Ga3  1  0.761534  0.749999  0.292056  1
  Ga  Ga4  1  0.245495  0.249999  0.708327  1
  Ga  Ga5  1  0.745495  0.249999  0.791673  1
  Rh  Rh6  1  0.595377  0.749999  0.603595  1
  Rh  Rh7  1  0.095378  0.749999  0.896405  1
  Se  Se8  1  0.070045  0.749999  0.095458  1
  Se  Se9  1  0.733203  0.749999  0.102022  1
  Se  Se10  1  0.406016  0.249999  0.184392  1
  Se  Se11  1  0.906016  0.249999  0.315608  1
  Se  Se12  1  0.233203  0.749999  0.397978  1
  Se  Se13  1  0.570045  0.749999  0.404542  1
  Se  Se14  1  0.436568  0.249999  0.590760  1
  Se  Se15  1  0.756972  0.249999  0.600657  1
  Se  Se16  1  0.098208  0.749999  0.696460  1
  Se  Se17  1  0.598208  0.749999  0.803539  1
  Se  Se18  1  0.256972  0.249999  0.899343  1
  Se  Se19  1  0.936568  0.249999  0.909240  1
