# generated using pymatgen
data_Y3Ho5(B6Os)4
_symmetry_space_group_name_H-M   'P 1'
_cell_length_a   3.64756600
_cell_length_b   9.14173541
_cell_length_c   11.52883138
_cell_angle_alpha   89.99518118
_cell_angle_beta   90.00000000
_cell_angle_gamma   90.00000000
_symmetry_Int_Tables_number   1
_chemical_formula_structural   Y3Ho5(B6Os)4
_chemical_formula_sum   'Y3 Ho5 B24 Os4'
_cell_volume   384.42984108
_cell_formula_units_Z   1
loop_
 _symmetry_equiv_pos_site_id
 _symmetry_equiv_pos_as_xyz
  1  'x, y, z'
loop_
 _atom_site_type_symbol
 _atom_site_label
 _atom_site_symmetry_multiplicity
 _atom_site_fract_x
 _atom_site_fract_y
 _atom_site_fract_z
 _atom_site_occupancy
  Y  Y0  1  0.000000  0.321920  0.413823  1
  Y  Y1  1  0.000000  0.678086  0.586271  1
  Y  Y2  1  0.000000  0.821973  0.086111  1
  Ho  Ho3  1  0.000000  0.177990  0.913830  1
  Ho  Ho4  1  0.000000  0.943663  0.372893  1
  Ho  Ho5  1  0.000000  0.056407  0.627085  1
  Ho  Ho6  1  0.000000  0.443552  0.126830  1
  Ho  Ho7  1  0.000000  0.556325  0.873095  1
  B  B8  1  0.500000  0.553602  0.433028  1
  B  B9  1  0.500000  0.446238  0.567220  1
  B  B10  1  0.500000  0.053906  0.066626  1
  B  B11  1  0.500000  0.946801  0.932960  1
  B  B12  1  0.500000  0.747698  0.419693  1
  B  B13  1  0.500000  0.252315  0.580501  1
  B  B14  1  0.500000  0.247607  0.079767  1
  B  B15  1  0.500000  0.752521  0.919742  1
  B  B16  1  0.500000  0.790682  0.266599  1
  B  B17  1  0.500000  0.209117  0.733798  1
  B  B18  1  0.500000  0.290606  0.233129  1
  B  B19  1  0.500000  0.709438  0.766741  1
  B  B20  1  0.500000  0.631259  0.185461  1
  B  B21  1  0.500000  0.368311  0.814820  1
  B  B22  1  0.500000  0.131264  0.314327  1
  B  B23  1  0.500000  0.868898  0.685646  1
  B  B24  1  0.500000  0.983000  0.213049  1
  B  B25  1  0.500000  0.017562  0.786995  1
  B  B26  1  0.500000  0.482817  0.286708  1
  B  B27  1  0.500000  0.516979  0.713403  1
  B  B28  1  0.500000  0.607565  0.029907  1
  B  B29  1  0.500000  0.391992  0.969969  1
  B  B30  1  0.500000  0.107327  0.470113  1
  B  B31  1  0.500000  0.892691  0.529823  1
  Os  Os32  1  0.000000  0.637253  0.321250  1
  Os  Os33  1  0.000000  0.362265  0.679042  1
  Os  Os34  1  0.000000  0.137302  0.178417  1
  Os  Os35  1  0.000000  0.863067  0.821329  1
