# generated using pymatgen
data_Y8Be3Si12Ag
_symmetry_space_group_name_H-M   'P 1'
_cell_length_a   7.96815400
_cell_length_b   7.96815555
_cell_length_c   8.12870600
_cell_angle_alpha   90.00000000
_cell_angle_beta   90.00000000
_cell_angle_gamma   120.00000186
_symmetry_Int_Tables_number   1
_chemical_formula_structural   Y8Be3Si12Ag
_chemical_formula_sum   'Y8 Be3 Si12 Ag1'
_cell_volume   446.95887222
_cell_formula_units_Z   1
loop_
 _symmetry_equiv_pos_site_id
 _symmetry_equiv_pos_as_xyz
  1  'x, y, z'
loop_
 _atom_site_type_symbol
 _atom_site_label
 _atom_site_symmetry_multiplicity
 _atom_site_fract_x
 _atom_site_fract_y
 _atom_site_fract_z
 _atom_site_occupancy
  Y  Y0  1  0.000000  0.000000  0.248402  1
  Y  Y1  1  0.000000  0.000000  0.751410  1
  Y  Y2  1  0.005727  0.502862  0.246777  1
  Y  Y3  1  0.497138  0.502862  0.246777  1
  Y  Y4  1  0.497602  0.995206  0.753200  1
  Y  Y5  1  0.497138  0.994273  0.246777  1
  Y  Y6  1  0.497602  0.502398  0.753200  1
  Y  Y7  1  0.004794  0.502398  0.753200  1
  Be  Be8  1  0.333333  0.666667  0.998985  1
  Be  Be9  1  0.333333  0.666667  0.500320  1
  Be  Be10  1  0.666667  0.333333  0.002023  1
  Si  Si11  1  0.173162  0.346323  0.999793  1
  Si  Si12  1  0.653677  0.826838  0.999793  1
  Si  Si13  1  0.173655  0.347311  0.500445  1
  Si  Si14  1  0.344072  0.172036  0.000042  1
  Si  Si15  1  0.173162  0.826838  0.999793  1
  Si  Si16  1  0.652689  0.826345  0.500445  1
  Si  Si17  1  0.827964  0.655928  0.000042  1
  Si  Si18  1  0.324103  0.162052  0.499583  1
  Si  Si19  1  0.173655  0.826345  0.500445  1
  Si  Si20  1  0.837948  0.675897  0.499583  1
  Si  Si21  1  0.827964  0.172036  0.000042  1
  Si  Si22  1  0.837948  0.162052  0.499583  1
  Ag  Ag23  1  0.666667  0.333333  0.499340  1
