# generated using pymatgen
data_Er6Al24Fe6RuAu
_symmetry_space_group_name_H-M   'P 1'
_cell_length_a   8.71014199
_cell_length_b   8.71656792
_cell_length_c   9.37182247
_cell_angle_alpha   90.14040945
_cell_angle_beta   89.94939132
_cell_angle_gamma   119.87520224
_symmetry_Int_Tables_number   1
_chemical_formula_structural   Er6Al24Fe6RuAu
_chemical_formula_sum   'Er6 Al24 Fe6 Ru1 Au1'
_cell_volume   616.97685659
_cell_formula_units_Z   1
loop_
 _symmetry_equiv_pos_site_id
 _symmetry_equiv_pos_as_xyz
  1  'x, y, z'
loop_
 _atom_site_type_symbol
 _atom_site_label
 _atom_site_symmetry_multiplicity
 _atom_site_fract_x
 _atom_site_fract_y
 _atom_site_fract_z
 _atom_site_occupancy
  Er  Er0  1  0.191644  0.386604  0.249534  1
  Er  Er1  1  0.808356  0.613396  0.750466  1
  Er  Er2  1  0.612953  0.808114  0.250326  1
  Er  Er3  1  0.387047  0.191886  0.749674  1
  Er  Er4  1  0.194387  0.805298  0.254399  1
  Er  Er5  1  0.805613  0.194702  0.745601  1
  Al  Al6  1  0.325151  0.675219  0.017160  1
  Al  Al7  1  0.674849  0.324781  0.982840  1
  Al  Al8  1  0.669631  0.339538  0.516073  1
  Al  Al9  1  0.330369  0.660462  0.483927  1
  Al  Al10  1  0.160031  0.320850  0.574389  1
  Al  Al11  1  0.839969  0.679150  0.425611  1
  Al  Al12  1  0.679506  0.837297  0.574927  1
  Al  Al13  1  0.853348  0.681800  0.077747  1
  Al  Al14  1  0.320494  0.162703  0.425073  1
  Al  Al15  1  0.146652  0.318200  0.922253  1
  Al  Al16  1  0.158145  0.835784  0.576520  1
  Al  Al17  1  0.317743  0.146882  0.077355  1
  Al  Al18  1  0.841855  0.164216  0.423480  1
  Al  Al19  1  0.682257  0.853118  0.922645  1
  Al  Al20  1  0.839920  0.160943  0.076488  1
  Al  Al21  1  0.160080  0.839057  0.923512  1
  Al  Al22  1  0.559916  0.119696  0.244304  1
  Al  Al23  1  0.440084  0.880304  0.755696  1
  Al  Al24  1  0.883036  0.441513  0.248850  1
  Al  Al25  1  0.116964  0.558487  0.751150  1
  Al  Al26  1  0.562764  0.437517  0.260965  1
  Al  Al27  1  0.437236  0.562483  0.739035  1
  Al  Al28  1  0.999647  0.000679  0.250434  1
  Al  Al29  1  0.000353  0.999321  0.749566  1
  Fe  Fe30  1  0.500000  0.000000  0.000000  1
  Fe  Fe31  1  0.000000  0.500000  0.000000  1
  Fe  Fe32  1  0.000000  0.500000  0.500000  1
  Fe  Fe33  1  0.500000  0.500000  0.500000  1
  Fe  Fe34  1  0.000000  0.000000  0.000000  1
  Fe  Fe35  1  0.000000  0.000000  0.500000  1
  Ru  Ru36  1  0.500000  0.000000  0.500000  1
  Au  Au37  1  0.500000  0.500000  0.000000  1
