# generated using pymatgen
data_Tb7Y(Si4W3)4
_symmetry_space_group_name_H-M   'P 1'
_cell_length_a   6.79721098
_cell_length_b   6.95266062
_cell_length_c   12.92699827
_cell_angle_alpha   89.99092619
_cell_angle_beta   89.99517716
_cell_angle_gamma   90.00592363
_symmetry_Int_Tables_number   1
_chemical_formula_structural   Tb7Y(Si4W3)4
_chemical_formula_sum   'Tb7 Y1 Si16 W12'
_cell_volume   610.91313505
_cell_formula_units_Z   1
loop_
 _symmetry_equiv_pos_site_id
 _symmetry_equiv_pos_as_xyz
  1  'x, y, z'
loop_
 _atom_site_type_symbol
 _atom_site_label
 _atom_site_symmetry_multiplicity
 _atom_site_fract_x
 _atom_site_fract_y
 _atom_site_fract_z
 _atom_site_occupancy
  Tb  Tb0  1  0.495527  0.667272  0.593572  1
  Tb  Tb1  1  0.995836  0.832772  0.906522  1
  Tb  Tb2  1  0.504453  0.332634  0.093568  1
  Tb  Tb3  1  0.004078  0.167523  0.406445  1
  Tb  Tb4  1  0.504417  0.332869  0.406483  1
  Tb  Tb5  1  0.004417  0.167403  0.093549  1
  Tb  Tb6  1  0.495710  0.667252  0.906499  1
  Y  Y7  1  0.995973  0.832253  0.593448  1
  Si  Si8  1  0.661055  0.957091  0.452880  1
  Si  Si9  1  0.161133  0.543069  0.047249  1
  Si  Si10  1  0.339337  0.043114  0.952655  1
  Si  Si11  1  0.838999  0.456928  0.547260  1
  Si  Si12  1  0.338782  0.042915  0.547192  1
  Si  Si13  1  0.839135  0.457019  0.952834  1
  Si  Si14  1  0.661013  0.956785  0.047370  1
  Si  Si15  1  0.160867  0.543196  0.452706  1
  Si  Si16  1  0.463500  0.369020  0.750165  1
  Si  Si17  1  0.963748  0.130370  0.749722  1
  Si  Si18  1  0.536337  0.630874  0.249962  1
  Si  Si19  1  0.036308  0.869579  0.250094  1
  Si  Si20  1  0.696763  0.867907  0.749891  1
  Si  Si21  1  0.196105  0.631681  0.749814  1
  Si  Si22  1  0.303519  0.132083  0.249986  1
  Si  Si23  1  0.803455  0.368600  0.250057  1
  W  W24  1  0.667667  0.163314  0.625870  1
  W  W25  1  0.167660  0.336220  0.874118  1
  W  W26  1  0.332256  0.836598  0.125796  1
  W  W27  1  0.832141  0.663622  0.374288  1
  W  W28  1  0.332012  0.836647  0.374185  1
  W  W29  1  0.832334  0.663692  0.125998  1
  W  W30  1  0.668108  0.163439  0.874252  1
  W  W31  1  0.167669  0.336553  0.625756  1
  W  W32  1  0.834091  0.498314  0.749942  1
  W  W33  1  0.333928  0.001114  0.749807  1
  W  W34  1  0.165770  0.501554  0.249973  1
  W  W35  1  0.665901  0.998724  0.250090  1
