# generated using pymatgen
data_LuHf2(ZnRh2)3
_symmetry_space_group_name_H-M   'P 1'
_cell_length_a   4.49555900
_cell_length_b   6.28150100
_cell_length_c   13.43999100
_cell_angle_alpha   90.00135707
_cell_angle_beta   90.00005535
_cell_angle_gamma   89.99620738
_symmetry_Int_Tables_number   1
_chemical_formula_structural   LuHf2(ZnRh2)3
_chemical_formula_sum   'Lu2 Hf4 Zn6 Rh12'
_cell_volume   379.53000166
_cell_formula_units_Z   2
loop_
 _symmetry_equiv_pos_site_id
 _symmetry_equiv_pos_as_xyz
  1  'x, y, z'
loop_
 _atom_site_type_symbol
 _atom_site_label
 _atom_site_symmetry_multiplicity
 _atom_site_fract_x
 _atom_site_fract_y
 _atom_site_fract_z
 _atom_site_occupancy
  Lu  Lu0  1  0.000024  0.500001  0.999558  1
  Lu  Lu1  1  0.500081  0.999956  0.167020  1
  Hf  Hf2  1  0.999837  0.499952  0.334009  1
  Hf  Hf3  1  0.499947  0.000011  0.500418  1
  Hf  Hf4  1  0.000094  0.500017  0.666279  1
  Hf  Hf5  1  0.500053  0.000052  0.832683  1
  Zn  Zn6  1  0.999978  0.999979  0.000250  1
  Zn  Zn7  1  0.500018  0.499984  0.166459  1
  Zn  Zn8  1  0.999840  0.999990  0.333939  1
  Zn  Zn9  1  0.499960  0.500002  0.501306  1
  Zn  Zn10  1  0.000096  0.000041  0.665381  1
  Zn  Zn11  1  0.500059  0.500027  0.832681  1
  Rh  Rh12  1  0.500024  0.245632  0.995357  1
  Rh  Rh13  1  0.499988  0.754335  0.995356  1
  Rh  Rh14  1  0.000002  0.254376  0.171293  1
  Rh  Rh15  1  0.000043  0.745566  0.171306  1
  Rh  Rh16  1  0.499856  0.253866  0.338288  1
  Rh  Rh17  1  0.499875  0.746091  0.338292  1
  Rh  Rh18  1  0.999966  0.249123  0.500774  1
  Rh  Rh19  1  0.999938  0.750884  0.500761  1
  Rh  Rh20  1  0.500084  0.251042  0.665923  1
  Rh  Rh21  1  0.500091  0.749030  0.665915  1
  Rh  Rh22  1  0.000087  0.246081  0.828369  1
  Rh  Rh23  1  0.000060  0.753970  0.828381  1
