# generated using pymatgen
data_Tb2Sc5Sn23Os6
_symmetry_space_group_name_H-M   'P 1'
_cell_length_a   9.75541195
_cell_length_b   9.81952876
_cell_length_c   9.95673561
_cell_angle_alpha   89.99999720
_cell_angle_beta   89.83800491
_cell_angle_gamma   120.21765769
_symmetry_Int_Tables_number   1
_chemical_formula_structural   Tb2Sc5Sn23Os6
_chemical_formula_sum   'Tb2 Sc5 Sn23 Os6'
_cell_volume   824.18524530
_cell_formula_units_Z   1
loop_
 _symmetry_equiv_pos_site_id
 _symmetry_equiv_pos_as_xyz
  1  'x, y, z'
loop_
 _atom_site_type_symbol
 _atom_site_label
 _atom_site_symmetry_multiplicity
 _atom_site_fract_x
 _atom_site_fract_y
 _atom_site_fract_z
 _atom_site_occupancy
  Tb  Tb0  1  0.001819  0.000909  0.000915  1
  Tb  Tb1  1  0.971932  0.485967  0.693820  1
  Sc  Sc2  1  0.490854  0.508462  0.301204  1
  Sc  Sc3  1  0.509974  0.491277  0.698786  1
  Sc  Sc4  1  0.490854  0.982391  0.301204  1
  Sc  Sc5  1  0.509974  0.018698  0.698786  1
  Sc  Sc6  1  0.018601  0.509300  0.303855  1
  Sn  Sn7  1  0.351535  0.001302  0.000456  1
  Sn  Sn8  1  0.649419  0.998927  0.000260  1
  Sn  Sn9  1  0.000667  0.350354  0.000339  1
  Sn  Sn10  1  0.000667  0.650313  0.000339  1
  Sn  Sn11  1  0.649419  0.650492  0.000260  1
  Sn  Sn12  1  0.351535  0.350233  0.000456  1
  Sn  Sn13  1  0.333125  0.666563  0.828279  1
  Sn  Sn14  1  0.667428  0.333714  0.172935  1
  Sn  Sn15  1  0.001195  0.000597  0.499152  1
  Sn  Sn16  1  0.774779  0.221247  0.465657  1
  Sn  Sn17  1  0.227906  0.779867  0.530449  1
  Sn  Sn18  1  0.774779  0.553532  0.465657  1
  Sn  Sn19  1  0.227906  0.448039  0.530449  1
  Sn  Sn20  1  0.448280  0.224140  0.467681  1
  Sn  Sn21  1  0.552991  0.776495  0.532216  1
  Sn  Sn22  1  0.333072  0.666536  0.146071  1
  Sn  Sn23  1  0.655608  0.327804  0.860156  1
  Sn  Sn24  1  0.120810  0.877923  0.280736  1
  Sn  Sn25  1  0.880106  0.118607  0.719498  1
  Sn  Sn26  1  0.120810  0.242888  0.280736  1
  Sn  Sn27  1  0.880106  0.761498  0.719498  1
  Sn  Sn28  1  0.756372  0.878186  0.279340  1
  Sn  Sn29  1  0.245525  0.122762  0.720234  1
  Os  Os30  1  0.827289  0.170809  0.204790  1
  Os  Os31  1  0.174343  0.831577  0.795027  1
  Os  Os32  1  0.827289  0.656480  0.204790  1
  Os  Os33  1  0.174343  0.342767  0.795027  1
  Os  Os34  1  0.342620  0.171310  0.205810  1
  Os  Os35  1  0.656067  0.828034  0.795130  1
