# generated using pymatgen
data_Ba8MnCdGa4(S3F2)4
_symmetry_space_group_name_H-M   'P 1'
_cell_length_a   9.99511800
_cell_length_b   9.99511867
_cell_length_c   12.97184700
_cell_angle_alpha   90.00000000
_cell_angle_beta   90.00000000
_cell_angle_gamma   143.68779340
_symmetry_Int_Tables_number   1
_chemical_formula_structural   Ba8MnCdGa4(S3F2)4
_chemical_formula_sum   'Ba8 Mn1 Cd1 Ga4 S12 F8'
_cell_volume   767.42333668
_cell_formula_units_Z   1
loop_
 _symmetry_equiv_pos_site_id
 _symmetry_equiv_pos_as_xyz
  1  'x, y, z'
loop_
 _atom_site_type_symbol
 _atom_site_label
 _atom_site_symmetry_multiplicity
 _atom_site_fract_x
 _atom_site_fract_y
 _atom_site_fract_z
 _atom_site_occupancy
  Ba  Ba0  1  0.063716  0.407360  0.374529  1
  Ba  Ba1  1  0.592640  0.936284  0.625471  1
  Ba  Ba2  1  0.093068  0.436536  0.874700  1
  Ba  Ba3  1  0.563464  0.906932  0.125300  1
  Ba  Ba4  1  0.936284  0.592640  0.625471  1
  Ba  Ba5  1  0.407360  0.063716  0.374529  1
  Ba  Ba6  1  0.906932  0.563464  0.125300  1
  Ba  Ba7  1  0.436536  0.093068  0.874700  1
  Mn  Mn8  1  0.000000  0.000000  0.000000  1
  Cd  Cd9  1  0.500000  0.500000  0.500000  1
  Ga  Ga10  1  0.854162  0.854162  0.324731  1
  Ga  Ga11  1  0.145838  0.145838  0.675269  1
  Ga  Ga12  1  0.644860  0.644860  0.828283  1
  Ga  Ga13  1  0.355140  0.355140  0.171717  1
  S  S14  1  0.225611  0.225611  0.339110  1
  S  S15  1  0.774389  0.774389  0.660890  1
  S  S16  1  0.271578  0.271578  0.843742  1
  S  S17  1  0.728422  0.728422  0.156258  1
  S  S18  1  0.831952  0.628116  0.393534  1
  S  S19  1  0.371884  0.168048  0.606466  1
  S  S20  1  0.876305  0.676261  0.897800  1
  S  S21  1  0.323739  0.123695  0.102200  1
  S  S22  1  0.168048  0.371884  0.606466  1
  S  S23  1  0.628116  0.831952  0.393534  1
  S  S24  1  0.123695  0.323739  0.102200  1
  S  S25  1  0.676261  0.876305  0.897800  1
  F  F26  1  0.747428  0.252572  0.500000  1
  F  F27  1  0.247578  0.752422  0.000000  1
  F  F28  1  0.252572  0.747428  0.500000  1
  F  F29  1  0.752422  0.247578  0.000000  1
  F  F30  1  0.234012  0.734026  0.249987  1
  F  F31  1  0.265974  0.765988  0.750013  1
  F  F32  1  0.765988  0.265974  0.750013  1
  F  F33  1  0.734026  0.234012  0.249987  1
