# generated using pymatgen
data_YEr2Fe7B2
_symmetry_space_group_name_H-M   'P 1'
_cell_length_a   7.79609613
_cell_length_b   7.79609622
_cell_length_c   7.79609600
_cell_angle_alpha   38.38359342
_cell_angle_beta   38.38359260
_cell_angle_gamma   38.38359085
_symmetry_Int_Tables_number   1
_chemical_formula_structural   YEr2Fe7B2
_chemical_formula_sum   'Y1 Er2 Fe7 B2'
_cell_volume   164.10421432
_cell_formula_units_Z   1
loop_
 _symmetry_equiv_pos_site_id
 _symmetry_equiv_pos_as_xyz
  1  'x, y, z'
loop_
 _atom_site_type_symbol
 _atom_site_label
 _atom_site_symmetry_multiplicity
 _atom_site_fract_x
 _atom_site_fract_y
 _atom_site_fract_z
 _atom_site_occupancy
  Y  Y0  1  0.356316  0.356316  0.356316  1
  Er  Er1  1  0.500148  0.500148  0.500148  1
  Er  Er2  1  0.643567  0.643567  0.643567  1
  Fe  Fe3  1  0.999885  0.999885  0.999885  1
  Fe  Fe4  1  0.573587  0.066496  0.066498  1
  Fe  Fe5  1  0.066496  0.573587  0.066498  1
  Fe  Fe6  1  0.933300  0.933300  0.426932  1
  Fe  Fe7  1  0.066497  0.066497  0.573588  1
  Fe  Fe8  1  0.933300  0.426933  0.933299  1
  Fe  Fe9  1  0.426933  0.933300  0.933299  1
  B  B10  1  0.167964  0.167964  0.167964  1
  B  B11  1  0.832006  0.832006  0.832006  1
