# generated using pymatgen
data_La3Pr7(Si2Sn)2
_symmetry_space_group_name_H-M   'P 1'
_cell_length_a   8.02992190
_cell_length_b   9.23020790
_cell_length_c   8.02992190
_cell_angle_alpha   115.85327102
_cell_angle_beta   89.87377717
_cell_angle_gamma   115.83683116
_symmetry_Int_Tables_number   1
_chemical_formula_structural   La3Pr7(Si2Sn)2
_chemical_formula_sum   'La3 Pr7 Si4 Sn2'
_cell_volume   468.91211669
_cell_formula_units_Z   1
loop_
 _symmetry_equiv_pos_site_id
 _symmetry_equiv_pos_as_xyz
  1  'x, y, z'
loop_
 _atom_site_type_symbol
 _atom_site_label
 _atom_site_symmetry_multiplicity
 _atom_site_fract_x
 _atom_site_fract_y
 _atom_site_fract_z
 _atom_site_occupancy
  La  La0  1  0.999437  0.999558  0.999760  1
  La  La1  1  0.499798  0.999558  0.500121  1
  La  La2  1  0.535020  0.719278  0.684260  1
  Pr  Pr3  1  0.185049  0.721240  0.036193  1
  Pr  Pr4  1  0.685703  0.720886  0.185272  1
  Pr  Pr5  1  0.035616  0.720886  0.535185  1
  Pr  Pr6  1  0.464867  0.280401  0.315533  1
  Pr  Pr7  1  0.814688  0.278846  0.964156  1
  Pr  Pr8  1  0.314845  0.278912  0.815109  1
  Pr  Pr9  1  0.963801  0.278912  0.464066  1
  Si  Si10  1  0.885562  0.000502  0.614940  1
  Si  Si11  1  0.115937  0.000643  0.384705  1
  Si  Si12  1  0.615831  0.001178  0.116926  1
  Si  Si13  1  0.384252  0.001178  0.885347  1
  Sn  Sn14  1  0.751084  0.499011  0.750500  1
  Sn  Sn15  1  0.248511  0.499011  0.247927  1
