# generated using pymatgen
data_Nd4TlZn8Cd3
_symmetry_space_group_name_H-M   'P 1'
_cell_length_a   4.59050300
_cell_length_b   7.45682506
_cell_length_c   10.13117100
_cell_angle_alpha   90.03058869
_cell_angle_beta   90.00000000
_cell_angle_gamma   90.00000000
_symmetry_Int_Tables_number   1
_chemical_formula_structural   Nd4TlZn8Cd3
_chemical_formula_sum   'Nd4 Tl1 Zn8 Cd3'
_cell_volume   346.79578791
_cell_formula_units_Z   1
loop_
 _symmetry_equiv_pos_site_id
 _symmetry_equiv_pos_as_xyz
  1  'x, y, z'
loop_
 _atom_site_type_symbol
 _atom_site_label
 _atom_site_symmetry_multiplicity
 _atom_site_fract_x
 _atom_site_fract_y
 _atom_site_fract_z
 _atom_site_occupancy
  Nd  Nd0  1  0.250000  0.314652  0.673473  1
  Nd  Nd1  1  0.250000  0.813191  0.826683  1
  Nd  Nd2  1  0.750000  0.685618  0.325192  1
  Nd  Nd3  1  0.750000  0.186128  0.172679  1
  Tl  Tl4  1  0.750000  0.978627  0.597677  1
  Zn  Zn5  1  0.250000  0.899507  0.145626  1
  Zn  Zn6  1  0.250000  0.400420  0.352872  1
  Zn  Zn7  1  0.750000  0.101398  0.859884  1
  Zn  Zn8  1  0.750000  0.594958  0.646894  1
  Zn  Zn9  1  0.250000  0.184802  0.964992  1
  Zn  Zn10  1  0.250000  0.677739  0.533899  1
  Zn  Zn11  1  0.750000  0.815320  0.035138  1
  Zn  Zn12  1  0.750000  0.321519  0.463514  1
  Cd  Cd13  1  0.250000  0.524670  0.095084  1
  Cd  Cd14  1  0.250000  0.025029  0.401581  1
  Cd  Cd15  1  0.750000  0.476421  0.904811  1
