# generated using pymatgen
data_Ba2Sr3Ta2Nb2O15
_symmetry_space_group_name_H-M   'P 1'
_cell_length_a   5.78044800
_cell_length_b   5.78044780
_cell_length_c   23.77758400
_cell_angle_alpha   90.00000000
_cell_angle_beta   90.00000000
_cell_angle_gamma   120.00001261
_symmetry_Int_Tables_number   1
_chemical_formula_structural   Ba2Sr3Ta2Nb2O15
_chemical_formula_sum   'Ba4 Sr6 Ta4 Nb4 O30'
_cell_volume   688.05203415
_cell_formula_units_Z   2
loop_
 _symmetry_equiv_pos_site_id
 _symmetry_equiv_pos_as_xyz
  1  'x, y, z'
loop_
 _atom_site_type_symbol
 _atom_site_label
 _atom_site_symmetry_multiplicity
 _atom_site_fract_x
 _atom_site_fract_y
 _atom_site_fract_z
 _atom_site_occupancy
  Ba  Ba0  1  0.333333  0.666667  0.534917  1
  Ba  Ba1  1  0.666667  0.333333  0.465083  1
  Ba  Ba2  1  0.666667  0.333333  0.965083  1
  Ba  Ba3  1  0.333333  0.666667  0.034917  1
  Sr  Sr4  1  0.333333  0.666667  0.857598  1
  Sr  Sr5  1  0.666667  0.333333  0.142402  1
  Sr  Sr6  1  0.666667  0.333333  0.642402  1
  Sr  Sr7  1  0.333333  0.666667  0.357598  1
  Sr  Sr8  1  0.000000  0.000000  0.750000  1
  Sr  Sr9  1  0.000000  0.000000  0.250000  1
  Ta  Ta10  1  0.333333  0.666667  0.699520  1
  Ta  Ta11  1  0.666667  0.333333  0.300480  1
  Ta  Ta12  1  0.666667  0.333333  0.800480  1
  Ta  Ta13  1  0.333333  0.666667  0.199520  1
  Nb  Nb14  1  0.000000  0.000000  0.595366  1
  Nb  Nb15  1  0.000000  0.000000  0.404634  1
  Nb  Nb16  1  0.000000  0.000000  0.904634  1
  Nb  Nb17  1  0.000000  0.000000  0.095366  1
  O  O18  1  0.458102  0.000000  0.750000  1
  O  O19  1  0.541898  0.000000  0.250000  1
  O  O20  1  0.000000  0.458102  0.750000  1
  O  O21  1  0.000000  0.541898  0.250000  1
  O  O22  1  0.541898  0.541898  0.750000  1
  O  O23  1  0.458102  0.458102  0.250000  1
  O  O24  1  0.331642  0.127992  0.559494  1
  O  O25  1  0.668358  0.872008  0.440506  1
  O  O26  1  0.872008  0.203651  0.559494  1
  O  O27  1  0.127992  0.331642  0.940506  1
  O  O28  1  0.127992  0.796349  0.440506  1
  O  O29  1  0.872008  0.668358  0.059494  1
  O  O30  1  0.796349  0.668358  0.559494  1
  O  O31  1  0.203651  0.872008  0.940506  1
  O  O32  1  0.203651  0.331642  0.440506  1
  O  O33  1  0.796349  0.127992  0.059494  1
  O  O34  1  0.668358  0.796349  0.940506  1
  O  O35  1  0.331642  0.203651  0.059494  1
  O  O36  1  0.210417  0.335416  0.656651  1
  O  O37  1  0.789583  0.664584  0.343349  1
  O  O38  1  0.664584  0.875001  0.656651  1
  O  O39  1  0.335416  0.210417  0.843349  1
  O  O40  1  0.335416  0.124999  0.343349  1
  O  O41  1  0.664584  0.789583  0.156651  1
  O  O42  1  0.124999  0.789583  0.656651  1
  O  O43  1  0.875001  0.664584  0.843349  1
  O  O44  1  0.875001  0.210417  0.343349  1
  O  O45  1  0.124999  0.335416  0.156651  1
  O  O46  1  0.789583  0.124999  0.843349  1
  O  O47  1  0.210417  0.875001  0.156651  1
