# generated using pymatgen
data_EuThZn5Sn
_symmetry_space_group_name_H-M   'P 1'
_cell_length_a   8.61571242
_cell_length_b   8.61571141
_cell_length_c   9.12732900
_cell_angle_alpha   90.00000000
_cell_angle_beta   90.00000000
_cell_angle_gamma   149.39047829
_symmetry_Int_Tables_number   1
_chemical_formula_structural   EuThZn5Sn
_chemical_formula_sum   'Eu2 Th2 Zn10 Sn2'
_cell_volume   344.98576575
_cell_formula_units_Z   2
loop_
 _symmetry_equiv_pos_site_id
 _symmetry_equiv_pos_as_xyz
  1  'x, y, z'
loop_
 _atom_site_type_symbol
 _atom_site_label
 _atom_site_symmetry_multiplicity
 _atom_site_fract_x
 _atom_site_fract_y
 _atom_site_fract_z
 _atom_site_occupancy
  Eu  Eu0  1  0.000000  0.000000  0.500000  1
  Eu  Eu1  1  0.000000  0.000000  0.000000  1
  Th  Th2  1  0.206424  0.793576  0.250000  1
  Th  Th3  1  0.793576  0.206424  0.750000  1
  Zn  Zn4  1  0.813246  0.186754  0.391071  1
  Zn  Zn5  1  0.186754  0.813246  0.608929  1
  Zn  Zn6  1  0.813246  0.186754  0.108929  1
  Zn  Zn7  1  0.186754  0.813246  0.891071  1
  Zn  Zn8  1  0.658908  0.341092  0.483958  1
  Zn  Zn9  1  0.341092  0.658908  0.516042  1
  Zn  Zn10  1  0.658908  0.341092  0.016042  1
  Zn  Zn11  1  0.341092  0.658908  0.983958  1
  Zn  Zn12  1  0.395122  0.604878  0.250000  1
  Zn  Zn13  1  0.604878  0.395122  0.750000  1
  Sn  Sn14  1  0.557991  0.442009  0.250000  1
  Sn  Sn15  1  0.442009  0.557991  0.750000  1
