# generated using pymatgen
data_YErZn5Sn
_symmetry_space_group_name_H-M   'P 1'
_cell_length_a   8.35558600
_cell_length_b   8.35558592
_cell_length_c   8.99940900
_cell_angle_alpha   90.00000000
_cell_angle_beta   90.00000000
_cell_angle_gamma   149.75766971
_symmetry_Int_Tables_number   1
_chemical_formula_structural   YErZn5Sn
_chemical_formula_sum   'Y2 Er2 Zn10 Sn2'
_cell_volume   316.44908247
_cell_formula_units_Z   2
loop_
 _symmetry_equiv_pos_site_id
 _symmetry_equiv_pos_as_xyz
  1  'x, y, z'
loop_
 _atom_site_type_symbol
 _atom_site_label
 _atom_site_symmetry_multiplicity
 _atom_site_fract_x
 _atom_site_fract_y
 _atom_site_fract_z
 _atom_site_occupancy
  Y  Y0  1  0.000000  0.000000  0.500000  1
  Y  Y1  1  0.000000  0.000000  0.000000  1
  Er  Er2  1  0.203059  0.796941  0.250000  1
  Er  Er3  1  0.796941  0.203059  0.750000  1
  Zn  Zn4  1  0.813056  0.186944  0.390888  1
  Zn  Zn5  1  0.186944  0.813056  0.609112  1
  Zn  Zn6  1  0.813056  0.186944  0.109112  1
  Zn  Zn7  1  0.186944  0.813056  0.890888  1
  Zn  Zn8  1  0.656761  0.343239  0.481369  1
  Zn  Zn9  1  0.343239  0.656761  0.518631  1
  Zn  Zn10  1  0.656761  0.343239  0.018631  1
  Zn  Zn11  1  0.343239  0.656761  0.981369  1
  Zn  Zn12  1  0.392301  0.607699  0.250000  1
  Zn  Zn13  1  0.607699  0.392301  0.750000  1
  Sn  Sn14  1  0.554121  0.445879  0.250000  1
  Sn  Sn15  1  0.445879  0.554121  0.750000  1
