# generated using pymatgen
data_Er6MnFeB14
_symmetry_space_group_name_H-M   'P 1'
_cell_length_a   7.95077842
_cell_length_b   7.95077843
_cell_length_c   9.23117500
_cell_angle_alpha   90.00000000
_cell_angle_beta   90.00000000
_cell_angle_gamma   155.24508605
_symmetry_Int_Tables_number   1
_chemical_formula_structural   Er6MnFeB14
_chemical_formula_sum   'Er6 Mn1 Fe1 B14'
_cell_volume   244.35333367
_cell_formula_units_Z   1
loop_
 _symmetry_equiv_pos_site_id
 _symmetry_equiv_pos_as_xyz
  1  'x, y, z'
loop_
 _atom_site_type_symbol
 _atom_site_label
 _atom_site_symmetry_multiplicity
 _atom_site_fract_x
 _atom_site_fract_y
 _atom_site_fract_z
 _atom_site_occupancy
  Er  Er0  1  0.895239  0.104761  0.438933  1
  Er  Er1  1  0.104817  0.895183  0.559155  1
  Er  Er2  1  0.895239  0.104761  0.061067  1
  Er  Er3  1  0.104817  0.895183  0.940845  1
  Er  Er4  1  0.242355  0.757645  0.250000  1
  Er  Er5  1  0.757103  0.242897  0.750000  1
  Mn  Mn6  1  0.053146  0.946854  0.250000  1
  Fe  Fe7  1  0.946200  0.053800  0.750000  1
  B  B8  1  0.727822  0.272178  0.467237  1
  B  B9  1  0.272588  0.727412  0.533686  1
  B  B10  1  0.727822  0.272178  0.032763  1
  B  B11  1  0.272588  0.727412  0.966314  1
  B  B12  1  0.630624  0.369376  0.152901  1
  B  B13  1  0.369745  0.630255  0.847014  1
  B  B14  1  0.630624  0.369376  0.347099  1
  B  B15  1  0.369745  0.630255  0.652986  1
  B  B16  1  0.521038  0.478962  0.097762  1
  B  B17  1  0.478987  0.521013  0.902144  1
  B  B18  1  0.521038  0.478962  0.402238  1
  B  B19  1  0.478987  0.521013  0.597856  1
  B  B20  1  0.457599  0.542401  0.250000  1
  B  B21  1  0.541877  0.458123  0.750000  1
