# generated using pymatgen
data_BaNi11B6Rh
_symmetry_space_group_name_H-M   'P 1'
_cell_length_a   6.18192168
_cell_length_b   6.10562923
_cell_length_c   6.18192172
_cell_angle_alpha   104.48997757
_cell_angle_beta   104.50544271
_cell_angle_gamma   104.48997882
_symmetry_Int_Tables_number   1
_chemical_formula_structural   BaNi11B6Rh
_chemical_formula_sum   'Ba1 Ni11 B6 Rh1'
_cell_volume   206.16601996
_cell_formula_units_Z   1
loop_
 _symmetry_equiv_pos_site_id
 _symmetry_equiv_pos_as_xyz
  1  'x, y, z'
loop_
 _atom_site_type_symbol
 _atom_site_label
 _atom_site_symmetry_multiplicity
 _atom_site_fract_x
 _atom_site_fract_y
 _atom_site_fract_z
 _atom_site_occupancy
  Ba  Ba0  1  0.998927  0.000000  0.001073  1
  Ni  Ni1  1  0.193037  0.463991  0.461317  1
  Ni  Ni2  1  0.507890  0.870477  0.135732  1
  Ni  Ni3  1  0.463780  0.186035  0.464472  1
  Ni  Ni4  1  0.535528  0.813965  0.536220  1
  Ni  Ni5  1  0.806034  0.533738  0.531442  1
  Ni  Ni6  1  0.538683  0.536009  0.806963  1
  Ni  Ni7  1  0.498099  0.134989  0.867432  1
  Ni  Ni8  1  0.862649  0.500000  0.137351  1
  Ni  Ni9  1  0.132568  0.865011  0.501901  1
  Ni  Ni10  1  0.468558  0.466262  0.193966  1
  Ni  Ni11  1  0.864268  0.129523  0.492110  1
  B  B12  1  0.768165  0.768413  0.351077  1
  B  B13  1  0.233553  0.653848  0.238434  1
  B  B14  1  0.230301  0.228193  0.644757  1
  B  B15  1  0.648923  0.231587  0.231835  1
  B  B16  1  0.355243  0.771807  0.769699  1
  B  B17  1  0.761566  0.346152  0.766447  1
  Rh  Rh18  1  0.132228  0.500000  0.867772  1
