# generated using pymatgen
data_YbU2(GaIr)3
_symmetry_space_group_name_H-M   'P 1'
_cell_length_a   7.01723800
_cell_length_b   7.09722488
_cell_length_c   3.91699800
_cell_angle_alpha   90.00000000
_cell_angle_beta   90.00000000
_cell_angle_gamma   119.62787176
_symmetry_Int_Tables_number   1
_chemical_formula_structural   YbU2(GaIr)3
_chemical_formula_sum   'Yb1 U2 Ga3 Ir3'
_cell_volume   169.57237151
_cell_formula_units_Z   1
loop_
 _symmetry_equiv_pos_site_id
 _symmetry_equiv_pos_as_xyz
  1  'x, y, z'
loop_
 _atom_site_type_symbol
 _atom_site_label
 _atom_site_symmetry_multiplicity
 _atom_site_fract_x
 _atom_site_fract_y
 _atom_site_fract_z
 _atom_site_occupancy
  Yb  Yb0  1  0.412011  0.000000  0.500000  1
  U  U1  1  0.001631  0.418282  0.500000  1
  U  U2  1  0.583348  0.581718  0.500000  1
  Ga  Ga3  1  0.735565  0.000000  0.000000  1
  Ga  Ga4  1  0.017937  0.771645  0.000000  1
  Ga  Ga5  1  0.246292  0.228355  0.000000  1
  Ir  Ir6  1  0.329202  0.631305  0.000000  1
  Ir  Ir7  1  0.697899  0.368695  0.000000  1
  Ir  Ir8  1  0.976115  0.000000  0.500000  1
