# generated using pymatgen
data_Y2Zn2Ru2C
_symmetry_space_group_name_H-M   'P 1'
_cell_length_a   5.79062135
_cell_length_b   5.79062126
_cell_length_c   7.23304790
_cell_angle_alpha   122.31975983
_cell_angle_beta   122.31975627
_cell_angle_gamma   38.40743076
_symmetry_Int_Tables_number   1
_chemical_formula_structural   Y2Zn2Ru2C
_chemical_formula_sum   'Y2 Zn2 Ru2 C1'
_cell_volume   124.20103492
_cell_formula_units_Z   1
loop_
 _symmetry_equiv_pos_site_id
 _symmetry_equiv_pos_as_xyz
  1  'x, y, z'
loop_
 _atom_site_type_symbol
 _atom_site_label
 _atom_site_symmetry_multiplicity
 _atom_site_fract_x
 _atom_site_fract_y
 _atom_site_fract_z
 _atom_site_occupancy
  Y  Y0  1  0.566682  0.566682  0.286064  1
  Y  Y1  1  0.433318  0.433318  0.713937  1
  Zn  Zn2  1  0.864056  0.864056  0.334465  1
  Zn  Zn3  1  0.135944  0.135944  0.665536  1
  Ru  Ru4  1  0.193985  0.193985  0.070421  1
  Ru  Ru5  1  0.806015  0.806015  0.929580  1
  C  C6  1  0.000000  0.000000  0.000000  1
