# generated using pymatgen
data_Yb5Ho3Sc12Si15Pt
_symmetry_space_group_name_H-M   'P 1'
_cell_length_a   7.09932448
_cell_length_b   7.46322996
_cell_length_c   14.12443894
_cell_angle_alpha   89.86406968
_cell_angle_beta   89.95622247
_cell_angle_gamma   90.12642524
_symmetry_Int_Tables_number   1
_chemical_formula_structural   Yb5Ho3Sc12Si15Pt
_chemical_formula_sum   'Yb5 Ho3 Sc12 Si15 Pt1'
_cell_volume   748.36358518
_cell_formula_units_Z   1
loop_
 _symmetry_equiv_pos_site_id
 _symmetry_equiv_pos_as_xyz
  1  'x, y, z'
loop_
 _atom_site_type_symbol
 _atom_site_label
 _atom_site_symmetry_multiplicity
 _atom_site_fract_x
 _atom_site_fract_y
 _atom_site_fract_z
 _atom_site_occupancy
  Yb  Yb0  1  0.009084  0.174171  0.094909  1
  Yb  Yb1  1  0.992155  0.829482  0.905633  1
  Yb  Yb2  1  0.490449  0.674664  0.906584  1
  Yb  Yb3  1  0.990893  0.826111  0.593216  1
  Yb  Yb4  1  0.508771  0.327395  0.094946  1
  Ho  Ho5  1  0.013931  0.177130  0.405339  1
  Ho  Ho6  1  0.515410  0.323450  0.405649  1
  Ho  Ho7  1  0.483182  0.679118  0.593684  1
  Sc  Sc8  1  0.153398  0.510449  0.750971  1
  Sc  Sc9  1  0.841977  0.490471  0.248768  1
  Sc  Sc10  1  0.341841  0.009893  0.249169  1
  Sc  Sc11  1  0.666360  0.991070  0.749866  1
  Sc  Sc12  1  0.322206  0.171612  0.623736  1
  Sc  Sc13  1  0.673158  0.825533  0.376654  1
  Sc  Sc14  1  0.175752  0.678735  0.376970  1
  Sc  Sc15  1  0.676880  0.827826  0.125213  1
  Sc  Sc16  1  0.826559  0.322713  0.625053  1
  Sc  Sc17  1  0.320519  0.170906  0.873812  1
  Sc  Sc18  1  0.825814  0.323236  0.873367  1
  Sc  Sc19  1  0.173783  0.676318  0.125990  1
  Si  Si20  1  0.968941  0.880689  0.253414  1
  Si  Si21  1  0.471339  0.617311  0.253283  1
  Si  Si22  1  0.522407  0.386516  0.747707  1
  Si  Si23  1  0.287795  0.871810  0.746693  1
  Si  Si24  1  0.720448  0.122184  0.254821  1
  Si  Si25  1  0.220582  0.379848  0.255100  1
  Si  Si26  1  0.770930  0.618014  0.746401  1
  Si  Si27  1  0.157086  0.463050  0.536819  1
  Si  Si28  1  0.848109  0.530986  0.458755  1
  Si  Si29  1  0.349039  0.969880  0.457638  1
  Si  Si30  1  0.851737  0.537662  0.040722  1
  Si  Si31  1  0.654959  0.035016  0.537964  1
  Si  Si32  1  0.148320  0.465046  0.959727  1
  Si  Si33  1  0.649312  0.037312  0.960171  1
  Si  Si34  1  0.351007  0.964857  0.042674  1
  Pt  Pt35  1  0.025867  0.109535  0.748582  1
