# generated using pymatgen
data_La5Nb3(As3Rh4)4
_symmetry_space_group_name_H-M   'P 1'
_cell_length_a   13.23645000
_cell_length_b   13.23645054
_cell_length_c   3.98799900
_cell_angle_alpha   90.00000000
_cell_angle_beta   90.00000000
_cell_angle_gamma   120.00000365
_symmetry_Int_Tables_number   1
_chemical_formula_structural   La5Nb3(As3Rh4)4
_chemical_formula_sum   'La5 Nb3 As12 Rh16'
_cell_volume   605.10218482
_cell_formula_units_Z   1
loop_
 _symmetry_equiv_pos_site_id
 _symmetry_equiv_pos_as_xyz
  1  'x, y, z'
loop_
 _atom_site_type_symbol
 _atom_site_label
 _atom_site_symmetry_multiplicity
 _atom_site_fract_x
 _atom_site_fract_y
 _atom_site_fract_z
 _atom_site_occupancy
  La  La0  1  0.187417  0.187417  0.500000  1
  La  La1  1  0.812583  0.000000  0.500000  1
  La  La2  1  0.000000  0.812583  0.500000  1
  La  La3  1  0.333333  0.666667  0.000000  1
  La  La4  1  0.666667  0.333333  0.000000  1
  Nb  Nb5  1  0.554595  0.554595  0.000000  1
  Nb  Nb6  1  0.445405  0.000000  0.000000  1
  Nb  Nb7  1  0.000000  0.445405  0.000000  1
  As  As8  1  0.821755  0.821755  0.000000  1
  As  As9  1  0.178245  0.000000  0.000000  1
  As  As10  1  0.000000  0.178245  0.000000  1
  As  As11  1  0.163895  0.483274  0.500000  1
  As  As12  1  0.516726  0.680621  0.500000  1
  As  As13  1  0.319379  0.836105  0.500000  1
  As  As14  1  0.680621  0.516726  0.500000  1
  As  As15  1  0.836105  0.319379  0.500000  1
  As  As16  1  0.483274  0.163895  0.500000  1
  As  As17  1  0.362986  0.362986  0.000000  1
  As  As18  1  0.637014  0.000000  0.000000  1
  As  As19  1  0.000000  0.637014  0.000000  1
  Rh  Rh20  1  0.717876  0.717876  0.500000  1
  Rh  Rh21  1  0.282124  0.000000  0.500000  1
  Rh  Rh22  1  0.000000  0.282124  0.500000  1
  Rh  Rh23  1  0.176335  0.375463  0.000000  1
  Rh  Rh24  1  0.624537  0.800870  0.000000  1
  Rh  Rh25  1  0.199130  0.823665  0.000000  1
  Rh  Rh26  1  0.800870  0.624537  0.000000  1
  Rh  Rh27  1  0.823665  0.199130  0.000000  1
  Rh  Rh28  1  0.375463  0.176335  0.000000  1
  Rh  Rh29  1  0.353382  0.481685  0.500000  1
  Rh  Rh30  1  0.518315  0.871699  0.500000  1
  Rh  Rh31  1  0.128301  0.646618  0.500000  1
  Rh  Rh32  1  0.871699  0.518315  0.500000  1
  Rh  Rh33  1  0.646618  0.128301  0.500000  1
  Rh  Rh34  1  0.481685  0.353382  0.500000  1
  Rh  Rh35  1  0.000000  0.000000  0.000000  1
