# generated using pymatgen
data_ErHg4Te2Cl5
_symmetry_space_group_name_H-M   'P 1'
_cell_length_a   8.68387891
_cell_length_b   10.72716900
_cell_length_c   9.38691900
_cell_angle_alpha   90.00000000
_cell_angle_beta   113.03532867
_cell_angle_gamma   90.00000000
_symmetry_Int_Tables_number   1
_chemical_formula_structural   ErHg4Te2Cl5
_chemical_formula_sum   'Er2 Hg8 Te4 Cl10'
_cell_volume   804.70049546
_cell_formula_units_Z   2
loop_
 _symmetry_equiv_pos_site_id
 _symmetry_equiv_pos_as_xyz
  1  'x, y, z'
loop_
 _atom_site_type_symbol
 _atom_site_label
 _atom_site_symmetry_multiplicity
 _atom_site_fract_x
 _atom_site_fract_y
 _atom_site_fract_z
 _atom_site_occupancy
  Er  Er0  1  0.499460  0.428940  0.494914  1
  Er  Er1  1  0.500540  0.928940  0.505086  1
  Hg  Hg2  1  0.936973  0.179820  0.333612  1
  Hg  Hg3  1  0.063027  0.679820  0.666388  1
  Hg  Hg4  1  0.970009  0.667606  0.361635  1
  Hg  Hg5  1  0.029991  0.167606  0.638365  1
  Hg  Hg6  1  0.491667  0.185707  0.990000  1
  Hg  Hg7  1  0.508333  0.685707  0.010000  1
  Hg  Hg8  1  0.799111  0.433299  0.982005  1
  Hg  Hg9  1  0.200889  0.933299  0.017995  1
  Te  Te10  1  0.810716  0.179715  0.010010  1
  Te  Te11  1  0.189284  0.679715  0.989990  1
  Te  Te12  1  0.169223  0.183587  0.961241  1
  Te  Te13  1  0.830777  0.683587  0.038759  1
  Cl  Cl14  1  0.819504  0.927258  0.673205  1
  Cl  Cl15  1  0.180496  0.427258  0.326795  1
  Cl  Cl16  1  0.824757  0.434740  0.680597  1
  Cl  Cl17  1  0.175243  0.934740  0.319403  1
  Cl  Cl18  1  0.439288  0.452476  0.750567  1
  Cl  Cl19  1  0.560712  0.952476  0.249433  1
  Cl  Cl20  1  0.589425  0.401161  0.264736  1
  Cl  Cl21  1  0.410575  0.901161  0.735264  1
  Cl  Cl22  1  0.497455  0.179291  0.536015  1
  Cl  Cl23  1  0.502545  0.679291  0.463985  1
