# generated using pymatgen
data_Pr8Si12IrPt3
_symmetry_space_group_name_H-M   'P 1'
_cell_length_a   8.27019300
_cell_length_b   8.27019391
_cell_length_c   8.67298100
_cell_angle_alpha   90.00000000
_cell_angle_beta   90.00000000
_cell_angle_gamma   120.00000034
_symmetry_Int_Tables_number   1
_chemical_formula_structural   Pr8Si12IrPt3
_chemical_formula_sum   'Pr8 Si12 Ir1 Pt3'
_cell_volume   513.72460001
_cell_formula_units_Z   1
loop_
 _symmetry_equiv_pos_site_id
 _symmetry_equiv_pos_as_xyz
  1  'x, y, z'
loop_
 _atom_site_type_symbol
 _atom_site_label
 _atom_site_symmetry_multiplicity
 _atom_site_fract_x
 _atom_site_fract_y
 _atom_site_fract_z
 _atom_site_occupancy
  Pr  Pr0  1  0.500833  0.499167  0.752483  1
  Pr  Pr1  1  0.501604  0.498396  0.247641  1
  Pr  Pr2  1  0.998336  0.499167  0.752483  1
  Pr  Pr3  1  0.996793  0.498396  0.247641  1
  Pr  Pr4  1  0.500833  0.001664  0.752483  1
  Pr  Pr5  1  0.501604  0.003207  0.247641  1
  Pr  Pr6  1  0.000000  0.000000  0.749833  1
  Pr  Pr7  1  0.000000  0.000000  0.249919  1
  Si  Si8  1  0.832424  0.167576  0.000511  1
  Si  Si9  1  0.165359  0.834641  0.999488  1
  Si  Si10  1  0.335152  0.167576  0.000511  1
  Si  Si11  1  0.166027  0.833973  0.500732  1
  Si  Si12  1  0.669281  0.834641  0.999488  1
  Si  Si13  1  0.834365  0.165635  0.499120  1
  Si  Si14  1  0.832424  0.664848  0.000511  1
  Si  Si15  1  0.667947  0.833973  0.500732  1
  Si  Si16  1  0.165359  0.330719  0.999488  1
  Si  Si17  1  0.331271  0.165635  0.499120  1
  Si  Si18  1  0.166027  0.332053  0.500732  1
  Si  Si19  1  0.834365  0.668729  0.499120  1
  Ir  Ir20  1  0.666667  0.333333  0.997917  1
  Pt  Pt21  1  0.333333  0.666667  0.002229  1
  Pt  Pt22  1  0.333333  0.666667  0.498303  1
  Pt  Pt23  1  0.666667  0.333333  0.501877  1
