# generated using pymatgen
data_Er4TiCo4
_symmetry_space_group_name_H-M   'P 1'
_cell_length_a   5.60368383
_cell_length_b   5.60368390
_cell_length_c   8.92860942
_cell_angle_alpha   71.78909645
_cell_angle_beta   71.78909816
_cell_angle_gamma   40.14598930
_symmetry_Int_Tables_number   1
_chemical_formula_structural   Er4TiCo4
_chemical_formula_sum   'Er4 Ti1 Co4'
_cell_volume   170.46544131
_cell_formula_units_Z   1
loop_
 _symmetry_equiv_pos_site_id
 _symmetry_equiv_pos_as_xyz
  1  'x, y, z'
loop_
 _atom_site_type_symbol
 _atom_site_label
 _atom_site_symmetry_multiplicity
 _atom_site_fract_x
 _atom_site_fract_y
 _atom_site_fract_z
 _atom_site_occupancy
  Er  Er0  1  0.741424  0.741424  0.665992  1
  Er  Er1  1  0.258576  0.258576  0.334008  1
  Er  Er2  1  0.390860  0.390860  0.891409  1
  Er  Er3  1  0.609140  0.609140  0.108591  1
  Ti  Ti4  1  0.500000  0.500000  0.500000  1
  Co  Co5  1  0.034126  0.034126  0.646061  1
  Co  Co6  1  0.965874  0.965874  0.353939  1
  Co  Co7  1  0.091554  0.091554  0.878898  1
  Co  Co8  1  0.908446  0.908446  0.121102  1
