# generated using pymatgen
data_Sr13La7Si15P
_symmetry_space_group_name_H-M   'P 1'
_cell_length_a   8.18920114
_cell_length_b   8.21332690
_cell_length_c   15.54687400
_cell_angle_alpha   90.16410253
_cell_angle_beta   89.94982107
_cell_angle_gamma   90.01322363
_symmetry_Int_Tables_number   1
_chemical_formula_structural   Sr13La7Si15P
_chemical_formula_sum   'Sr13 La7 Si15 P1'
_cell_volume   1045.68713893
_cell_formula_units_Z   1
loop_
 _symmetry_equiv_pos_site_id
 _symmetry_equiv_pos_as_xyz
  1  'x, y, z'
loop_
 _atom_site_type_symbol
 _atom_site_label
 _atom_site_symmetry_multiplicity
 _atom_site_fract_x
 _atom_site_fract_y
 _atom_site_fract_z
 _atom_site_occupancy
  Sr  Sr0  1  0.308192  0.307442  0.000194  1
  Sr  Sr1  1  0.188417  0.809049  0.250138  1
  Sr  Sr2  1  0.814591  0.187948  0.751665  1
  Sr  Sr3  1  0.688671  0.690139  0.498925  1
  Sr  Sr4  1  0.372602  0.010885  0.451717  1
  Sr  Sr5  1  0.488979  0.873932  0.704005  1
  Sr  Sr6  1  0.511633  0.127905  0.203831  1
  Sr  Sr7  1  0.868556  0.486173  0.294402  1
  Sr  Sr8  1  0.128643  0.512878  0.796754  1
  Sr  Sr9  1  0.629590  0.984687  0.955117  1
  Sr  Sr10  1  0.011744  0.372914  0.545483  1
  Sr  Sr11  1  0.988397  0.629134  0.046619  1
  Sr  Sr12  1  0.132697  0.984018  0.874605  1
  La  La13  1  0.510933  0.627133  0.125652  1
  La  La14  1  0.489086  0.371238  0.624564  1
  La  La15  1  0.627969  0.512043  0.873893  1
  La  La16  1  0.370467  0.488834  0.375272  1
  La  La17  1  0.872183  0.010832  0.375060  1
  La  La18  1  0.988287  0.128730  0.124440  1
  La  La19  1  0.011615  0.874031  0.625217  1
  Si  Si20  1  0.353251  0.705528  0.949561  1
  Si  Si21  1  0.651899  0.289316  0.446320  1
  Si  Si22  1  0.707843  0.348347  0.054191  1
  Si  Si23  1  0.289548  0.654519  0.555100  1
  Si  Si24  1  0.790164  0.848029  0.197331  1
  Si  Si25  1  0.151429  0.209469  0.304402  1
  Si  Si26  1  0.839554  0.790987  0.799456  1
  Si  Si27  1  0.278460  0.910219  0.057493  1
  Si  Si28  1  0.586486  0.775976  0.305165  1
  Si  Si29  1  0.414675  0.225595  0.800858  1
  Si  Si30  1  0.776505  0.584159  0.692901  1
  Si  Si31  1  0.222545  0.412112  0.196841  1
  Si  Si32  1  0.724873  0.087684  0.554855  1
  Si  Si33  1  0.911733  0.283818  0.945816  1
  Si  Si34  1  0.085602  0.724757  0.447069  1
  P  P35  1  0.212179  0.159537  0.695091  1
