# generated using pymatgen
data_Y6Er4Si5Pb
_symmetry_space_group_name_H-M   'P 1'
_cell_length_a   8.51818800
_cell_length_b   8.55015056
_cell_length_c   6.36917100
_cell_angle_alpha   90.00000000
_cell_angle_beta   90.00000000
_cell_angle_gamma   119.87640895
_symmetry_Int_Tables_number   1
_chemical_formula_structural   Y6Er4Si5Pb
_chemical_formula_sum   'Y6 Er4 Si5 Pb1'
_cell_volume   402.22961385
_cell_formula_units_Z   1
loop_
 _symmetry_equiv_pos_site_id
 _symmetry_equiv_pos_as_xyz
  1  'x, y, z'
loop_
 _atom_site_type_symbol
 _atom_site_label
 _atom_site_symmetry_multiplicity
 _atom_site_fract_x
 _atom_site_fract_y
 _atom_site_fract_z
 _atom_site_occupancy
  Y  Y0  1  0.988040  0.746470  0.750000  1
  Y  Y1  1  0.998044  0.243326  0.250000  1
  Y  Y2  1  0.754718  0.756674  0.250000  1
  Y  Y3  1  0.766288  0.000000  0.750000  1
  Y  Y4  1  0.241569  0.253530  0.750000  1
  Y  Y5  1  0.241439  0.000000  0.250000  1
  Er  Er6  1  0.330930  0.655764  0.496142  1
  Er  Er7  1  0.675168  0.344236  0.003858  1
  Er  Er8  1  0.675168  0.344236  0.496142  1
  Er  Er9  1  0.330930  0.655764  0.003858  1
  Si  Si10  1  0.394058  0.392419  0.250000  1
  Si  Si11  1  0.001638  0.607581  0.250000  1
  Si  Si12  1  0.998112  0.394825  0.750000  1
  Si  Si13  1  0.603287  0.605175  0.750000  1
  Si  Si14  1  0.605106  0.000000  0.250000  1
  Pb  Pb15  1  0.395504  0.000000  0.750000  1
