# generated using pymatgen
data_Ho11TmInCo4Ni
_symmetry_space_group_name_H-M   'P 1'
_cell_length_a   8.24773432
_cell_length_b   8.24744912
_cell_length_c   8.24773502
_cell_angle_alpha   110.73997772
_cell_angle_beta   110.86899029
_cell_angle_gamma   106.83773947
_symmetry_Int_Tables_number   1
_chemical_formula_structural   Ho11TmInCo4Ni
_chemical_formula_sum   'Ho11 Tm1 In1 Co4 Ni1'
_cell_volume   431.19570675
_cell_formula_units_Z   1
loop_
 _symmetry_equiv_pos_site_id
 _symmetry_equiv_pos_as_xyz
  1  'x, y, z'
loop_
 _atom_site_type_symbol
 _atom_site_label
 _atom_site_symmetry_multiplicity
 _atom_site_fract_x
 _atom_site_fract_y
 _atom_site_fract_z
 _atom_site_occupancy
  Ho  Ho0  1  0.684731  0.380270  0.695539  1
  Ho  Ho1  1  0.315221  0.010044  0.694825  1
  Ho  Ho2  1  0.684197  0.988672  0.304474  1
  Ho  Ho3  1  0.186321  0.291940  0.477277  1
  Ho  Ho4  1  0.812977  0.708351  0.522043  1
  Ho  Ho5  1  0.186307  0.708351  0.895374  1
  Ho  Ho6  1  0.814662  0.291940  0.105619  1
  Ho  Ho7  1  0.407704  0.213196  0.195316  1
  Ho  Ho8  1  0.591641  0.787019  0.803739  1
  Ho  Ho9  1  0.017880  0.213196  0.805491  1
  Ho  Ho10  1  0.983279  0.787019  0.195378  1
  Tm  Tm11  1  0.315870  0.621786  0.305917  1
  In  In12  1  0.499721  0.500151  0.000430  1
  Co  Co13  1  0.113156  0.612691  0.499535  1
  Co  Co14  1  0.887634  0.387647  0.500013  1
  Co  Co15  1  0.376930  0.998931  0.377117  1
  Co  Co16  1  0.621813  0.998931  0.622000  1
  Ni  Ni17  1  0.999956  0.999868  0.999912  1
