# generated using pymatgen
data_YbTm(Ga3Ni)6
_symmetry_space_group_name_H-M   'P 1'
_cell_length_a   10.09986215
_cell_length_b   10.09986165
_cell_length_c   10.09986300
_cell_angle_alpha   42.31111461
_cell_angle_beta   42.31111771
_cell_angle_gamma   42.31111702
_symmetry_Int_Tables_number   1
_chemical_formula_structural   YbTm(Ga3Ni)6
_chemical_formula_sum   'Yb1 Tm1 Ga18 Ni6'
_cell_volume   422.56312215
_cell_formula_units_Z   1
loop_
 _symmetry_equiv_pos_site_id
 _symmetry_equiv_pos_as_xyz
  1  'x, y, z'
loop_
 _atom_site_type_symbol
 _atom_site_label
 _atom_site_symmetry_multiplicity
 _atom_site_fract_x
 _atom_site_fract_y
 _atom_site_fract_z
 _atom_site_occupancy
  Yb  Yb0  1  0.833194  0.833194  0.833194  1
  Tm  Tm1  1  0.166715  0.166715  0.166715  1
  Ga  Ga2  1  0.103016  0.435024  0.763421  1
  Ga  Ga3  1  0.435024  0.763421  0.103016  1
  Ga  Ga4  1  0.567807  0.895252  0.235504  1
  Ga  Ga5  1  0.948319  0.948319  0.948319  1
  Ga  Ga6  1  0.050675  0.050675  0.050675  1
  Ga  Ga7  1  0.291796  0.710480  0.497694  1
  Ga  Ga8  1  0.895252  0.235504  0.567807  1
  Ga  Ga9  1  0.386424  0.386424  0.386424  1
  Ga  Ga10  1  0.497694  0.291796  0.710480  1
  Ga  Ga11  1  0.235504  0.567807  0.895252  1
  Ga  Ga12  1  0.717824  0.717824  0.717824  1
  Ga  Ga13  1  0.614170  0.614170  0.614170  1
  Ga  Ga14  1  0.333429  0.000579  0.665968  1
  Ga  Ga15  1  0.710480  0.497694  0.291796  1
  Ga  Ga16  1  0.665968  0.333429  0.000579  1
  Ga  Ga17  1  0.282903  0.282903  0.282903  1
  Ga  Ga18  1  0.000579  0.665968  0.333429  1
  Ga  Ga19  1  0.763421  0.103016  0.435024  1
  Ni  Ni20  1  0.417338  0.077876  0.759233  1
  Ni  Ni21  1  0.580367  0.241765  0.923223  1
  Ni  Ni22  1  0.077876  0.759233  0.417338  1
  Ni  Ni23  1  0.759233  0.417338  0.077876  1
  Ni  Ni24  1  0.923223  0.580367  0.241765  1
  Ni  Ni25  1  0.241765  0.923223  0.580367  1
