# generated using pymatgen
data_Sr9Pr(PN5)2
_symmetry_space_group_name_H-M   'P 1'
_cell_length_a   7.51004909
_cell_length_b   7.51004895
_cell_length_c   8.74384743
_cell_angle_alpha   76.59425486
_cell_angle_beta   76.59425545
_cell_angle_gamma   95.83170053
_symmetry_Int_Tables_number   1
_chemical_formula_structural   Sr9Pr(PN5)2
_chemical_formula_sum   'Sr9 Pr1 P2 N10'
_cell_volume   460.31918775
_cell_formula_units_Z   1
loop_
 _symmetry_equiv_pos_site_id
 _symmetry_equiv_pos_as_xyz
  1  'x, y, z'
loop_
 _atom_site_type_symbol
 _atom_site_label
 _atom_site_symmetry_multiplicity
 _atom_site_fract_x
 _atom_site_fract_y
 _atom_site_fract_z
 _atom_site_occupancy
  Sr  Sr0  1  0.600840  0.600840  0.631281  1
  Sr  Sr1  1  0.675249  0.675249  0.000118  1
  Sr  Sr2  1  0.327921  0.327921  0.994088  1
  Sr  Sr3  1  0.926387  0.926387  0.196730  1
  Sr  Sr4  1  0.072447  0.072447  0.800604  1
  Sr  Sr5  1  0.552183  0.088167  0.762689  1
  Sr  Sr6  1  0.915259  0.445783  0.237675  1
  Sr  Sr7  1  0.445783  0.915259  0.237675  1
  Sr  Sr8  1  0.088167  0.552183  0.762689  1
  Pr  Pr9  1  0.411443  0.411443  0.364860  1
  P  P10  1  0.758464  0.241259  0.001581  1
  P  P11  1  0.241259  0.758464  0.001581  1
  N  N12  1  0.648983  0.648983  0.325138  1
  N  N13  1  0.341733  0.341733  0.659473  1
  N  N14  1  0.721483  0.022131  0.988794  1
  N  N15  1  0.977423  0.276003  0.016278  1
  N  N16  1  0.276003  0.977423  0.016278  1
  N  N17  1  0.022131  0.721483  0.988794  1
  N  N18  1  0.391513  0.727923  0.837963  1
  N  N19  1  0.271331  0.606076  0.168873  1
  N  N20  1  0.606076  0.271331  0.168873  1
  N  N21  1  0.727923  0.391513  0.837963  1
