# generated using pymatgen
data_NaCr(PSe3)2
_symmetry_space_group_name_H-M   'P 1'
_cell_length_a   12.52605051
_cell_length_b   11.88237113
_cell_length_c   7.27780655
_cell_angle_alpha   77.56074973
_cell_angle_beta   67.87190584
_cell_angle_gamma   34.56733557
_symmetry_Int_Tables_number   1
_chemical_formula_structural   NaCr(PSe3)2
_chemical_formula_sum   'Na2 Cr2 P4 Se12'
_cell_volume   559.99164772
_cell_formula_units_Z   2
loop_
 _symmetry_equiv_pos_site_id
 _symmetry_equiv_pos_as_xyz
  1  'x, y, z'
loop_
 _atom_site_type_symbol
 _atom_site_label
 _atom_site_symmetry_multiplicity
 _atom_site_fract_x
 _atom_site_fract_y
 _atom_site_fract_z
 _atom_site_occupancy
  Na  Na0  1  0.334185  0.334185  0.665815  1
  Na  Na1  1  0.584185  0.584185  0.915815  1
  Cr  Cr2  1  0.999103  0.999103  0.000897  1
  Cr  Cr3  1  0.249103  0.249103  0.250897  1
  P  P4  1  0.111533  0.211195  0.001474  1
  P  P5  1  0.211195  0.111533  0.675798  1
  P  P6  1  0.248526  0.574202  0.138467  1
  P  P7  1  0.574202  0.248526  0.038805  1
  Se  Se8  1  0.863008  0.286178  0.154299  1
  Se  Se9  1  0.286178  0.863008  0.696514  1
  Se  Se10  1  0.095701  0.553486  0.386992  1
  Se  Se11  1  0.553486  0.095701  0.963822  1
  Se  Se12  1  0.010041  0.469236  0.051678  1
  Se  Se13  1  0.469236  0.010041  0.469044  1
  Se  Se14  1  0.198322  0.780956  0.239959  1
  Se  Se15  1  0.780956  0.198322  0.780764  1
  Se  Se16  1  0.376419  0.965871  0.094490  1
  Se  Se17  1  0.965871  0.376419  0.563220  1
  Se  Se18  1  0.155510  0.686780  0.873581  1
  Se  Se19  1  0.686780  0.155510  0.284129  1
