# generated using pymatgen
data_DyLu7Re2(B12Ir)2
_symmetry_space_group_name_H-M   'P 1'
_cell_length_a   3.61659000
_cell_length_b   9.05319027
_cell_length_c   11.43674301
_cell_angle_alpha   90.28852035
_cell_angle_beta   90.00000000
_cell_angle_gamma   90.00000000
_symmetry_Int_Tables_number   1
_chemical_formula_structural   DyLu7Re2(B12Ir)2
_chemical_formula_sum   'Dy1 Lu7 Re2 B24 Ir2'
_cell_volume   374.45340220
_cell_formula_units_Z   1
loop_
 _symmetry_equiv_pos_site_id
 _symmetry_equiv_pos_as_xyz
  1  'x, y, z'
loop_
 _atom_site_type_symbol
 _atom_site_label
 _atom_site_symmetry_multiplicity
 _atom_site_fract_x
 _atom_site_fract_y
 _atom_site_fract_z
 _atom_site_occupancy
  Dy  Dy0  1  0.000000  0.316883  0.410246  1
  Lu  Lu1  1  0.000000  0.684656  0.590446  1
  Lu  Lu2  1  0.000000  0.825975  0.081628  1
  Lu  Lu3  1  0.000000  0.173888  0.918190  1
  Lu  Lu4  1  0.000000  0.946160  0.372364  1
  Lu  Lu5  1  0.000000  0.053242  0.627814  1
  Lu  Lu6  1  0.000000  0.441801  0.125282  1
  Lu  Lu7  1  0.000000  0.558294  0.874578  1
  Re  Re8  1  0.000000  0.137777  0.179414  1
  Re  Re9  1  0.000000  0.861505  0.819946  1
  B  B10  1  0.500000  0.554952  0.434696  1
  B  B11  1  0.500000  0.446366  0.566122  1
  B  B12  1  0.500000  0.052787  0.066251  1
  B  B13  1  0.500000  0.946880  0.933379  1
  B  B14  1  0.500000  0.750725  0.421881  1
  B  B15  1  0.500000  0.249064  0.579363  1
  B  B16  1  0.500000  0.248985  0.079597  1
  B  B17  1  0.500000  0.750892  0.919971  1
  B  B18  1  0.500000  0.792260  0.265184  1
  B  B19  1  0.500000  0.207769  0.735071  1
  B  B20  1  0.500000  0.293056  0.234015  1
  B  B21  1  0.500000  0.706471  0.765071  1
  B  B22  1  0.500000  0.631748  0.182817  1
  B  B23  1  0.500000  0.368577  0.817136  1
  B  B24  1  0.500000  0.130445  0.315096  1
  B  B25  1  0.500000  0.868617  0.684330  1
  B  B26  1  0.500000  0.980932  0.212937  1
  B  B27  1  0.500000  0.018540  0.786865  1
  B  B28  1  0.500000  0.482318  0.286556  1
  B  B29  1  0.500000  0.518826  0.713053  1
  B  B30  1  0.500000  0.605176  0.029347  1
  B  B31  1  0.500000  0.394955  0.970516  1
  B  B32  1  0.500000  0.103880  0.471939  1
  B  B33  1  0.500000  0.894585  0.528544  1
  Ir  Ir34  1  0.000000  0.638172  0.321520  1
  Ir  Ir35  1  0.000000  0.362840  0.678836  1
