# generated using pymatgen
data_YTmNb2(SnPt)4
_symmetry_space_group_name_H-M   'P 1'
_cell_length_a   6.44710726
_cell_length_b   4.54263700
_cell_length_c   9.10027837
_cell_angle_alpha   90.00000000
_cell_angle_beta   89.96744734
_cell_angle_gamma   90.00000000
_symmetry_Int_Tables_number   1
_chemical_formula_structural   YTmNb2(SnPt)4
_chemical_formula_sum   'Y1 Tm1 Nb2 Sn4 Pt4'
_cell_volume   266.51860813
_cell_formula_units_Z   1
loop_
 _symmetry_equiv_pos_site_id
 _symmetry_equiv_pos_as_xyz
  1  'x, y, z'
loop_
 _atom_site_type_symbol
 _atom_site_label
 _atom_site_symmetry_multiplicity
 _atom_site_fract_x
 _atom_site_fract_y
 _atom_site_fract_z
 _atom_site_occupancy
  Y  Y0  1  0.503733  0.499999  0.623903  1
  Tm  Tm1  1  0.004113  0.000000  0.376119  1
  Nb  Nb2  1  0.496851  0.499999  0.123408  1
  Nb  Nb3  1  0.997112  0.000000  0.876633  1
  Sn  Sn4  1  0.985654  0.499999  0.125234  1
  Sn  Sn5  1  0.510451  0.000000  0.371777  1
  Sn  Sn6  1  0.010562  0.499999  0.626980  1
  Sn  Sn7  1  0.486193  0.000000  0.876070  1
  Pt  Pt8  1  0.737402  0.000000  0.112782  1
  Pt  Pt9  1  0.263572  0.499999  0.357047  1
  Pt  Pt10  1  0.768461  0.000000  0.641603  1
  Pt  Pt11  1  0.235892  0.499999  0.888435  1
