# generated using pymatgen
data_La2Dy13Y(CdNi)4
_symmetry_space_group_name_H-M   'P 1'
_cell_length_a   9.59382188
_cell_length_b   9.59382186
_cell_length_c   9.58257100
_cell_angle_alpha   60.03878912
_cell_angle_beta   60.03878917
_cell_angle_gamma   60.18943477
_symmetry_Int_Tables_number   1
_chemical_formula_structural   La2Dy13Y(CdNi)4
_chemical_formula_sum   'La2 Dy13 Y1 Cd4 Ni4'
_cell_volume   624.91847010
_cell_formula_units_Z   1
loop_
 _symmetry_equiv_pos_site_id
 _symmetry_equiv_pos_as_xyz
  1  'x, y, z'
loop_
 _atom_site_type_symbol
 _atom_site_label
 _atom_site_symmetry_multiplicity
 _atom_site_fract_x
 _atom_site_fract_y
 _atom_site_fract_z
 _atom_site_occupancy
  La  La0  1  0.595693  0.595693  0.601054  1
  La  La1  1  0.595693  0.595693  0.207559  1
  Dy  Dy2  1  0.600366  0.197114  0.601260  1
  Dy  Dy3  1  0.197114  0.600366  0.601260  1
  Dy  Dy4  1  0.064374  0.439115  0.435472  1
  Dy  Dy5  1  0.439115  0.064374  0.061038  1
  Dy  Dy6  1  0.439115  0.064374  0.435472  1
  Dy  Dy7  1  0.064374  0.439115  0.061038  1
  Dy  Dy8  1  0.437654  0.437654  0.062346  1
  Dy  Dy9  1  0.062614  0.062614  0.437386  1
  Dy  Dy10  1  0.186525  0.815426  0.814693  1
  Dy  Dy11  1  0.815426  0.186525  0.183356  1
  Dy  Dy12  1  0.815426  0.186525  0.814693  1
  Dy  Dy13  1  0.186525  0.815426  0.183356  1
  Dy  Dy14  1  0.816106  0.816106  0.183894  1
  Y  Y15  1  0.187196  0.187196  0.812804  1
  Cd  Cd16  1  0.833207  0.833207  0.827992  1
  Cd  Cd17  1  0.833207  0.833207  0.505592  1
  Cd  Cd18  1  0.834772  0.504538  0.830344  1
  Cd  Cd19  1  0.504538  0.834772  0.830344  1
  Ni  Ni20  1  0.389018  0.389018  0.397991  1
  Ni  Ni21  1  0.389018  0.389018  0.823974  1
  Ni  Ni22  1  0.385730  0.827194  0.393539  1
  Ni  Ni23  1  0.827194  0.385730  0.393539  1
