# generated using pymatgen
data_Ho5Tm3(WO6)4
_symmetry_space_group_name_H-M   'P 1'
_cell_length_a   5.36536366
_cell_length_b   7.65973795
_cell_length_c   11.39229184
_cell_angle_alpha   75.41488082
_cell_angle_beta   90.01241285
_cell_angle_gamma   90.05675970
_symmetry_Int_Tables_number   1
_chemical_formula_structural   Ho5Tm3(WO6)4
_chemical_formula_sum   'Ho5 Tm3 W4 O24'
_cell_volume   453.10430238
_cell_formula_units_Z   1
loop_
 _symmetry_equiv_pos_site_id
 _symmetry_equiv_pos_as_xyz
  1  'x, y, z'
loop_
 _atom_site_type_symbol
 _atom_site_label
 _atom_site_symmetry_multiplicity
 _atom_site_fract_x
 _atom_site_fract_y
 _atom_site_fract_z
 _atom_site_occupancy
  Ho  Ho0  1  0.739969  0.000358  0.750868  1
  Ho  Ho1  1  0.260112  0.000170  0.249334  1
  Ho  Ho2  1  0.185415  0.795870  0.578071  1
  Ho  Ho3  1  0.684223  0.499525  0.750695  1
  Ho  Ho4  1  0.316222  0.499783  0.249752  1
  Tm  Tm5  1  0.815556  0.794766  0.078588  1
  Tm  Tm6  1  0.184709  0.205174  0.921401  1
  Tm  Tm7  1  0.814601  0.205392  0.421225  1
  W  W8  1  0.255498  0.722774  0.886627  1
  W  W9  1  0.745134  0.722946  0.385379  1
  W  W10  1  0.255001  0.276863  0.613910  1
  W  W11  1  0.744948  0.276927  0.113909  1
  O  O12  1  0.043731  0.940769  0.896580  1
  O  O13  1  0.534554  0.847204  0.932801  1
  O  O14  1  0.956372  0.941367  0.395391  1
  O  O15  1  0.460457  0.789728  0.727937  1
  O  O16  1  0.467029  0.848270  0.430249  1
  O  O17  1  0.980951  0.710528  0.771762  1
  O  O18  1  0.541448  0.789873  0.225941  1
  O  O19  1  0.850928  0.633816  0.549110  1
  O  O20  1  0.360846  0.487647  0.887130  1
  O  O21  1  0.019254  0.710894  0.270342  1
  O  O22  1  0.363174  0.511108  0.613209  1
  O  O23  1  0.853178  0.365350  0.950431  1
  O  O24  1  0.146877  0.634177  0.049995  1
  O  O25  1  0.638679  0.487645  0.386190  1
  O  O26  1  0.981946  0.289706  0.729956  1
  O  O27  1  0.639281  0.512006  0.112995  1
  O  O28  1  0.146805  0.365689  0.450384  1
  O  O29  1  0.458471  0.209247  0.773676  1
  O  O30  1  0.018584  0.289007  0.229477  1
  O  O31  1  0.533244  0.151966  0.568129  1
  O  O32  1  0.541191  0.209779  0.273307  1
  O  O33  1  0.040140  0.061048  0.603714  1
  O  O34  1  0.464983  0.153358  0.067990  1
  O  O35  1  0.956489  0.059267  0.103547  1
