# generated using pymatgen
data_Th6ReBr15
_symmetry_space_group_name_H-M   'P 1'
_cell_length_a   10.21189190
_cell_length_b   10.21189205
_cell_length_c   10.21189200
_cell_angle_alpha   109.47122053
_cell_angle_beta   109.47122084
_cell_angle_gamma   109.47122012
_symmetry_Int_Tables_number   1
_chemical_formula_structural   Th6ReBr15
_chemical_formula_sum   'Th6 Re1 Br15'
_cell_volume   819.77892399
_cell_formula_units_Z   1
loop_
 _symmetry_equiv_pos_site_id
 _symmetry_equiv_pos_as_xyz
  1  'x, y, z'
loop_
 _atom_site_type_symbol
 _atom_site_label
 _atom_site_symmetry_multiplicity
 _atom_site_fract_x
 _atom_site_fract_y
 _atom_site_fract_z
 _atom_site_occupancy
  Th  Th0  1  0.241076  0.000000  0.241076  1
  Th  Th1  1  0.241076  0.241076  0.000000  1
  Th  Th2  1  0.758924  0.000000  0.758924  1
  Th  Th3  1  0.000000  0.241076  0.241076  1
  Th  Th4  1  0.000000  0.758924  0.758924  1
  Th  Th5  1  0.758924  0.758924  0.000000  1
  Re  Re6  1  0.000000  0.000000  0.000000  1
  Br  Br7  1  0.000000  0.750903  0.249097  1
  Br  Br8  1  0.249097  0.750903  0.000000  1
  Br  Br9  1  0.501806  0.750903  0.750903  1
  Br  Br10  1  0.000000  0.249097  0.750903  1
  Br  Br11  1  0.750903  0.000000  0.249097  1
  Br  Br12  1  0.249097  0.498194  0.249097  1
  Br  Br13  1  0.750903  0.249097  0.000000  1
  Br  Br14  1  0.500000  0.500000  0.000000  1
  Br  Br15  1  0.249097  0.249097  0.498194  1
  Br  Br16  1  0.750903  0.501806  0.750903  1
  Br  Br17  1  0.750903  0.750903  0.501806  1
  Br  Br18  1  0.498194  0.249097  0.249097  1
  Br  Br19  1  0.249097  0.000000  0.750903  1
  Br  Br20  1  0.000000  0.500000  0.500000  1
  Br  Br21  1  0.500000  0.000000  0.500000  1
