# generated using pymatgen
data_Zr4CoCuN
_symmetry_space_group_name_H-M   'P 1'
_cell_length_a   8.70866601
_cell_length_b   8.70866589
_cell_length_c   8.70866600
_cell_angle_alpha   59.99999960
_cell_angle_beta   60.00000004
_cell_angle_gamma   60.00000178
_symmetry_Int_Tables_number   1
_chemical_formula_structural   Zr4CoCuN
_chemical_formula_sum   'Zr16 Co4 Cu4 N4'
_cell_volume   467.02475966
_cell_formula_units_Z   4
loop_
 _symmetry_equiv_pos_site_id
 _symmetry_equiv_pos_as_xyz
  1  'x, y, z'
loop_
 _atom_site_type_symbol
 _atom_site_label
 _atom_site_symmetry_multiplicity
 _atom_site_fract_x
 _atom_site_fract_y
 _atom_site_fract_z
 _atom_site_occupancy
  Zr  Zr0  1  0.085714  0.638095  0.638095  1
  Zr  Zr1  1  0.638095  0.085714  0.638095  1
  Zr  Zr2  1  0.638095  0.638095  0.085714  1
  Zr  Zr3  1  0.638095  0.638095  0.638095  1
  Zr  Zr4  1  0.816936  0.816936  0.183064  1
  Zr  Zr5  1  0.183064  0.183064  0.816936  1
  Zr  Zr6  1  0.816936  0.183064  0.816936  1
  Zr  Zr7  1  0.183064  0.816936  0.183064  1
  Zr  Zr8  1  0.183064  0.816936  0.816936  1
  Zr  Zr9  1  0.816936  0.183064  0.183064  1
  Zr  Zr10  1  0.432029  0.432029  0.067971  1
  Zr  Zr11  1  0.067971  0.067971  0.432029  1
  Zr  Zr12  1  0.432029  0.067971  0.432029  1
  Zr  Zr13  1  0.067971  0.432029  0.067971  1
  Zr  Zr14  1  0.067971  0.432029  0.432029  1
  Zr  Zr15  1  0.432029  0.067971  0.067971  1
  Co  Co16  1  0.451670  0.849444  0.849444  1
  Co  Co17  1  0.849444  0.451670  0.849444  1
  Co  Co18  1  0.849444  0.849444  0.451670  1
  Co  Co19  1  0.849444  0.849444  0.849444  1
  Cu  Cu20  1  0.740965  0.419678  0.419678  1
  Cu  Cu21  1  0.419678  0.740965  0.419678  1
  Cu  Cu22  1  0.419678  0.419678  0.740965  1
  Cu  Cu23  1  0.419678  0.419678  0.419678  1
  N  N24  1  0.623965  0.125345  0.125345  1
  N  N25  1  0.125345  0.623965  0.125345  1
  N  N26  1  0.125345  0.125345  0.623965  1
  N  N27  1  0.125345  0.125345  0.125345  1
