# generated using pymatgen
data_Nd5YAl24Os7Au
_symmetry_space_group_name_H-M   'P 1'
_cell_length_a   8.93908673
_cell_length_b   8.93908871
_cell_length_c   9.65993631
_cell_angle_alpha   89.92485651
_cell_angle_beta   90.07514267
_cell_angle_gamma   120.11765291
_symmetry_Int_Tables_number   1
_chemical_formula_structural   Nd5YAl24Os7Au
_chemical_formula_sum   'Nd5 Y1 Al24 Os7 Au1'
_cell_volume   667.68973102
_cell_formula_units_Z   1
loop_
 _symmetry_equiv_pos_site_id
 _symmetry_equiv_pos_as_xyz
  1  'x, y, z'
loop_
 _atom_site_type_symbol
 _atom_site_label
 _atom_site_symmetry_multiplicity
 _atom_site_fract_x
 _atom_site_fract_y
 _atom_site_fract_z
 _atom_site_occupancy
  Nd  Nd0  1  0.189852  0.382650  0.249739  1
  Nd  Nd1  1  0.809966  0.617051  0.750037  1
  Nd  Nd2  1  0.617350  0.810148  0.249739  1
  Nd  Nd3  1  0.382949  0.190034  0.750037  1
  Nd  Nd4  1  0.192807  0.807193  0.254276  1
  Y  Y5  1  0.805677  0.194323  0.745717  1
  Al  Al6  1  0.328653  0.671347  0.015308  1
  Al  Al7  1  0.672044  0.327956  0.982234  1
  Al  Al8  1  0.666710  0.333290  0.514394  1
  Al  Al9  1  0.333993  0.666007  0.487610  1
  Al  Al10  1  0.160816  0.325398  0.574912  1
  Al  Al11  1  0.837292  0.673321  0.426300  1
  Al  Al12  1  0.674602  0.839184  0.574912  1
  Al  Al13  1  0.848554  0.676714  0.077887  1
  Al  Al14  1  0.326679  0.162708  0.426300  1
  Al  Al15  1  0.149468  0.321848  0.920757  1
  Al  Al16  1  0.163240  0.836760  0.575392  1
  Al  Al17  1  0.323286  0.151446  0.077887  1
  Al  Al18  1  0.836912  0.163088  0.427265  1
  Al  Al19  1  0.678152  0.850532  0.920757  1
  Al  Al20  1  0.836727  0.163273  0.071948  1
  Al  Al21  1  0.163342  0.836658  0.925534  1
  Al  Al22  1  0.562455  0.122857  0.248935  1
  Al  Al23  1  0.440405  0.879266  0.750842  1
  Al  Al24  1  0.877143  0.437545  0.248935  1
  Al  Al25  1  0.120734  0.559595  0.750842  1
  Al  Al26  1  0.564767  0.435233  0.256482  1
  Al  Al27  1  0.435167  0.564833  0.744066  1
  Al  Al28  1  0.999563  0.000437  0.250516  1
  Al  Al29  1  0.998440  0.001560  0.749573  1
  Os  Os30  1  0.500654  0.000232  0.999249  1
  Os  Os31  1  0.999768  0.499346  0.999249  1
  Os  Os32  1  0.500927  0.000318  0.500799  1
  Os  Os33  1  0.999682  0.499073  0.500799  1
  Os  Os34  1  0.500326  0.499674  0.500766  1
  Os  Os35  1  0.000213  0.999787  0.999949  1
  Os  Os36  1  0.000266  0.999734  0.500256  1
  Au  Au37  1  0.500416  0.499584  0.999796  1
