# generated using pymatgen
data_Zr8Fe2Co5Si14Os
_symmetry_space_group_name_H-M   'P 1'
_cell_length_a   9.53725543
_cell_length_b   9.53457814
_cell_length_c   9.55336731
_cell_angle_alpha   94.16782085
_cell_angle_beta   94.20304188
_cell_angle_gamma   148.68518672
_symmetry_Int_Tables_number   1
_chemical_formula_structural   Zr8Fe2Co5Si14Os
_chemical_formula_sum   'Zr8 Fe2 Co5 Si14 Os1'
_cell_volume   434.68684808
_cell_formula_units_Z   1
loop_
 _symmetry_equiv_pos_site_id
 _symmetry_equiv_pos_as_xyz
  1  'x, y, z'
loop_
 _atom_site_type_symbol
 _atom_site_label
 _atom_site_symmetry_multiplicity
 _atom_site_fract_x
 _atom_site_fract_y
 _atom_site_fract_z
 _atom_site_occupancy
  Zr  Zr0  1  0.137749  0.137810  0.276271  1
  Zr  Zr1  1  0.862434  0.862457  0.724481  1
  Zr  Zr2  1  0.861532  0.137680  0.001061  1
  Zr  Zr3  1  0.139558  0.863349  0.001016  1
  Zr  Zr4  1  0.500721  0.303989  0.802798  1
  Zr  Zr5  1  0.503195  0.698283  0.197308  1
  Zr  Zr6  1  0.695039  0.499399  0.198470  1
  Zr  Zr7  1  0.302860  0.499085  0.803745  1
  Fe  Fe8  1  0.103836  0.603116  0.206200  1
  Fe  Fe9  1  0.100598  0.897419  0.499521  1
  Co  Co10  1  0.399491  0.601755  0.499479  1
  Co  Co11  1  0.600730  0.395036  0.498397  1
  Co  Co12  1  0.897405  0.103806  0.498570  1
  Co  Co13  1  0.895487  0.396725  0.793740  1
  Co  Co14  1  0.603393  0.104289  0.205801  1
  Si  Si15  1  0.498863  0.092381  0.585197  1
  Si  Si16  1  0.496589  0.904685  0.406470  1
  Si  Si17  1  0.917069  0.509083  0.408503  1
  Si  Si18  1  0.080902  0.487720  0.587146  1
  Si  Si19  1  0.750222  0.750379  0.000534  1
  Si  Si20  1  0.250197  0.249813  0.000316  1
  Si  Si21  1  0.287935  0.287538  0.578334  1
  Si  Si22  1  0.712696  0.712340  0.422199  1
  Si  Si23  1  0.723369  0.304054  0.005752  1
  Si  Si24  1  0.282268  0.701905  0.005800  1
  Si  Si25  1  0.002113  0.304480  0.301907  1
  Si  Si26  1  0.990487  0.694731  0.696103  1
  Si  Si27  1  0.707234  0.003489  0.696413  1
  Si  Si28  1  0.297901  0.995892  0.302220  1
  Os  Os29  1  0.398129  0.897317  0.796250  1
