# generated using pymatgen
data_Cd6Hg5Pd12Au
_symmetry_space_group_name_H-M   'P 1'
_cell_length_a   4.36324700
_cell_length_b   7.52319900
_cell_length_c   12.99529900
_cell_angle_alpha   89.99994428
_cell_angle_beta   89.99999973
_cell_angle_gamma   89.99998267
_symmetry_Int_Tables_number   1
_chemical_formula_structural   Cd6Hg5Pd12Au
_chemical_formula_sum   'Cd6 Hg5 Pd12 Au1'
_cell_volume   426.57816810
_cell_formula_units_Z   1
loop_
 _symmetry_equiv_pos_site_id
 _symmetry_equiv_pos_as_xyz
  1  'x, y, z'
loop_
 _atom_site_type_symbol
 _atom_site_label
 _atom_site_symmetry_multiplicity
 _atom_site_fract_x
 _atom_site_fract_y
 _atom_site_fract_z
 _atom_site_occupancy
  Cd  Cd0  1  0.000003  0.000000  0.993060  1
  Cd  Cd1  1  0.499999  0.500000  0.165157  1
  Cd  Cd2  1  0.999997  0.000001  0.333324  1
  Cd  Cd3  1  0.500000  0.500000  0.501523  1
  Cd  Cd4  1  0.000003  0.999999  0.673605  1
  Cd  Cd5  1  0.500000  0.500000  0.833317  1
  Hg  Hg6  1  0.000004  0.500001  0.999844  1
  Hg  Hg7  1  0.499995  0.000000  0.165444  1
  Hg  Hg8  1  0.999999  0.500000  0.333385  1
  Hg  Hg9  1  0.499999  0.000000  0.501192  1
  Hg  Hg10  1  0.000004  0.500001  0.666786  1
  Pd  Pd11  1  0.500004  0.248880  0.999092  1
  Pd  Pd12  1  0.500004  0.751119  0.999092  1
  Pd  Pd13  1  0.999998  0.247783  0.165535  1
  Pd  Pd14  1  0.999997  0.752218  0.165536  1
  Pd  Pd15  1  0.499995  0.250931  0.333318  1
  Pd  Pd16  1  0.499995  0.749069  0.333318  1
  Pd  Pd17  1  0.999999  0.247713  0.501160  1
  Pd  Pd18  1  0.999999  0.752285  0.501160  1
  Pd  Pd19  1  0.500004  0.248816  0.667593  1
  Pd  Pd20  1  0.500004  0.751183  0.667593  1
  Pd  Pd21  1  0.000001  0.253086  0.833304  1
  Pd  Pd22  1  0.000000  0.746913  0.833304  1
  Au  Au23  1  0.500001  0.999999  0.833357  1
