# generated using pymatgen
data_Sr3Pa(Ga3Ir)6
_symmetry_space_group_name_H-M   'P 1'
_cell_length_a   7.67082502
_cell_length_b   7.65974280
_cell_length_c   9.72316900
_cell_angle_alpha   90.00000000
_cell_angle_beta   90.00000000
_cell_angle_gamma   119.59038190
_symmetry_Int_Tables_number   1
_chemical_formula_structural   Sr3Pa(Ga3Ir)6
_chemical_formula_sum   'Sr3 Pa1 Ga18 Ir6'
_cell_volume   496.78967193
_cell_formula_units_Z   1
loop_
 _symmetry_equiv_pos_site_id
 _symmetry_equiv_pos_as_xyz
  1  'x, y, z'
loop_
 _atom_site_type_symbol
 _atom_site_label
 _atom_site_symmetry_multiplicity
 _atom_site_fract_x
 _atom_site_fract_y
 _atom_site_fract_z
 _atom_site_occupancy
  Sr  Sr0  1  0.004414  0.330733  0.750000  1
  Sr  Sr1  1  0.671018  0.995672  0.250000  1
  Sr  Sr2  1  0.329318  0.004208  0.750000  1
  Pa  Pa3  1  0.000434  0.672322  0.250000  1
  Ga  Ga4  1  0.135594  0.129557  0.250000  1
  Ga  Ga5  1  0.867818  0.869569  0.750000  1
  Ga  Ga6  1  0.000690  0.333386  0.078903  1
  Ga  Ga7  1  0.996214  0.664552  0.926058  1
  Ga  Ga8  1  0.996214  0.664552  0.573942  1
  Ga  Ga9  1  0.337745  0.003095  0.421033  1
  Ga  Ga10  1  0.000690  0.333386  0.421097  1
  Ga  Ga11  1  0.664803  0.997023  0.573710  1
  Ga  Ga12  1  0.664803  0.997023  0.926290  1
  Ga  Ga13  1  0.337745  0.003095  0.078967  1
  Ga  Ga14  1  0.333614  0.334448  0.551606  1
  Ga  Ga15  1  0.664760  0.665381  0.439736  1
  Ga  Ga16  1  0.664760  0.665381  0.060264  1
  Ga  Ga17  1  0.333614  0.334448  0.948394  1
  Ga  Ga18  1  0.332272  0.540839  0.250000  1
  Ga  Ga19  1  0.662766  0.456850  0.750000  1
  Ga  Ga20  1  0.550111  0.348226  0.250000  1
  Ga  Ga21  1  0.456190  0.662696  0.750000  1
  Ir  Ir22  1  0.671644  0.331490  0.004224  1
  Ir  Ir23  1  0.326847  0.670070  0.005558  1
  Ir  Ir24  1  0.326847  0.670070  0.494442  1
  Ir  Ir25  1  0.671644  0.331490  0.495776  1
  Ir  Ir26  1  0.998716  0.995220  0.006855  1
  Ir  Ir27  1  0.998716  0.995220  0.493145  1
