# generated using pymatgen
data_LaNd3(BiO4)4
_symmetry_space_group_name_H-M   'P 1'
_cell_length_a   5.69322991
_cell_length_b   7.98518777
_cell_length_c   8.01910442
_cell_angle_alpha   81.99317939
_cell_angle_beta   89.97161815
_cell_angle_gamma   89.93940603
_symmetry_Int_Tables_number   1
_chemical_formula_structural   LaNd3(BiO4)4
_chemical_formula_sum   'La1 Nd3 Bi4 O16'
_cell_volume   361.00644909
_cell_formula_units_Z   1
loop_
 _symmetry_equiv_pos_site_id
 _symmetry_equiv_pos_as_xyz
  1  'x, y, z'
loop_
 _atom_site_type_symbol
 _atom_site_label
 _atom_site_symmetry_multiplicity
 _atom_site_fract_x
 _atom_site_fract_y
 _atom_site_fract_z
 _atom_site_occupancy
  La  La0  1  0.733684  0.138185  0.106769  1
  Nd  Nd1  1  0.268739  0.861555  0.891144  1
  Nd  Nd2  1  0.230702  0.861281  0.392286  1
  Nd  Nd3  1  0.769985  0.137914  0.607816  1
  Bi  Bi4  1  0.770743  0.662574  0.687165  1
  Bi  Bi5  1  0.729109  0.662631  0.187581  1
  Bi  Bi6  1  0.271135  0.337990  0.811470  1
  Bi  Bi7  1  0.229649  0.338178  0.313980  1
  O  O8  1  0.100879  0.576867  0.812153  1
  O  O9  1  0.610246  0.674361  0.931950  1
  O  O10  1  0.400093  0.576549  0.313675  1
  O  O11  1  0.499736  0.838564  0.620728  1
  O  O12  1  0.890141  0.675074  0.431941  1
  O  O13  1  0.000885  0.837818  0.121091  1
  O  O14  1  0.989521  0.887096  0.668334  1
  O  O15  1  0.488457  0.112451  0.829514  1
  O  O16  1  0.507562  0.885988  0.167719  1
  O  O17  1  0.011361  0.112490  0.335040  1
  O  O18  1  0.002809  0.159358  0.875726  1
  O  O19  1  0.108323  0.327581  0.568008  1
  O  O20  1  0.498692  0.161022  0.380924  1
  O  O21  1  0.602142  0.422903  0.688066  1
  O  O22  1  0.384956  0.326845  0.067914  1
  O  O23  1  0.900449  0.424727  0.189006  1
