# generated using pymatgen
data_LiDy3Y13Tl(CdPt2)2
_symmetry_space_group_name_H-M   'P 1'
_cell_length_a   9.73306350
_cell_length_b   9.73619439
_cell_length_c   9.73619500
_cell_angle_alpha   59.95300812
_cell_angle_beta   59.91389230
_cell_angle_gamma   59.91388599
_symmetry_Int_Tables_number   1
_chemical_formula_structural   LiDy3Y13Tl(CdPt2)2
_chemical_formula_sum   'Li1 Dy3 Y13 Tl1 Cd2 Pt4'
_cell_volume   651.31712545
_cell_formula_units_Z   1
loop_
 _symmetry_equiv_pos_site_id
 _symmetry_equiv_pos_as_xyz
  1  'x, y, z'
loop_
 _atom_site_type_symbol
 _atom_site_label
 _atom_site_symmetry_multiplicity
 _atom_site_fract_x
 _atom_site_fract_y
 _atom_site_fract_z
 _atom_site_occupancy
  Li  Li0  1  0.570707  0.571142  0.571409  1
  Dy  Dy1  1  0.349502  0.349856  0.350158  1
  Dy  Dy2  1  0.351913  0.352010  0.945665  1
  Dy  Dy3  1  0.352447  0.944541  0.352887  1
  Y  Y4  1  0.942781  0.353200  0.353534  1
  Y  Y5  1  0.809392  0.191996  0.192468  1
  Y  Y6  1  0.188390  0.813255  0.812990  1
  Y  Y7  1  0.192230  0.809079  0.192893  1
  Y  Y8  1  0.813752  0.187899  0.813248  1
  Y  Y9  1  0.191922  0.191798  0.810280  1
  Y  Y10  1  0.812636  0.812956  0.187858  1
  Y  Y11  1  0.936149  0.565158  0.564290  1
  Y  Y12  1  0.562382  0.940614  0.934406  1
  Y  Y13  1  0.564381  0.936268  0.564150  1
  Y  Y14  1  0.940467  0.562808  0.933975  1
  Y  Y15  1  0.564486  0.564559  0.935333  1
  Y  Y16  1  0.937928  0.937383  0.562363  1
  Tl  Tl17  1  0.583767  0.583908  0.251225  1
  Cd  Cd18  1  0.580948  0.252118  0.585026  1
  Cd  Cd19  1  0.252307  0.580969  0.584809  1
  Pt  Pt20  1  0.144912  0.143295  0.145606  1
  Pt  Pt21  1  0.143143  0.141692  0.570555  1
  Pt  Pt22  1  0.143429  0.570708  0.142170  1
  Pt  Pt23  1  0.570030  0.142793  0.142703  1
