# generated using pymatgen
data_Hf5ZrAl16OsPt6
_symmetry_space_group_name_H-M   'P 1'
_cell_length_a   8.76718863
_cell_length_b   8.76718907
_cell_length_c   8.77006900
_cell_angle_alpha   59.98912929
_cell_angle_beta   59.98912762
_cell_angle_gamma   60.00773556
_symmetry_Int_Tables_number   1
_chemical_formula_structural   Hf5ZrAl16OsPt6
_chemical_formula_sum   'Hf5 Zr1 Al16 Os1 Pt6'
_cell_volume   476.60953447
_cell_formula_units_Z   1
loop_
 _symmetry_equiv_pos_site_id
 _symmetry_equiv_pos_as_xyz
  1  'x, y, z'
loop_
 _atom_site_type_symbol
 _atom_site_label
 _atom_site_symmetry_multiplicity
 _atom_site_fract_x
 _atom_site_fract_y
 _atom_site_fract_z
 _atom_site_occupancy
  Hf  Hf0  1  0.321016  0.678061  0.317063  1
  Hf  Hf1  1  0.678061  0.321016  0.317063  1
  Hf  Hf2  1  0.317145  0.317145  0.682855  1
  Hf  Hf3  1  0.678061  0.321016  0.683860  1
  Hf  Hf4  1  0.321016  0.678061  0.683860  1
  Zr  Zr5  1  0.686642  0.686642  0.313358  1
  Al  Al6  1  0.879599  0.879599  0.360195  1
  Al  Al7  1  0.870902  0.362129  0.883484  1
  Al  Al8  1  0.362129  0.870902  0.883484  1
  Al  Al9  1  0.879599  0.879599  0.880606  1
  Al  Al10  1  0.120392  0.120392  0.640209  1
  Al  Al11  1  0.129412  0.637615  0.116487  1
  Al  Al12  1  0.637615  0.129412  0.116487  1
  Al  Al13  1  0.120392  0.120392  0.119009  1
  Al  Al14  1  0.662233  0.662233  0.009874  1
  Al  Al15  1  0.661918  0.012745  0.662669  1
  Al  Al16  1  0.012745  0.661918  0.662669  1
  Al  Al17  1  0.662233  0.662233  0.665658  1
  Al  Al18  1  0.337712  0.337712  0.989536  1
  Al  Al19  1  0.337390  0.987882  0.337364  1
  Al  Al20  1  0.987882  0.337390  0.337364  1
  Al  Al21  1  0.337712  0.337712  0.335042  1
  Os  Os22  1  0.499680  0.499680  0.000320  1
  Pt  Pt23  1  0.999690  0.999690  0.000310  1
  Pt  Pt24  1  0.999810  0.999810  0.500190  1
  Pt  Pt25  1  0.499322  0.000185  0.500662  1
  Pt  Pt26  1  0.000185  0.499322  0.500662  1
  Pt  Pt27  1  0.000185  0.499322  0.999831  1
  Pt  Pt28  1  0.499322  0.000185  0.999831  1
