# generated using pymatgen
data_Pr8Dy9Ho3Si16
_symmetry_space_group_name_H-M   'P 1'
_cell_length_a   7.54854901
_cell_length_b   7.82210801
_cell_length_c   14.87845100
_cell_angle_alpha   90.00000000
_cell_angle_beta   90.00000000
_cell_angle_gamma   89.99446075
_symmetry_Int_Tables_number   1
_chemical_formula_structural   Pr8Dy9Ho3Si16
_chemical_formula_sum   'Pr8 Dy9 Ho3 Si16'
_cell_volume   878.50655132
_cell_formula_units_Z   1
loop_
 _symmetry_equiv_pos_site_id
 _symmetry_equiv_pos_as_xyz
  1  'x, y, z'
loop_
 _atom_site_type_symbol
 _atom_site_label
 _atom_site_symmetry_multiplicity
 _atom_site_fract_x
 _atom_site_fract_y
 _atom_site_fract_z
 _atom_site_occupancy
  Pr  Pr0  1  0.974396  0.820243  0.098275  1
  Pr  Pr1  1  0.474387  0.679767  0.401716  1
  Pr  Pr2  1  0.525657  0.320202  0.901805  1
  Pr  Pr3  1  0.025562  0.179859  0.598188  1
  Pr  Pr4  1  0.025562  0.179859  0.901812  1
  Pr  Pr5  1  0.525657  0.320202  0.598195  1
  Pr  Pr6  1  0.474387  0.679767  0.098284  1
  Pr  Pr7  1  0.974396  0.820243  0.401725  1
  Dy  Dy8  1  0.351183  0.010515  0.750000  1
  Dy  Dy9  1  0.681633  0.821357  0.877075  1
  Dy  Dy10  1  0.181488  0.678550  0.622931  1
  Dy  Dy11  1  0.818433  0.321427  0.122957  1
  Dy  Dy12  1  0.318394  0.178576  0.377028  1
  Dy  Dy13  1  0.318394  0.178576  0.122972  1
  Dy  Dy14  1  0.818433  0.321427  0.377043  1
  Dy  Dy15  1  0.181488  0.678550  0.877069  1
  Dy  Dy16  1  0.681633  0.821357  0.622925  1
  Ho  Ho17  1  0.649008  0.989467  0.250000  1
  Ho  Ho18  1  0.148977  0.510487  0.250000  1
  Ho  Ho19  1  0.850972  0.489357  0.750000  1
  Si  Si20  1  0.767598  0.620572  0.250000  1
  Si  Si21  1  0.267519  0.879440  0.250000  1
  Si  Si22  1  0.733011  0.120583  0.750000  1
  Si  Si23  1  0.232385  0.380007  0.750000  1
  Si  Si24  1  0.023385  0.111546  0.250000  1
  Si  Si25  1  0.523376  0.388380  0.250000  1
  Si  Si26  1  0.476578  0.611469  0.750000  1
  Si  Si27  1  0.976082  0.888324  0.750000  1
  Si  Si28  1  0.857073  0.530632  0.959831  1
  Si  Si29  1  0.357085  0.969295  0.539989  1
  Si  Si30  1  0.642920  0.030614  0.040214  1
  Si  Si31  1  0.142935  0.469404  0.459804  1
  Si  Si32  1  0.142935  0.469404  0.040196  1
  Si  Si33  1  0.642920  0.030614  0.459786  1
  Si  Si34  1  0.357085  0.969295  0.960011  1
  Si  Si35  1  0.857073  0.530632  0.540169  1
