# generated using pymatgen
data_Pr4Dy3Y(SiO5)4
_symmetry_space_group_name_H-M   'P 1'
_cell_length_a   8.15056054
_cell_length_b   8.15162497
_cell_length_c   10.83320097
_cell_angle_alpha   61.12485710
_cell_angle_beta   61.12115168
_cell_angle_gamma   50.28452190
_symmetry_Int_Tables_number   1
_chemical_formula_structural   Pr4Dy3Y(SiO5)4
_chemical_formula_sum   'Pr4 Dy3 Y1 Si4 O20'
_cell_volume   468.29436381
_cell_formula_units_Z   1
loop_
 _symmetry_equiv_pos_site_id
 _symmetry_equiv_pos_as_xyz
  1  'x, y, z'
loop_
 _atom_site_type_symbol
 _atom_site_label
 _atom_site_symmetry_multiplicity
 _atom_site_fract_x
 _atom_site_fract_y
 _atom_site_fract_z
 _atom_site_occupancy
  Pr  Pr0  1  0.782883  0.291479  0.035459  1
  Pr  Pr1  1  0.708521  0.217174  0.464535  1
  Pr  Pr2  1  0.217139  0.708528  0.964616  1
  Pr  Pr3  1  0.291467  0.782866  0.535377  1
  Dy  Dy4  1  0.236868  0.477435  0.336860  1
  Dy  Dy5  1  0.522555  0.763066  0.163188  1
  Dy  Dy6  1  0.763197  0.522648  0.663089  1
  Y  Y7  1  0.477608  0.236692  0.836857  1
  Si  Si8  1  0.728216  0.903168  0.306902  1
  Si  Si9  1  0.096758  0.271784  0.193179  1
  Si  Si10  1  0.271694  0.096748  0.693090  1
  Si  Si11  1  0.903146  0.728222  0.806840  1
  O  O12  1  0.421403  0.611866  0.109758  1
  O  O13  1  0.388121  0.578549  0.390296  1
  O  O14  1  0.578703  0.388507  0.890399  1
  O  O15  1  0.612185  0.421750  0.609274  1
  O  O16  1  0.867192  0.723961  0.432661  1
  O  O17  1  0.275851  0.132473  0.067639  1
  O  O18  1  0.132772  0.276037  0.567323  1
  O  O19  1  0.724190  0.866667  0.932865  1
  O  O20  1  0.565403  0.842708  0.317124  1
  O  O21  1  0.157308  0.434571  0.182873  1
  O  O22  1  0.434649  0.157112  0.682703  1
  O  O23  1  0.842723  0.565363  0.817098  1
  O  O24  1  0.158586  0.588028  0.822888  1
  O  O25  1  0.412630  0.841047  0.677026  1
  O  O26  1  0.841054  0.412650  0.177071  1
  O  O27  1  0.587346  0.158892  0.322972  1
  O  O28  1  0.908497  0.905539  0.645730  1
  O  O29  1  0.094462  0.091395  0.854249  1
  O  O30  1  0.091369  0.094494  0.354285  1
  O  O31  1  0.905508  0.908580  0.145776  1
