# generated using pymatgen
data_Y5Er15(Cd3Rh)2
_symmetry_space_group_name_H-M   'P 1'
_cell_length_a   9.61285702
_cell_length_b   9.61285949
_cell_length_c   9.75082600
_cell_angle_alpha   90.00000000
_cell_angle_beta   90.00000000
_cell_angle_gamma   119.98159764
_symmetry_Int_Tables_number   1
_chemical_formula_structural   Y5Er15(Cd3Rh)2
_chemical_formula_sum   'Y5 Er15 Cd6 Rh2'
_cell_volume   780.47252482
_cell_formula_units_Z   1
loop_
 _symmetry_equiv_pos_site_id
 _symmetry_equiv_pos_as_xyz
  1  'x, y, z'
loop_
 _atom_site_type_symbol
 _atom_site_label
 _atom_site_symmetry_multiplicity
 _atom_site_fract_x
 _atom_site_fract_y
 _atom_site_fract_z
 _atom_site_occupancy
  Y  Y0  1  0.541954  0.458046  0.250000  1
  Y  Y1  1  0.541937  0.083616  0.250000  1
  Y  Y2  1  0.916384  0.458063  0.250000  1
  Y  Y3  1  0.457950  0.915246  0.750000  1
  Y  Y4  1  0.084754  0.542050  0.750000  1
  Er  Er5  1  0.999967  0.000033  0.499803  1
  Er  Er6  1  0.999967  0.000033  0.000197  1
  Er  Er7  1  0.457958  0.542042  0.750000  1
  Er  Er8  1  0.209021  0.790979  0.439950  1
  Er  Er9  1  0.209627  0.418318  0.440371  1
  Er  Er10  1  0.581682  0.790373  0.440371  1
  Er  Er11  1  0.790705  0.209295  0.560973  1
  Er  Er12  1  0.790132  0.581593  0.561230  1
  Er  Er13  1  0.418407  0.209868  0.561230  1
  Er  Er14  1  0.790705  0.209295  0.939027  1
  Er  Er15  1  0.790132  0.581593  0.938770  1
  Er  Er16  1  0.418407  0.209868  0.938770  1
  Er  Er17  1  0.209021  0.790979  0.060050  1
  Er  Er18  1  0.209627  0.418318  0.059629  1
  Er  Er19  1  0.581682  0.790373  0.059629  1
  Cd  Cd20  1  0.885499  0.114501  0.250000  1
  Cd  Cd21  1  0.885218  0.770928  0.250000  1
  Cd  Cd22  1  0.229072  0.114782  0.250000  1
  Cd  Cd23  1  0.114477  0.885523  0.750000  1
  Cd  Cd24  1  0.115773  0.229680  0.750000  1
  Cd  Cd25  1  0.770320  0.884227  0.750000  1
  Rh  Rh26  1  0.666374  0.333626  0.750000  1
  Rh  Rh27  1  0.333247  0.666753  0.250000  1
