# generated using pymatgen
data_Er6Zn17PPd6
_symmetry_space_group_name_H-M   'P 1'
_cell_length_a   9.02854237
_cell_length_b   9.02862049
_cell_length_c   9.02860500
_cell_angle_alpha   59.99984353
_cell_angle_beta   60.00051968
_cell_angle_gamma   59.99938275
_symmetry_Int_Tables_number   1
_chemical_formula_structural   Er6Zn17PPd6
_chemical_formula_sum   'Er6 Zn17 P1 Pd6'
_cell_volume   520.40787533
_cell_formula_units_Z   1
loop_
 _symmetry_equiv_pos_site_id
 _symmetry_equiv_pos_as_xyz
  1  'x, y, z'
loop_
 _atom_site_type_symbol
 _atom_site_label
 _atom_site_symmetry_multiplicity
 _atom_site_fract_x
 _atom_site_fract_y
 _atom_site_fract_z
 _atom_site_occupancy
  Er  Er0  1  0.713791  0.286208  0.286208  1
  Er  Er1  1  0.713790  0.286214  0.713785  1
  Er  Er2  1  0.713784  0.713782  0.286217  1
  Er  Er3  1  0.286209  0.713792  0.713792  1
  Er  Er4  1  0.286210  0.713786  0.286215  1
  Er  Er5  1  0.286216  0.286218  0.713783  1
  Zn  Zn6  1  0.626954  0.124348  0.124347  1
  Zn  Zn7  1  0.124347  0.626960  0.124349  1
  Zn  Zn8  1  0.124346  0.124349  0.626957  1
  Zn  Zn9  1  0.124350  0.124346  0.124349  1
  Zn  Zn10  1  0.373046  0.875652  0.875653  1
  Zn  Zn11  1  0.875653  0.373040  0.875651  1
  Zn  Zn12  1  0.875654  0.875651  0.373043  1
  Zn  Zn13  1  0.875650  0.875654  0.875651  1
  Zn  Zn14  1  0.000000  0.000000  0.000000  1
  Zn  Zn15  1  0.008722  0.330423  0.330431  1
  Zn  Zn16  1  0.330426  0.008720  0.330425  1
  Zn  Zn17  1  0.330429  0.330424  0.008721  1
  Zn  Zn18  1  0.330425  0.330427  0.330425  1
  Zn  Zn19  1  0.991278  0.669577  0.669569  1
  Zn  Zn20  1  0.669574  0.991280  0.669575  1
  Zn  Zn21  1  0.669571  0.669576  0.991279  1
  Zn  Zn22  1  0.669575  0.669573  0.669575  1
  P  P23  1  0.500000  0.500000  0.500000  1
  Pd  Pd24  1  0.500000  0.000000  0.000000  1
  Pd  Pd25  1  0.500000  0.000000  0.500000  1
  Pd  Pd26  1  0.500000  0.500000  0.000000  1
  Pd  Pd27  1  0.000000  0.500000  0.500000  1
  Pd  Pd28  1  0.000000  0.500000  0.000000  1
  Pd  Pd29  1  0.000000  0.000000  0.500000  1
