# generated using pymatgen
data_NiMo12Pd7N4
_symmetry_space_group_name_H-M   'P 1'
_cell_length_a   6.85325245
_cell_length_b   6.85325261
_cell_length_c   6.85325229
_cell_angle_alpha   90.04451382
_cell_angle_beta   90.04451661
_cell_angle_gamma   90.04450560
_symmetry_Int_Tables_number   1
_chemical_formula_structural   NiMo12Pd7N4
_chemical_formula_sum   'Ni1 Mo12 Pd7 N4'
_cell_volume   321.87688977
_cell_formula_units_Z   1
loop_
 _symmetry_equiv_pos_site_id
 _symmetry_equiv_pos_as_xyz
  1  'x, y, z'
loop_
 _atom_site_type_symbol
 _atom_site_label
 _atom_site_symmetry_multiplicity
 _atom_site_fract_x
 _atom_site_fract_y
 _atom_site_fract_z
 _atom_site_occupancy
  Ni  Ni0  1  0.189413  0.189413  0.189413  1
  Mo  Mo1  1  0.801350  0.048605  0.124250  1
  Mo  Mo2  1  0.048605  0.124250  0.801350  1
  Mo  Mo3  1  0.541112  0.372114  0.200700  1
  Mo  Mo4  1  0.877271  0.298336  0.453008  1
  Mo  Mo5  1  0.124250  0.801350  0.048605  1
  Mo  Mo6  1  0.200700  0.541112  0.372114  1
  Mo  Mo7  1  0.298336  0.453008  0.877271  1
  Mo  Mo8  1  0.453008  0.877271  0.298336  1
  Mo  Mo9  1  0.624126  0.702866  0.952264  1
  Mo  Mo10  1  0.952264  0.624126  0.702866  1
  Mo  Mo11  1  0.372114  0.200700  0.541112  1
  Mo  Mo12  1  0.702866  0.952264  0.624126  1
  Pd  Pd13  1  0.431890  0.064588  0.945994  1
  Pd  Pd14  1  0.945994  0.431890  0.064588  1
  Pd  Pd15  1  0.064588  0.945994  0.431890  1
  Pd  Pd16  1  0.310013  0.812353  0.688904  1
  Pd  Pd17  1  0.688904  0.310013  0.812353  1
  Pd  Pd18  1  0.812353  0.688904  0.310013  1
  Pd  Pd19  1  0.560126  0.560126  0.560126  1
  N  N20  1  0.874580  0.874580  0.874580  1
  N  N21  1  0.124725  0.374900  0.626512  1
  N  N22  1  0.626512  0.124725  0.374900  1
  N  N23  1  0.374900  0.626512  0.124725  1
