# generated using pymatgen
data_Er3TmMo2(SeO4)6
_symmetry_space_group_name_H-M   'P 1'
_cell_length_a   6.55487530
_cell_length_b   7.11961349
_cell_length_c   10.80558534
_cell_angle_alpha   84.83671219
_cell_angle_beta   73.34043040
_cell_angle_gamma   86.58741415
_symmetry_Int_Tables_number   1
_chemical_formula_structural   Er3TmMo2(SeO4)6
_chemical_formula_sum   'Er3 Tm1 Mo2 Se6 O24'
_cell_volume   480.84897841
_cell_formula_units_Z   1
loop_
 _symmetry_equiv_pos_site_id
 _symmetry_equiv_pos_as_xyz
  1  'x, y, z'
loop_
 _atom_site_type_symbol
 _atom_site_label
 _atom_site_symmetry_multiplicity
 _atom_site_fract_x
 _atom_site_fract_y
 _atom_site_fract_z
 _atom_site_occupancy
  Er  Er0  1  0.267150  0.362559  0.492052  1
  Er  Er1  1  0.204811  0.182344  0.169340  1
  Er  Er2  1  0.795400  0.817631  0.830527  1
  Tm  Tm3  1  0.733135  0.637707  0.507868  1
  Mo  Mo4  1  0.722921  0.893318  0.205717  1
  Mo  Mo5  1  0.276661  0.106617  0.794584  1
  Se  Se6  1  0.202765  0.658995  0.216445  1
  Se  Se7  1  0.796325  0.341183  0.783694  1
  Se  Se8  1  0.657165  0.365910  0.143251  1
  Se  Se9  1  0.343582  0.633902  0.855886  1
  Se  Se10  1  0.789318  0.140429  0.494881  1
  Se  Se11  1  0.211134  0.859571  0.505302  1
  O  O12  1  0.695333  0.670892  0.299965  1
  O  O13  1  0.304824  0.329298  0.700965  1
  O  O14  1  0.718325  0.957547  0.418481  1
  O  O15  1  0.281403  0.042060  0.582243  1
  O  O16  1  0.449492  0.974862  0.232697  1
  O  O17  1  0.550371  0.025039  0.767569  1
  O  O18  1  0.825311  0.172370  0.179430  1
  O  O19  1  0.174504  0.827405  0.820656  1
  O  O20  1  0.783849  0.832457  0.043009  1
  O  O21  1  0.215589  0.166860  0.957390  1
  O  O22  1  0.060599  0.874575  0.193384  1
  O  O23  1  0.939117  0.125658  0.806341  1
  O  O24  1  0.099720  0.495758  0.147857  1
  O  O25  1  0.899915  0.504223  0.852175  1
  O  O26  1  0.078697  0.600902  0.384199  1
  O  O27  1  0.919292  0.399992  0.615941  1
  O  O28  1  0.546849  0.273622  0.038717  1
  O  O29  1  0.453701  0.725711  0.960706  1
  O  O30  1  0.422600  0.347118  0.272616  1
  O  O31  1  0.578064  0.653511  0.726382  1
  O  O32  1  0.043988  0.191724  0.391823  1
  O  O33  1  0.956298  0.807384  0.607917  1
  O  O34  1  0.639462  0.340759  0.461703  1
  O  O35  1  0.362329  0.660107  0.538286  1
