# generated using pymatgen
data_CaTc6SbO24
_symmetry_space_group_name_H-M   'P 1'
_cell_length_a   10.57898742
_cell_length_b   10.57898660
_cell_length_c   10.57898700
_cell_angle_alpha   48.98196125
_cell_angle_beta   48.98197229
_cell_angle_gamma   48.98197176
_symmetry_Int_Tables_number   1
_chemical_formula_structural   CaTc6SbO24
_chemical_formula_sum   'Ca1 Tc6 Sb1 O24'
_cell_volume   618.82207403
_cell_formula_units_Z   1
loop_
 _symmetry_equiv_pos_site_id
 _symmetry_equiv_pos_as_xyz
  1  'x, y, z'
loop_
 _atom_site_type_symbol
 _atom_site_label
 _atom_site_symmetry_multiplicity
 _atom_site_fract_x
 _atom_site_fract_y
 _atom_site_fract_z
 _atom_site_occupancy
  Ca  Ca0  1  0.500000  0.500000  0.500000  1
  Tc  Tc1  1  0.579411  0.957704  0.223915  1
  Tc  Tc2  1  0.223915  0.579411  0.957704  1
  Tc  Tc3  1  0.957704  0.223915  0.579411  1
  Tc  Tc4  1  0.776085  0.420589  0.042296  1
  Tc  Tc5  1  0.042296  0.776085  0.420589  1
  Tc  Tc6  1  0.420589  0.042296  0.776085  1
  Sb  Sb7  1  0.000000  0.000000  0.000000  1
  O  O8  1  0.812585  0.883700  0.178667  1
  O  O9  1  0.178667  0.812585  0.883700  1
  O  O10  1  0.883700  0.178667  0.812585  1
  O  O11  1  0.669912  0.459927  0.233068  1
  O  O12  1  0.233068  0.669912  0.459927  1
  O  O13  1  0.459927  0.233068  0.669912  1
  O  O14  1  0.187415  0.116300  0.821333  1
  O  O15  1  0.821333  0.187415  0.116300  1
  O  O16  1  0.116300  0.821333  0.187415  1
  O  O17  1  0.330088  0.540073  0.766932  1
  O  O18  1  0.766932  0.330088  0.540073  1
  O  O19  1  0.540073  0.766932  0.330088  1
  O  O20  1  0.431805  0.071774  0.363143  1
  O  O21  1  0.363143  0.431805  0.071774  1
  O  O22  1  0.071774  0.363143  0.431805  1
  O  O23  1  0.976911  0.449883  0.901933  1
  O  O24  1  0.901933  0.976911  0.449883  1
  O  O25  1  0.449883  0.901933  0.976911  1
  O  O26  1  0.568195  0.928226  0.636857  1
  O  O27  1  0.636857  0.568195  0.928226  1
  O  O28  1  0.928226  0.636857  0.568195  1
  O  O29  1  0.023089  0.550117  0.098067  1
  O  O30  1  0.098067  0.023089  0.550117  1
  O  O31  1  0.550117  0.098067  0.023089  1
