# generated using pymatgen
data_Ho2Tm3Tl2Sb
_symmetry_space_group_name_H-M   'P 1'
_cell_length_a   8.90183900
_cell_length_b   8.91396660
_cell_length_c   6.48283400
_cell_angle_alpha   90.00000000
_cell_angle_beta   90.00000000
_cell_angle_gamma   119.95500837
_symmetry_Int_Tables_number   1
_chemical_formula_structural   Ho2Tm3Tl2Sb
_chemical_formula_sum   'Ho4 Tm6 Tl4 Sb2'
_cell_volume   445.70036152
_cell_formula_units_Z   2
loop_
 _symmetry_equiv_pos_site_id
 _symmetry_equiv_pos_as_xyz
  1  'x, y, z'
loop_
 _atom_site_type_symbol
 _atom_site_label
 _atom_site_symmetry_multiplicity
 _atom_site_fract_x
 _atom_site_fract_y
 _atom_site_fract_z
 _atom_site_occupancy
  Ho  Ho0  1  0.234983  0.000000  0.250000  1
  Ho  Ho1  1  0.763658  0.000000  0.750000  1
  Ho  Ho2  1  0.239695  0.234931  0.750000  1
  Ho  Ho3  1  0.004763  0.765069  0.750000  1
  Tm  Tm4  1  0.331618  0.665537  0.004035  1
  Tm  Tm5  1  0.666081  0.334463  0.495965  1
  Tm  Tm6  1  0.666081  0.334463  0.004035  1
  Tm  Tm7  1  0.331618  0.665537  0.495965  1
  Tm  Tm8  1  0.998988  0.236122  0.250000  1
  Tm  Tm9  1  0.762866  0.763878  0.250000  1
  Tl  Tl10  1  0.601443  0.000000  0.250000  1
  Tl  Tl11  1  0.402791  0.000000  0.750000  1
  Tl  Tl12  1  0.997525  0.603530  0.250000  1
  Tl  Tl13  1  0.393996  0.396470  0.250000  1
  Sb  Sb14  1  0.605072  0.606248  0.750000  1
  Sb  Sb15  1  0.998823  0.393752  0.750000  1
