# generated using pymatgen
data_Er14Tm2In4RuRh3
_symmetry_space_group_name_H-M   'P 1'
_cell_length_a   9.57439531
_cell_length_b   9.57439550
_cell_length_c   9.58790625
_cell_angle_alpha   59.94297441
_cell_angle_beta   59.94296900
_cell_angle_gamma   59.87410291
_symmetry_Int_Tables_number   1
_chemical_formula_structural   Er14Tm2In4RuRh3
_chemical_formula_sum   'Er14 Tm2 In4 Ru1 Rh3'
_cell_volume   620.35801526
_cell_formula_units_Z   1
loop_
 _symmetry_equiv_pos_site_id
 _symmetry_equiv_pos_as_xyz
  1  'x, y, z'
loop_
 _atom_site_type_symbol
 _atom_site_label
 _atom_site_symmetry_multiplicity
 _atom_site_fract_x
 _atom_site_fract_y
 _atom_site_fract_z
 _atom_site_occupancy
  Er  Er0  1  0.059599  0.059599  0.438069  1
  Er  Er1  1  0.441159  0.061196  0.436143  1
  Er  Er2  1  0.061391  0.438893  0.060764  1
  Er  Er3  1  0.046496  0.650493  0.649259  1
  Er  Er4  1  0.438242  0.438242  0.060959  1
  Er  Er5  1  0.650493  0.046496  0.649259  1
  Er  Er6  1  0.189148  0.810400  0.192993  1
  Er  Er7  1  0.191085  0.191085  0.810069  1
  Er  Er8  1  0.809137  0.809137  0.193764  1
  Er  Er9  1  0.438893  0.061391  0.060764  1
  Er  Er10  1  0.810400  0.189148  0.192993  1
  Er  Er11  1  0.061196  0.441159  0.436143  1
  Er  Er12  1  0.809577  0.191896  0.809181  1
  Er  Er13  1  0.191896  0.809577  0.809181  1
  Tm  Tm14  1  0.649602  0.649602  0.048599  1
  Tm  Tm15  1  0.652637  0.652637  0.650314  1
  In  In16  1  0.417128  0.417128  0.417089  1
  In  In17  1  0.748673  0.417565  0.416827  1
  In  In18  1  0.417565  0.748673  0.416827  1
  In  In19  1  0.417698  0.417698  0.747555  1
  Ru  Ru20  1  0.857658  0.857658  0.424206  1
  Rh  Rh21  1  0.857881  0.857881  0.861090  1
  Rh  Rh22  1  0.425626  0.856824  0.858976  1
  Rh  Rh23  1  0.856824  0.425626  0.858976  1
