# generated using pymatgen
data_Y4CoReOs6
_symmetry_space_group_name_H-M   'P 1'
_cell_length_a   5.38627119
_cell_length_b   5.27982353
_cell_length_c   8.84125400
_cell_angle_alpha   90.00000000
_cell_angle_beta   90.00000000
_cell_angle_gamma   121.34220041
_symmetry_Int_Tables_number   1
_chemical_formula_structural   Y4CoReOs6
_chemical_formula_sum   'Y4 Co1 Re1 Os6'
_cell_volume   214.74249035
_cell_formula_units_Z   1
loop_
 _symmetry_equiv_pos_site_id
 _symmetry_equiv_pos_as_xyz
  1  'x, y, z'
loop_
 _atom_site_type_symbol
 _atom_site_label
 _atom_site_symmetry_multiplicity
 _atom_site_fract_x
 _atom_site_fract_y
 _atom_site_fract_z
 _atom_site_occupancy
  Y  Y0  1  0.332492  0.662287  0.434218  1
  Y  Y1  1  0.666748  0.328554  0.563340  1
  Y  Y2  1  0.666748  0.328554  0.936660  1
  Y  Y3  1  0.332492  0.662287  0.065782  1
  Co  Co4  1  0.830158  0.182240  0.250000  1
  Re  Re5  1  0.830956  0.670322  0.250000  1
  Os  Os6  1  0.994496  0.984606  0.496682  1
  Os  Os7  1  0.994496  0.984606  0.003318  1
  Os  Os8  1  0.346838  0.181860  0.250000  1
  Os  Os9  1  0.167454  0.833420  0.750000  1
  Os  Os10  1  0.175953  0.350535  0.750000  1
  Os  Os11  1  0.661170  0.830730  0.750000  1
