# generated using pymatgen
data_Y2Al7Si2Os2Pd
_symmetry_space_group_name_H-M   'P 1'
_cell_length_a   7.52638726
_cell_length_b   7.49832986
_cell_length_c   9.45435881
_cell_angle_alpha   89.90187466
_cell_angle_beta   90.02129417
_cell_angle_gamma   119.54501479
_symmetry_Int_Tables_number   1
_chemical_formula_structural   Y2Al7Si2Os2Pd
_chemical_formula_sum   'Y4 Al14 Si4 Os4 Pd2'
_cell_volume   464.17958508
_cell_formula_units_Z   2
loop_
 _symmetry_equiv_pos_site_id
 _symmetry_equiv_pos_as_xyz
  1  'x, y, z'
loop_
 _atom_site_type_symbol
 _atom_site_label
 _atom_site_symmetry_multiplicity
 _atom_site_fract_x
 _atom_site_fract_y
 _atom_site_fract_z
 _atom_site_occupancy
  Y  Y0  1  0.001396  0.673810  0.251099  1
  Y  Y1  1  0.006030  0.336062  0.753697  1
  Y  Y2  1  0.673003  0.001311  0.248914  1
  Y  Y3  1  0.317858  0.991251  0.746056  1
  Al  Al4  1  0.134657  0.132165  0.249953  1
  Al  Al5  1  0.868115  0.864574  0.750138  1
  Al  Al6  1  0.002227  0.335744  0.428138  1
  Al  Al7  1  0.663713  0.998935  0.576549  1
  Al  Al8  1  0.656340  0.995709  0.922985  1
  Al  Al9  1  0.345184  0.006556  0.072086  1
  Al  Al10  1  0.337594  0.339823  0.556562  1
  Al  Al11  1  0.658651  0.663451  0.443727  1
  Al  Al12  1  0.658617  0.662299  0.056341  1
  Al  Al13  1  0.341309  0.337747  0.943501  1
  Al  Al14  1  0.337451  0.549769  0.250707  1
  Al  Al15  1  0.659370  0.447473  0.751057  1
  Al  Al16  1  0.551147  0.343440  0.249068  1
  Al  Al17  1  0.452100  0.660535  0.749266  1
  Si  Si18  1  0.003249  0.338047  0.074399  1
  Si  Si19  1  0.995256  0.661551  0.931668  1
  Si  Si20  1  0.988235  0.648911  0.567897  1
  Si  Si21  1  0.350501  0.010161  0.425884  1
  Os  Os22  1  0.688518  0.335777  0.002139  1
  Os  Os23  1  0.311442  0.664567  0.998291  1
  Os  Os24  1  0.318219  0.680517  0.500351  1
  Os  Os25  1  0.671990  0.328237  0.499528  1
  Pd  Pd26  1  0.000670  0.999406  0.000113  1
  Pd  Pd27  1  0.007161  0.992168  0.499884  1
