# generated using pymatgen
data_Tb17Dy2LuSn16
_symmetry_space_group_name_H-M   'P 1'
_cell_length_a   8.06053700
_cell_length_b   8.20146809
_cell_length_c   15.53969000
_cell_angle_alpha   90.00000000
_cell_angle_beta   90.00000000
_cell_angle_gamma   89.94442632
_symmetry_Int_Tables_number   1
_chemical_formula_structural   Tb17Dy2LuSn16
_chemical_formula_sum   'Tb17 Dy2 Lu1 Sn16'
_cell_volume   1027.30102642
_cell_formula_units_Z   1
loop_
 _symmetry_equiv_pos_site_id
 _symmetry_equiv_pos_as_xyz
  1  'x, y, z'
loop_
 _atom_site_type_symbol
 _atom_site_label
 _atom_site_symmetry_multiplicity
 _atom_site_fract_x
 _atom_site_fract_y
 _atom_site_fract_z
 _atom_site_occupancy
  Tb  Tb0  1  0.367523  0.836838  0.877647  1
  Tb  Tb1  1  0.868177  0.662621  0.622270  1
  Tb  Tb2  1  0.632123  0.163028  0.377947  1
  Tb  Tb3  1  0.132153  0.337042  0.121535  1
  Tb  Tb4  1  0.632123  0.163028  0.122053  1
  Tb  Tb5  1  0.132153  0.337042  0.378465  1
  Tb  Tb6  1  0.367523  0.836838  0.622353  1
  Tb  Tb7  1  0.868177  0.662621  0.877730  1
  Tb  Tb8  1  0.520646  0.321061  0.902400  1
  Tb  Tb9  1  0.021174  0.179624  0.597644  1
  Tb  Tb10  1  0.479385  0.679362  0.402862  1
  Tb  Tb11  1  0.979276  0.820633  0.097460  1
  Tb  Tb12  1  0.479385  0.679362  0.097138  1
  Tb  Tb13  1  0.979276  0.820633  0.402540  1
  Tb  Tb14  1  0.520646  0.321061  0.597600  1
  Tb  Tb15  1  0.021174  0.179624  0.902356  1
  Tb  Tb16  1  0.698639  0.997424  0.750000  1
  Dy  Dy17  1  0.800907  0.496942  0.250000  1
  Dy  Dy18  1  0.300934  0.002908  0.250000  1
  Lu  Lu19  1  0.199083  0.503325  0.750000  1
  Sn  Sn20  1  0.292504  0.035953  0.041471  1
  Sn  Sn21  1  0.792371  0.463740  0.458443  1
  Sn  Sn22  1  0.707717  0.964054  0.541873  1
  Sn  Sn23  1  0.207667  0.535748  0.957093  1
  Sn  Sn24  1  0.707717  0.964054  0.958127  1
  Sn  Sn25  1  0.207667  0.535748  0.542907  1
  Sn  Sn26  1  0.292504  0.035953  0.458529  1
  Sn  Sn27  1  0.792371  0.463740  0.041557  1
  Sn  Sn28  1  0.563698  0.617346  0.750000  1
  Sn  Sn29  1  0.065981  0.880618  0.750000  1
  Sn  Sn30  1  0.433721  0.381373  0.250000  1
  Sn  Sn31  1  0.934336  0.118692  0.250000  1
  Sn  Sn32  1  0.329424  0.150016  0.750000  1
  Sn  Sn33  1  0.830844  0.352823  0.750000  1
  Sn  Sn34  1  0.670325  0.851932  0.250000  1
  Sn  Sn35  1  0.170673  0.647199  0.250000  1
