# generated using pymatgen
data_CaCd2(BO3)2
_symmetry_space_group_name_H-M   'P 1'
_cell_length_a   4.85667900
_cell_length_b   6.11595100
_cell_length_c   9.25137500
_cell_angle_alpha   90.00000000
_cell_angle_beta   90.00000000
_cell_angle_gamma   90.00000000
_symmetry_Int_Tables_number   1
_chemical_formula_structural   CaCd2(BO3)2
_chemical_formula_sum   'Ca2 Cd4 B4 O12'
_cell_volume   274.79554169
_cell_formula_units_Z   2
loop_
 _symmetry_equiv_pos_site_id
 _symmetry_equiv_pos_as_xyz
  1  'x, y, z'
loop_
 _atom_site_type_symbol
 _atom_site_label
 _atom_site_symmetry_multiplicity
 _atom_site_fract_x
 _atom_site_fract_y
 _atom_site_fract_z
 _atom_site_occupancy
  Ca  Ca0  1  0.000000  0.500000  0.186662  1
  Ca  Ca1  1  0.500000  0.000000  0.313338  1
  Cd  Cd2  1  0.000000  0.500000  0.811399  1
  Cd  Cd3  1  0.500000  0.000000  0.688601  1
  Cd  Cd4  1  0.500000  0.500000  0.506444  1
  Cd  Cd5  1  0.000000  0.000000  0.993556  1
  B  B6  1  0.035030  0.242892  0.501978  1
  B  B7  1  0.464970  0.742892  0.998022  1
  B  B8  1  0.964970  0.757108  0.501978  1
  B  B9  1  0.535030  0.257108  0.998022  1
  O  O10  1  0.320517  0.784743  0.868710  1
  O  O11  1  0.820517  0.715257  0.631290  1
  O  O12  1  0.322896  0.782115  0.126676  1
  O  O13  1  0.677104  0.217885  0.126676  1
  O  O14  1  0.822896  0.717885  0.373324  1
  O  O15  1  0.177104  0.282115  0.373324  1
  O  O16  1  0.739813  0.681291  0.999111  1
  O  O17  1  0.239813  0.818709  0.500889  1
  O  O18  1  0.760187  0.181291  0.500889  1
  O  O19  1  0.260187  0.318709  0.999111  1
  O  O20  1  0.679483  0.215257  0.868710  1
  O  O21  1  0.179483  0.284743  0.631290  1
