# generated using pymatgen
data_Tb5NdCo17TcP12
_symmetry_space_group_name_H-M   'P 1'
_cell_length_a   3.72257400
_cell_length_b   10.55639500
_cell_length_c   12.26321100
_cell_angle_alpha   90.00000000
_cell_angle_beta   90.00000000
_cell_angle_gamma   90.00000000
_symmetry_Int_Tables_number   1
_chemical_formula_structural   Tb5NdCo17TcP12
_chemical_formula_sum   'Tb5 Nd1 Co17 Tc1 P12'
_cell_volume   481.90693128
_cell_formula_units_Z   1
loop_
 _symmetry_equiv_pos_site_id
 _symmetry_equiv_pos_as_xyz
  1  'x, y, z'
loop_
 _atom_site_type_symbol
 _atom_site_label
 _atom_site_symmetry_multiplicity
 _atom_site_fract_x
 _atom_site_fract_y
 _atom_site_fract_z
 _atom_site_occupancy
  Tb  Tb0  1  0.000000  0.500000  0.523690  1
  Tb  Tb1  1  0.500000  0.817180  0.206127  1
  Tb  Tb2  1  0.500000  0.182820  0.206127  1
  Tb  Tb3  1  0.000000  0.682870  0.794994  1
  Tb  Tb4  1  0.000000  0.317130  0.794994  1
  Nd  Nd5  1  0.500000  0.000000  0.477834  1
  Co  Co6  1  0.000000  0.000000  0.841301  1
  Co  Co7  1  0.500000  0.500000  0.703701  1
  Co  Co8  1  0.000000  0.000000  0.293936  1
  Co  Co9  1  0.000000  0.500000  0.987658  1
  Co  Co10  1  0.500000  0.000000  0.014163  1
  Co  Co11  1  0.500000  0.332119  0.991496  1
  Co  Co12  1  0.500000  0.667881  0.991496  1
  Co  Co13  1  0.000000  0.166535  0.005385  1
  Co  Co14  1  0.000000  0.833465  0.005385  1
  Co  Co15  1  0.500000  0.298204  0.430199  1
  Co  Co16  1  0.500000  0.701796  0.430199  1
  Co  Co17  1  0.000000  0.205511  0.569713  1
  Co  Co18  1  0.000000  0.794489  0.569713  1
  Co  Co19  1  0.500000  0.879188  0.710449  1
  Co  Co20  1  0.500000  0.120812  0.710449  1
  Co  Co21  1  0.000000  0.619820  0.291090  1
  Co  Co22  1  0.000000  0.380180  0.291090  1
  Tc  Tc23  1  0.500000  0.500000  0.156510  1
  P  P24  1  0.500000  0.500000  0.882205  1
  P  P25  1  0.000000  0.000000  0.115975  1
  P  P26  1  0.500000  0.500000  0.348056  1
  P  P27  1  0.000000  0.000000  0.659450  1
  P  P28  1  0.500000  0.310578  0.616261  1
  P  P29  1  0.500000  0.689422  0.616261  1
  P  P30  1  0.000000  0.191876  0.383574  1
  P  P31  1  0.000000  0.808124  0.383574  1
  P  P32  1  0.500000  0.849297  0.892848  1
  P  P33  1  0.500000  0.150703  0.892848  1
  P  P34  1  0.000000  0.655228  0.105627  1
  P  P35  1  0.000000  0.344772  0.105627  1
