# generated using pymatgen
data_Li26Si7P
_symmetry_space_group_name_H-M   'P 1'
_cell_length_a   7.84987217
_cell_length_b   14.93001591
_cell_length_c   4.40139400
_cell_angle_alpha   90.00000000
_cell_angle_beta   90.00000000
_cell_angle_gamma   90.42890222
_symmetry_Int_Tables_number   1
_chemical_formula_structural   Li26Si7P
_chemical_formula_sum   'Li26 Si7 P1'
_cell_volume   515.82327444
_cell_formula_units_Z   1
loop_
 _symmetry_equiv_pos_site_id
 _symmetry_equiv_pos_as_xyz
  1  'x, y, z'
loop_
 _atom_site_type_symbol
 _atom_site_label
 _atom_site_symmetry_multiplicity
 _atom_site_fract_x
 _atom_site_fract_y
 _atom_site_fract_z
 _atom_site_occupancy
  Li  Li0  1  0.497440  0.001876  0.000000  1
  Li  Li1  1  0.148943  0.023961  0.000000  1
  Li  Li2  1  0.772120  0.154454  0.000000  1
  Li  Li3  1  0.095694  0.191951  0.000000  1
  Li  Li4  1  0.590680  0.306486  0.000000  1
  Li  Li5  1  0.265940  0.349800  0.000000  1
  Li  Li6  1  0.650473  0.474845  0.000000  1
  Li  Li7  1  0.997325  0.499572  0.000000  1
  Li  Li8  1  0.349905  0.524733  0.000000  1
  Li  Li9  1  0.730285  0.652349  0.000000  1
  Li  Li10  1  0.407353  0.693483  0.000000  1
  Li  Li11  1  0.907071  0.806911  0.000000  1
  Li  Li12  1  0.230713  0.847398  0.000000  1
  Li  Li13  1  0.850381  0.974912  0.000000  1
  Li  Li14  1  0.259429  0.093763  0.500000  1
  Li  Li15  1  0.596379  0.106110  0.500000  1
  Li  Li16  1  0.908353  0.246095  0.500000  1
  Li  Li17  1  0.402287  0.254343  0.500000  1
  Li  Li18  1  0.093770  0.393924  0.500000  1
  Li  Li19  1  0.759135  0.404199  0.500000  1
  Li  Li20  1  0.239837  0.593704  0.500000  1
  Li  Li21  1  0.904849  0.606551  0.500000  1
  Li  Li22  1  0.595695  0.745001  0.500000  1
  Li  Li23  1  0.094680  0.754533  0.500000  1
  Li  Li24  1  0.404819  0.891742  0.500000  1
  Li  Li25  1  0.740386  0.907255  0.500000  1
  Si  Si26  1  0.916664  0.337915  0.000000  1
  Si  Si27  1  0.084046  0.659857  0.000000  1
  Si  Si28  1  0.584635  0.841866  0.000000  1
  Si  Si29  1  0.927625  0.072642  0.500000  1
  Si  Si30  1  0.425333  0.427987  0.500000  1
  Si  Si31  1  0.575109  0.568410  0.500000  1
  Si  Si32  1  0.077256  0.931753  0.500000  1
  P  P33  1  0.415401  0.159622  0.000000  1
