# generated using pymatgen
data_TbGd2Y(B4Mo)4
_symmetry_space_group_name_H-M   'P 1'
_cell_length_a   3.64157700
_cell_length_b   6.05028101
_cell_length_c   11.69731746
_cell_angle_alpha   90.01881270
_cell_angle_beta   90.00000000
_cell_angle_gamma   90.00000000
_symmetry_Int_Tables_number   1
_chemical_formula_structural   TbGd2Y(B4Mo)4
_chemical_formula_sum   'Tb1 Gd2 Y1 B16 Mo4'
_cell_volume   257.72188353
_cell_formula_units_Z   1
loop_
 _symmetry_equiv_pos_site_id
 _symmetry_equiv_pos_as_xyz
  1  'x, y, z'
loop_
 _atom_site_type_symbol
 _atom_site_label
 _atom_site_symmetry_multiplicity
 _atom_site_fract_x
 _atom_site_fract_y
 _atom_site_fract_z
 _atom_site_occupancy
  Tb  Tb0  1  0.000000  0.873330  0.850086  1
  Gd  Gd1  1  0.000000  0.373424  0.650044  1
  Gd  Gd2  1  0.000000  0.126545  0.150044  1
  Y  Y3  1  0.000000  0.626620  0.350071  1
  B  B4  1  0.500000  0.785864  0.186030  1
  B  B5  1  0.500000  0.213969  0.813977  1
  B  B6  1  0.500000  0.286015  0.314019  1
  B  B7  1  0.500000  0.714080  0.686079  1
  B  B8  1  0.500000  0.866039  0.031943  1
  B  B9  1  0.500000  0.133784  0.967891  1
  B  B10  1  0.500000  0.366230  0.467937  1
  B  B11  1  0.500000  0.633794  0.531995  1
  B  B12  1  0.500000  0.886087  0.452671  1
  B  B13  1  0.500000  0.113801  0.547241  1
  B  B14  1  0.500000  0.386316  0.047237  1
  B  B15  1  0.500000  0.613924  0.952724  1
  B  B16  1  0.500000  0.975879  0.306989  1
  B  B17  1  0.500000  0.024071  0.693158  1
  B  B18  1  0.500000  0.475997  0.193132  1
  B  B19  1  0.500000  0.524152  0.806943  1
  Mo  Mo20  1  0.000000  0.629534  0.083540  1
  Mo  Mo21  1  0.000000  0.370742  0.916325  1
  Mo  Mo22  1  0.000000  0.129285  0.416382  1
  Mo  Mo23  1  0.000000  0.870521  0.583542  1
