# generated using pymatgen
data_Tc4As5P
_symmetry_space_group_name_H-M   'P 1'
_cell_length_a   6.60352827
_cell_length_b   6.64130968
_cell_length_c   8.01581112
_cell_angle_alpha   95.85860231
_cell_angle_beta   101.66002011
_cell_angle_gamma   104.44574043
_symmetry_Int_Tables_number   1
_chemical_formula_structural   Tc4As5P
_chemical_formula_sum   'Tc8 As10 P2'
_cell_volume   329.06483614
_cell_formula_units_Z   2
loop_
 _symmetry_equiv_pos_site_id
 _symmetry_equiv_pos_as_xyz
  1  'x, y, z'
loop_
 _atom_site_type_symbol
 _atom_site_label
 _atom_site_symmetry_multiplicity
 _atom_site_fract_x
 _atom_site_fract_y
 _atom_site_fract_z
 _atom_site_occupancy
  Tc  Tc0  1  0.869544  0.429885  0.138368  1
  Tc  Tc1  1  0.130456  0.570115  0.861632  1
  Tc  Tc2  1  0.417683  0.427638  0.147236  1
  Tc  Tc3  1  0.582317  0.572362  0.852764  1
  Tc  Tc4  1  0.589959  0.869105  0.375352  1
  Tc  Tc5  1  0.410041  0.130895  0.624648  1
  Tc  Tc6  1  0.027877  0.859347  0.364592  1
  Tc  Tc7  1  0.972123  0.140653  0.635408  1
  As  As8  1  0.238721  0.584581  0.362906  1
  As  As9  1  0.761279  0.415419  0.637094  1
  As  As10  1  0.872054  0.155448  0.320988  1
  As  As11  1  0.127946  0.844552  0.679012  1
  As  As12  1  0.359356  0.129171  0.314249  1
  As  As13  1  0.640644  0.870829  0.685751  1
  As  As14  1  0.534267  0.190483  0.951221  1
  As  As15  1  0.465733  0.809517  0.048779  1
  As  As16  1  0.043573  0.204582  0.964044  1
  As  As17  1  0.956427  0.795418  0.035956  1
  P  P18  1  0.735521  0.570495  0.376266  1
  P  P19  1  0.264479  0.429505  0.623734  1
