# generated using pymatgen
data_Sm6Ga(P3Rh5)4
_symmetry_space_group_name_H-M   'P 1'
_cell_length_a   13.53080700
_cell_length_b   13.53080623
_cell_length_c   3.91904000
_cell_angle_alpha   90.00000000
_cell_angle_beta   90.00000000
_cell_angle_gamma   119.99999943
_symmetry_Int_Tables_number   1
_chemical_formula_structural   Sm6Ga(P3Rh5)4
_chemical_formula_sum   'Sm6 Ga1 P12 Rh20'
_cell_volume   621.38062076
_cell_formula_units_Z   1
loop_
 _symmetry_equiv_pos_site_id
 _symmetry_equiv_pos_as_xyz
  1  'x, y, z'
loop_
 _atom_site_type_symbol
 _atom_site_label
 _atom_site_symmetry_multiplicity
 _atom_site_fract_x
 _atom_site_fract_y
 _atom_site_fract_z
 _atom_site_occupancy
  Sm  Sm0  1  0.530737  0.717380  0.249769  1
  Sm  Sm1  1  0.282620  0.813357  0.249769  1
  Sm  Sm2  1  0.186643  0.469263  0.249769  1
  Sm  Sm3  1  0.469263  0.282620  0.750231  1
  Sm  Sm4  1  0.717380  0.186643  0.750231  1
  Sm  Sm5  1  0.813357  0.530737  0.750231  1
  Ga  Ga6  1  0.000000  0.000000  0.000000  1
  P  P7  1  0.524901  0.136779  0.250260  1
  P  P8  1  0.863221  0.388121  0.250260  1
  P  P9  1  0.611879  0.475099  0.250260  1
  P  P10  1  0.949040  0.720886  0.248694  1
  P  P11  1  0.279114  0.228154  0.248694  1
  P  P12  1  0.771846  0.050960  0.248694  1
  P  P13  1  0.388121  0.524901  0.749740  1
  P  P14  1  0.475099  0.863221  0.749740  1
  P  P15  1  0.136779  0.611879  0.749740  1
  P  P16  1  0.720886  0.771846  0.751306  1
  P  P17  1  0.228154  0.949040  0.751306  1
  P  P18  1  0.050960  0.279114  0.751306  1
  Rh  Rh19  1  0.333333  0.666667  0.751458  1
  Rh  Rh20  1  0.921616  0.252185  0.249090  1
  Rh  Rh21  1  0.747815  0.669431  0.249090  1
  Rh  Rh22  1  0.330569  0.078384  0.249090  1
  Rh  Rh23  1  0.443090  0.026942  0.749702  1
  Rh  Rh24  1  0.973058  0.416148  0.749702  1
  Rh  Rh25  1  0.583852  0.556910  0.749702  1
  Rh  Rh26  1  0.666667  0.333333  0.248542  1
  Rh  Rh27  1  0.095609  0.199968  0.254458  1
  Rh  Rh28  1  0.800032  0.895641  0.254458  1
  Rh  Rh29  1  0.104359  0.904391  0.254458  1
  Rh  Rh30  1  0.026942  0.583852  0.250298  1
  Rh  Rh31  1  0.416148  0.443090  0.250298  1
  Rh  Rh32  1  0.556910  0.973058  0.250298  1
  Rh  Rh33  1  0.669431  0.921616  0.750910  1
  Rh  Rh34  1  0.078384  0.747815  0.750910  1
  Rh  Rh35  1  0.252185  0.330569  0.750910  1
  Rh  Rh36  1  0.904391  0.800032  0.745542  1
  Rh  Rh37  1  0.199968  0.104359  0.745542  1
  Rh  Rh38  1  0.895641  0.095609  0.745542  1
