# generated using pymatgen
data_LaPr2(InPd)3
_symmetry_space_group_name_H-M   'P 1'
_cell_length_a   7.78435904
_cell_length_b   7.78435881
_cell_length_c   4.13466500
_cell_angle_alpha   90.00000000
_cell_angle_beta   90.00000000
_cell_angle_gamma   119.76733974
_symmetry_Int_Tables_number   1
_chemical_formula_structural   LaPr2(InPd)3
_chemical_formula_sum   'La1 Pr2 In3 Pd3'
_cell_volume   217.48538352
_cell_formula_units_Z   1
loop_
 _symmetry_equiv_pos_site_id
 _symmetry_equiv_pos_as_xyz
  1  'x, y, z'
loop_
 _atom_site_type_symbol
 _atom_site_label
 _atom_site_symmetry_multiplicity
 _atom_site_fract_x
 _atom_site_fract_y
 _atom_site_fract_z
 _atom_site_occupancy
  La  La0  1  0.410018  0.410018  0.500000  1
  Pr  Pr1  1  0.590931  0.999553  0.500000  1
  Pr  Pr2  1  0.999553  0.590931  0.500000  1
  In  In3  1  0.752971  0.752971  0.000000  1
  In  In4  1  0.249591  0.998257  0.000000  1
  In  In5  1  0.998257  0.249591  0.000000  1
  Pd  Pd6  1  0.665181  0.333498  0.000000  1
  Pd  Pd7  1  0.333498  0.665181  0.000000  1
  Pd  Pd8  1  0.000000  0.000000  0.500000  1
