# generated using pymatgen
data_Tb3Mn2Sb3O14
_symmetry_space_group_name_H-M   'P 1'
_cell_length_a   7.26066973
_cell_length_b   7.26065744
_cell_length_c   7.26065606
_cell_angle_alpha   117.97580877
_cell_angle_beta   62.02419378
_cell_angle_gamma   117.97578966
_symmetry_Int_Tables_number   1
_chemical_formula_structural   Tb3Mn2Sb3O14
_chemical_formula_sum   'Tb3 Mn2 Sb3 O14'
_cell_volume   282.90546497
_cell_formula_units_Z   1
loop_
 _symmetry_equiv_pos_site_id
 _symmetry_equiv_pos_as_xyz
  1  'x, y, z'
loop_
 _atom_site_type_symbol
 _atom_site_label
 _atom_site_symmetry_multiplicity
 _atom_site_fract_x
 _atom_site_fract_y
 _atom_site_fract_z
 _atom_site_occupancy
  Tb  Tb0  1  0.999994  0.499998  0.000004  1
  Tb  Tb1  1  0.500008  0.000003  0.999998  1
  Tb  Tb2  1  0.500001  0.499998  0.499996  1
  Mn  Mn3  1  0.499973  0.500042  0.000012  1
  Mn  Mn4  1  0.999997  0.000007  0.500013  1
  Sb  Sb5  1  0.500003  0.999997  0.500000  1
  Sb  Sb6  1  0.000002  0.499998  0.499999  1
  Sb  Sb7  1  0.000003  0.999997  0.999999  1
  O  O8  1  0.619038  0.380962  0.119040  1
  O  O9  1  0.380960  0.619037  0.880956  1
  O  O10  1  0.083382  0.322206  0.177790  1
  O  O11  1  0.677792  0.916616  0.177788  1
  O  O12  1  0.677792  0.322205  0.583380  1
  O  O13  1  0.916621  0.677787  0.822207  1
  O  O14  1  0.322213  0.083378  0.822208  1
  O  O15  1  0.322212  0.677789  0.416617  1
  O  O16  1  0.641447  0.903110  0.596884  1
  O  O17  1  0.096890  0.358551  0.596885  1
  O  O18  1  0.096888  0.903107  0.141442  1
  O  O19  1  0.358559  0.096886  0.403113  1
  O  O20  1  0.903116  0.641442  0.403114  1
  O  O21  1  0.903113  0.096884  0.858553  1
