# generated using pymatgen
data_La2Ga10Co
_symmetry_space_group_name_H-M   'P 1'
_cell_length_a   4.36387450
_cell_length_b   4.36387521
_cell_length_c   13.61931515
_cell_angle_alpha   99.21902321
_cell_angle_beta   99.21902763
_cell_angle_gamma   90.00001046
_symmetry_Int_Tables_number   1
_chemical_formula_structural   La2Ga10Co
_chemical_formula_sum   'La2 Ga10 Co1'
_cell_volume   252.61349661
_cell_formula_units_Z   1
loop_
 _symmetry_equiv_pos_site_id
 _symmetry_equiv_pos_as_xyz
  1  'x, y, z'
loop_
 _atom_site_type_symbol
 _atom_site_label
 _atom_site_symmetry_multiplicity
 _atom_site_fract_x
 _atom_site_fract_y
 _atom_site_fract_z
 _atom_site_occupancy
  La  La0  1  0.643889  0.643889  0.287780  1
  La  La1  1  0.356111  0.356111  0.712220  1
  Ga  Ga2  1  0.548045  0.048045  0.096089  1
  Ga  Ga3  1  0.048045  0.548045  0.096089  1
  Ga  Ga4  1  0.104905  0.104905  0.209811  1
  Ga  Ga5  1  0.196545  0.196545  0.393090  1
  Ga  Ga6  1  0.750000  0.250000  0.500000  1
  Ga  Ga7  1  0.250000  0.750000  0.500000  1
  Ga  Ga8  1  0.803455  0.803455  0.606910  1
  Ga  Ga9  1  0.895095  0.895095  0.790188  1
  Ga  Ga10  1  0.951955  0.451955  0.903910  1
  Ga  Ga11  1  0.451955  0.951955  0.903910  1
  Co  Co12  1  0.500000  0.500000  0.000000  1
