# generated using pymatgen
data_Rb3Mn(IO3)6
_symmetry_space_group_name_H-M   'P 1'
_cell_length_a   7.07124731
_cell_length_b   7.30694614
_cell_length_c   10.71021031
_cell_angle_alpha   86.28330609
_cell_angle_beta   108.46651684
_cell_angle_gamma   107.62286061
_symmetry_Int_Tables_number   1
_chemical_formula_structural   Rb3Mn(IO3)6
_chemical_formula_sum   'Rb3 Mn1 I6 O18'
_cell_volume   499.96478348
_cell_formula_units_Z   1
loop_
 _symmetry_equiv_pos_site_id
 _symmetry_equiv_pos_as_xyz
  1  'x, y, z'
loop_
 _atom_site_type_symbol
 _atom_site_label
 _atom_site_symmetry_multiplicity
 _atom_site_fract_x
 _atom_site_fract_y
 _atom_site_fract_z
 _atom_site_occupancy
  Rb  Rb0  1  0.000000  0.000000  0.000000  1
  Rb  Rb1  1  0.832781  0.025310  0.601684  1
  Rb  Rb2  1  0.167219  0.974690  0.398316  1
  Mn  Mn3  1  0.500000  0.500000  0.000000  1
  I  I4  1  0.022310  0.473595  0.188804  1
  I  I5  1  0.977690  0.526405  0.811196  1
  I  I6  1  0.554528  0.954776  0.187505  1
  I  I7  1  0.445472  0.045224  0.812495  1
  I  I8  1  0.409456  0.547042  0.643628  1
  I  I9  1  0.590544  0.452958  0.356372  1
  O  O10  1  0.809118  0.535319  0.048105  1
  O  O11  1  0.190882  0.464681  0.951895  1
  O  O12  1  0.954343  0.545143  0.325289  1
  O  O13  1  0.045657  0.454857  0.674711  1
  O  O14  1  0.922076  0.211773  0.186700  1
  O  O15  1  0.077924  0.788227  0.813300  1
  O  O16  1  0.572353  0.818473  0.053730  1
  O  O17  1  0.427647  0.181527  0.946270  1
  O  O18  1  0.284433  0.840802  0.187270  1
  O  O19  1  0.715567  0.159198  0.812730  1
  O  O20  1  0.695005  0.840863  0.329579  1
  O  O21  1  0.304995  0.159137  0.670421  1
  O  O22  1  0.522946  0.592057  0.827120  1
  O  O23  1  0.477054  0.407943  0.172880  1
  O  O24  1  0.666496  0.566399  0.624076  1
  O  O25  1  0.333504  0.433601  0.375924  1
  O  O26  1  0.408917  0.793464  0.606222  1
  O  O27  1  0.591083  0.206536  0.393778  1
