# generated using pymatgen
data_Ho3Al12PdRu3
_symmetry_space_group_name_H-M   'P 1'
_cell_length_a   8.84727749
_cell_length_b   8.77377385
_cell_length_c   9.56557104
_cell_angle_alpha   90.00000106
_cell_angle_beta   89.85582622
_cell_angle_gamma   119.72554901
_symmetry_Int_Tables_number   1
_chemical_formula_structural   Ho3Al12PdRu3
_chemical_formula_sum   'Ho6 Al24 Pd2 Ru6'
_cell_volume   644.80771731
_cell_formula_units_Z   2
loop_
 _symmetry_equiv_pos_site_id
 _symmetry_equiv_pos_as_xyz
  1  'x, y, z'
loop_
 _atom_site_type_symbol
 _atom_site_label
 _atom_site_symmetry_multiplicity
 _atom_site_fract_x
 _atom_site_fract_y
 _atom_site_fract_z
 _atom_site_occupancy
  Ho  Ho0  1  0.191712  0.387330  0.252847  1
  Ho  Ho1  1  0.808288  0.612670  0.747153  1
  Ho  Ho2  1  0.614725  0.807363  0.251804  1
  Ho  Ho3  1  0.385275  0.192637  0.748196  1
  Ho  Ho4  1  0.191712  0.804383  0.252847  1
  Ho  Ho5  1  0.808288  0.195617  0.747153  1
  Al  Al6  1  0.327249  0.663625  0.024348  1
  Al  Al7  1  0.672751  0.336375  0.975652  1
  Al  Al8  1  0.666639  0.333319  0.521396  1
  Al  Al9  1  0.333361  0.666681  0.478604  1
  Al  Al10  1  0.163667  0.326447  0.577162  1
  Al  Al11  1  0.836333  0.673553  0.422838  1
  Al  Al12  1  0.673945  0.836973  0.575582  1
  Al  Al13  1  0.842822  0.675460  0.079410  1
  Al  Al14  1  0.326055  0.163027  0.424418  1
  Al  Al15  1  0.157178  0.324540  0.920590  1
  Al  Al16  1  0.163667  0.837222  0.577162  1
  Al  Al17  1  0.322126  0.161062  0.080586  1
  Al  Al18  1  0.836333  0.162778  0.422838  1
  Al  Al19  1  0.677874  0.838938  0.919414  1
  Al  Al20  1  0.842822  0.167360  0.079410  1
  Al  Al21  1  0.157178  0.832640  0.920590  1
  Al  Al22  1  0.562119  0.124400  0.252412  1
  Al  Al23  1  0.437881  0.875600  0.747588  1
  Al  Al24  1  0.877900  0.438950  0.248959  1
  Al  Al25  1  0.122100  0.561050  0.751041  1
  Al  Al26  1  0.562119  0.437719  0.252412  1
  Al  Al27  1  0.437881  0.562281  0.747588  1
  Al  Al28  1  0.997799  0.998900  0.250525  1
  Al  Al29  1  0.002201  0.001100  0.749475  1
  Pd  Pd30  1  0.500000  0.000000  0.000000  1
  Pd  Pd31  1  0.500000  0.500000  0.000000  1
  Ru  Ru32  1  0.000000  0.500000  0.000000  1
  Ru  Ru33  1  0.500000  0.000000  0.500000  1
  Ru  Ru34  1  0.000000  0.500000  0.500000  1
  Ru  Ru35  1  0.500000  0.500000  0.500000  1
  Ru  Ru36  1  0.000000  0.000000  0.000000  1
  Ru  Ru37  1  0.000000  0.000000  0.500000  1
