# generated using pymatgen
data_Ca2Ti2FeNi(P2O9)2
_symmetry_space_group_name_H-M   'P 1'
_cell_length_a   6.48936500
_cell_length_b   7.46980100
_cell_length_c   14.35587500
_cell_angle_alpha   90.00001534
_cell_angle_beta   90.00002649
_cell_angle_gamma   90.00002301
_symmetry_Int_Tables_number   1
_chemical_formula_structural   Ca2Ti2FeNi(P2O9)2
_chemical_formula_sum   'Ca4 Ti4 Fe2 Ni2 P8 O36'
_cell_volume   695.89049145
_cell_formula_units_Z   2
loop_
 _symmetry_equiv_pos_site_id
 _symmetry_equiv_pos_as_xyz
  1  'x, y, z'
loop_
 _atom_site_type_symbol
 _atom_site_label
 _atom_site_symmetry_multiplicity
 _atom_site_fract_x
 _atom_site_fract_y
 _atom_site_fract_z
 _atom_site_occupancy
  Ca  Ca0  1  0.751711  0.883758  0.780618  1
  Ca  Ca1  1  0.751711  0.616243  0.280618  1
  Ca  Ca2  1  0.248289  0.116243  0.219382  1
  Ca  Ca3  1  0.248290  0.383756  0.719382  1
  Ti  Ti4  1  0.749878  0.346345  0.882684  1
  Ti  Ti5  1  0.250122  0.653656  0.117316  1
  Ti  Ti6  1  0.250122  0.846345  0.617315  1
  Ti  Ti7  1  0.749878  0.153656  0.382684  1
  Fe  Fe8  1  0.500000  0.000001  0.000001  1
  Fe  Fe9  1  0.500000  0.500001  0.500001  1
  Ni  Ni10  1  0.000001  0.500000  0.500000  1
  Ni  Ni11  1  0.000001  0.000003  0.000000  1
  P  P12  1  0.247826  0.356401  0.935620  1
  P  P13  1  0.752174  0.643599  0.064380  1
  P  P14  1  0.752174  0.856401  0.564380  1
  P  P15  1  0.247826  0.143600  0.435619  1
  P  P16  1  0.750471  0.392743  0.691930  1
  P  P17  1  0.249529  0.607256  0.308071  1
  P  P18  1  0.249529  0.892743  0.808070  1
  P  P19  1  0.750471  0.107256  0.191930  1
  O  O20  1  0.052807  0.608020  0.367751  1
  O  O21  1  0.551764  0.392647  0.632974  1
  O  O22  1  0.947193  0.108020  0.132249  1
  O  O23  1  0.448236  0.892648  0.867026  1
  O  O24  1  0.947193  0.391979  0.632249  1
  O  O25  1  0.448236  0.607352  0.367026  1
  O  O26  1  0.052807  0.891979  0.867751  1
  O  O27  1  0.551763  0.107351  0.132974  1
  O  O28  1  0.242957  0.327567  0.482849  1
  O  O29  1  0.757043  0.672433  0.517151  1
  O  O30  1  0.757043  0.827567  0.017151  1
  O  O31  1  0.242957  0.172433  0.982849  1
  O  O32  1  0.759635  0.140304  0.938615  1
  O  O33  1  0.240365  0.859696  0.061384  1
  O  O34  1  0.240365  0.640305  0.561385  1
  O  O35  1  0.759635  0.359697  0.438616  1
  O  O36  1  0.750079  0.221184  0.756521  1
  O  O37  1  0.249921  0.778816  0.243479  1
  O  O38  1  0.249921  0.721183  0.743478  1
  O  O39  1  0.750079  0.278816  0.256522  1
  O  O40  1  0.438293  0.126944  0.370200  1
  O  O41  1  0.938600  0.879627  0.631275  1
  O  O42  1  0.561708  0.626944  0.129799  1
  O  O43  1  0.061399  0.379627  0.868725  1
  O  O44  1  0.561707  0.873056  0.629799  1
  O  O45  1  0.061399  0.120373  0.368725  1
  O  O46  1  0.438292  0.373055  0.870201  1
  O  O47  1  0.938601  0.620372  0.131275  1
  O  O48  1  0.749664  0.952977  0.265559  1
  O  O49  1  0.250335  0.047022  0.734440  1
  O  O50  1  0.250336  0.452977  0.234441  1
  O  O51  1  0.749664  0.547023  0.765559  1
  O  O52  1  0.749914  0.001813  0.489234  1
  O  O53  1  0.250086  0.998188  0.510765  1
  O  O54  1  0.250086  0.501813  0.010766  1
  O  O55  1  0.749914  0.498186  0.989235  1
