# generated using pymatgen
data_Hf2U5Pa(Bi2Sb3)2
_symmetry_space_group_name_H-M   'P 1'
_cell_length_a   9.36222900
_cell_length_b   9.35401434
_cell_length_c   6.25880100
_cell_angle_alpha   90.00000000
_cell_angle_beta   90.00000000
_cell_angle_gamma   120.02905829
_symmetry_Int_Tables_number   1
_chemical_formula_structural   Hf2U5Pa(Bi2Sb3)2
_chemical_formula_sum   'Hf2 U5 Pa1 Bi4 Sb6'
_cell_volume   474.53890697
_cell_formula_units_Z   1
loop_
 _symmetry_equiv_pos_site_id
 _symmetry_equiv_pos_as_xyz
  1  'x, y, z'
loop_
 _atom_site_type_symbol
 _atom_site_label
 _atom_site_symmetry_multiplicity
 _atom_site_fract_x
 _atom_site_fract_y
 _atom_site_fract_z
 _atom_site_occupancy
  Hf  Hf0  1  0.998188  0.000000  0.499093  1
  Hf  Hf1  1  0.998188  0.000000  0.000907  1
  U  U2  1  0.381324  0.381175  0.250000  1
  U  U3  1  0.000148  0.618825  0.250000  1
  U  U4  1  0.000846  0.380955  0.750000  1
  U  U5  1  0.619891  0.619045  0.750000  1
  U  U6  1  0.618557  0.000000  0.250000  1
  Pa  Pa7  1  0.382391  0.000000  0.750000  1
  Bi  Bi8  1  0.333702  0.666373  0.500087  1
  Bi  Bi9  1  0.667331  0.333627  0.999913  1
  Bi  Bi10  1  0.667331  0.333627  0.500087  1
  Bi  Bi11  1  0.333702  0.666373  0.999913  1
  Sb  Sb12  1  0.729360  0.000000  0.750000  1
  Sb  Sb13  1  0.729577  0.730036  0.250000  1
  Sb  Sb14  1  0.999541  0.269964  0.250000  1
  Sb  Sb15  1  0.000457  0.731357  0.750000  1
  Sb  Sb16  1  0.270365  0.000000  0.250000  1
  Sb  Sb17  1  0.269100  0.268643  0.750000  1
