# generated using pymatgen
data_Tm4Ga2B4(RuRh)5
_symmetry_space_group_name_H-M   'P 1'
_cell_length_a   9.55643224
_cell_length_b   9.55213325
_cell_length_c   3.08497200
_cell_angle_alpha   90.00000000
_cell_angle_beta   90.00000000
_cell_angle_gamma   90.12007534
_symmetry_Int_Tables_number   1
_chemical_formula_structural   Tm4Ga2B4(RuRh)5
_chemical_formula_sum   'Tm4 Ga2 B4 Ru5 Rh5'
_cell_volume   281.60893480
_cell_formula_units_Z   1
loop_
 _symmetry_equiv_pos_site_id
 _symmetry_equiv_pos_as_xyz
  1  'x, y, z'
loop_
 _atom_site_type_symbol
 _atom_site_label
 _atom_site_symmetry_multiplicity
 _atom_site_fract_x
 _atom_site_fract_y
 _atom_site_fract_z
 _atom_site_occupancy
  Tm  Tm0  1  0.827019  0.321748  0.000000  1
  Tm  Tm1  1  0.322337  0.174452  0.000000  1
  Tm  Tm2  1  0.674990  0.827758  0.000000  1
  Tm  Tm3  1  0.176182  0.675881  0.000000  1
  Ga  Ga4  1  0.000587  0.002296  0.000000  1
  Ga  Ga5  1  0.499409  0.499467  0.000000  1
  B  B6  1  0.626159  0.116655  0.000000  1
  B  B7  1  0.117623  0.374076  0.000000  1
  B  B8  1  0.880325  0.620570  0.000000  1
  B  B9  1  0.373860  0.882611  0.000000  1
  Ru  Ru10  1  0.070186  0.218197  0.500000  1
  Ru  Ru11  1  0.216761  0.930128  0.500000  1
  Ru  Ru12  1  0.783536  0.068960  0.500000  1
  Ru  Ru13  1  0.499167  0.000479  0.500000  1
  Ru  Ru14  1  0.999845  0.501835  0.500000  1
  Rh  Rh15  1  0.930077  0.783737  0.500000  1
  Rh  Rh16  1  0.431378  0.716429  0.500000  1
  Rh  Rh17  1  0.570144  0.282820  0.500000  1
  Rh  Rh18  1  0.717400  0.570010  0.500000  1
  Rh  Rh19  1  0.283016  0.431890  0.500000  1
