# generated using pymatgen
data_LaPrTh(SnIr)3
_symmetry_space_group_name_H-M   'P 1'
_cell_length_a   7.63532004
_cell_length_b   7.57142883
_cell_length_c   4.17317700
_cell_angle_alpha   90.00000000
_cell_angle_beta   90.00000000
_cell_angle_gamma   120.38161087
_symmetry_Int_Tables_number   1
_chemical_formula_structural   LaPrTh(SnIr)3
_chemical_formula_sum   'La1 Pr1 Th1 Sn3 Ir3'
_cell_volume   208.12278524
_cell_formula_units_Z   1
loop_
 _symmetry_equiv_pos_site_id
 _symmetry_equiv_pos_as_xyz
  1  'x, y, z'
loop_
 _atom_site_type_symbol
 _atom_site_label
 _atom_site_symmetry_multiplicity
 _atom_site_fract_x
 _atom_site_fract_y
 _atom_site_fract_z
 _atom_site_occupancy
  La  La0  1  0.000979  0.587449  0.000000  1
  Pr  Pr1  1  0.410453  0.409520  0.000000  1
  Th  Th2  1  0.586537  0.000087  0.000000  1
  Sn  Sn3  1  0.243840  0.002313  0.500000  1
  Sn  Sn4  1  0.007218  0.255552  0.500000  1
  Sn  Sn5  1  0.748056  0.743431  0.500000  1
  Ir  Ir6  1  0.349767  0.688411  0.500000  1
  Ir  Ir7  1  0.665320  0.313078  0.500000  1
  Ir  Ir8  1  0.987830  0.000159  0.000000  1
