# generated using pymatgen
data_Th4Cu3Au5
_symmetry_space_group_name_H-M   'P 1'
_cell_length_a   4.65230000
_cell_length_b   6.96386300
_cell_length_c   8.07789037
_cell_angle_alpha   90.21123627
_cell_angle_beta   90.00000000
_cell_angle_gamma   90.00000000
_symmetry_Int_Tables_number   1
_chemical_formula_structural   Th4Cu3Au5
_chemical_formula_sum   'Th4 Cu3 Au5'
_cell_volume   261.70555089
_cell_formula_units_Z   1
loop_
 _symmetry_equiv_pos_site_id
 _symmetry_equiv_pos_as_xyz
  1  'x, y, z'
loop_
 _atom_site_type_symbol
 _atom_site_label
 _atom_site_symmetry_multiplicity
 _atom_site_fract_x
 _atom_site_fract_y
 _atom_site_fract_z
 _atom_site_occupancy
  Th  Th0  1  0.500000  0.502419  0.763815  1
  Th  Th1  1  0.500000  0.996457  0.734383  1
  Th  Th2  1  0.000000  0.499416  0.237343  1
  Th  Th3  1  0.000000  0.998238  0.266762  1
  Cu  Cu4  1  0.500000  0.724821  0.416629  1
  Cu  Cu5  1  0.000000  0.772422  0.916680  1
  Cu  Cu6  1  0.000000  0.278411  0.577820  1
  Au  Au7  1  0.500000  0.762640  0.084682  1
  Au  Au8  1  0.500000  0.270136  0.431803  1
  Au  Au9  1  0.000000  0.230979  0.898032  1
  Au  Au10  1  0.000000  0.732177  0.583880  1
  Au  Au11  1  0.500000  0.231884  0.088172  1
