# generated using pymatgen
data_Nd2Dy5FeBr12
_symmetry_space_group_name_H-M   'P 1'
_cell_length_a   9.28351672
_cell_length_b   9.23921321
_cell_length_c   9.32076335
_cell_angle_alpha   106.63524123
_cell_angle_beta   106.45815264
_cell_angle_gamma   107.44632709
_symmetry_Int_Tables_number   1
_chemical_formula_structural   Nd2Dy5FeBr12
_chemical_formula_sum   'Nd2 Dy5 Fe1 Br12'
_cell_volume   668.52446550
_cell_formula_units_Z   1
loop_
 _symmetry_equiv_pos_site_id
 _symmetry_equiv_pos_as_xyz
  1  'x, y, z'
loop_
 _atom_site_type_symbol
 _atom_site_label
 _atom_site_symmetry_multiplicity
 _atom_site_fract_x
 _atom_site_fract_y
 _atom_site_fract_z
 _atom_site_occupancy
  Nd  Nd0  1  0.595639  0.798568  0.521259  1
  Nd  Nd1  1  0.404361  0.201432  0.478741  1
  Dy  Dy2  1  0.806528  0.524980  0.597772  1
  Dy  Dy3  1  0.521552  0.597757  0.803982  1
  Dy  Dy4  1  0.193472  0.475020  0.402228  1
  Dy  Dy5  1  0.478448  0.402243  0.196018  1
  Dy  Dy6  1  0.000000  0.000000  0.000000  1
  Fe  Fe7  1  0.500000  0.500000  0.500000  1
  Br  Br8  1  0.735598  0.192442  0.578561  1
  Br  Br9  1  0.969689  0.887241  0.672991  1
  Br  Br10  1  0.569761  0.716806  0.172710  1
  Br  Br11  1  0.114812  0.333533  0.040637  1
  Br  Br12  1  0.668723  0.961017  0.891915  1
  Br  Br13  1  0.885188  0.666467  0.959363  1
  Br  Br14  1  0.030311  0.112759  0.327009  1
  Br  Br15  1  0.819085  0.429008  0.279172  1
  Br  Br16  1  0.331277  0.038983  0.108085  1
  Br  Br17  1  0.264402  0.807558  0.421439  1
  Br  Br18  1  0.180915  0.570992  0.720828  1
  Br  Br19  1  0.430239  0.283194  0.827290  1
