# generated using pymatgen
data_KCrNi(Sb6Os)2
_symmetry_space_group_name_H-M   'P 1'
_cell_length_a   8.19478664
_cell_length_b   8.21866684
_cell_length_c   8.12753808
_cell_angle_alpha   109.60484705
_cell_angle_beta   109.30359070
_cell_angle_gamma   109.73497553
_symmetry_Int_Tables_number   1
_chemical_formula_structural   KCrNi(Sb6Os)2
_chemical_formula_sum   'K1 Cr1 Ni1 Sb12 Os2'
_cell_volume   420.17842055
_cell_formula_units_Z   1
loop_
 _symmetry_equiv_pos_site_id
 _symmetry_equiv_pos_as_xyz
  1  'x, y, z'
loop_
 _atom_site_type_symbol
 _atom_site_label
 _atom_site_symmetry_multiplicity
 _atom_site_fract_x
 _atom_site_fract_y
 _atom_site_fract_z
 _atom_site_occupancy
  K  K0  1  0.000000  0.000000  0.000000  1
  Cr  Cr1  1  0.000000  0.000000  0.500000  1
  Ni  Ni2  1  0.000000  0.500000  0.000000  1
  Sb  Sb3  1  0.346301  0.184969  0.845951  1
  Sb  Sb4  1  0.653699  0.815031  0.154049  1
  Sb  Sb5  1  0.660483  0.501886  0.844633  1
  Sb  Sb6  1  0.339517  0.498114  0.155367  1
  Sb  Sb7  1  0.187358  0.837137  0.337777  1
  Sb  Sb8  1  0.812642  0.162863  0.662223  1
  Sb  Sb9  1  0.503881  0.842184  0.659778  1
  Sb  Sb10  1  0.496119  0.157816  0.340222  1
  Sb  Sb11  1  0.844314  0.341996  0.184361  1
  Sb  Sb12  1  0.155686  0.658004  0.815639  1
  Sb  Sb13  1  0.840087  0.654130  0.500085  1
  Sb  Sb14  1  0.159913  0.345870  0.499915  1
  Os  Os15  1  0.500000  0.000000  0.000000  1
  Os  Os16  1  0.500000  0.500000  0.500000  1
