# generated using pymatgen
data_Sm3Bi(AuCl6)4
_symmetry_space_group_name_H-M   'P 1'
_cell_length_a   7.82740912
_cell_length_b   10.16275005
_cell_length_c   14.28972300
_cell_angle_alpha   103.73028229
_cell_angle_beta   96.86964374
_cell_angle_gamma   112.19579831
_symmetry_Int_Tables_number   1
_chemical_formula_structural   Sm3Bi(AuCl6)4
_chemical_formula_sum   'Sm3 Bi1 Au4 Cl24'
_cell_volume   994.34989947
_cell_formula_units_Z   1
loop_
 _symmetry_equiv_pos_site_id
 _symmetry_equiv_pos_as_xyz
  1  'x, y, z'
loop_
 _atom_site_type_symbol
 _atom_site_label
 _atom_site_symmetry_multiplicity
 _atom_site_fract_x
 _atom_site_fract_y
 _atom_site_fract_z
 _atom_site_occupancy
  Sm  Sm0  1  0.027749  0.686930  0.128514  1
  Sm  Sm1  1  0.419887  0.078892  0.377954  1
  Sm  Sm2  1  0.975587  0.316180  0.872016  1
  Bi  Bi3  1  0.584005  0.936327  0.621516  1
  Au  Au4  1  0.292787  0.631189  0.765805  1
  Au  Au5  1  0.498211  0.498040  0.498616  1
  Au  Au6  1  0.707561  0.366763  0.236783  1
  Au  Au7  1  0.999551  0.999193  0.998769  1
  Cl  Cl8  1  0.783208  0.099673  0.969747  1
  Cl  Cl9  1  0.720215  0.153751  0.264054  1
  Cl  Cl10  1  0.277107  0.844040  0.742460  1
  Cl  Cl11  1  0.774546  0.793867  0.027380  1
  Cl  Cl12  1  0.617269  0.194811  0.739776  1
  Cl  Cl13  1  0.302660  0.412608  0.785820  1
  Cl  Cl14  1  0.696062  0.583044  0.214108  1
  Cl  Cl15  1  0.298050  0.616273  0.495274  1
  Cl  Cl16  1  0.225474  0.204233  0.970314  1
  Cl  Cl17  1  0.753076  0.723328  0.521905  1
  Cl  Cl18  1  0.217200  0.900504  0.028986  1
  Cl  Cl19  1  0.731080  0.056856  0.488710  1
  Cl  Cl20  1  0.603662  0.722001  0.751516  1
  Cl  Cl21  1  0.948497  0.061638  0.730352  1
  Cl  Cl22  1  0.244689  0.269310  0.474674  1
  Cl  Cl23  1  0.381749  0.812334  0.257268  1
  Cl  Cl24  1  0.977733  0.537328  0.778271  1
  Cl  Cl25  1  0.766276  0.435379  0.976654  1
  Cl  Cl26  1  0.235637  0.564142  0.023426  1
  Cl  Cl27  1  0.020283  0.461033  0.222299  1
  Cl  Cl28  1  0.395040  0.270484  0.252101  1
  Cl  Cl29  1  0.276570  0.953573  0.515741  1
  Cl  Cl30  1  0.696230  0.374761  0.500097  1
  Cl  Cl31  1  0.052349  0.941514  0.269091  1
