# generated using pymatgen
data_Ba5Cd4Hg
_symmetry_space_group_name_H-M   'P 1'
_cell_length_a   4.29288500
_cell_length_b   4.29288500
_cell_length_c   21.20779700
_cell_angle_alpha   90.00000000
_cell_angle_beta   90.00000000
_cell_angle_gamma   90.00000000
_symmetry_Int_Tables_number   1
_chemical_formula_structural   Ba5Cd4Hg
_chemical_formula_sum   'Ba5 Cd4 Hg1'
_cell_volume   390.83555625
_cell_formula_units_Z   1
loop_
 _symmetry_equiv_pos_site_id
 _symmetry_equiv_pos_as_xyz
  1  'x, y, z'
loop_
 _atom_site_type_symbol
 _atom_site_label
 _atom_site_symmetry_multiplicity
 _atom_site_fract_x
 _atom_site_fract_y
 _atom_site_fract_z
 _atom_site_occupancy
  Ba  Ba0  1  0.500000  0.500000  0.097131  1
  Ba  Ba1  1  0.500000  0.500000  0.299407  1
  Ba  Ba2  1  0.500000  0.500000  0.500000  1
  Ba  Ba3  1  0.500000  0.500000  0.700593  1
  Ba  Ba4  1  0.500000  0.500000  0.902869  1
  Cd  Cd5  1  0.000000  0.000000  0.199452  1
  Cd  Cd6  1  0.000000  0.000000  0.399961  1
  Cd  Cd7  1  0.000000  0.000000  0.600039  1
  Cd  Cd8  1  0.000000  0.000000  0.800548  1
  Hg  Hg9  1  0.000000  0.000000  0.000000  1
