# generated using pymatgen
data_Yb5Sc(Si3Ru)8
_symmetry_space_group_name_H-M   'P 1'
_cell_length_a   10.13453815
_cell_length_b   10.13453783
_cell_length_c   8.13951152
_cell_angle_alpha   90.01563174
_cell_angle_beta   90.01563566
_cell_angle_gamma   132.61457305
_symmetry_Int_Tables_number   1
_chemical_formula_structural   Yb5Sc(Si3Ru)8
_chemical_formula_sum   'Yb5 Sc1 Si24 Ru8'
_cell_volume   615.23304057
_cell_formula_units_Z   1
loop_
 _symmetry_equiv_pos_site_id
 _symmetry_equiv_pos_as_xyz
  1  'x, y, z'
loop_
 _atom_site_type_symbol
 _atom_site_label
 _atom_site_symmetry_multiplicity
 _atom_site_fract_x
 _atom_site_fract_y
 _atom_site_fract_z
 _atom_site_occupancy
  Yb  Yb0  1  0.498286  0.998101  0.250126  1
  Yb  Yb1  1  0.001899  0.501714  0.749874  1
  Yb  Yb2  1  0.501714  0.001899  0.749874  1
  Yb  Yb3  1  0.998101  0.498286  0.250126  1
  Yb  Yb4  1  0.000000  0.000000  0.000000  1
  Sc  Sc5  1  0.500000  0.500000  0.500000  1
  Si  Si6  1  0.386479  0.153453  0.006806  1
  Si  Si7  1  0.654337  0.887418  0.494179  1
  Si  Si8  1  0.112582  0.345663  0.505821  1
  Si  Si9  1  0.846547  0.613521  0.993194  1
  Si  Si10  1  0.613521  0.846547  0.993194  1
  Si  Si11  1  0.345663  0.112582  0.505821  1
  Si  Si12  1  0.887418  0.654337  0.494179  1
  Si  Si13  1  0.153453  0.386479  0.006806  1
  Si  Si14  1  0.608904  0.376785  0.230338  1
  Si  Si15  1  0.876645  0.109830  0.270554  1
  Si  Si16  1  0.890170  0.123355  0.729446  1
  Si  Si17  1  0.623215  0.391096  0.769662  1
  Si  Si18  1  0.391096  0.623215  0.769662  1
  Si  Si19  1  0.123355  0.890170  0.729446  1
  Si  Si20  1  0.705757  0.294243  0.000000  1
  Si  Si21  1  0.793953  0.206047  0.500000  1
  Si  Si22  1  0.294243  0.705757  0.000000  1
  Si  Si23  1  0.206047  0.793953  0.500000  1
  Si  Si24  1  0.167000  0.167000  0.332203  1
  Si  Si25  1  0.667055  0.667055  0.167667  1
  Si  Si26  1  0.332945  0.332945  0.832333  1
  Si  Si27  1  0.833000  0.833000  0.667797  1
  Si  Si28  1  0.376785  0.608904  0.230338  1
  Si  Si29  1  0.109830  0.876645  0.270554  1
  Ru  Ru30  1  0.624537  0.624537  0.871979  1
  Ru  Ru31  1  0.129122  0.129122  0.623470  1
  Ru  Ru32  1  0.870878  0.870878  0.376530  1
  Ru  Ru33  1  0.375463  0.375463  0.128021  1
  Ru  Ru34  1  0.332348  0.667652  0.500000  1
  Ru  Ru35  1  0.169325  0.830675  0.000000  1
  Ru  Ru36  1  0.667652  0.332348  0.500000  1
  Ru  Ru37  1  0.830675  0.169325  0.000000  1
