# generated using pymatgen
data_Yb2CuNi3
_symmetry_space_group_name_H-M   'P 1'
_cell_length_a   4.97832079
_cell_length_b   4.97832025
_cell_length_c   4.97832039
_cell_angle_alpha   60.33400358
_cell_angle_beta   60.33401161
_cell_angle_gamma   60.33400527
_symmetry_Int_Tables_number   1
_chemical_formula_structural   Yb2CuNi3
_chemical_formula_sum   'Yb2 Cu1 Ni3'
_cell_volume   87.90286513
_cell_formula_units_Z   1
loop_
 _symmetry_equiv_pos_site_id
 _symmetry_equiv_pos_as_xyz
  1  'x, y, z'
loop_
 _atom_site_type_symbol
 _atom_site_label
 _atom_site_symmetry_multiplicity
 _atom_site_fract_x
 _atom_site_fract_y
 _atom_site_fract_z
 _atom_site_occupancy
  Yb  Yb0  1  0.624172  0.624172  0.624172  1
  Yb  Yb1  1  0.375828  0.375828  0.375828  1
  Cu  Cu2  1  0.000000  0.000000  0.000000  1
  Ni  Ni3  1  0.000000  0.500000  0.000000  1
  Ni  Ni4  1  0.500000  0.000000  0.000000  1
  Ni  Ni5  1  0.000000  0.000000  0.500000  1
