# generated using pymatgen
data_LaHg3(Pt2O7)2
_symmetry_space_group_name_H-M   'P 1'
_cell_length_a   7.34325716
_cell_length_b   7.39886504
_cell_length_c   7.34325700
_cell_angle_alpha   60.24830477
_cell_angle_beta   59.99999620
_cell_angle_gamma   60.24830345
_symmetry_Int_Tables_number   1
_chemical_formula_structural   LaHg3(Pt2O7)2
_chemical_formula_sum   'La1 Hg3 Pt4 O14'
_cell_volume   283.17007929
_cell_formula_units_Z   1
loop_
 _symmetry_equiv_pos_site_id
 _symmetry_equiv_pos_as_xyz
  1  'x, y, z'
loop_
 _atom_site_type_symbol
 _atom_site_label
 _atom_site_symmetry_multiplicity
 _atom_site_fract_x
 _atom_site_fract_y
 _atom_site_fract_z
 _atom_site_occupancy
  La  La0  1  0.125000  0.625000  0.125000  1
  Hg  Hg1  1  0.125000  0.125000  0.125000  1
  Hg  Hg2  1  0.625000  0.125000  0.125000  1
  Hg  Hg3  1  0.125000  0.125000  0.625000  1
  Pt  Pt4  1  0.625000  0.625000  0.125000  1
  Pt  Pt5  1  0.625000  0.625000  0.625000  1
  Pt  Pt6  1  0.625000  0.125000  0.625000  1
  Pt  Pt7  1  0.125000  0.625000  0.625000  1
  O  O8  1  0.701894  0.299084  0.297129  1
  O  O9  1  0.701894  0.299084  0.701894  1
  O  O10  1  0.990768  0.027695  0.990768  1
  O  O11  1  0.295392  0.698558  0.295392  1
  O  O12  1  0.710658  0.698558  0.295392  1
  O  O13  1  0.954608  0.551442  0.539342  1
  O  O14  1  0.295392  0.698558  0.710658  1
  O  O15  1  0.259232  0.222305  0.259232  1
  O  O16  1  0.954608  0.551442  0.954608  1
  O  O17  1  0.548106  0.950916  0.548106  1
  O  O18  1  0.539342  0.551442  0.954608  1
  O  O19  1  0.952871  0.950916  0.548106  1
  O  O20  1  0.548106  0.950916  0.952871  1
  O  O21  1  0.297129  0.299084  0.701894  1
