# generated using pymatgen
data_Ho2Al9CuRePd
_symmetry_space_group_name_H-M   'P 1'
_cell_length_a   7.55785843
_cell_length_b   7.55785796
_cell_length_c   9.46444721
_cell_angle_alpha   89.91379227
_cell_angle_beta   89.91379193
_cell_angle_gamma   118.45586087
_symmetry_Int_Tables_number   1
_chemical_formula_structural   Ho2Al9CuRePd
_chemical_formula_sum   'Ho4 Al18 Cu2 Re2 Pd2'
_cell_volume   475.30331994
_cell_formula_units_Z   2
loop_
 _symmetry_equiv_pos_site_id
 _symmetry_equiv_pos_as_xyz
  1  'x, y, z'
loop_
 _atom_site_type_symbol
 _atom_site_label
 _atom_site_symmetry_multiplicity
 _atom_site_fract_x
 _atom_site_fract_y
 _atom_site_fract_z
 _atom_site_occupancy
  Ho  Ho0  1  0.993911  0.681111  0.248417  1
  Ho  Ho1  1  0.006089  0.318889  0.751583  1
  Ho  Ho2  1  0.681111  0.993911  0.248417  1
  Ho  Ho3  1  0.318889  0.006089  0.751583  1
  Al  Al4  1  0.134903  0.134903  0.249241  1
  Al  Al5  1  0.865097  0.865097  0.750759  1
  Al  Al6  1  0.000214  0.336863  0.078002  1
  Al  Al7  1  0.999786  0.663137  0.921998  1
  Al  Al8  1  0.999148  0.664190  0.577449  1
  Al  Al9  1  0.335810  0.000852  0.422551  1
  Al  Al10  1  0.000852  0.335810  0.422551  1
  Al  Al11  1  0.664190  0.999148  0.577449  1
  Al  Al12  1  0.663137  0.999786  0.921998  1
  Al  Al13  1  0.336863  0.000214  0.078002  1
  Al  Al14  1  0.329005  0.329005  0.548419  1
  Al  Al15  1  0.670995  0.670996  0.451581  1
  Al  Al16  1  0.668376  0.668377  0.051199  1
  Al  Al17  1  0.331624  0.331624  0.948801  1
  Al  Al18  1  0.346191  0.556437  0.248446  1
  Al  Al19  1  0.653809  0.443563  0.751554  1
  Al  Al20  1  0.556437  0.346191  0.248446  1
  Al  Al21  1  0.443563  0.653809  0.751554  1
  Cu  Cu22  1  0.670893  0.329107  0.000000  1
  Cu  Cu23  1  0.329107  0.670893  0.000000  1
  Re  Re24  1  0.000000  0.000000  0.000000  1
  Re  Re25  1  0.000000  0.000000  0.500000  1
  Pd  Pd26  1  0.328308  0.671692  0.500000  1
  Pd  Pd27  1  0.671692  0.328308  0.500000  1
