# generated using pymatgen
data_Sm4Co8P12(RuRh3)3
_symmetry_space_group_name_H-M   'P 1'
_cell_length_a   3.82357000
_cell_length_b   10.72326301
_cell_length_c   12.20833401
_cell_angle_alpha   90.00472702
_cell_angle_beta   90.00000000
_cell_angle_gamma   90.00000000
_symmetry_Int_Tables_number   1
_chemical_formula_structural   Sm4Co8P12(RuRh3)3
_chemical_formula_sum   'Sm4 Co8 P12 Ru3 Rh9'
_cell_volume   500.55569255
_cell_formula_units_Z   1
loop_
 _symmetry_equiv_pos_site_id
 _symmetry_equiv_pos_as_xyz
  1  'x, y, z'
loop_
 _atom_site_type_symbol
 _atom_site_label
 _atom_site_symmetry_multiplicity
 _atom_site_fract_x
 _atom_site_fract_y
 _atom_site_fract_z
 _atom_site_occupancy
  Sm  Sm0  1  0.250000  0.583719  0.707740  1
  Sm  Sm1  1  0.250000  0.915140  0.207888  1
  Sm  Sm2  1  0.750000  0.415802  0.291536  1
  Sm  Sm3  1  0.750000  0.083967  0.792395  1
  Co  Co4  1  0.250000  0.884977  0.697541  1
  Co  Co5  1  0.250000  0.614335  0.197604  1
  Co  Co6  1  0.750000  0.114924  0.302580  1
  Co  Co7  1  0.750000  0.386973  0.802574  1
  Co  Co8  1  0.250000  0.464354  0.933721  1
  Co  Co9  1  0.250000  0.035201  0.432492  1
  Co  Co10  1  0.750000  0.536118  0.066908  1
  Co  Co11  1  0.750000  0.963571  0.567500  1
  P  P12  1  0.250000  0.430157  0.109452  1
  P  P13  1  0.250000  0.069318  0.609208  1
  P  P14  1  0.750000  0.569979  0.890959  1
  P  P15  1  0.750000  0.930294  0.390886  1
  P  P16  1  0.250000  0.276086  0.874022  1
  P  P17  1  0.250000  0.223541  0.371858  1
  P  P18  1  0.750000  0.724094  0.126431  1
  P  P19  1  0.750000  0.775666  0.626117  1
  P  P20  1  0.250000  0.603240  0.384104  1
  P  P21  1  0.250000  0.896555  0.884181  1
  P  P22  1  0.750000  0.398619  0.617063  1
  P  P23  1  0.750000  0.103167  0.115640  1
  Ru  Ru24  1  0.250000  0.714786  0.992088  1
  Ru  Ru25  1  0.250000  0.785301  0.492794  1
  Ru  Ru26  1  0.750000  0.285285  0.007481  1
  Rh  Rh27  1  0.750000  0.216427  0.509155  1
  Rh  Rh28  1  0.250000  0.408532  0.483786  1
  Rh  Rh29  1  0.250000  0.091742  0.984769  1
  Rh  Rh30  1  0.750000  0.592522  0.515099  1
  Rh  Rh31  1  0.750000  0.907697  0.014791  1
  Rh  Rh32  1  0.250000  0.225944  0.178888  1
  Rh  Rh33  1  0.250000  0.272491  0.682242  1
  Rh  Rh34  1  0.750000  0.773131  0.818982  1
  Rh  Rh35  1  0.750000  0.726346  0.319526  1
