# generated using pymatgen
data_Sc12Si12TcAu3
_symmetry_space_group_name_H-M   'P 1'
_cell_length_a   4.04193500
_cell_length_b   10.46100054
_cell_length_c   11.79490314
_cell_angle_alpha   90.04875124
_cell_angle_beta   90.00000000
_cell_angle_gamma   90.00000000
_symmetry_Int_Tables_number   1
_chemical_formula_structural   Sc12Si12TcAu3
_chemical_formula_sum   'Sc12 Si12 Tc1 Au3'
_cell_volume   498.71998418
_cell_formula_units_Z   1
loop_
 _symmetry_equiv_pos_site_id
 _symmetry_equiv_pos_as_xyz
  1  'x, y, z'
loop_
 _atom_site_type_symbol
 _atom_site_label
 _atom_site_symmetry_multiplicity
 _atom_site_fract_x
 _atom_site_fract_y
 _atom_site_fract_z
 _atom_site_occupancy
  Sc  Sc0  1  0.250000  0.873622  0.016450  1
  Sc  Sc1  1  0.250000  0.626969  0.522350  1
  Sc  Sc2  1  0.750000  0.123084  0.976145  1
  Sc  Sc3  1  0.750000  0.372051  0.479176  1
  Sc  Sc4  1  0.250000  0.921123  0.603856  1
  Sc  Sc5  1  0.250000  0.578067  0.098426  1
  Sc  Sc6  1  0.750000  0.077359  0.400820  1
  Sc  Sc7  1  0.750000  0.420912  0.900434  1
  Sc  Sc8  1  0.250000  0.660513  0.799637  1
  Sc  Sc9  1  0.250000  0.841035  0.301487  1
  Sc  Sc10  1  0.750000  0.340224  0.198350  1
  Sc  Sc11  1  0.750000  0.155234  0.701972  1
  Si  Si12  1  0.250000  0.014553  0.823973  1
  Si  Si13  1  0.250000  0.474848  0.327753  1
  Si  Si14  1  0.750000  0.975189  0.175172  1
  Si  Si15  1  0.750000  0.525977  0.670195  1
  Si  Si16  1  0.250000  0.244851  0.849175  1
  Si  Si17  1  0.250000  0.251847  0.348777  1
  Si  Si18  1  0.750000  0.752376  0.150373  1
  Si  Si19  1  0.750000  0.753414  0.659153  1
  Si  Si20  1  0.250000  0.179675  0.542160  1
  Si  Si21  1  0.250000  0.320865  0.039468  1
  Si  Si22  1  0.750000  0.818174  0.461290  1
  Si  Si23  1  0.750000  0.692283  0.953266  1
  Tc  Tc24  1  0.750000  0.891381  0.824184  1
  Au  Au25  1  0.250000  0.385046  0.678362  1
  Au  Au26  1  0.250000  0.113997  0.176276  1
  Au  Au27  1  0.750000  0.615332  0.321323  1
