# generated using pymatgen
data_Ti4Ga2PtRh9
_symmetry_space_group_name_H-M   'P 1'
_cell_length_a   4.00716400
_cell_length_b   5.41521687
_cell_length_c   10.69046837
_cell_angle_alpha   90.41644922
_cell_angle_beta   90.00000000
_cell_angle_gamma   90.00000000
_symmetry_Int_Tables_number   1
_chemical_formula_structural   Ti4Ga2PtRh9
_chemical_formula_sum   'Ti4 Ga2 Pt1 Rh9'
_cell_volume   231.97342380
_cell_formula_units_Z   1
loop_
 _symmetry_equiv_pos_site_id
 _symmetry_equiv_pos_as_xyz
  1  'x, y, z'
loop_
 _atom_site_type_symbol
 _atom_site_label
 _atom_site_symmetry_multiplicity
 _atom_site_fract_x
 _atom_site_fract_y
 _atom_site_fract_z
 _atom_site_occupancy
  Ti  Ti0  1  0.500000  0.327789  0.136059  1
  Ti  Ti1  1  0.500000  0.681487  0.859713  1
  Ti  Ti2  1  0.500000  0.812112  0.364341  1
  Ti  Ti3  1  0.500000  0.179880  0.640033  1
  Ga  Ga4  1  0.000000  0.000654  0.998448  1
  Ga  Ga5  1  0.000000  0.499184  0.500609  1
  Pt  Pt6  1  0.000000  0.066866  0.246082  1
  Rh  Rh7  1  0.000000  0.998802  0.500882  1
  Rh  Rh8  1  0.000000  0.503241  0.999538  1
  Rh  Rh9  1  0.000000  0.932118  0.753969  1
  Rh  Rh10  1  0.000000  0.566902  0.254430  1
  Rh  Rh11  1  0.000000  0.431581  0.745758  1
  Rh  Rh12  1  0.500000  0.303222  0.388263  1
  Rh  Rh13  1  0.500000  0.694056  0.611960  1
  Rh  Rh14  1  0.500000  0.805973  0.111328  1
  Rh  Rh15  1  0.500000  0.196132  0.888588  1
