# generated using pymatgen
data_Co(WF6)2
_symmetry_space_group_name_H-M   'P 1'
_cell_length_a   6.91303585
_cell_length_b   6.91294198
_cell_length_c   10.10644500
_cell_angle_alpha   69.10236959
_cell_angle_beta   69.03423290
_cell_angle_gamma   78.17370014
_symmetry_Int_Tables_number   1
_chemical_formula_structural   Co(WF6)2
_chemical_formula_sum   'Co2 W4 F24'
_cell_volume   419.67959490
_cell_formula_units_Z   2
loop_
 _symmetry_equiv_pos_site_id
 _symmetry_equiv_pos_as_xyz
  1  'x, y, z'
loop_
 _atom_site_type_symbol
 _atom_site_label
 _atom_site_symmetry_multiplicity
 _atom_site_fract_x
 _atom_site_fract_y
 _atom_site_fract_z
 _atom_site_occupancy
  Co  Co0  1  0.159313  0.841504  0.751241  1
  Co  Co1  1  0.840687  0.158496  0.248759  1
  W  W2  1  0.247092  0.263399  0.377570  1
  W  W3  1  0.264588  0.248849  0.876662  1
  W  W4  1  0.752908  0.736601  0.622430  1
  W  W5  1  0.735412  0.751151  0.123338  1
  F  F6  1  0.866810  0.874646  0.218913  1
  F  F7  1  0.133190  0.125354  0.781087  1
  F  F8  1  0.273418  0.981873  0.527815  1
  F  F9  1  0.971220  0.294235  0.503226  1
  F  F10  1  0.294687  0.975461  0.008428  1
  F  F11  1  0.379008  0.365484  0.469502  1
  F  F12  1  0.360723  0.373519  0.977456  1
  F  F13  1  0.871912  0.866152  0.719557  1
  F  F14  1  0.797141  0.460620  0.248285  1
  F  F15  1  0.015831  0.725663  0.976769  1
  F  F16  1  0.726582  0.018127  0.472185  1
  F  F17  1  0.984169  0.274337  0.023231  1
  F  F18  1  0.513016  0.225214  0.724864  1
  F  F19  1  0.620992  0.634516  0.530498  1
  F  F20  1  0.202859  0.539380  0.751715  1
  F  F21  1  0.639277  0.626481  0.022544  1
  F  F22  1  0.467174  0.796530  0.751197  1
  F  F23  1  0.780633  0.477581  0.769117  1
  F  F24  1  0.532826  0.203470  0.248803  1
  F  F25  1  0.486984  0.774786  0.275136  1
  F  F26  1  0.219367  0.522419  0.230883  1
  F  F27  1  0.705313  0.024539  0.991572  1
  F  F28  1  0.128088  0.133848  0.280443  1
  F  F29  1  0.028780  0.705765  0.496774  1
