# generated using pymatgen
data_CaDy(NiB4)2
_symmetry_space_group_name_H-M   'P 1'
_cell_length_a   6.83616260
_cell_length_b   6.83616263
_cell_length_c   6.83616378
_cell_angle_alpha   112.89870549
_cell_angle_beta   112.89870029
_cell_angle_gamma   102.81441809
_symmetry_Int_Tables_number   1
_chemical_formula_structural   CaDy(NiB4)2
_chemical_formula_sum   'Ca2 Dy2 Ni4 B16'
_cell_volume   243.48234274
_cell_formula_units_Z   2
loop_
 _symmetry_equiv_pos_site_id
 _symmetry_equiv_pos_as_xyz
  1  'x, y, z'
loop_
 _atom_site_type_symbol
 _atom_site_label
 _atom_site_symmetry_multiplicity
 _atom_site_fract_x
 _atom_site_fract_y
 _atom_site_fract_z
 _atom_site_occupancy
  Ca  Ca0  1  0.797844  0.797844  0.000000  1
  Ca  Ca1  1  0.202156  0.202156  0.000000  1
  Dy  Dy2  1  0.750000  0.250000  0.500000  1
  Dy  Dy3  1  0.250000  0.750000  0.500000  1
  Ni  Ni4  1  0.272505  0.500000  0.772505  1
  Ni  Ni5  1  0.727495  0.500000  0.227495  1
  Ni  Ni6  1  0.500000  0.727495  0.227495  1
  Ni  Ni7  1  0.500000  0.272505  0.772505  1
  B  B8  1  0.277014  0.112204  0.389217  1
  B  B9  1  0.722986  0.887796  0.610783  1
  B  B10  1  0.277014  0.887796  0.164810  1
  B  B11  1  0.722986  0.112204  0.835190  1
  B  B12  1  0.112204  0.722986  0.835190  1
  B  B13  1  0.887796  0.277014  0.164810  1
  B  B14  1  0.112204  0.277014  0.389217  1
  B  B15  1  0.887796  0.722986  0.610783  1
  B  B16  1  0.113203  0.113203  0.530370  1
  B  B17  1  0.582832  0.582832  0.469630  1
  B  B18  1  0.113203  0.582832  0.000000  1
  B  B19  1  0.582832  0.113203  0.000000  1
  B  B20  1  0.886797  0.886797  0.469630  1
  B  B21  1  0.417168  0.417168  0.530370  1
  B  B22  1  0.886797  0.417168  0.000000  1
  B  B23  1  0.417168  0.886797  0.000000  1
