# generated using pymatgen
data_TmNi3As3Rh2
_symmetry_space_group_name_H-M   'P 1'
_cell_length_a   3.86534000
_cell_length_b   10.98207600
_cell_length_c   12.51134500
_cell_angle_alpha   90.00000000
_cell_angle_beta   90.00000000
_cell_angle_gamma   90.00000000
_symmetry_Int_Tables_number   1
_chemical_formula_structural   TmNi3As3Rh2
_chemical_formula_sum   'Tm4 Ni12 As12 Rh8'
_cell_volume   531.09980967
_cell_formula_units_Z   4
loop_
 _symmetry_equiv_pos_site_id
 _symmetry_equiv_pos_as_xyz
  1  'x, y, z'
loop_
 _atom_site_type_symbol
 _atom_site_label
 _atom_site_symmetry_multiplicity
 _atom_site_fract_x
 _atom_site_fract_y
 _atom_site_fract_z
 _atom_site_occupancy
  Tm  Tm0  1  0.250000  0.585078  0.704808  1
  Tm  Tm1  1  0.250000  0.914922  0.204808  1
  Tm  Tm2  1  0.750000  0.414922  0.295192  1
  Tm  Tm3  1  0.750000  0.085078  0.795192  1
  Ni  Ni4  1  0.250000  0.216347  0.182114  1
  Ni  Ni5  1  0.250000  0.283653  0.682114  1
  Ni  Ni6  1  0.750000  0.783653  0.817886  1
  Ni  Ni7  1  0.750000  0.716347  0.317886  1
  Ni  Ni8  1  0.250000  0.888776  0.696266  1
  Ni  Ni9  1  0.250000  0.611224  0.196266  1
  Ni  Ni10  1  0.750000  0.111224  0.303734  1
  Ni  Ni11  1  0.750000  0.388776  0.803734  1
  Ni  Ni12  1  0.250000  0.470036  0.932095  1
  Ni  Ni13  1  0.250000  0.029964  0.432095  1
  Ni  Ni14  1  0.750000  0.529964  0.067905  1
  Ni  Ni15  1  0.750000  0.970036  0.567905  1
  As  As16  1  0.250000  0.412766  0.115339  1
  As  As17  1  0.250000  0.087234  0.615339  1
  As  As18  1  0.750000  0.587234  0.884661  1
  As  As19  1  0.750000  0.912766  0.384661  1
  As  As20  1  0.250000  0.273700  0.867469  1
  As  As21  1  0.250000  0.226300  0.367469  1
  As  As22  1  0.750000  0.726300  0.132531  1
  As  As23  1  0.750000  0.773700  0.632531  1
  As  As24  1  0.250000  0.600217  0.381617  1
  As  As25  1  0.250000  0.899783  0.881617  1
  As  As26  1  0.750000  0.399783  0.618383  1
  As  As27  1  0.750000  0.100217  0.118383  1
  Rh  Rh28  1  0.250000  0.709570  0.987987  1
  Rh  Rh29  1  0.250000  0.790430  0.487987  1
  Rh  Rh30  1  0.750000  0.290430  0.012013  1
  Rh  Rh31  1  0.750000  0.209570  0.512013  1
  Rh  Rh32  1  0.250000  0.406371  0.481977  1
  Rh  Rh33  1  0.250000  0.093629  0.981977  1
  Rh  Rh34  1  0.750000  0.593629  0.518023  1
  Rh  Rh35  1  0.750000  0.906371  0.018023  1
