# generated using pymatgen
data_Rb3Ac(PS4)2
_symmetry_space_group_name_H-M   'P 1'
_cell_length_a   6.89574300
_cell_length_b   9.89442769
_cell_length_c   11.82387800
_cell_angle_alpha   89.32545914
_cell_angle_beta   90.00000000
_cell_angle_gamma   90.00000000
_symmetry_Int_Tables_number   1
_chemical_formula_structural   Rb3Ac(PS4)2
_chemical_formula_sum   'Rb6 Ac2 P4 S16'
_cell_volume   806.68055469
_cell_formula_units_Z   2
loop_
 _symmetry_equiv_pos_site_id
 _symmetry_equiv_pos_as_xyz
  1  'x, y, z'
loop_
 _atom_site_type_symbol
 _atom_site_label
 _atom_site_symmetry_multiplicity
 _atom_site_fract_x
 _atom_site_fract_y
 _atom_site_fract_z
 _atom_site_occupancy
  Rb  Rb0  1  0.193996  0.644433  0.900964  1
  Rb  Rb1  1  0.693996  0.355567  0.099036  1
  Rb  Rb2  1  0.692219  0.175995  0.584269  1
  Rb  Rb3  1  0.192219  0.824005  0.415731  1
  Rb  Rb4  1  0.193063  0.392703  0.353057  1
  Rb  Rb5  1  0.693063  0.607297  0.646943  1
  Ac  Ac6  1  0.203117  0.116512  0.851058  1
  Ac  Ac7  1  0.703117  0.883488  0.148942  1
  P  P8  1  0.190653  0.384333  0.685902  1
  P  P9  1  0.170419  0.094561  0.166255  1
  P  P10  1  0.670419  0.905439  0.833745  1
  P  P11  1  0.690653  0.615667  0.314098  1
  S  S12  1  0.932282  0.102913  0.269139  1
  S  S13  1  0.432282  0.897087  0.730861  1
  S  S14  1  0.190438  0.268611  0.071149  1
  S  S15  1  0.690438  0.731389  0.928851  1
  S  S16  1  0.913224  0.926559  0.736501  1
  S  S17  1  0.132223  0.931457  0.059225  1
  S  S18  1  0.413224  0.073441  0.263499  1
  S  S19  1  0.632223  0.068543  0.940775  1
  S  S20  1  0.693859  0.788618  0.409805  1
  S  S21  1  0.193859  0.211382  0.590195  1
  S  S22  1  0.452251  0.636863  0.208759  1
  S  S23  1  0.952251  0.363137  0.791241  1
  S  S24  1  0.684896  0.437618  0.398031  1
  S  S25  1  0.184896  0.562382  0.601969  1
  S  S26  1  0.935081  0.630922  0.212425  1
  S  S27  1  0.435081  0.369078  0.787575  1
