# generated using pymatgen
data_Tm8B24MoRu3
_symmetry_space_group_name_H-M   'P 1'
_cell_length_a   3.62107100
_cell_length_b   9.10023535
_cell_length_c   11.47832298
_cell_angle_alpha   89.86476774
_cell_angle_beta   90.00000000
_cell_angle_gamma   90.00000000
_symmetry_Int_Tables_number   1
_chemical_formula_structural   Tm8B24MoRu3
_chemical_formula_sum   'Tm8 B24 Mo1 Ru3'
_cell_volume   378.23951287
_cell_formula_units_Z   1
loop_
 _symmetry_equiv_pos_site_id
 _symmetry_equiv_pos_as_xyz
  1  'x, y, z'
loop_
 _atom_site_type_symbol
 _atom_site_label
 _atom_site_symmetry_multiplicity
 _atom_site_fract_x
 _atom_site_fract_y
 _atom_site_fract_z
 _atom_site_occupancy
  Tm  Tm0  1  0.000000  0.322007  0.413500  1
  Tm  Tm1  1  0.000000  0.677242  0.584345  1
  Tm  Tm2  1  0.000000  0.820339  0.087391  1
  Tm  Tm3  1  0.000000  0.177048  0.914796  1
  Tm  Tm4  1  0.000000  0.945487  0.372630  1
  Tm  Tm5  1  0.000000  0.058016  0.628997  1
  Tm  Tm6  1  0.000000  0.442915  0.126669  1
  Tm  Tm7  1  0.000000  0.557138  0.870508  1
  B  B8  1  0.500000  0.550882  0.436176  1
  B  B9  1  0.500000  0.446173  0.568024  1
  B  B10  1  0.500000  0.053274  0.066523  1
  B  B11  1  0.500000  0.946379  0.933529  1
  B  B12  1  0.500000  0.751340  0.422179  1
  B  B13  1  0.500000  0.251724  0.580856  1
  B  B14  1  0.500000  0.248500  0.079811  1
  B  B15  1  0.500000  0.751187  0.919131  1
  B  B16  1  0.500000  0.795133  0.264244  1
  B  B17  1  0.500000  0.208068  0.734958  1
  B  B18  1  0.500000  0.290946  0.233185  1
  B  B19  1  0.500000  0.708840  0.765331  1
  B  B20  1  0.500000  0.631629  0.182510  1
  B  B21  1  0.500000  0.368046  0.815434  1
  B  B22  1  0.500000  0.131444  0.314417  1
  B  B23  1  0.500000  0.869603  0.685392  1
  B  B24  1  0.500000  0.983095  0.212546  1
  B  B25  1  0.500000  0.017789  0.788345  1
  B  B26  1  0.500000  0.477751  0.286718  1
  B  B27  1  0.500000  0.516871  0.712883  1
  B  B28  1  0.500000  0.605054  0.027306  1
  B  B29  1  0.500000  0.394113  0.969781  1
  B  B30  1  0.500000  0.106725  0.471344  1
  B  B31  1  0.500000  0.896995  0.530360  1
  Mo  Mo32  1  0.000000  0.637484  0.321221  1
  Ru  Ru33  1  0.000000  0.360678  0.680700  1
  Ru  Ru34  1  0.000000  0.137719  0.177481  1
  Ru  Ru35  1  0.000000  0.862365  0.820778  1
