# generated using pymatgen
data_Lu4Zn2B4Ir3Rh7
_symmetry_space_group_name_H-M   'P 1'
_cell_length_a   9.47920627
_cell_length_b   9.47529427
_cell_length_c   3.14556100
_cell_angle_alpha   90.00000000
_cell_angle_beta   90.00000000
_cell_angle_gamma   90.02718108
_symmetry_Int_Tables_number   1
_chemical_formula_structural   Lu4Zn2B4Ir3Rh7
_chemical_formula_sum   'Lu4 Zn2 B4 Ir3 Rh7'
_cell_volume   282.52881160
_cell_formula_units_Z   1
loop_
 _symmetry_equiv_pos_site_id
 _symmetry_equiv_pos_as_xyz
  1  'x, y, z'
loop_
 _atom_site_type_symbol
 _atom_site_label
 _atom_site_symmetry_multiplicity
 _atom_site_fract_x
 _atom_site_fract_y
 _atom_site_fract_z
 _atom_site_occupancy
  Lu  Lu0  1  0.677487  0.177127  0.000000  1
  Lu  Lu1  1  0.322738  0.822898  0.000000  1
  Lu  Lu2  1  0.176407  0.322798  0.000000  1
  Lu  Lu3  1  0.822527  0.677639  0.000000  1
  Zn  Zn4  1  0.000015  0.999889  0.000000  1
  Zn  Zn5  1  0.500388  0.500750  0.000000  1
  B  B6  1  0.123118  0.623080  0.000000  1
  B  B7  1  0.876528  0.376809  0.000000  1
  B  B8  1  0.622882  0.876929  0.000000  1
  B  B9  1  0.377244  0.125346  0.000000  1
  Ir  Ir10  1  0.430599  0.280977  0.500000  1
  Ir  Ir11  1  0.500253  0.999018  0.500000  1
  Ir  Ir12  1  0.999345  0.500266  0.500000  1
  Rh  Rh13  1  0.218558  0.068791  0.500000  1
  Rh  Rh14  1  0.781526  0.929942  0.500000  1
  Rh  Rh15  1  0.070491  0.781068  0.500000  1
  Rh  Rh16  1  0.718781  0.430107  0.500000  1
  Rh  Rh17  1  0.930093  0.218754  0.500000  1
  Rh  Rh18  1  0.281052  0.569274  0.500000  1
  Rh  Rh19  1  0.569965  0.718539  0.500000  1
