# generated using pymatgen
data_LiTm4(GeB4)2
_symmetry_space_group_name_H-M   'P 1'
_cell_length_a   7.10635900
_cell_length_b   7.10635900
_cell_length_c   7.77064500
_cell_angle_alpha   90.00000000
_cell_angle_beta   90.00000000
_cell_angle_gamma   90.00000000
_symmetry_Int_Tables_number   1
_chemical_formula_structural   LiTm4(GeB4)2
_chemical_formula_sum   'Li2 Tm8 Ge4 B16'
_cell_volume   392.42020082
_cell_formula_units_Z   2
loop_
 _symmetry_equiv_pos_site_id
 _symmetry_equiv_pos_as_xyz
  1  'x, y, z'
loop_
 _atom_site_type_symbol
 _atom_site_label
 _atom_site_symmetry_multiplicity
 _atom_site_fract_x
 _atom_site_fract_y
 _atom_site_fract_z
 _atom_site_occupancy
  Li  Li0  1  0.000000  0.000000  0.500000  1
  Li  Li1  1  0.500000  0.500000  0.500000  1
  Tm  Tm2  1  0.683185  0.183185  0.231854  1
  Tm  Tm3  1  0.316815  0.816815  0.768146  1
  Tm  Tm4  1  0.316815  0.816815  0.231854  1
  Tm  Tm5  1  0.816815  0.683185  0.231854  1
  Tm  Tm6  1  0.816815  0.683185  0.768146  1
  Tm  Tm7  1  0.683185  0.183185  0.768146  1
  Tm  Tm8  1  0.183185  0.316815  0.768146  1
  Tm  Tm9  1  0.183185  0.316815  0.231854  1
  Ge  Ge10  1  0.121989  0.621989  0.500000  1
  Ge  Ge11  1  0.878011  0.378011  0.500000  1
  Ge  Ge12  1  0.378011  0.121989  0.500000  1
  Ge  Ge13  1  0.621989  0.878011  0.500000  1
  B  B14  1  0.174245  0.039721  0.000000  1
  B  B15  1  0.825755  0.960279  0.000000  1
  B  B16  1  0.960279  0.174245  0.000000  1
  B  B17  1  0.325755  0.539721  0.000000  1
  B  B18  1  0.039721  0.825755  0.000000  1
  B  B19  1  0.674245  0.460279  0.000000  1
  B  B20  1  0.539721  0.674245  0.000000  1
  B  B21  1  0.460279  0.325755  0.000000  1
  B  B22  1  0.088785  0.588785  0.000000  1
  B  B23  1  0.911215  0.411215  0.000000  1
  B  B24  1  0.411215  0.088785  0.000000  1
  B  B25  1  0.588785  0.911215  0.000000  1
  B  B26  1  0.000000  0.000000  0.164124  1
  B  B27  1  0.000000  0.000000  0.835876  1
  B  B28  1  0.500000  0.500000  0.835876  1
  B  B29  1  0.500000  0.500000  0.164124  1
