# generated using pymatgen
data_Ho5Er3Ti11Si16Ag
_symmetry_space_group_name_H-M   'P 1'
_cell_length_a   7.05444294
_cell_length_b   7.05409064
_cell_length_c   12.88183103
_cell_angle_alpha   90.06596713
_cell_angle_beta   89.92317804
_cell_angle_gamma   89.67501437
_symmetry_Int_Tables_number   1
_chemical_formula_structural   Ho5Er3Ti11Si16Ag
_chemical_formula_sum   'Ho5 Er3 Ti11 Si16 Ag1'
_cell_volume   641.02311571
_cell_formula_units_Z   1
loop_
 _symmetry_equiv_pos_site_id
 _symmetry_equiv_pos_as_xyz
  1  'x, y, z'
loop_
 _atom_site_type_symbol
 _atom_site_label
 _atom_site_symmetry_multiplicity
 _atom_site_fract_x
 _atom_site_fract_y
 _atom_site_fract_z
 _atom_site_occupancy
  Ho  Ho0  1  0.340824  0.002087  0.466609  1
  Ho  Ho1  1  0.497657  0.840814  0.716756  1
  Ho  Ho2  1  0.501416  0.157806  0.214621  1
  Ho  Ho3  1  0.840902  0.497663  0.283275  1
  Ho  Ho4  1  0.157838  0.501403  0.785369  1
  Er  Er5  1  0.656461  0.001036  0.968351  1
  Er  Er6  1  0.001851  0.340963  0.533343  1
  Er  Er7  1  0.001024  0.656460  0.031719  1
  Ti  Ti8  1  0.173920  0.826397  0.250015  1
  Ti  Ti9  1  0.826382  0.174001  0.749965  1
  Ti  Ti10  1  0.672801  0.672696  0.499993  1
  Ti  Ti11  1  0.147566  0.007686  0.876704  1
  Ti  Ti12  1  0.495596  0.650568  0.123175  1
  Ti  Ti13  1  0.507395  0.350279  0.625039  1
  Ti  Ti14  1  0.650572  0.495608  0.876840  1
  Ti  Ti15  1  0.350217  0.507383  0.374935  1
  Ti  Ti16  1  0.850059  0.992420  0.374231  1
  Ti  Ti17  1  0.007675  0.147559  0.123333  1
  Ti  Ti18  1  0.992429  0.850051  0.625751  1
  Si  Si19  1  0.202227  0.133027  0.683797  1
  Si  Si20  1  0.373317  0.719297  0.928772  1
  Si  Si21  1  0.631688  0.294038  0.432258  1
  Si  Si22  1  0.719342  0.373278  0.071188  1
  Si  Si23  1  0.293961  0.631318  0.567782  1
  Si  Si24  1  0.797579  0.867008  0.182199  1
  Si  Si25  1  0.132816  0.202290  0.316149  1
  Si  Si26  1  0.866971  0.797460  0.817861  1
  Si  Si27  1  0.286623  0.938594  0.066098  1
  Si  Si28  1  0.546613  0.791373  0.314428  1
  Si  Si29  1  0.455251  0.207638  0.809045  1
  Si  Si30  1  0.791425  0.546498  0.685489  1
  Si  Si31  1  0.207575  0.455267  0.190979  1
  Si  Si32  1  0.708641  0.047514  0.564137  1
  Si  Si33  1  0.938579  0.286656  0.933960  1
  Si  Si34  1  0.047325  0.708378  0.435831  1
  Ag  Ag35  1  0.327480  0.327486  0.000005  1
