# generated using pymatgen
data_Li8Ac7LuPb8
_symmetry_space_group_name_H-M   'P 1'
_cell_length_a   9.92223900
_cell_length_b   9.92223922
_cell_length_c   8.23613300
_cell_angle_alpha   90.00000000
_cell_angle_beta   90.00000000
_cell_angle_gamma   120.00000261
_symmetry_Int_Tables_number   1
_chemical_formula_structural   Li8Ac7LuPb8
_chemical_formula_sum   'Li8 Ac7 Lu1 Pb8'
_cell_volume   702.22024921
_cell_formula_units_Z   1
loop_
 _symmetry_equiv_pos_site_id
 _symmetry_equiv_pos_as_xyz
  1  'x, y, z'
loop_
 _atom_site_type_symbol
 _atom_site_label
 _atom_site_symmetry_multiplicity
 _atom_site_fract_x
 _atom_site_fract_y
 _atom_site_fract_z
 _atom_site_occupancy
  Li  Li0  1  0.165515  0.331031  0.281457  1
  Li  Li1  1  0.165515  0.834485  0.281457  1
  Li  Li2  1  0.668969  0.834485  0.281457  1
  Li  Li3  1  0.837258  0.674514  0.799476  1
  Li  Li4  1  0.837258  0.162742  0.799476  1
  Li  Li5  1  0.325486  0.162742  0.799476  1
  Li  Li6  1  0.333333  0.666667  0.671394  1
  Li  Li7  1  0.666667  0.333333  0.162645  1
  Ac  Ac8  1  0.513519  0.027037  0.495056  1
  Ac  Ac9  1  0.513519  0.486481  0.495056  1
  Ac  Ac10  1  0.972963  0.486481  0.495056  1
  Ac  Ac11  1  0.486255  0.972509  0.995186  1
  Ac  Ac12  1  0.486255  0.513745  0.995186  1
  Ac  Ac13  1  0.027491  0.513745  0.995186  1
  Ac  Ac14  1  0.000000  0.000000  0.500286  1
  Lu  Lu15  1  0.000000  0.000000  0.005765  1
  Pb  Pb16  1  0.164488  0.328976  0.730311  1
  Pb  Pb17  1  0.164488  0.835512  0.730311  1
  Pb  Pb18  1  0.671024  0.835512  0.730311  1
  Pb  Pb19  1  0.838397  0.676794  0.212845  1
  Pb  Pb20  1  0.838397  0.161603  0.212845  1
  Pb  Pb21  1  0.323206  0.161603  0.212845  1
  Pb  Pb22  1  0.333333  0.666667  0.283188  1
  Pb  Pb23  1  0.666667  0.333333  0.775732  1
