# generated using pymatgen
data_Ba2EuTm(Ge4N7)2
_symmetry_space_group_name_H-M   'P 1'
_cell_length_a   6.36087300
_cell_length_b   6.36087136
_cell_length_c   10.41419700
_cell_angle_alpha   90.00000000
_cell_angle_beta   90.00000000
_cell_angle_gamma   120.00000334
_symmetry_Int_Tables_number   1
_chemical_formula_structural   Ba2EuTm(Ge4N7)2
_chemical_formula_sum   'Ba2 Eu1 Tm1 Ge8 N14'
_cell_volume   364.91334243
_cell_formula_units_Z   1
loop_
 _symmetry_equiv_pos_site_id
 _symmetry_equiv_pos_as_xyz
  1  'x, y, z'
loop_
 _atom_site_type_symbol
 _atom_site_label
 _atom_site_symmetry_multiplicity
 _atom_site_fract_x
 _atom_site_fract_y
 _atom_site_fract_z
 _atom_site_occupancy
  Ba  Ba0  1  0.333333  0.666667  0.362585  1
  Ba  Ba1  1  0.666667  0.333333  0.865741  1
  Eu  Eu2  1  0.333333  0.666667  0.735192  1
  Tm  Tm3  1  0.666667  0.333333  0.236518  1
  Ge  Ge4  1  0.826129  0.652257  0.543573  1
  Ge  Ge5  1  0.173418  0.826582  0.049654  1
  Ge  Ge6  1  0.653161  0.826582  0.049654  1
  Ge  Ge7  1  0.347743  0.173871  0.543573  1
  Ge  Ge8  1  0.826129  0.173871  0.543573  1
  Ge  Ge9  1  0.173418  0.346839  0.049654  1
  Ge  Ge10  1  0.000000  0.000000  0.814050  1
  Ge  Ge11  1  0.000000  0.000000  0.311452  1
  N  N12  1  0.000000  0.000000  0.619744  1
  N  N13  1  0.000000  0.000000  0.122215  1
  N  N14  1  0.157591  0.315181  0.872848  1
  N  N15  1  0.840844  0.159156  0.366212  1
  N  N16  1  0.318311  0.159156  0.366212  1
  N  N17  1  0.684819  0.842409  0.872848  1
  N  N18  1  0.157591  0.842409  0.872848  1
  N  N19  1  0.840844  0.681689  0.366212  1
  N  N20  1  0.984488  0.492245  0.600858  1
  N  N21  1  0.494522  0.989044  0.106958  1
  N  N22  1  0.494522  0.505478  0.106958  1
  N  N23  1  0.507755  0.492245  0.600858  1
  N  N24  1  0.010956  0.505478  0.106958  1
  N  N25  1  0.507755  0.015512  0.600858  1
