# generated using pymatgen
data_Nd3Y(NbRu3)2
_symmetry_space_group_name_H-M   'P 1'
_cell_length_a   5.81368400
_cell_length_b   5.81368347
_cell_length_c   8.04047700
_cell_angle_alpha   90.00000000
_cell_angle_beta   90.00000000
_cell_angle_gamma   119.99999163
_symmetry_Int_Tables_number   1
_chemical_formula_structural   Nd3Y(NbRu3)2
_chemical_formula_sum   'Nd3 Y1 Nb2 Ru6'
_cell_volume   235.35058773
_cell_formula_units_Z   1
loop_
 _symmetry_equiv_pos_site_id
 _symmetry_equiv_pos_as_xyz
  1  'x, y, z'
loop_
 _atom_site_type_symbol
 _atom_site_label
 _atom_site_symmetry_multiplicity
 _atom_site_fract_x
 _atom_site_fract_y
 _atom_site_fract_z
 _atom_site_occupancy
  Nd  Nd0  1  0.333333  0.666667  0.440185  1
  Nd  Nd1  1  0.666667  0.333333  0.561603  1
  Nd  Nd2  1  0.666667  0.333333  0.939788  1
  Y  Y3  1  0.333333  0.666667  0.059723  1
  Nb  Nb4  1  0.000000  0.000000  0.998834  1
  Nb  Nb5  1  0.000000  0.000000  0.498462  1
  Ru  Ru6  1  0.169821  0.339641  0.751303  1
  Ru  Ru7  1  0.169821  0.830179  0.751303  1
  Ru  Ru8  1  0.338901  0.169451  0.249166  1
  Ru  Ru9  1  0.830549  0.661099  0.249166  1
  Ru  Ru10  1  0.660359  0.830179  0.751303  1
  Ru  Ru11  1  0.830549  0.169451  0.249166  1
