# generated using pymatgen
data_K2LaPa(CuTe3)2
_symmetry_space_group_name_H-M   'P 1'
_cell_length_a   8.23460160
_cell_length_b   8.23460233
_cell_length_c   11.59133619
_cell_angle_alpha   92.04254521
_cell_angle_beta   87.95745432
_cell_angle_gamma   148.57532809
_symmetry_Int_Tables_number   1
_chemical_formula_structural   K2LaPa(CuTe3)2
_chemical_formula_sum   'K2 La1 Pa1 Cu2 Te6'
_cell_volume   409.51783280
_cell_formula_units_Z   1
loop_
 _symmetry_equiv_pos_site_id
 _symmetry_equiv_pos_as_xyz
  1  'x, y, z'
loop_
 _atom_site_type_symbol
 _atom_site_label
 _atom_site_symmetry_multiplicity
 _atom_site_fract_x
 _atom_site_fract_y
 _atom_site_fract_z
 _atom_site_occupancy
  K  K0  1  0.746197  0.253805  0.275527  1
  K  K1  1  0.253805  0.746197  0.724473  1
  La  La2  1  0.000000  0.000000  0.500000  1
  Pa  Pa3  1  0.000000  0.000000  0.000000  1
  Cu  Cu4  1  0.471535  0.528466  0.242502  1
  Cu  Cu5  1  0.528466  0.471535  0.757498  1
  Te  Te6  1  0.375199  0.624802  0.063638  1
  Te  Te7  1  0.070457  0.929544  0.233209  1
  Te  Te8  1  0.369081  0.630920  0.426343  1
  Te  Te9  1  0.630920  0.369081  0.573657  1
  Te  Te10  1  0.929544  0.070457  0.766791  1
  Te  Te11  1  0.624802  0.375199  0.936361  1
