# generated using pymatgen
data_Ta6CrB6Ru5
_symmetry_space_group_name_H-M   'P 1'
_cell_length_a   3.15180400
_cell_length_b   6.38636000
_cell_length_c   10.86773600
_cell_angle_alpha   90.00000000
_cell_angle_beta   90.00000000
_cell_angle_gamma   90.00000000
_symmetry_Int_Tables_number   1
_chemical_formula_structural   Ta6CrB6Ru5
_chemical_formula_sum   'Ta6 Cr1 B6 Ru5'
_cell_volume   218.75182173
_cell_formula_units_Z   1
loop_
 _symmetry_equiv_pos_site_id
 _symmetry_equiv_pos_as_xyz
  1  'x, y, z'
loop_
 _atom_site_type_symbol
 _atom_site_label
 _atom_site_symmetry_multiplicity
 _atom_site_fract_x
 _atom_site_fract_y
 _atom_site_fract_z
 _atom_site_occupancy
  Ta  Ta0  1  0.000000  0.279295  0.958141  1
  Ta  Ta1  1  0.000000  0.724434  0.051219  1
  Ta  Ta2  1  0.000000  0.279295  0.541859  1
  Ta  Ta3  1  0.000000  0.724434  0.448781  1
  Ta  Ta4  1  0.000000  0.360964  0.250000  1
  Ta  Ta5  1  0.000000  0.644138  0.750000  1
  Cr  Cr6  1  0.500000  0.698267  0.250000  1
  B  B7  1  0.000000  0.935968  0.250000  1
  B  B8  1  0.000000  0.047297  0.750000  1
  B  B9  1  0.500000  0.454071  0.087317  1
  B  B10  1  0.500000  0.550318  0.917210  1
  B  B11  1  0.500000  0.454071  0.412683  1
  B  B12  1  0.500000  0.550318  0.582790  1
  Ru  Ru13  1  0.500000  0.074006  0.124324  1
  Ru  Ru14  1  0.500000  0.925597  0.876356  1
  Ru  Ru15  1  0.500000  0.074006  0.375676  1
  Ru  Ru16  1  0.500000  0.925597  0.623644  1
  Ru  Ru17  1  0.500000  0.297922  0.750000  1
