# generated using pymatgen
data_Ho4CoB16Ir3
_symmetry_space_group_name_H-M   'P 1'
_cell_length_a   3.52470800
_cell_length_b   5.93862065
_cell_length_c   11.50847607
_cell_angle_alpha   89.86266183
_cell_angle_beta   90.00000000
_cell_angle_gamma   90.00000000
_symmetry_Int_Tables_number   1
_chemical_formula_structural   Ho4CoB16Ir3
_chemical_formula_sum   'Ho4 Co1 B16 Ir3'
_cell_volume   240.89362090
_cell_formula_units_Z   1
loop_
 _symmetry_equiv_pos_site_id
 _symmetry_equiv_pos_as_xyz
  1  'x, y, z'
loop_
 _atom_site_type_symbol
 _atom_site_label
 _atom_site_symmetry_multiplicity
 _atom_site_fract_x
 _atom_site_fract_y
 _atom_site_fract_z
 _atom_site_occupancy
  Ho  Ho0  1  0.500000  0.371985  0.147203  1
  Ho  Ho1  1  0.500000  0.629995  0.854642  1
  Ho  Ho2  1  0.500000  0.131772  0.649983  1
  Ho  Ho3  1  0.500000  0.868658  0.345921  1
  Co  Co4  1  0.500000  0.857233  0.095821  1
  B  B5  1  0.000000  0.111469  0.046978  1
  B  B6  1  0.000000  0.886786  0.955021  1
  B  B7  1  0.000000  0.387621  0.546718  1
  B  B8  1  0.000000  0.612974  0.451825  1
  B  B9  1  0.000000  0.135639  0.468557  1
  B  B10  1  0.000000  0.864610  0.529402  1
  B  B11  1  0.000000  0.364841  0.969920  1
  B  B12  1  0.000000  0.638804  0.032736  1
  B  B13  1  0.000000  0.019882  0.190047  1
  B  B14  1  0.000000  0.976629  0.808609  1
  B  B15  1  0.000000  0.474185  0.693125  1
  B  B16  1  0.000000  0.525914  0.305463  1
  B  B17  1  0.000000  0.208993  0.310496  1
  B  B18  1  0.000000  0.791076  0.688781  1
  B  B19  1  0.000000  0.289427  0.814315  1
  B  B20  1  0.000000  0.714173  0.183987  1
  Ir  Ir21  1  0.500000  0.356682  0.404218  1
  Ir  Ir22  1  0.500000  0.645631  0.597060  1
  Ir  Ir23  1  0.500000  0.135020  0.909176  1
