# generated using pymatgen
data_Mn3V17Si11P
_symmetry_space_group_name_H-M   'P 1'
_cell_length_a   6.97093944
_cell_length_b   6.97084016
_cell_length_c   13.15916500
_cell_angle_alpha   90.00000000
_cell_angle_beta   90.00000000
_cell_angle_gamma   140.54940931
_symmetry_Int_Tables_number   1
_chemical_formula_structural   Mn3V17Si11P
_chemical_formula_sum   'Mn3 V17 Si11 P1'
_cell_volume   406.31286063
_cell_formula_units_Z   1
loop_
 _symmetry_equiv_pos_site_id
 _symmetry_equiv_pos_as_xyz
  1  'x, y, z'
loop_
 _atom_site_type_symbol
 _atom_site_label
 _atom_site_symmetry_multiplicity
 _atom_site_fract_x
 _atom_site_fract_y
 _atom_site_fract_z
 _atom_site_occupancy
  Mn  Mn0  1  0.502603  0.507307  0.000000  1
  Mn  Mn1  1  0.497643  0.497538  0.500000  1
  Mn  Mn2  1  0.995814  0.000306  0.000000  1
  V  V3  1  0.068570  0.421451  0.400315  1
  V  V4  1  0.573960  0.930493  0.903393  1
  V  V5  1  0.420752  0.068651  0.599573  1
  V  V6  1  0.933628  0.571278  0.095618  1
  V  V7  1  0.852257  0.653340  0.676917  1
  V  V8  1  0.348492  0.152495  0.176066  1
  V  V9  1  0.653557  0.851835  0.322372  1
  V  V10  1  0.151578  0.349133  0.826991  1
  V  V11  1  0.653557  0.851835  0.677628  1
  V  V12  1  0.151578  0.349133  0.173009  1
  V  V13  1  0.852257  0.653340  0.323083  1
  V  V14  1  0.348492  0.152495  0.823934  1
  V  V15  1  0.420752  0.068651  0.400427  1
  V  V16  1  0.933628  0.571278  0.904382  1
  V  V17  1  0.068570  0.421451  0.599685  1
  V  V18  1  0.573960  0.930493  0.096607  1
  V  V19  1  0.998951  0.998865  0.500000  1
  Si  Si20  1  0.250851  0.749468  0.751088  1
  Si  Si21  1  0.749375  0.250505  0.248967  1
  Si  Si22  1  0.749375  0.250505  0.751033  1
  Si  Si23  1  0.250851  0.749468  0.248912  1
  Si  Si24  1  0.255115  0.256126  0.664147  1
  Si  Si25  1  0.753927  0.751876  0.160492  1
  Si  Si26  1  0.255115  0.256126  0.335853  1
  Si  Si27  1  0.753927  0.751876  0.839508  1
  Si  Si28  1  0.576409  0.902962  0.500000  1
  Si  Si29  1  0.902890  0.576141  0.500000  1
  Si  Si30  1  0.409004  0.094112  0.000000  1
  P  P31  1  0.092559  0.409464  0.000000  1
