# generated using pymatgen
data_Ta4Al4V3Zn
_symmetry_space_group_name_H-M   'P 1'
_cell_length_a   5.01781412
_cell_length_b   5.01781443
_cell_length_c   8.42684900
_cell_angle_alpha   90.00000000
_cell_angle_beta   90.00000000
_cell_angle_gamma   119.19904659
_symmetry_Int_Tables_number   1
_chemical_formula_structural   Ta4Al4V3Zn
_chemical_formula_sum   'Ta4 Al4 V3 Zn1'
_cell_volume   185.21403498
_cell_formula_units_Z   1
loop_
 _symmetry_equiv_pos_site_id
 _symmetry_equiv_pos_as_xyz
  1  'x, y, z'
loop_
 _atom_site_type_symbol
 _atom_site_label
 _atom_site_symmetry_multiplicity
 _atom_site_fract_x
 _atom_site_fract_y
 _atom_site_fract_z
 _atom_site_occupancy
  Ta  Ta0  1  0.666033  0.333967  0.306019  1
  Ta  Ta1  1  0.335775  0.664225  0.186369  1
  Ta  Ta2  1  0.335775  0.664225  0.813631  1
  Ta  Ta3  1  0.666033  0.333967  0.693981  1
  Al  Al4  1  0.002856  0.997144  0.246198  1
  Al  Al5  1  0.002856  0.997144  0.753802  1
  Al  Al6  1  0.654254  0.832851  0.500000  1
  Al  Al7  1  0.167149  0.345746  0.500000  1
  V  V8  1  0.348104  0.173066  0.000000  1
  V  V9  1  0.826934  0.651896  0.000000  1
  V  V10  1  0.827184  0.172816  0.000000  1
  Zn  Zn11  1  0.167090  0.832910  0.500000  1
