# generated using pymatgen
data_TmSc11Tc4
_symmetry_space_group_name_H-M   'P 1'
_cell_length_a   5.77647592
_cell_length_b   7.13890082
_cell_length_c   8.50723200
_cell_angle_alpha   90.00000000
_cell_angle_beta   90.00000000
_cell_angle_gamma   88.45207774
_symmetry_Int_Tables_number   1
_chemical_formula_structural   TmSc11Tc4
_chemical_formula_sum   'Tm1 Sc11 Tc4'
_cell_volume   350.69056434
_cell_formula_units_Z   1
loop_
 _symmetry_equiv_pos_site_id
 _symmetry_equiv_pos_as_xyz
  1  'x, y, z'
loop_
 _atom_site_type_symbol
 _atom_site_label
 _atom_site_symmetry_multiplicity
 _atom_site_fract_x
 _atom_site_fract_y
 _atom_site_fract_z
 _atom_site_occupancy
  Tm  Tm0  1  0.880002  0.528941  0.250000  1
  Sc  Sc1  1  0.618392  0.046286  0.250000  1
  Sc  Sc2  1  0.380929  0.952912  0.750000  1
  Sc  Sc3  1  0.121641  0.465724  0.750000  1
  Sc  Sc4  1  0.154179  0.167851  0.059786  1
  Sc  Sc5  1  0.849565  0.833185  0.937175  1
  Sc  Sc6  1  0.635434  0.311872  0.935423  1
  Sc  Sc7  1  0.849565  0.833185  0.562825  1
  Sc  Sc8  1  0.363940  0.686944  0.060808  1
  Sc  Sc9  1  0.154179  0.167851  0.440214  1
  Sc  Sc10  1  0.363940  0.686944  0.439192  1
  Sc  Sc11  1  0.635434  0.311872  0.564577  1
  Tc  Tc12  1  0.423042  0.388498  0.250000  1
  Tc  Tc13  1  0.563890  0.610307  0.750000  1
  Tc  Tc14  1  0.960322  0.123870  0.750000  1
  Tc  Tc15  1  0.045549  0.883757  0.250000  1
