# generated using pymatgen
data_Nd3TlIn2HgRh2
_symmetry_space_group_name_H-M   'P 1'
_cell_length_a   8.03594229
_cell_length_b   7.99256870
_cell_length_c   3.92539600
_cell_angle_alpha   90.00000000
_cell_angle_beta   90.00000000
_cell_angle_gamma   120.07595084
_symmetry_Int_Tables_number   1
_chemical_formula_structural   Nd3TlIn2HgRh2
_chemical_formula_sum   'Nd3 Tl1 In2 Hg1 Rh2'
_cell_volume   218.17470933
_cell_formula_units_Z   1
loop_
 _symmetry_equiv_pos_site_id
 _symmetry_equiv_pos_as_xyz
  1  'x, y, z'
loop_
 _atom_site_type_symbol
 _atom_site_label
 _atom_site_symmetry_multiplicity
 _atom_site_fract_x
 _atom_site_fract_y
 _atom_site_fract_z
 _atom_site_occupancy
  Nd  Nd0  1  0.609285  0.026881  0.500000  1
  Nd  Nd1  1  0.419127  0.391980  0.500000  1
  Nd  Nd2  1  0.973196  0.582108  0.500000  1
  Tl  Tl3  1  0.254804  0.002600  0.000000  1
  In  In4  1  0.749696  0.748537  0.000000  1
  In  In5  1  0.996516  0.248966  0.000000  1
  Hg  Hg6  1  0.333382  0.661869  0.000000  1
  Rh  Rh7  1  0.991458  0.999295  0.500000  1
  Rh  Rh8  1  0.672536  0.337764  0.000000  1
