# generated using pymatgen
data_Ti8BeGeBi4
_symmetry_space_group_name_H-M   'P 1'
_cell_length_a   7.84714857
_cell_length_b   7.84714883
_cell_length_c   7.84714855
_cell_angle_alpha   95.65638355
_cell_angle_beta   95.65638768
_cell_angle_gamma   143.40557506
_symmetry_Int_Tables_number   1
_chemical_formula_structural   Ti8BeGeBi4
_chemical_formula_sum   'Ti8 Be1 Ge1 Bi4'
_cell_volume   273.49959408
_cell_formula_units_Z   1
loop_
 _symmetry_equiv_pos_site_id
 _symmetry_equiv_pos_as_xyz
  1  'x, y, z'
loop_
 _atom_site_type_symbol
 _atom_site_label
 _atom_site_symmetry_multiplicity
 _atom_site_fract_x
 _atom_site_fract_y
 _atom_site_fract_z
 _atom_site_occupancy
  Ti  Ti0  1  0.574234  0.691184  0.280392  1
  Ti  Ti1  1  0.925766  0.206159  0.116951  1
  Ti  Ti2  1  0.293841  0.574234  0.883049  1
  Ti  Ti3  1  0.808816  0.925766  0.719608  1
  Ti  Ti4  1  0.691184  0.410792  0.116951  1
  Ti  Ti5  1  0.089208  0.808816  0.883049  1
  Ti  Ti6  1  0.410792  0.293841  0.719608  1
  Ti  Ti7  1  0.206159  0.089208  0.280392  1
  Be  Be8  1  0.250000  0.250000  0.000000  1
  Ge  Ge9  1  0.750000  0.750000  0.000000  1
  Bi  Bi10  1  0.360008  0.860008  0.220015  1
  Bi  Bi11  1  0.139992  0.360008  0.500000  1
  Bi  Bi12  1  0.639992  0.139992  0.779985  1
  Bi  Bi13  1  0.860008  0.639992  0.500000  1
