# generated using pymatgen
data_La3Cd3Ag2Pt
_symmetry_space_group_name_H-M   'P 1'
_cell_length_a   8.12066900
_cell_length_b   8.12066782
_cell_length_c   4.04187900
_cell_angle_alpha   90.00000000
_cell_angle_beta   90.00000000
_cell_angle_gamma   120.00000888
_symmetry_Int_Tables_number   1
_chemical_formula_structural   La3Cd3Ag2Pt
_chemical_formula_sum   'La3 Cd3 Ag2 Pt1'
_cell_volume   230.83276607
_cell_formula_units_Z   1
loop_
 _symmetry_equiv_pos_site_id
 _symmetry_equiv_pos_as_xyz
  1  'x, y, z'
loop_
 _atom_site_type_symbol
 _atom_site_label
 _atom_site_symmetry_multiplicity
 _atom_site_fract_x
 _atom_site_fract_y
 _atom_site_fract_z
 _atom_site_occupancy
  La  La0  1  0.402472  0.421210  0.500000  1
  La  La1  1  0.578790  0.981263  0.500000  1
  La  La2  1  0.018737  0.597528  0.500000  1
  Cd  Cd3  1  0.745027  0.742115  0.000000  1
  Cd  Cd4  1  0.257885  0.002912  0.000000  1
  Cd  Cd5  1  0.997088  0.254973  0.000000  1
  Ag  Ag6  1  0.666667  0.333333  0.000000  1
  Ag  Ag7  1  0.000000  0.000000  0.500000  1
  Pt  Pt8  1  0.333333  0.666667  0.000000  1
