# generated using pymatgen
data_Lu3(In2Ru)2
_symmetry_space_group_name_H-M   'P 1'
_cell_length_a   8.00283800
_cell_length_b   8.00283626
_cell_length_c   3.55111300
_cell_angle_alpha   90.00000000
_cell_angle_beta   90.00000000
_cell_angle_gamma   120.00000720
_symmetry_Int_Tables_number   1
_chemical_formula_structural   Lu3(In2Ru)2
_chemical_formula_sum   'Lu3 In4 Ru2'
_cell_volume   196.96227378
_cell_formula_units_Z   1
loop_
 _symmetry_equiv_pos_site_id
 _symmetry_equiv_pos_as_xyz
  1  'x, y, z'
loop_
 _atom_site_type_symbol
 _atom_site_label
 _atom_site_symmetry_multiplicity
 _atom_site_fract_x
 _atom_site_fract_y
 _atom_site_fract_z
 _atom_site_occupancy
  Lu  Lu0  1  0.036213  0.291357  0.500000  1
  Lu  Lu1  1  0.708643  0.744855  0.500000  1
  Lu  Lu2  1  0.255145  0.963787  0.500000  1
  In  In3  1  0.664016  0.064490  0.000000  1
  In  In4  1  0.935510  0.599527  0.000000  1
  In  In5  1  0.400473  0.335984  0.000000  1
  In  In6  1  0.333333  0.666667  0.000000  1
  Ru  Ru7  1  0.666667  0.333333  0.500000  1
  Ru  Ru8  1  0.000000  0.000000  0.000000  1
