# generated using pymatgen
data_Sc5Mn6Si12W
_symmetry_space_group_name_H-M   'P 1'
_cell_length_a   9.71355531
_cell_length_b   9.71820270
_cell_length_c   9.71820233
_cell_angle_alpha   149.83525144
_cell_angle_beta   132.21295230
_cell_angle_gamma   57.56058948
_symmetry_Int_Tables_number   1
_chemical_formula_structural   Sc5Mn6Si12W
_chemical_formula_sum   'Sc5 Mn6 Si12 W1'
_cell_volume   338.97223172
_cell_formula_units_Z   1
loop_
 _symmetry_equiv_pos_site_id
 _symmetry_equiv_pos_as_xyz
  1  'x, y, z'
loop_
 _atom_site_type_symbol
 _atom_site_label
 _atom_site_symmetry_multiplicity
 _atom_site_fract_x
 _atom_site_fract_y
 _atom_site_fract_z
 _atom_site_occupancy
  Sc  Sc0  1  0.350645  0.093309  0.257335  1
  Sc  Sc1  1  0.644107  0.906031  0.738077  1
  Sc  Sc2  1  0.167819  0.905955  0.261863  1
  Sc  Sc3  1  0.835988  0.093330  0.742660  1
  Sc  Sc4  1  0.639835  0.639793  0.000043  1
  Mn  Mn5  1  0.500704  0.000257  0.997594  1
  Mn  Mn6  1  0.500704  0.503110  0.500446  1
  Mn  Mn7  1  0.002569  0.000144  0.499116  1
  Mn  Mn8  1  0.002569  0.503453  0.002425  1
  Mn  Mn9  1  0.248327  0.498984  0.749341  1
  Mn  Mn10  1  0.750541  0.499224  0.251318  1
  Si  Si11  1  0.997636  0.750274  0.752466  1
  Si  Si12  1  0.997636  0.245170  0.247362  1
  Si  Si13  1  0.495622  0.244083  0.748708  1
  Si  Si14  1  0.495622  0.746913  0.251539  1
  Si  Si15  1  0.206764  0.207048  0.999715  1
  Si  Si16  1  0.798898  0.798764  0.000134  1
  Si  Si17  1  0.291753  0.791909  0.499844  1
  Si  Si18  1  0.711410  0.211225  0.500186  1
  Si  Si19  1  0.704466  0.364208  0.340257  1
  Si  Si20  1  0.287605  0.636717  0.650888  1
  Si  Si21  1  0.985853  0.636877  0.348976  1
  Si  Si22  1  0.023761  0.364087  0.659675  1
  W  W23  1  0.359167  0.359135  0.000031  1
