# generated using pymatgen
data_Pb(S4Cl)4
_symmetry_space_group_name_H-M   'P 1'
_cell_length_a   16.02781340
_cell_length_b   12.99415099
_cell_length_c   12.71187200
_cell_angle_alpha   77.13630185
_cell_angle_beta   52.22084380
_cell_angle_gamma   50.64285160
_symmetry_Int_Tables_number   1
_chemical_formula_structural   Pb(S4Cl)4
_chemical_formula_sum   'Pb2 S32 Cl8'
_cell_volume   1557.21352586
_cell_formula_units_Z   2
loop_
 _symmetry_equiv_pos_site_id
 _symmetry_equiv_pos_as_xyz
  1  'x, y, z'
loop_
 _atom_site_type_symbol
 _atom_site_label
 _atom_site_symmetry_multiplicity
 _atom_site_fract_x
 _atom_site_fract_y
 _atom_site_fract_z
 _atom_site_occupancy
  Pb  Pb0  1  0.247937  0.252063  0.252063  1
  Pb  Pb1  1  0.997937  0.002063  0.002063  1
  S  S2  1  0.523157  0.469708  0.260623  1
  S  S3  1  0.322311  0.880238  0.165521  1
  S  S4  1  0.746512  0.260623  0.469708  1
  S  S5  1  0.808530  0.531506  0.329186  1
  S  S6  1  0.631929  0.165521  0.880238  1
  S  S7  1  0.180068  0.311088  0.647374  1
  S  S8  1  0.594862  0.926079  0.588162  1
  S  S9  1  0.327110  0.815801  0.327052  1
  S  S10  1  0.636230  0.650489  0.339597  1
  S  S11  1  0.330778  0.329186  0.531506  1
  S  S12  1  0.718494  0.441470  0.919222  1
  S  S13  1  0.780292  0.726843  0.503488  1
  S  S14  1  0.323921  0.655138  0.359104  1
  S  S15  1  0.910403  0.876316  0.613770  1
  S  S16  1  0.602626  0.388531  0.069932  1
  S  S17  1  0.890896  0.588162  0.926079  1
  S  S18  1  0.264683  0.543903  0.728982  1
  S  S19  1  0.706097  0.985317  0.787568  1
  S  S20  1  0.434199  0.922890  0.719963  1
  S  S21  1  0.369762  0.927689  0.618071  1
  S  S22  1  0.373684  0.339597  0.650489  1
  S  S23  1  0.938912  0.069932  0.388531  1
  S  S24  1  0.084479  0.618071  0.927689  1
  S  S25  1  0.530037  0.327052  0.815801  1
  S  S26  1  0.521018  0.787568  0.985317  1
  S  S27  1  0.920814  0.919222  0.441470  1
  S  S28  1  0.661838  0.359104  0.655138  1
  S  S29  1  0.861469  0.647374  0.311088  1
  S  S30  1  0.922948  0.719963  0.922890  1
  S  S31  1  0.599511  0.613770  0.876316  1
  S  S32  1  0.462432  0.728982  0.543903  1
  S  S33  1  0.989377  0.503488  0.726843  1
  Cl  Cl34  1  0.199922  0.798740  0.978403  1
  Cl  Cl35  1  0.970407  0.201837  0.032245  1
  Cl  Cl36  1  0.022934  0.978403  0.798740  1
  Cl  Cl37  1  0.795511  0.032245  0.201837  1
  Cl  Cl38  1  0.451260  0.050078  0.227066  1
  Cl  Cl39  1  0.271597  0.227066  0.050078  1
  Cl  Cl40  1  0.217755  0.454489  0.279593  1
  Cl  Cl41  1  0.048163  0.279593  0.454489  1
