# generated using pymatgen
data_PrEr2Ag(Ir2O7)2
_symmetry_space_group_name_H-M   'P 1'
_cell_length_a   7.37378343
_cell_length_b   7.34493998
_cell_length_c   7.19737161
_cell_angle_alpha   59.31941188
_cell_angle_beta   59.16800502
_cell_angle_gamma   60.12930928
_symmetry_Int_Tables_number   1
_chemical_formula_structural   PrEr2Ag(Ir2O7)2
_chemical_formula_sum   'Pr1 Er2 Ag1 Ir4 O14'
_cell_volume   272.70198699
_cell_formula_units_Z   1
loop_
 _symmetry_equiv_pos_site_id
 _symmetry_equiv_pos_as_xyz
  1  'x, y, z'
loop_
 _atom_site_type_symbol
 _atom_site_label
 _atom_site_symmetry_multiplicity
 _atom_site_fract_x
 _atom_site_fract_y
 _atom_site_fract_z
 _atom_site_occupancy
  Pr  Pr0  1  0.625000  0.125000  0.125000  1
  Er  Er1  1  0.125000  0.125000  0.125000  1
  Er  Er2  1  0.125000  0.625000  0.125000  1
  Ag  Ag3  1  0.125000  0.125000  0.625000  1
  Ir  Ir4  1  0.625000  0.625000  0.625000  1
  Ir  Ir5  1  0.125000  0.625000  0.625000  1
  Ir  Ir6  1  0.625000  0.125000  0.625000  1
  Ir  Ir7  1  0.625000  0.625000  0.125000  1
  O  O8  1  0.951383  0.561902  0.537329  1
  O  O9  1  0.298617  0.300615  0.712671  1
  O  O10  1  0.957653  0.540090  0.962167  1
  O  O11  1  0.720364  0.291776  0.285306  1
  O  O12  1  0.529636  0.547445  0.964694  1
  O  O13  1  0.550352  0.949132  0.551384  1
  O  O14  1  0.529636  0.958224  0.964694  1
  O  O15  1  0.234884  0.258173  0.248769  1
  O  O16  1  0.298617  0.688098  0.712671  1
  O  O17  1  0.699648  0.300868  0.698616  1
  O  O18  1  0.015116  0.991827  0.001231  1
  O  O19  1  0.951383  0.949385  0.537329  1
  O  O20  1  0.292347  0.709910  0.287833  1
  O  O21  1  0.720364  0.702555  0.285306  1
