# generated using pymatgen
data_DySc2(CoNi2)3
_symmetry_space_group_name_H-M   'P 1'
_cell_length_a   4.82614084
_cell_length_b   4.82614029
_cell_length_c   8.48807000
_cell_angle_alpha   73.48361686
_cell_angle_beta   73.48361878
_cell_angle_gamma   59.99999061
_symmetry_Int_Tables_number   1
_chemical_formula_structural   DySc2(CoNi2)3
_chemical_formula_sum   'Dy1 Sc2 Co3 Ni6'
_cell_volume   161.72611684
_cell_formula_units_Z   1
loop_
 _symmetry_equiv_pos_site_id
 _symmetry_equiv_pos_as_xyz
  1  'x, y, z'
loop_
 _atom_site_type_symbol
 _atom_site_label
 _atom_site_symmetry_multiplicity
 _atom_site_fract_x
 _atom_site_fract_y
 _atom_site_fract_z
 _atom_site_occupancy
  Dy  Dy0  1  0.000514  0.000514  0.998460  1
  Sc  Sc1  1  0.140792  0.140792  0.577624  1
  Sc  Sc2  1  0.859837  0.859837  0.420489  1
  Co  Co3  1  0.081172  0.585082  0.748665  1
  Co  Co4  1  0.585082  0.585082  0.748665  1
  Co  Co5  1  0.585082  0.081172  0.748665  1
  Ni  Ni6  1  0.917840  0.414740  0.252680  1
  Ni  Ni7  1  0.414740  0.414740  0.252680  1
  Ni  Ni8  1  0.414740  0.917840  0.252680  1
  Ni  Ni9  1  0.333505  0.333505  0.999487  1
  Ni  Ni10  1  0.666572  0.666572  0.000282  1
  Ni  Ni11  1  0.500124  0.500124  0.499628  1
