# generated using pymatgen
data_Mg5CuB6Ir11
_symmetry_space_group_name_H-M   'P 1'
_cell_length_a   2.92411100
_cell_length_b   8.65099000
_cell_length_c   11.59110000
_cell_angle_alpha   90.00000000
_cell_angle_beta   90.00000000
_cell_angle_gamma   90.00000000
_symmetry_Int_Tables_number   1
_chemical_formula_structural   Mg5CuB6Ir11
_chemical_formula_sum   'Mg5 Cu1 B6 Ir11'
_cell_volume   293.21373978
_cell_formula_units_Z   1
loop_
 _symmetry_equiv_pos_site_id
 _symmetry_equiv_pos_as_xyz
  1  'x, y, z'
loop_
 _atom_site_type_symbol
 _atom_site_label
 _atom_site_symmetry_multiplicity
 _atom_site_fract_x
 _atom_site_fract_y
 _atom_site_fract_z
 _atom_site_occupancy
  Mg  Mg0  1  0.500000  0.500000  0.000000  1
  Mg  Mg1  1  0.500000  0.656123  0.500000  1
  Mg  Mg2  1  0.500000  0.343877  0.500000  1
  Mg  Mg3  1  0.500000  0.000000  0.200196  1
  Mg  Mg4  1  0.500000  0.000000  0.799804  1
  Cu  Cu5  1  0.500000  0.000000  0.500000  1
  B  B6  1  0.500000  0.807288  0.000000  1
  B  B7  1  0.500000  0.192712  0.000000  1
  B  B8  1  0.500000  0.688572  0.271854  1
  B  B9  1  0.500000  0.311428  0.271854  1
  B  B10  1  0.500000  0.311428  0.728146  1
  B  B11  1  0.500000  0.688572  0.728146  1
  Ir  Ir12  1  0.000000  0.000000  0.000000  1
  Ir  Ir13  1  0.000000  0.500000  0.310813  1
  Ir  Ir14  1  0.000000  0.500000  0.689187  1
  Ir  Ir15  1  0.000000  0.719027  0.124293  1
  Ir  Ir16  1  0.000000  0.280973  0.124293  1
  Ir  Ir17  1  0.000000  0.280973  0.875707  1
  Ir  Ir18  1  0.000000  0.719027  0.875707  1
  Ir  Ir19  1  0.000000  0.831985  0.354763  1
  Ir  Ir20  1  0.000000  0.168015  0.354763  1
  Ir  Ir21  1  0.000000  0.168015  0.645237  1
  Ir  Ir22  1  0.000000  0.831985  0.645237  1
