# generated using pymatgen
data_Nd3BRh6Pb
_symmetry_space_group_name_H-M   'P 1'
_cell_length_a   5.94142600
_cell_length_b   5.94142476
_cell_length_c   14.10535200
_cell_angle_alpha   90.00000000
_cell_angle_beta   90.00000000
_cell_angle_gamma   119.99999575
_symmetry_Int_Tables_number   1
_chemical_formula_structural   Nd3BRh6Pb
_chemical_formula_sum   'Nd6 B2 Rh12 Pb2'
_cell_volume   431.21699931
_cell_formula_units_Z   2
loop_
 _symmetry_equiv_pos_site_id
 _symmetry_equiv_pos_as_xyz
  1  'x, y, z'
loop_
 _atom_site_type_symbol
 _atom_site_label
 _atom_site_symmetry_multiplicity
 _atom_site_fract_x
 _atom_site_fract_y
 _atom_site_fract_z
 _atom_site_occupancy
  Nd  Nd0  1  0.000000  0.000000  0.750000  1
  Nd  Nd1  1  0.000000  0.000000  0.250000  1
  Nd  Nd2  1  0.333333  0.666667  0.408676  1
  Nd  Nd3  1  0.666667  0.333333  0.908676  1
  Nd  Nd4  1  0.666667  0.333333  0.591324  1
  Nd  Nd5  1  0.333333  0.666667  0.091324  1
  B  B6  1  0.000000  0.000000  0.500000  1
  B  B7  1  0.000000  0.000000  0.000000  1
  Rh  Rh8  1  0.342019  0.171010  0.415946  1
  Rh  Rh9  1  0.828990  0.171010  0.415946  1
  Rh  Rh10  1  0.828990  0.657981  0.415946  1
  Rh  Rh11  1  0.171010  0.342019  0.915946  1
  Rh  Rh12  1  0.657981  0.828990  0.584054  1
  Rh  Rh13  1  0.657981  0.828990  0.915946  1
  Rh  Rh14  1  0.342019  0.171010  0.084054  1
  Rh  Rh15  1  0.171010  0.342019  0.584054  1
  Rh  Rh16  1  0.171010  0.828990  0.584054  1
  Rh  Rh17  1  0.828990  0.171010  0.084054  1
  Rh  Rh18  1  0.828990  0.657981  0.084054  1
  Rh  Rh19  1  0.171010  0.828990  0.915946  1
  Pb  Pb20  1  0.333333  0.666667  0.750000  1
  Pb  Pb21  1  0.666667  0.333333  0.250000  1
