# generated using pymatgen
data_Tm3Lu5Tc2(B12Rh)2
_symmetry_space_group_name_H-M   'P 1'
_cell_length_a   3.62054600
_cell_length_b   9.04570336
_cell_length_c   11.42879800
_cell_angle_alpha   90.33554972
_cell_angle_beta   90.00000000
_cell_angle_gamma   90.00000000
_symmetry_Int_Tables_number   1
_chemical_formula_structural   Tm3Lu5Tc2(B12Rh)2
_chemical_formula_sum   'Tm3 Lu5 Tc2 B24 Rh2'
_cell_volume   374.29111698
_cell_formula_units_Z   1
loop_
 _symmetry_equiv_pos_site_id
 _symmetry_equiv_pos_as_xyz
  1  'x, y, z'
loop_
 _atom_site_type_symbol
 _atom_site_label
 _atom_site_symmetry_multiplicity
 _atom_site_fract_x
 _atom_site_fract_y
 _atom_site_fract_z
 _atom_site_occupancy
  Tm  Tm0  1  0.500000  0.317721  0.411044  1
  Tm  Tm1  1  0.500000  0.682270  0.588926  1
  Tm  Tm2  1  0.500000  0.174000  0.917236  1
  Lu  Lu3  1  0.500000  0.826083  0.082544  1
  Lu  Lu4  1  0.500000  0.442084  0.126567  1
  Lu  Lu5  1  0.500000  0.558113  0.873569  1
  Lu  Lu6  1  0.500000  0.053566  0.628300  1
  Lu  Lu7  1  0.500000  0.946326  0.371645  1
  Tc  Tc8  1  0.500000  0.139271  0.180142  1
  Tc  Tc9  1  0.500000  0.860449  0.819949  1
  B  B10  1  0.000000  0.105323  0.471777  1
  B  B11  1  0.000000  0.894638  0.528185  1
  B  B12  1  0.000000  0.395633  0.971012  1
  B  B13  1  0.000000  0.604890  0.029142  1
  B  B14  1  0.000000  0.131738  0.315600  1
  B  B15  1  0.000000  0.868151  0.684369  1
  B  B16  1  0.000000  0.367957  0.817257  1
  B  B17  1  0.000000  0.632455  0.182556  1
  B  B18  1  0.000000  0.052828  0.067011  1
  B  B19  1  0.000000  0.946693  0.933247  1
  B  B20  1  0.000000  0.445460  0.565420  1
  B  B21  1  0.000000  0.554570  0.434547  1
  B  B22  1  0.000000  0.482916  0.287412  1
  B  B23  1  0.000000  0.517203  0.712586  1
  B  B24  1  0.000000  0.017536  0.786734  1
  B  B25  1  0.000000  0.982010  0.213151  1
  B  B26  1  0.000000  0.249509  0.080850  1
  B  B27  1  0.000000  0.750493  0.919574  1
  B  B28  1  0.000000  0.249555  0.578566  1
  B  B29  1  0.000000  0.750405  0.421373  1
  B  B30  1  0.000000  0.293951  0.235139  1
  B  B31  1  0.000000  0.706030  0.764937  1
  B  B32  1  0.000000  0.207360  0.735357  1
  B  B33  1  0.000000  0.792757  0.264333  1
  Rh  Rh34  1  0.500000  0.361312  0.678985  1
  Rh  Rh35  1  0.500000  0.638743  0.320958  1
