# generated using pymatgen
data_Tb3Dy5Re3TcB24
_symmetry_space_group_name_H-M   'P 1'
_cell_length_a   3.69401000
_cell_length_b   9.18744707
_cell_length_c   11.57669700
_cell_angle_alpha   90.02789432
_cell_angle_beta   90.00000000
_cell_angle_gamma   90.00000000
_symmetry_Int_Tables_number   1
_chemical_formula_structural   Tb3Dy5Re3TcB24
_chemical_formula_sum   'Tb3 Dy5 Re3 Tc1 B24'
_cell_volume   392.89593175
_cell_formula_units_Z   1
loop_
 _symmetry_equiv_pos_site_id
 _symmetry_equiv_pos_as_xyz
  1  'x, y, z'
loop_
 _atom_site_type_symbol
 _atom_site_label
 _atom_site_symmetry_multiplicity
 _atom_site_fract_x
 _atom_site_fract_y
 _atom_site_fract_z
 _atom_site_occupancy
  Tb  Tb0  1  0.000000  0.323791  0.413864  1
  Tb  Tb1  1  0.000000  0.676403  0.585978  1
  Tb  Tb2  1  0.000000  0.823746  0.085953  1
  Dy  Dy3  1  0.000000  0.176529  0.913991  1
  Dy  Dy4  1  0.000000  0.941760  0.369488  1
  Dy  Dy5  1  0.000000  0.057182  0.629999  1
  Dy  Dy6  1  0.000000  0.443294  0.130833  1
  Dy  Dy7  1  0.000000  0.557139  0.870058  1
  Re  Re8  1  0.000000  0.361502  0.679355  1
  Re  Re9  1  0.000000  0.138500  0.179192  1
  Re  Re10  1  0.000000  0.861791  0.820760  1
  Tc  Tc11  1  0.000000  0.638578  0.320627  1
  B  B12  1  0.500000  0.553493  0.432510  1
  B  B13  1  0.500000  0.446632  0.567280  1
  B  B14  1  0.500000  0.053552  0.067070  1
  B  B15  1  0.500000  0.946978  0.932678  1
  B  B16  1  0.500000  0.748307  0.418036  1
  B  B17  1  0.500000  0.251305  0.581824  1
  B  B18  1  0.500000  0.248857  0.081660  1
  B  B19  1  0.500000  0.751511  0.918161  1
  B  B20  1  0.500000  0.791241  0.265565  1
  B  B21  1  0.500000  0.208303  0.734420  1
  B  B22  1  0.500000  0.291545  0.234433  1
  B  B23  1  0.500000  0.708407  0.765730  1
  B  B24  1  0.500000  0.630792  0.185979  1
  B  B25  1  0.500000  0.369239  0.814293  1
  B  B26  1  0.500000  0.130386  0.314170  1
  B  B27  1  0.500000  0.869404  0.685827  1
  B  B28  1  0.500000  0.982367  0.211792  1
  B  B29  1  0.500000  0.017854  0.788067  1
  B  B30  1  0.500000  0.482664  0.288216  1
  B  B31  1  0.500000  0.517558  0.712053  1
  B  B32  1  0.500000  0.600157  0.028218  1
  B  B33  1  0.500000  0.399862  0.972183  1
  B  B34  1  0.500000  0.099544  0.471788  1
  B  B35  1  0.500000  0.899828  0.527946  1
