# generated using pymatgen
data_Ac11(Ni2Sn3)2
_symmetry_space_group_name_H-M   'P 1'
_cell_length_a   4.67162719
_cell_length_b   10.34018432
_cell_length_c   15.30927518
_cell_angle_alpha   105.39818065
_cell_angle_beta   90.01287729
_cell_angle_gamma   102.95318064
_symmetry_Int_Tables_number   1
_chemical_formula_structural   Ac11(Ni2Sn3)2
_chemical_formula_sum   'Ac11 Ni4 Sn6'
_cell_volume   693.42718707
_cell_formula_units_Z   1
loop_
 _symmetry_equiv_pos_site_id
 _symmetry_equiv_pos_as_xyz
  1  'x, y, z'
loop_
 _atom_site_type_symbol
 _atom_site_label
 _atom_site_symmetry_multiplicity
 _atom_site_fract_x
 _atom_site_fract_y
 _atom_site_fract_z
 _atom_site_occupancy
  Ac  Ac0  1  0.905928  0.810044  0.215338  1
  Ac  Ac1  1  0.853448  0.705520  0.643161  1
  Ac  Ac2  1  0.213049  0.425138  0.100762  1
  Ac  Ac3  1  0.546612  0.093674  0.122369  1
  Ac  Ac4  1  0.337511  0.675261  0.416964  1
  Ac  Ac5  1  0.453790  0.905814  0.878831  1
  Ac  Ac6  1  0.000099  0.999906  0.500588  1
  Ac  Ac7  1  0.146861  0.294564  0.357975  1
  Ac  Ac8  1  0.787440  0.574458  0.900318  1
  Ac  Ac9  1  0.662702  0.324641  0.583779  1
  Ac  Ac10  1  0.094555  0.189644  0.785706  1
  Ni  Ni11  1  0.749703  0.501177  0.454525  1
  Ni  Ni12  1  0.944624  0.889170  0.021898  1
  Ni  Ni13  1  0.054685  0.109772  0.979397  1
  Ni  Ni14  1  0.250751  0.499549  0.546742  1
  Sn  Sn15  1  0.629655  0.258277  0.950714  1
  Sn  Sn16  1  0.259866  0.518685  0.731286  1
  Sn  Sn17  1  0.740361  0.480832  0.269729  1
  Sn  Sn18  1  0.370641  0.741012  0.050326  1
  Sn  Sn19  1  0.515623  0.031669  0.347314  1
  Sn  Sn20  1  0.484690  0.968239  0.653802  1
