# generated using pymatgen
data_Ba3Pu2MgO9
_symmetry_space_group_name_H-M   'P 1'
_cell_length_a   6.03639300
_cell_length_b   6.03639266
_cell_length_c   7.44609700
_cell_angle_alpha   90.00000000
_cell_angle_beta   90.00000000
_cell_angle_gamma   120.00000736
_symmetry_Int_Tables_number   1
_chemical_formula_structural   Ba3Pu2MgO9
_chemical_formula_sum   'Ba3 Pu2 Mg1 O9'
_cell_volume   234.97100686
_cell_formula_units_Z   1
loop_
 _symmetry_equiv_pos_site_id
 _symmetry_equiv_pos_as_xyz
  1  'x, y, z'
loop_
 _atom_site_type_symbol
 _atom_site_label
 _atom_site_symmetry_multiplicity
 _atom_site_fract_x
 _atom_site_fract_y
 _atom_site_fract_z
 _atom_site_occupancy
  Ba  Ba0  1  0.000000  0.000000  0.000000  1
  Ba  Ba1  1  0.333333  0.666667  0.652661  1
  Ba  Ba2  1  0.666667  0.333333  0.347339  1
  Pu  Pu3  1  0.333333  0.666667  0.174165  1
  Pu  Pu4  1  0.666667  0.333333  0.825835  1
  Mg  Mg5  1  0.000000  0.000000  0.500000  1
  O  O6  1  0.832173  0.167827  0.667006  1
  O  O7  1  0.832173  0.664346  0.667006  1
  O  O8  1  0.335654  0.167827  0.667006  1
  O  O9  1  0.664346  0.832173  0.332994  1
  O  O10  1  0.167827  0.335654  0.332994  1
  O  O11  1  0.167827  0.832173  0.332994  1
  O  O12  1  0.500000  0.000000  0.000000  1
  O  O13  1  0.000000  0.500000  0.000000  1
  O  O14  1  0.500000  0.500000  0.000000  1
