# generated using pymatgen
data_Li2Pr3In4
_symmetry_space_group_name_H-M   'P 1'
_cell_length_a   7.59786391
_cell_length_b   7.65384131
_cell_length_c   4.85525900
_cell_angle_alpha   90.00000000
_cell_angle_beta   90.00000000
_cell_angle_gamma   120.24401504
_symmetry_Int_Tables_number   1
_chemical_formula_structural   Li2Pr3In4
_chemical_formula_sum   'Li2 Pr3 In4'
_cell_volume   243.91632587
_cell_formula_units_Z   1
loop_
 _symmetry_equiv_pos_site_id
 _symmetry_equiv_pos_as_xyz
  1  'x, y, z'
loop_
 _atom_site_type_symbol
 _atom_site_label
 _atom_site_symmetry_multiplicity
 _atom_site_fract_x
 _atom_site_fract_y
 _atom_site_fract_z
 _atom_site_occupancy
  Li  Li0  1  0.769787  0.770521  0.500000  1
  Li  Li1  1  0.230213  0.000732  0.500000  1
  Pr  Pr2  1  0.000000  0.559620  0.000000  1
  Pr  Pr3  1  0.430450  0.433215  0.000000  1
  Pr  Pr4  1  0.569550  0.002766  0.000000  1
  In  In5  1  0.000000  0.233881  0.500000  1
  In  In6  1  0.658597  0.337745  0.500000  1
  In  In7  1  0.000000  0.982371  0.000000  1
  In  In8  1  0.341403  0.679148  0.500000  1
