# generated using pymatgen
data_Y(UPd4)3
_symmetry_space_group_name_H-M   'P 1'
_cell_length_a   5.84373200
_cell_length_b   5.84373255
_cell_length_c   9.64164100
_cell_angle_alpha   90.00000000
_cell_angle_beta   90.00000000
_cell_angle_gamma   119.99999689
_symmetry_Int_Tables_number   1
_chemical_formula_structural   Y(UPd4)3
_chemical_formula_sum   'Y1 U3 Pd12'
_cell_volume   285.14267792
_cell_formula_units_Z   1
loop_
 _symmetry_equiv_pos_site_id
 _symmetry_equiv_pos_as_xyz
  1  'x, y, z'
loop_
 _atom_site_type_symbol
 _atom_site_label
 _atom_site_symmetry_multiplicity
 _atom_site_fract_x
 _atom_site_fract_y
 _atom_site_fract_z
 _atom_site_occupancy
  Y  Y0  1  0.000000  0.000000  0.500000  1
  U  U1  1  0.000000  0.000000  0.000000  1
  U  U2  1  0.333333  0.666667  0.745161  1
  U  U3  1  0.666667  0.333333  0.254839  1
  Pd  Pd4  1  0.500000  0.500000  0.500000  1
  Pd  Pd5  1  0.500000  0.000000  0.500000  1
  Pd  Pd6  1  0.000000  0.500000  0.500000  1
  Pd  Pd7  1  0.500000  0.500000  0.000000  1
  Pd  Pd8  1  0.500000  0.000000  0.000000  1
  Pd  Pd9  1  0.000000  0.500000  0.000000  1
  Pd  Pd10  1  0.172212  0.827788  0.247937  1
  Pd  Pd11  1  0.172212  0.344425  0.247937  1
  Pd  Pd12  1  0.655575  0.827788  0.247937  1
  Pd  Pd13  1  0.827788  0.172212  0.752063  1
  Pd  Pd14  1  0.827788  0.655575  0.752063  1
  Pd  Pd15  1  0.344425  0.172212  0.752063  1
