# generated using pymatgen
data_Ta8Ti4B12Os11Ru
_symmetry_space_group_name_H-M   'P 1'
_cell_length_a   3.10090000
_cell_length_b   9.02845222
_cell_length_c   15.65305771
_cell_angle_alpha   89.96187488
_cell_angle_beta   90.00000000
_cell_angle_gamma   90.00000000
_symmetry_Int_Tables_number   1
_chemical_formula_structural   Ta8Ti4B12Os11Ru
_chemical_formula_sum   'Ta8 Ti4 B12 Os11 Ru1'
_cell_volume   438.22803267
_cell_formula_units_Z   1
loop_
 _symmetry_equiv_pos_site_id
 _symmetry_equiv_pos_as_xyz
  1  'x, y, z'
loop_
 _atom_site_type_symbol
 _atom_site_label
 _atom_site_symmetry_multiplicity
 _atom_site_fract_x
 _atom_site_fract_y
 _atom_site_fract_z
 _atom_site_occupancy
  Ta  Ta0  1  0.000000  0.516705  0.593118  1
  Ta  Ta1  1  0.000000  0.483684  0.406581  1
  Ta  Ta2  1  0.000000  0.016430  0.907185  1
  Ta  Ta3  1  0.000000  0.982917  0.094054  1
  Ta  Ta4  1  0.000000  0.687371  0.203612  1
  Ta  Ta5  1  0.000000  0.312890  0.796589  1
  Ta  Ta6  1  0.000000  0.187154  0.296553  1
  Ta  Ta7  1  0.000000  0.813267  0.703319  1
  Ti  Ti8  1  0.000000  0.802796  0.494338  1
  Ti  Ti9  1  0.000000  0.197924  0.505077  1
  Ti  Ti10  1  0.000000  0.302203  0.005661  1
  Ti  Ti11  1  0.000000  0.697418  0.994503  1
  B  B12  1  0.500000  0.609865  0.495437  1
  B  B13  1  0.500000  0.390598  0.504272  1
  B  B14  1  0.500000  0.108600  0.005069  1
  B  B15  1  0.500000  0.890219  0.996041  1
  B  B16  1  0.000000  0.606584  0.836057  1
  B  B17  1  0.000000  0.393320  0.163946  1
  B  B18  1  0.000000  0.106681  0.663921  1
  B  B19  1  0.000000  0.893250  0.335856  1
  B  B20  1  0.500000  0.717776  0.596319  1
  B  B21  1  0.500000  0.282697  0.403332  1
  B  B22  1  0.500000  0.217015  0.903567  1
  B  B23  1  0.500000  0.781741  0.096520  1
  Os  Os24  1  0.500000  0.719804  0.357421  1
  Os  Os25  1  0.500000  0.280986  0.642024  1
  Os  Os26  1  0.500000  0.218669  0.142333  1
  Os  Os27  1  0.500000  0.780844  0.858003  1
  Os  Os28  1  0.500000  0.520118  0.092628  1
  Os  Os29  1  0.500000  0.479512  0.907247  1
  Os  Os30  1  0.500000  0.020280  0.406655  1
  Os  Os31  1  0.500000  0.980141  0.592614  1
  Os  Os32  1  0.500000  0.563009  0.734337  1
  Os  Os33  1  0.500000  0.437478  0.265615  1
  Os  Os34  1  0.500000  0.062944  0.765802  1
  Ru  Ru35  1  0.500000  0.937109  0.234397  1
