# generated using pymatgen
data_Nd8Be3Si12Au
_symmetry_space_group_name_H-M   'P 1'
_cell_length_a   8.06039500
_cell_length_b   8.06039576
_cell_length_c   8.56423000
_cell_angle_alpha   90.00000000
_cell_angle_beta   90.00000000
_cell_angle_gamma   119.99999278
_symmetry_Int_Tables_number   1
_chemical_formula_structural   Nd8Be3Si12Au
_chemical_formula_sum   'Nd8 Be3 Si12 Au1'
_cell_volume   481.87198295
_cell_formula_units_Z   1
loop_
 _symmetry_equiv_pos_site_id
 _symmetry_equiv_pos_as_xyz
  1  'x, y, z'
loop_
 _atom_site_type_symbol
 _atom_site_label
 _atom_site_symmetry_multiplicity
 _atom_site_fract_x
 _atom_site_fract_y
 _atom_site_fract_z
 _atom_site_occupancy
  Nd  Nd0  1  0.497682  0.502318  0.753460  1
  Nd  Nd1  1  0.497831  0.502169  0.246580  1
  Nd  Nd2  1  0.004637  0.502318  0.753460  1
  Nd  Nd3  1  0.004339  0.502169  0.246580  1
  Nd  Nd4  1  0.497682  0.995363  0.753460  1
  Nd  Nd5  1  0.497831  0.995661  0.246580  1
  Nd  Nd6  1  0.000000  0.000000  0.751083  1
  Nd  Nd7  1  0.000000  0.000000  0.249024  1
  Be  Be8  1  0.666667  0.333333  0.998996  1
  Be  Be9  1  0.333333  0.666667  0.000902  1
  Be  Be10  1  0.333333  0.666667  0.499402  1
  Si  Si11  1  0.828151  0.171849  0.000012  1
  Si  Si12  1  0.172725  0.827275  0.000077  1
  Si  Si13  1  0.343700  0.171849  0.000012  1
  Si  Si14  1  0.172689  0.827311  0.499780  1
  Si  Si15  1  0.654549  0.827275  0.000077  1
  Si  Si16  1  0.837629  0.162371  0.500216  1
  Si  Si17  1  0.828151  0.656300  0.000012  1
  Si  Si18  1  0.654624  0.827311  0.499780  1
  Si  Si19  1  0.172725  0.345451  0.000077  1
  Si  Si20  1  0.324742  0.162371  0.500216  1
  Si  Si21  1  0.172689  0.345376  0.499780  1
  Si  Si22  1  0.837629  0.675258  0.500216  1
  Au  Au23  1  0.666667  0.333333  0.500219  1
