# generated using pymatgen
data_HoTm2Th11Ru6
_symmetry_space_group_name_H-M   'P 1'
_cell_length_a   9.81346331
_cell_length_b   9.87248453
_cell_length_c   6.39427786
_cell_angle_alpha   90.25135664
_cell_angle_beta   89.88538183
_cell_angle_gamma   120.34537911
_symmetry_Int_Tables_number   1
_chemical_formula_structural   HoTm2Th11Ru6
_chemical_formula_sum   'Ho1 Tm2 Th11 Ru6'
_cell_volume   534.61938401
_cell_formula_units_Z   1
loop_
 _symmetry_equiv_pos_site_id
 _symmetry_equiv_pos_as_xyz
  1  'x, y, z'
loop_
 _atom_site_type_symbol
 _atom_site_label
 _atom_site_symmetry_multiplicity
 _atom_site_fract_x
 _atom_site_fract_y
 _atom_site_fract_z
 _atom_site_occupancy
  Ho  Ho0  1  0.926505  0.462952  0.800719  1
  Tm  Tm1  1  0.459413  0.536814  0.297366  1
  Tm  Tm2  1  0.074956  0.536311  0.302287  1
  Th  Th3  1  0.249651  0.126829  0.509422  1
  Th  Th4  1  0.542319  0.082987  0.796298  1
  Th  Th5  1  0.747514  0.873638  0.012344  1
  Th  Th6  1  0.666621  0.333540  0.278567  1
  Th  Th7  1  0.125299  0.870041  0.009259  1
  Th  Th8  1  0.458733  0.915638  0.295780  1
  Th  Th9  1  0.539632  0.464045  0.799412  1
  Th  Th10  1  0.876565  0.129549  0.510623  1
  Th  Th11  1  0.124681  0.253497  0.014363  1
  Th  Th12  1  0.873987  0.747669  0.508124  1
  Th  Th13  1  0.333349  0.665312  0.773921  1
  Ru  Ru14  1  0.811940  0.630377  0.048478  1
  Ru  Ru15  1  0.815010  0.182820  0.046103  1
  Ru  Ru16  1  0.631318  0.814656  0.544689  1
  Ru  Ru17  1  0.370325  0.188132  0.042116  1
  Ru  Ru18  1  0.184723  0.367327  0.551056  1
  Ru  Ru19  1  0.187460  0.817867  0.543069  1
