# generated using pymatgen
data_LiTb2Si4Pd
_symmetry_space_group_name_H-M   'P 1'
_cell_length_a   3.85598200
_cell_length_b   7.37017300
_cell_length_c   10.13698200
_cell_angle_alpha   90.00000000
_cell_angle_beta   90.00000000
_cell_angle_gamma   90.00000000
_symmetry_Int_Tables_number   1
_chemical_formula_structural   LiTb2Si4Pd
_chemical_formula_sum   'Li2 Tb4 Si8 Pd2'
_cell_volume   288.08547056
_cell_formula_units_Z   2
loop_
 _symmetry_equiv_pos_site_id
 _symmetry_equiv_pos_as_xyz
  1  'x, y, z'
loop_
 _atom_site_type_symbol
 _atom_site_label
 _atom_site_symmetry_multiplicity
 _atom_site_fract_x
 _atom_site_fract_y
 _atom_site_fract_z
 _atom_site_occupancy
  Li  Li0  1  0.750000  0.003936  0.604808  1
  Li  Li1  1  0.750000  0.503936  0.895192  1
  Tb  Tb2  1  0.250000  0.143743  0.871947  1
  Tb  Tb3  1  0.250000  0.643743  0.628053  1
  Tb  Tb4  1  0.750000  0.862344  0.132448  1
  Tb  Tb5  1  0.750000  0.362344  0.367552  1
  Si  Si6  1  0.250000  0.223334  0.570795  1
  Si  Si7  1  0.250000  0.723334  0.929205  1
  Si  Si8  1  0.750000  0.771379  0.428636  1
  Si  Si9  1  0.750000  0.271379  0.071364  1
  Si  Si10  1  0.250000  0.659465  0.316627  1
  Si  Si11  1  0.250000  0.159465  0.183373  1
  Si  Si12  1  0.750000  0.340889  0.678945  1
  Si  Si13  1  0.750000  0.840889  0.821055  1
  Pd  Pd14  1  0.250000  0.994909  0.391449  1
  Pd  Pd15  1  0.250000  0.494909  0.108551  1
