# generated using pymatgen
data_CaCe(NiIr)2
_symmetry_space_group_name_H-M   'P 1'
_cell_length_a   5.12383318
_cell_length_b   5.21392965
_cell_length_c   5.21393100
_cell_angle_alpha   61.60882139
_cell_angle_beta   60.56998611
_cell_angle_gamma   60.56997150
_symmetry_Int_Tables_number   1
_chemical_formula_structural   CaCe(NiIr)2
_chemical_formula_sum   'Ca1 Ce1 Ni2 Ir2'
_cell_volume   100.50649862
_cell_formula_units_Z   1
loop_
 _symmetry_equiv_pos_site_id
 _symmetry_equiv_pos_as_xyz
  1  'x, y, z'
loop_
 _atom_site_type_symbol
 _atom_site_label
 _atom_site_symmetry_multiplicity
 _atom_site_fract_x
 _atom_site_fract_y
 _atom_site_fract_z
 _atom_site_occupancy
  Ca  Ca0  1  0.000839  0.999161  0.999161  1
  Ce  Ce1  1  0.249927  0.250073  0.250073  1
  Ni  Ni2  1  0.626346  0.625217  0.625217  1
  Ni  Ni3  1  0.123219  0.625217  0.625217  1
  Ir  Ir4  1  0.624834  0.124812  0.625520  1
  Ir  Ir5  1  0.624834  0.625520  0.124812  1
