# generated using pymatgen
data_LaCeRhN2
_symmetry_space_group_name_H-M   'P 1'
_cell_length_a   3.64340487
_cell_length_b   3.64340446
_cell_length_c   6.83769100
_cell_angle_alpha   105.45192056
_cell_angle_beta   105.45190244
_cell_angle_gamma   89.99805007
_symmetry_Int_Tables_number   1
_chemical_formula_structural   LaCeRhN2
_chemical_formula_sum   'La1 Ce1 Rh1 N2'
_cell_volume   84.07694284
_cell_formula_units_Z   1
loop_
 _symmetry_equiv_pos_site_id
 _symmetry_equiv_pos_as_xyz
  1  'x, y, z'
loop_
 _atom_site_type_symbol
 _atom_site_label
 _atom_site_symmetry_multiplicity
 _atom_site_fract_x
 _atom_site_fract_y
 _atom_site_fract_z
 _atom_site_occupancy
  La  La0  1  0.857271  0.357271  0.214621  1
  Ce  Ce1  1  0.150836  0.650836  0.801637  1
  Rh  Rh2  1  0.500421  0.000421  0.500806  1
  N  N3  1  0.663503  0.163503  0.827123  1
  N  N4  1  0.327970  0.827970  0.155812  1
