# generated using pymatgen
data_Nd4Sn4GeRh9
_symmetry_space_group_name_H-M   'P 1'
_cell_length_a   12.89932593
_cell_length_b   12.89932612
_cell_length_c   12.89932555
_cell_angle_alpha   25.75620340
_cell_angle_beta   25.75620161
_cell_angle_gamma   25.75620088
_symmetry_Int_Tables_number   1
_chemical_formula_structural   Nd4Sn4GeRh9
_chemical_formula_sum   'Nd4 Sn4 Ge1 Rh9'
_cell_volume   356.89760435
_cell_formula_units_Z   1
loop_
 _symmetry_equiv_pos_site_id
 _symmetry_equiv_pos_as_xyz
  1  'x, y, z'
loop_
 _atom_site_type_symbol
 _atom_site_label
 _atom_site_symmetry_multiplicity
 _atom_site_fract_x
 _atom_site_fract_y
 _atom_site_fract_z
 _atom_site_occupancy
  Nd  Nd0  1  0.948527  0.948527  0.948527  1
  Nd  Nd1  1  0.854844  0.854844  0.854844  1
  Nd  Nd2  1  0.144013  0.144013  0.144013  1
  Nd  Nd3  1  0.044214  0.044214  0.044214  1
  Sn  Sn4  1  0.278137  0.278137  0.278137  1
  Sn  Sn5  1  0.501234  0.501234  0.501234  1
  Sn  Sn6  1  0.389481  0.389481  0.389481  1
  Sn  Sn7  1  0.722752  0.722752  0.722752  1
  Ge  Ge8  1  0.610616  0.610616  0.610616  1
  Rh  Rh9  1  0.615799  0.615799  0.105473  1
  Rh  Rh10  1  0.891249  0.391312  0.391312  1
  Rh  Rh11  1  0.501860  0.991518  0.501860  1
  Rh  Rh12  1  0.391312  0.891249  0.391312  1
  Rh  Rh13  1  0.501860  0.501860  0.991518  1
  Rh  Rh14  1  0.105473  0.615799  0.615799  1
  Rh  Rh15  1  0.991518  0.501860  0.501860  1
  Rh  Rh16  1  0.391312  0.391312  0.891249  1
  Rh  Rh17  1  0.615799  0.105473  0.615799  1
