# generated using pymatgen
data_YTa5(NbN3)4
_symmetry_space_group_name_H-M   'P 1'
_cell_length_a   5.30241614
_cell_length_b   5.28966602
_cell_length_c   10.53195227
_cell_angle_alpha   90.02586379
_cell_angle_beta   89.98710709
_cell_angle_gamma   119.92048293
_symmetry_Int_Tables_number   1
_chemical_formula_structural   YTa5(NbN3)4
_chemical_formula_sum   'Y1 Ta5 Nb4 N12'
_cell_volume   256.02888150
_cell_formula_units_Z   1
loop_
 _symmetry_equiv_pos_site_id
 _symmetry_equiv_pos_as_xyz
  1  'x, y, z'
loop_
 _atom_site_type_symbol
 _atom_site_label
 _atom_site_symmetry_multiplicity
 _atom_site_fract_x
 _atom_site_fract_y
 _atom_site_fract_z
 _atom_site_occupancy
  Y  Y0  1  0.329645  0.664823  0.500000  1
  Ta  Ta1  1  0.667162  0.333580  0.000000  1
  Ta  Ta2  1  0.666119  0.333059  0.500000  1
  Ta  Ta3  1  0.331128  0.665564  0.000000  1
  Ta  Ta4  1  0.675937  0.997728  0.754401  1
  Ta  Ta5  1  0.675937  0.678209  0.245599  1
  Nb  Nb6  1  0.001670  0.324892  0.244526  1
  Nb  Nb7  1  0.001670  0.676778  0.755474  1
  Nb  Nb8  1  0.323693  0.325380  0.755408  1
  Nb  Nb9  1  0.323693  0.998312  0.244592  1
  N  N10  1  0.357394  0.337375  0.369533  1
  N  N11  1  0.667269  0.015303  0.369979  1
  N  N12  1  0.976860  0.648196  0.369937  1
  N  N13  1  0.996187  0.337380  0.883287  1
  N  N14  1  0.657525  0.996141  0.116549  1
  N  N15  1  0.657525  0.661385  0.883451  1
  N  N16  1  0.346437  0.999987  0.882745  1
  N  N17  1  0.667269  0.651965  0.630021  1
  N  N18  1  0.976860  0.328663  0.630063  1
  N  N19  1  0.996187  0.658809  0.116713  1
  N  N20  1  0.357394  0.020018  0.630467  1
  N  N21  1  0.346437  0.346452  0.117255  1
