# generated using pymatgen
data_Ho4TmBi2As
_symmetry_space_group_name_H-M   'P 1'
_cell_length_a   8.00923000
_cell_length_b   9.10403800
_cell_length_c   12.01411100
_cell_angle_alpha   90.00000000
_cell_angle_beta   90.00000000
_cell_angle_gamma   90.00000000
_symmetry_Int_Tables_number   1
_chemical_formula_structural   Ho4TmBi2As
_chemical_formula_sum   'Ho16 Tm4 Bi8 As4'
_cell_volume   876.02493364
_cell_formula_units_Z   4
loop_
 _symmetry_equiv_pos_site_id
 _symmetry_equiv_pos_as_xyz
  1  'x, y, z'
loop_
 _atom_site_type_symbol
 _atom_site_label
 _atom_site_symmetry_multiplicity
 _atom_site_fract_x
 _atom_site_fract_y
 _atom_site_fract_z
 _atom_site_occupancy
  Ho  Ho0  1  0.182966  0.443576  0.937140  1
  Ho  Ho1  1  0.317034  0.056424  0.437140  1
  Ho  Ho2  1  0.817034  0.943576  0.062860  1
  Ho  Ho3  1  0.682966  0.556424  0.562860  1
  Ho  Ho4  1  0.156366  0.749877  0.210838  1
  Ho  Ho5  1  0.343634  0.750123  0.710838  1
  Ho  Ho6  1  0.843634  0.249877  0.789162  1
  Ho  Ho7  1  0.656366  0.250123  0.289162  1
  Ho  Ho8  1  0.463777  0.750003  0.999933  1
  Ho  Ho9  1  0.036223  0.749997  0.499933  1
  Ho  Ho10  1  0.536223  0.250003  0.000067  1
  Ho  Ho11  1  0.963777  0.249997  0.500067  1
  Ho  Ho12  1  0.634417  0.749898  0.292686  1
  Ho  Ho13  1  0.865583  0.750102  0.792686  1
  Ho  Ho14  1  0.365583  0.249898  0.707314  1
  Ho  Ho15  1  0.134417  0.250102  0.207314  1
  Tm  Tm16  1  0.817351  0.556692  0.062929  1
  Tm  Tm17  1  0.682649  0.943308  0.562929  1
  Tm  Tm18  1  0.182649  0.056692  0.937071  1
  Tm  Tm19  1  0.317351  0.443308  0.437071  1
  Bi  Bi20  1  0.925479  0.510029  0.326755  1
  Bi  Bi21  1  0.574521  0.989971  0.826755  1
  Bi  Bi22  1  0.074521  0.010029  0.673245  1
  Bi  Bi23  1  0.425479  0.489971  0.173245  1
  Bi  Bi24  1  0.074405  0.490068  0.673132  1
  Bi  Bi25  1  0.425595  0.009932  0.173132  1
  Bi  Bi26  1  0.925595  0.990068  0.326868  1
  Bi  Bi27  1  0.574405  0.509932  0.826868  1
  As  As28  1  0.412823  0.749728  0.478502  1
  As  As29  1  0.087177  0.750272  0.978502  1
  As  As30  1  0.587177  0.249728  0.521498  1
  As  As31  1  0.912823  0.250272  0.021498  1
