# generated using pymatgen
data_TbEr3(Si4Tc3)2
_symmetry_space_group_name_H-M   'P 1'
_cell_length_a   6.78086819
_cell_length_b   6.75882544
_cell_length_c   6.77339082
_cell_angle_alpha   69.82343890
_cell_angle_beta   90.03522630
_cell_angle_gamma   89.95765254
_symmetry_Int_Tables_number   1
_chemical_formula_structural   TbEr3(Si4Tc3)2
_chemical_formula_sum   'Tb1 Er3 Si8 Tc6'
_cell_volume   291.37932756
_cell_formula_units_Z   1
loop_
 _symmetry_equiv_pos_site_id
 _symmetry_equiv_pos_as_xyz
  1  'x, y, z'
loop_
 _atom_site_type_symbol
 _atom_site_label
 _atom_site_symmetry_multiplicity
 _atom_site_fract_x
 _atom_site_fract_y
 _atom_site_fract_z
 _atom_site_occupancy
  Tb  Tb0  1  0.667249  0.442004  0.190899  1
  Er  Er1  1  0.167908  0.057949  0.808259  1
  Er  Er2  1  0.332005  0.557999  0.808126  1
  Er  Er3  1  0.832178  0.941923  0.191789  1
  Si  Si4  1  0.448947  0.122155  0.101789  1
  Si  Si5  1  0.949625  0.377091  0.896979  1
  Si  Si6  1  0.550694  0.877940  0.897093  1
  Si  Si7  1  0.051716  0.623325  0.101881  1
  Si  Si8  1  0.859184  0.130674  0.513321  1
  Si  Si9  1  0.357931  0.368253  0.488353  1
  Si  Si10  1  0.141248  0.868296  0.487904  1
  Si  Si11  1  0.641328  0.632049  0.513485  1
  Tc  Tc12  1  0.499685  0.999176  0.500461  1
  Tc  Tc13  1  0.000445  0.500063  0.500348  1
  Tc  Tc14  1  0.150620  0.242692  0.238592  1
  Tc  Tc15  1  0.650342  0.257086  0.760869  1
  Tc  Tc16  1  0.850048  0.757630  0.761010  1
  Tc  Tc17  1  0.348846  0.743694  0.238843  1
