# generated using pymatgen
data_Nd10Si16Ag
_symmetry_space_group_name_H-M   'P 1'
_cell_length_a   11.49080631
_cell_length_b   11.48872266
_cell_length_c   11.49080755
_cell_angle_alpha   144.82222375
_cell_angle_beta   136.44360462
_cell_angle_gamma   57.17908549
_symmetry_Int_Tables_number   1
_chemical_formula_structural   Nd10Si16Ag
_chemical_formula_sum   'Nd10 Si16 Ag1'
_cell_volume   597.34593254
_cell_formula_units_Z   1
loop_
 _symmetry_equiv_pos_site_id
 _symmetry_equiv_pos_as_xyz
  1  'x, y, z'
loop_
 _atom_site_type_symbol
 _atom_site_label
 _atom_site_symmetry_multiplicity
 _atom_site_fract_x
 _atom_site_fract_y
 _atom_site_fract_z
 _atom_site_occupancy
  Nd  Nd0  1  0.052007  0.566010  0.020676  1
  Nd  Nd1  1  0.351407  0.367374  0.518571  1
  Nd  Nd2  1  0.153244  0.163066  0.517496  1
  Nd  Nd3  1  0.450805  0.964441  0.015156  1
  Nd  Nd4  1  0.645571  0.163066  0.009823  1
  Nd  Nd5  1  0.949285  0.964441  0.513636  1
  Nd  Nd6  1  0.848803  0.367374  0.015967  1
  Nd  Nd7  1  0.545334  0.566010  0.514003  1
  Nd  Nd8  1  0.253507  0.767335  0.016807  1
  Nd  Nd9  1  0.750528  0.767335  0.513828  1
  Si  Si10  1  0.110779  0.055903  0.945124  1
  Si  Si11  1  0.796933  0.192855  0.395922  1
  Si  Si12  1  0.300095  0.901512  0.601418  1
  Si  Si13  1  0.399985  0.502025  0.102040  1
  Si  Si14  1  0.888594  0.850786  0.962192  1
  Si  Si15  1  0.102546  0.705292  0.602747  1
  Si  Si16  1  0.199034  0.606261  0.407227  1
  Si  Si17  1  0.699952  0.297251  0.597300  1
  Si  Si18  1  0.002019  0.432431  0.430413  1
  Si  Si19  1  0.708248  0.652739  0.944491  1
  Si  Si20  1  0.600831  0.701373  0.100541  1
  Si  Si21  1  0.999757  0.088440  0.088683  1
  Si  Si22  1  0.501313  0.413069  0.911756  1
  Si  Si23  1  0.292398  0.238875  0.946477  1
  Si  Si24  1  0.591154  0.036466  0.445311  1
  Si  Si25  1  0.408152  0.853033  0.444880  1
  Ag  Ag26  1  0.897717  0.504154  0.606437  1
