# generated using pymatgen
data_Nd10AlZn3IrRu5
_symmetry_space_group_name_H-M   'P 1'
_cell_length_a   8.52459705
_cell_length_b   8.61191463
_cell_length_c   8.55267830
_cell_angle_alpha   109.77025858
_cell_angle_beta   109.49843167
_cell_angle_gamma   109.43539609
_symmetry_Int_Tables_number   1
_chemical_formula_structural   Nd10AlZn3IrRu5
_chemical_formula_sum   'Nd10 Al1 Zn3 Ir1 Ru5'
_cell_volume   481.59752966
_cell_formula_units_Z   1
loop_
 _symmetry_equiv_pos_site_id
 _symmetry_equiv_pos_as_xyz
  1  'x, y, z'
loop_
 _atom_site_type_symbol
 _atom_site_label
 _atom_site_symmetry_multiplicity
 _atom_site_fract_x
 _atom_site_fract_y
 _atom_site_fract_z
 _atom_site_occupancy
  Nd  Nd0  1  0.250768  0.683801  0.436297  1
  Nd  Nd1  1  0.748860  0.814783  0.062720  1
  Nd  Nd2  1  0.439439  0.254039  0.684292  1
  Nd  Nd3  1  0.684188  0.432292  0.248370  1
  Nd  Nd4  1  0.061847  0.743755  0.814027  1
  Nd  Nd5  1  0.815491  0.066996  0.751624  1
  Nd  Nd6  1  0.219684  0.222302  0.222752  1
  Nd  Nd7  1  0.500963  0.000854  0.280112  1
  Nd  Nd8  1  0.280310  0.503007  0.001820  1
  Nd  Nd9  1  0.999284  0.280064  0.499062  1
  Al  Al10  1  0.000455  0.907901  0.499090  1
  Zn  Zn11  1  0.497006  0.997399  0.909146  1
  Zn  Zn12  1  0.589765  0.589841  0.587446  1
  Zn  Zn13  1  0.912833  0.501830  0.002908  1
  Ir  Ir14  1  0.240492  0.120656  0.866013  1
  Ru  Ru15  1  0.748857  0.371703  0.621038  1
  Ru  Ru16  1  0.877211  0.250555  0.125916  1
  Ru  Ru17  1  0.126625  0.881677  0.259705  1
  Ru  Ru18  1  0.634420  0.754196  0.375983  1
  Ru  Ru19  1  0.371504  0.622351  0.751680  1
