# generated using pymatgen
data_K2CoAs2O7
_symmetry_space_group_name_H-M   'P 1'
_cell_length_a   5.88847701
_cell_length_b   8.36006700
_cell_length_c   8.36026000
_cell_angle_alpha   89.99931468
_cell_angle_beta   90.00182655
_cell_angle_gamma   90.00029939
_symmetry_Int_Tables_number   1
_chemical_formula_structural   K2CoAs2O7
_chemical_formula_sum   'K4 Co2 As4 O14'
_cell_volume   411.55940021
_cell_formula_units_Z   2
loop_
 _symmetry_equiv_pos_site_id
 _symmetry_equiv_pos_as_xyz
  1  'x, y, z'
loop_
 _atom_site_type_symbol
 _atom_site_label
 _atom_site_symmetry_multiplicity
 _atom_site_fract_x
 _atom_site_fract_y
 _atom_site_fract_z
 _atom_site_occupancy
  K  K0  1  0.510207  0.163566  0.663612  1
  K  K1  1  0.489759  0.336394  0.163569  1
  K  K2  1  0.510278  0.836426  0.336375  1
  K  K3  1  0.489750  0.663605  0.836433  1
  Co  Co4  1  0.999994  0.499987  0.500024  1
  Co  Co5  1  0.000010  0.000025  0.999984  1
  As  As6  1  0.958308  0.641768  0.141613  1
  As  As7  1  0.041746  0.141636  0.358245  1
  As  As8  1  0.958189  0.358234  0.858368  1
  As  As9  1  0.041740  0.858361  0.641762  1
  O  O10  1  0.161196  0.999918  0.499913  1
  O  O11  1  0.838802  0.500005  0.000023  1
  O  O12  1  0.756706  0.140531  0.359407  1
  O  O13  1  0.243243  0.359389  0.859474  1
  O  O14  1  0.756713  0.859470  0.640597  1
  O  O15  1  0.243348  0.640584  0.140501  1
  O  O16  1  0.176993  0.314066  0.419249  1
  O  O17  1  0.822944  0.185940  0.919191  1
  O  O18  1  0.176976  0.685874  0.580893  1
  O  O19  1  0.823067  0.814058  0.080805  1
  O  O20  1  0.823082  0.580838  0.314097  1
  O  O21  1  0.177007  0.919251  0.814033  1
  O  O22  1  0.822958  0.419192  0.685920  1
  O  O23  1  0.176985  0.080883  0.185913  1
