# generated using pymatgen
data_Tm2Lu18TlBi11
_symmetry_space_group_name_H-M   'P 1'
_cell_length_a   8.10580352
_cell_length_b   9.38709600
_cell_length_c   11.79907700
_cell_angle_alpha   90.00000000
_cell_angle_beta   89.70351799
_cell_angle_gamma   90.00000000
_symmetry_Int_Tables_number   1
_chemical_formula_structural   Tm2Lu18TlBi11
_chemical_formula_sum   'Tm2 Lu18 Tl1 Bi11'
_cell_volume   897.77922783
_cell_formula_units_Z   1
loop_
 _symmetry_equiv_pos_site_id
 _symmetry_equiv_pos_as_xyz
  1  'x, y, z'
loop_
 _atom_site_type_symbol
 _atom_site_label
 _atom_site_symmetry_multiplicity
 _atom_site_fract_x
 _atom_site_fract_y
 _atom_site_fract_z
 _atom_site_occupancy
  Tm  Tm0  1  0.808806  0.750000  0.216399  1
  Tm  Tm1  1  0.311826  0.750000  0.282489  1
  Lu  Lu2  1  0.030980  0.250000  0.508959  1
  Lu  Lu3  1  0.978591  0.750000  0.490283  1
  Lu  Lu4  1  0.476841  0.750000  0.009983  1
  Lu  Lu5  1  0.524267  0.250000  0.989977  1
  Lu  Lu6  1  0.352764  0.250000  0.286993  1
  Lu  Lu7  1  0.648759  0.750000  0.718313  1
  Lu  Lu8  1  0.148708  0.750000  0.782322  1
  Lu  Lu9  1  0.852562  0.250000  0.215584  1
  Lu  Lu10  1  0.192951  0.250000  0.780560  1
  Lu  Lu11  1  0.683334  0.250000  0.713758  1
  Lu  Lu12  1  0.192255  0.067770  0.060068  1
  Lu  Lu13  1  0.807743  0.932479  0.940879  1
  Lu  Lu14  1  0.306558  0.940536  0.559664  1
  Lu  Lu15  1  0.807743  0.567521  0.940879  1
  Lu  Lu16  1  0.689751  0.070031  0.442905  1
  Lu  Lu17  1  0.192255  0.432230  0.060068  1
  Lu  Lu18  1  0.689751  0.429969  0.442905  1
  Lu  Lu19  1  0.306558  0.559464  0.559664  1
  Tl  Tl20  1  0.404034  0.250000  0.542498  1
  Bi  Bi21  1  0.596016  0.750000  0.458555  1
  Bi  Bi22  1  0.097476  0.750000  0.042730  1
  Bi  Bi23  1  0.903935  0.250000  0.953876  1
  Bi  Bi24  1  0.060920  0.002312  0.323167  1
  Bi  Bi25  1  0.937172  0.997803  0.676012  1
  Bi  Bi26  1  0.436981  0.996326  0.825338  1
  Bi  Bi27  1  0.937172  0.502197  0.676012  1
  Bi  Bi28  1  0.562698  0.004503  0.175329  1
  Bi  Bi29  1  0.060920  0.497688  0.323167  1
  Bi  Bi30  1  0.562698  0.495497  0.175329  1
  Bi  Bi31  1  0.436981  0.503674  0.825338  1
