# generated using pymatgen
data_DyYB24
_symmetry_space_group_name_H-M   'P 1'
_cell_length_a   5.30154000
_cell_length_b   5.30153917
_cell_length_c   9.18272800
_cell_angle_alpha   73.22170110
_cell_angle_beta   90.00000000
_cell_angle_gamma   120.00000519
_symmetry_Int_Tables_number   1
_chemical_formula_structural   DyYB24
_chemical_formula_sum   'Dy1 Y1 B24'
_cell_volume   210.73234554
_cell_formula_units_Z   1
loop_
 _symmetry_equiv_pos_site_id
 _symmetry_equiv_pos_as_xyz
  1  'x, y, z'
loop_
 _atom_site_type_symbol
 _atom_site_label
 _atom_site_symmetry_multiplicity
 _atom_site_fract_x
 _atom_site_fract_y
 _atom_site_fract_z
 _atom_site_occupancy
  Dy  Dy0  1  0.500000  0.000000  0.500000  1
  Y  Y1  1  0.000000  0.000000  0.000000  1
  B  B2  1  0.911972  0.499823  0.250096  1
  B  B3  1  0.412148  0.500177  0.749904  1
  B  B4  1  0.081160  0.500128  0.418712  1
  B  B5  1  0.581091  0.500179  0.918730  1
  B  B6  1  0.250081  0.837932  0.250096  1
  B  B7  1  0.749919  0.837947  0.749904  1
  B  B8  1  0.081160  0.162319  0.418712  1
  B  B9  1  0.581091  0.162181  0.918730  1
  B  B10  1  0.911972  0.162053  0.250096  1
  B  B11  1  0.412148  0.162068  0.749904  1
  B  B12  1  0.250081  0.162053  0.250096  1
  B  B13  1  0.749919  0.162068  0.749904  1
  B  B14  1  0.418909  0.837819  0.081270  1
  B  B15  1  0.918840  0.837681  0.581288  1
  B  B16  1  0.418909  0.499821  0.081270  1
  B  B17  1  0.918840  0.499872  0.581288  1
  B  B18  1  0.080912  0.499821  0.081270  1
  B  B19  1  0.581033  0.499872  0.581288  1
  B  B20  1  0.587852  0.499823  0.250096  1
  B  B21  1  0.088028  0.500177  0.749904  1
  B  B22  1  0.587852  0.837932  0.250096  1
  B  B23  1  0.088028  0.837947  0.749904  1
  B  B24  1  0.418967  0.500128  0.418712  1
  B  B25  1  0.919088  0.500179  0.918730  1
