# generated using pymatgen
data_Sc5Co16Si3(P3Os)3
_symmetry_space_group_name_H-M   'P 1'
_cell_length_a   12.08315500
_cell_length_b   12.08315459
_cell_length_c   3.63501900
_cell_angle_alpha   90.00000000
_cell_angle_beta   90.00000000
_cell_angle_gamma   119.99999839
_symmetry_Int_Tables_number   1
_chemical_formula_structural   Sc5Co16Si3(P3Os)3
_chemical_formula_sum   'Sc5 Co16 Si3 P9 Os3'
_cell_volume   459.61903040
_cell_formula_units_Z   1
loop_
 _symmetry_equiv_pos_site_id
 _symmetry_equiv_pos_as_xyz
  1  'x, y, z'
loop_
 _atom_site_type_symbol
 _atom_site_label
 _atom_site_symmetry_multiplicity
 _atom_site_fract_x
 _atom_site_fract_y
 _atom_site_fract_z
 _atom_site_occupancy
  Sc  Sc0  1  0.818431  0.998633  0.500000  1
  Sc  Sc1  1  0.001367  0.819797  0.500000  1
  Sc  Sc2  1  0.180203  0.181569  0.500000  1
  Sc  Sc3  1  0.333333  0.666667  0.000000  1
  Sc  Sc4  1  0.666667  0.333333  0.000000  1
  Co  Co5  1  0.282848  0.005218  0.500000  1
  Co  Co6  1  0.994782  0.277629  0.500000  1
  Co  Co7  1  0.722371  0.717152  0.500000  1
  Co  Co8  1  0.633151  0.808142  0.000000  1
  Co  Co9  1  0.191858  0.825010  0.000000  1
  Co  Co10  1  0.174990  0.366849  0.000000  1
  Co  Co11  1  0.373588  0.179179  0.000000  1
  Co  Co12  1  0.805591  0.626412  0.000000  1
  Co  Co13  1  0.820821  0.194409  0.000000  1
  Co  Co14  1  0.525303  0.878802  0.500000  1
  Co  Co15  1  0.121198  0.646500  0.500000  1
  Co  Co16  1  0.353500  0.474697  0.500000  1
  Co  Co17  1  0.485445  0.355235  0.500000  1
  Co  Co18  1  0.869789  0.514555  0.500000  1
  Co  Co19  1  0.644765  0.130211  0.500000  1
  Co  Co20  1  0.000000  0.000000  0.000000  1
  Si  Si21  1  0.518570  0.682681  0.500000  1
  Si  Si22  1  0.317319  0.835889  0.500000  1
  Si  Si23  1  0.164111  0.481430  0.500000  1
  P  P24  1  0.176059  0.002089  0.000000  1
  P  P25  1  0.997911  0.173970  0.000000  1
  P  P26  1  0.826030  0.823941  0.000000  1
  P  P27  1  0.482017  0.167377  0.500000  1
  P  P28  1  0.685359  0.517983  0.500000  1
  P  P29  1  0.832623  0.314641  0.500000  1
  P  P30  1  0.641415  0.999581  0.000000  1
  P  P31  1  0.000419  0.641834  0.000000  1
  P  P32  1  0.358166  0.358585  0.000000  1
  Os  Os33  1  0.448007  0.000434  0.000000  1
  Os  Os34  1  0.999566  0.447574  0.000000  1
  Os  Os35  1  0.552426  0.551993  0.000000  1
