# generated using pymatgen
data_EuRuF7
_symmetry_space_group_name_H-M   'P 1'
_cell_length_a   5.60690200
_cell_length_b   8.96588984
_cell_length_c   12.02112400
_cell_angle_alpha   62.14051557
_cell_angle_beta   90.00000000
_cell_angle_gamma   90.00000000
_symmetry_Int_Tables_number   1
_chemical_formula_structural   EuRuF7
_chemical_formula_sum   'Eu4 Ru4 F28'
_cell_volume   534.27027493
_cell_formula_units_Z   4
loop_
 _symmetry_equiv_pos_site_id
 _symmetry_equiv_pos_as_xyz
  1  'x, y, z'
loop_
 _atom_site_type_symbol
 _atom_site_label
 _atom_site_symmetry_multiplicity
 _atom_site_fract_x
 _atom_site_fract_y
 _atom_site_fract_z
 _atom_site_occupancy
  Eu  Eu0  1  0.741565  0.812146  0.264850  1
  Eu  Eu1  1  0.241565  0.187854  0.235150  1
  Eu  Eu2  1  0.258435  0.187854  0.735150  1
  Eu  Eu3  1  0.758435  0.812146  0.764850  1
  Ru  Ru4  1  0.743543  0.273844  0.456593  1
  Ru  Ru5  1  0.243543  0.726156  0.043407  1
  Ru  Ru6  1  0.256457  0.726156  0.543407  1
  Ru  Ru7  1  0.756457  0.273844  0.956593  1
  F  F8  1  0.449635  0.710341  0.918896  1
  F  F9  1  0.949635  0.289659  0.581104  1
  F  F10  1  0.550365  0.289659  0.081104  1
  F  F11  1  0.050365  0.710341  0.418896  1
  F  F12  1  0.453846  0.281549  0.544956  1
  F  F13  1  0.953846  0.718451  0.955044  1
  F  F14  1  0.546154  0.718451  0.455044  1
  F  F15  1  0.046154  0.281549  0.044956  1
  F  F16  1  0.769692  0.518066  0.860116  1
  F  F17  1  0.269692  0.481934  0.639884  1
  F  F18  1  0.230308  0.481934  0.139884  1
  F  F19  1  0.730308  0.518066  0.360116  1
  F  F20  1  0.759374  0.028457  0.053409  1
  F  F21  1  0.259374  0.971543  0.446591  1
  F  F22  1  0.240626  0.971543  0.946591  1
  F  F23  1  0.740626  0.028457  0.553409  1
  F  F24  1  0.979908  0.730065  0.640534  1
  F  F25  1  0.479908  0.269935  0.859466  1
  F  F26  1  0.020092  0.269935  0.359466  1
  F  F27  1  0.520092  0.730065  0.140534  1
  F  F28  1  0.045762  0.743949  0.170958  1
  F  F29  1  0.545762  0.256051  0.329042  1
  F  F30  1  0.954238  0.256051  0.829042  1
  F  F31  1  0.454238  0.743949  0.670958  1
  F  F32  1  0.414524  0.968795  0.233350  1
  F  F33  1  0.914524  0.031205  0.266650  1
  F  F34  1  0.585476  0.031205  0.766650  1
  F  F35  1  0.085476  0.968795  0.733350  1
