# generated using pymatgen
data_Nd8Er2Sn5Pb3
_symmetry_space_group_name_H-M   'P 1'
_cell_length_a   8.26232809
_cell_length_b   8.42152809
_cell_length_c   16.02754600
_cell_angle_alpha   90.00000000
_cell_angle_beta   90.00000000
_cell_angle_gamma   90.01645690
_symmetry_Int_Tables_number   1
_chemical_formula_structural   Nd8Er2Sn5Pb3
_chemical_formula_sum   'Nd16 Er4 Sn10 Pb6'
_cell_volume   1115.21949253
_cell_formula_units_Z   2
loop_
 _symmetry_equiv_pos_site_id
 _symmetry_equiv_pos_as_xyz
  1  'x, y, z'
loop_
 _atom_site_type_symbol
 _atom_site_label
 _atom_site_symmetry_multiplicity
 _atom_site_fract_x
 _atom_site_fract_y
 _atom_site_fract_z
 _atom_site_occupancy
  Nd  Nd0  1  0.020700  0.179806  0.400107  1
  Nd  Nd1  1  0.368734  0.838471  0.122294  1
  Nd  Nd2  1  0.133661  0.336208  0.622389  1
  Nd  Nd3  1  0.481213  0.681648  0.899666  1
  Nd  Nd4  1  0.866339  0.663792  0.122389  1
  Nd  Nd5  1  0.133095  0.338085  0.877155  1
  Nd  Nd6  1  0.479591  0.682438  0.600438  1
  Nd  Nd7  1  0.631266  0.161529  0.622294  1
  Nd  Nd8  1  0.866905  0.661915  0.377155  1
  Nd  Nd9  1  0.017405  0.179184  0.100221  1
  Nd  Nd10  1  0.979300  0.820194  0.900107  1
  Nd  Nd11  1  0.633183  0.160664  0.878291  1
  Nd  Nd12  1  0.520409  0.317562  0.100438  1
  Nd  Nd13  1  0.366817  0.839336  0.378291  1
  Nd  Nd14  1  0.982595  0.820816  0.600221  1
  Nd  Nd15  1  0.518787  0.318352  0.399666  1
  Er  Er16  1  0.198401  0.501942  0.249923  1
  Er  Er17  1  0.698753  0.998126  0.248619  1
  Er  Er18  1  0.301247  0.001874  0.748619  1
  Er  Er19  1  0.801599  0.498058  0.749923  1
  Sn  Sn20  1  0.675047  0.852193  0.749899  1
  Sn  Sn21  1  0.825452  0.352043  0.250062  1
  Sn  Sn22  1  0.562405  0.617480  0.250176  1
  Sn  Sn23  1  0.437595  0.382520  0.750176  1
  Sn  Sn24  1  0.174548  0.647957  0.750062  1
  Sn  Sn25  1  0.936615  0.117637  0.750109  1
  Sn  Sn26  1  0.291773  0.034837  0.543996  1
  Sn  Sn27  1  0.708227  0.965163  0.043996  1
  Sn  Sn28  1  0.324953  0.147807  0.249899  1
  Sn  Sn29  1  0.063385  0.882363  0.250109  1
  Pb  Pb30  1  0.791213  0.465251  0.543402  1
  Pb  Pb31  1  0.708690  0.964916  0.456618  1
  Pb  Pb32  1  0.208553  0.534902  0.456635  1
  Pb  Pb33  1  0.291310  0.035084  0.956618  1
  Pb  Pb34  1  0.791447  0.465098  0.956635  1
  Pb  Pb35  1  0.208787  0.534749  0.043402  1
