# generated using pymatgen
data_La7GdNp4O24
_symmetry_space_group_name_H-M   'P 1'
_cell_length_a   5.73267016
_cell_length_b   8.07742436
_cell_length_c   12.21658200
_cell_angle_alpha   74.56075477
_cell_angle_beta   89.98643732
_cell_angle_gamma   89.91902959
_symmetry_Int_Tables_number   1
_chemical_formula_structural   La7GdNp4O24
_chemical_formula_sum   'La7 Gd1 Np4 O24'
_cell_volume   545.27689519
_cell_formula_units_Z   1
loop_
 _symmetry_equiv_pos_site_id
 _symmetry_equiv_pos_as_xyz
  1  'x, y, z'
loop_
 _atom_site_type_symbol
 _atom_site_label
 _atom_site_symmetry_multiplicity
 _atom_site_fract_x
 _atom_site_fract_y
 _atom_site_fract_z
 _atom_site_occupancy
  La  La0  1  0.742333  0.000881  0.746739  1
  La  La1  1  0.257479  0.001312  0.253382  1
  La  La2  1  0.191904  0.796716  0.578071  1
  La  La3  1  0.803353  0.797175  0.077919  1
  La  La4  1  0.696348  0.498298  0.749488  1
  La  La5  1  0.306389  0.499208  0.252767  1
  La  La6  1  0.198597  0.202164  0.922021  1
  Gd  Gd7  1  0.810147  0.209058  0.420113  1
  Np  Np8  1  0.251733  0.720465  0.887539  1
  Np  Np9  1  0.747542  0.720193  0.387607  1
  Np  Np10  1  0.252764  0.279755  0.609141  1
  Np  Np11  1  0.750444  0.278290  0.115760  1
  O  O12  1  0.044808  0.935737  0.895545  1
  O  O13  1  0.529645  0.855833  0.930800  1
  O  O14  1  0.941857  0.942201  0.397534  1
  O  O15  1  0.444042  0.792251  0.734154  1
  O  O16  1  0.459644  0.843582  0.431398  1
  O  O17  1  0.973222  0.711514  0.769590  1
  O  O18  1  0.553856  0.790164  0.234785  1
  O  O19  1  0.868357  0.631100  0.549747  1
  O  O20  1  0.385120  0.488430  0.886884  1
  O  O21  1  0.027224  0.714828  0.271564  1
  O  O22  1  0.384577  0.509970  0.610698  1
  O  O23  1  0.870889  0.366273  0.952835  1
  O  O24  1  0.129945  0.630980  0.049204  1
  O  O25  1  0.624894  0.483855  0.386693  1
  O  O26  1  0.976906  0.287386  0.728961  1
  O  O27  1  0.615560  0.510045  0.113753  1
  O  O28  1  0.121225  0.370653  0.448930  1
  O  O29  1  0.446791  0.207358  0.762525  1
  O  O30  1  0.026959  0.287040  0.234949  1
  O  O31  1  0.536995  0.151365  0.560780  1
  O  O32  1  0.560747  0.206616  0.271180  1
  O  O33  1  0.044553  0.067438  0.599083  1
  O  O34  1  0.468101  0.147949  0.071936  1
  O  O35  1  0.955049  0.063914  0.105926  1
