# generated using pymatgen
data_Lu12Fe2Co3Sb
_symmetry_space_group_name_H-M   'P 1'
_cell_length_a   8.12868761
_cell_length_b   8.12868753
_cell_length_c   8.12868600
_cell_angle_alpha   111.41208786
_cell_angle_beta   111.63062656
_cell_angle_gamma   105.44452519
_symmetry_Int_Tables_number   1
_chemical_formula_structural   Lu12Fe2Co3Sb
_chemical_formula_sum   'Lu12 Fe2 Co3 Sb1'
_cell_volume   411.94633093
_cell_formula_units_Z   1
loop_
 _symmetry_equiv_pos_site_id
 _symmetry_equiv_pos_as_xyz
  1  'x, y, z'
loop_
 _atom_site_type_symbol
 _atom_site_label
 _atom_site_symmetry_multiplicity
 _atom_site_fract_x
 _atom_site_fract_y
 _atom_site_fract_z
 _atom_site_occupancy
  Lu  Lu0  1  0.283121  0.185572  0.468679  1
  Lu  Lu1  1  0.716879  0.814428  0.531321  1
  Lu  Lu2  1  0.283108  0.814428  0.097549  1
  Lu  Lu3  1  0.716892  0.185572  0.902451  1
  Lu  Lu4  1  0.619309  0.311610  0.307692  1
  Lu  Lu5  1  0.380691  0.688390  0.692308  1
  Lu  Lu6  1  0.003917  0.311610  0.692301  1
  Lu  Lu7  1  0.996083  0.688390  0.307699  1
  Lu  Lu8  1  0.211000  0.407321  0.196322  1
  Lu  Lu9  1  0.789000  0.592679  0.803678  1
  Lu  Lu10  1  0.211002  0.014672  0.803670  1
  Lu  Lu11  1  0.788998  0.985328  0.196330  1
  Fe  Fe12  1  0.000001  0.380167  0.380166  1
  Fe  Fe13  1  0.999999  0.619833  0.619834  1
  Co  Co14  1  0.388374  0.888373  0.500000  1
  Co  Co15  1  0.611626  0.111627  0.500000  1
  Co  Co16  1  0.000000  0.000000  0.000000  1
  Sb  Sb17  1  0.500000  0.500000  0.000000  1
