# generated using pymatgen
data_LiLu5S6
_symmetry_space_group_name_H-M   'P 1'
_cell_length_a   6.54097128
_cell_length_b   6.53049575
_cell_length_c   6.54173600
_cell_angle_alpha   70.50937487
_cell_angle_beta   99.43662296
_cell_angle_gamma   119.87915552
_symmetry_Int_Tables_number   1
_chemical_formula_structural   LiLu5S6
_chemical_formula_sum   'Li1 Lu5 S6'
_cell_volume   228.40712370
_cell_formula_units_Z   1
loop_
 _symmetry_equiv_pos_site_id
 _symmetry_equiv_pos_as_xyz
  1  'x, y, z'
loop_
 _atom_site_type_symbol
 _atom_site_label
 _atom_site_symmetry_multiplicity
 _atom_site_fract_x
 _atom_site_fract_y
 _atom_site_fract_z
 _atom_site_occupancy
  Li  Li0  1  0.230116  0.822072  0.390673  1
  Lu  Lu1  1  0.560967  0.489003  0.382233  1
  Lu  Lu2  1  0.228605  0.322900  0.883520  1
  Lu  Lu3  1  0.897509  0.656809  0.883668  1
  Lu  Lu4  1  0.560016  0.987909  0.883102  1
  Lu  Lu5  1  0.896365  0.156773  0.382208  1
  S  S6  1  0.901183  0.905138  0.135304  1
  S  S7  1  0.228604  0.578164  0.139531  1
  S  S8  1  0.228693  0.068498  0.627096  1
  S  S9  1  0.556255  0.232412  0.135305  1
  S  S10  1  0.557266  0.739962  0.630797  1
  S  S11  1  0.900210  0.411999  0.630507  1
