# generated using pymatgen
data_Er3Co(P3Rh4)2
_symmetry_space_group_name_H-M   'P 1'
_cell_length_a   3.84972700
_cell_length_b   11.12897900
_cell_length_c   12.75747800
_cell_angle_alpha   90.00000000
_cell_angle_beta   90.00000000
_cell_angle_gamma   90.00000000
_symmetry_Int_Tables_number   1
_chemical_formula_structural   Er3Co(P3Rh4)2
_chemical_formula_sum   'Er6 Co2 P12 Rh16'
_cell_volume   546.57540339
_cell_formula_units_Z   2
loop_
 _symmetry_equiv_pos_site_id
 _symmetry_equiv_pos_as_xyz
  1  'x, y, z'
loop_
 _atom_site_type_symbol
 _atom_site_label
 _atom_site_symmetry_multiplicity
 _atom_site_fract_x
 _atom_site_fract_y
 _atom_site_fract_z
 _atom_site_occupancy
  Er  Er0  1  0.000000  0.500000  0.521215  1
  Er  Er1  1  0.500000  0.000000  0.478785  1
  Er  Er2  1  0.500000  0.815991  0.201809  1
  Er  Er3  1  0.500000  0.184009  0.201809  1
  Er  Er4  1  0.000000  0.684009  0.798191  1
  Er  Er5  1  0.000000  0.315991  0.798191  1
  Co  Co6  1  0.000000  0.500000  0.980415  1
  Co  Co7  1  0.500000  0.000000  0.019585  1
  P  P8  1  0.500000  0.500000  0.881645  1
  P  P9  1  0.000000  0.000000  0.118355  1
  P  P10  1  0.500000  0.500000  0.351751  1
  P  P11  1  0.000000  0.000000  0.648249  1
  P  P12  1  0.500000  0.316385  0.619659  1
  P  P13  1  0.500000  0.683615  0.619659  1
  P  P14  1  0.000000  0.183615  0.380341  1
  P  P15  1  0.000000  0.816385  0.380341  1
  P  P16  1  0.500000  0.852208  0.895308  1
  P  P17  1  0.500000  0.147792  0.895308  1
  P  P18  1  0.000000  0.647792  0.104692  1
  P  P19  1  0.000000  0.352208  0.104692  1
  Rh  Rh20  1  0.500000  0.500000  0.167682  1
  Rh  Rh21  1  0.000000  0.000000  0.832318  1
  Rh  Rh22  1  0.500000  0.500000  0.703482  1
  Rh  Rh23  1  0.000000  0.000000  0.296518  1
  Rh  Rh24  1  0.500000  0.336549  0.993793  1
  Rh  Rh25  1  0.500000  0.663451  0.993793  1
  Rh  Rh26  1  0.000000  0.163451  0.006207  1
  Rh  Rh27  1  0.000000  0.836549  0.006207  1
  Rh  Rh28  1  0.500000  0.294075  0.430350  1
  Rh  Rh29  1  0.500000  0.705925  0.430350  1
  Rh  Rh30  1  0.000000  0.205925  0.569650  1
  Rh  Rh31  1  0.000000  0.794075  0.569650  1
  Rh  Rh32  1  0.500000  0.872662  0.712336  1
  Rh  Rh33  1  0.500000  0.127338  0.712336  1
  Rh  Rh34  1  0.000000  0.627338  0.287664  1
  Rh  Rh35  1  0.000000  0.372662  0.287664  1
