# generated using pymatgen
data_Nd6Al24ZnOs6Rh
_symmetry_space_group_name_H-M   'P 1'
_cell_length_a   8.92760203
_cell_length_b   8.92760140
_cell_length_c   9.65227131
_cell_angle_alpha   90.12149825
_cell_angle_beta   89.87849936
_cell_angle_gamma   119.31860925
_symmetry_Int_Tables_number   1
_chemical_formula_structural   Nd6Al24ZnOs6Rh
_chemical_formula_sum   'Nd6 Al24 Zn1 Os6 Rh1'
_cell_volume   670.76380720
_cell_formula_units_Z   1
loop_
 _symmetry_equiv_pos_site_id
 _symmetry_equiv_pos_as_xyz
  1  'x, y, z'
loop_
 _atom_site_type_symbol
 _atom_site_label
 _atom_site_symmetry_multiplicity
 _atom_site_fract_x
 _atom_site_fract_y
 _atom_site_fract_z
 _atom_site_occupancy
  Nd  Nd0  1  0.184477  0.381277  0.246611  1
  Nd  Nd1  1  0.815523  0.618723  0.753389  1
  Nd  Nd2  1  0.618723  0.815523  0.246611  1
  Nd  Nd3  1  0.381277  0.184477  0.753389  1
  Nd  Nd4  1  0.191860  0.808140  0.251989  1
  Nd  Nd5  1  0.808140  0.191860  0.748011  1
  Al  Al6  1  0.328927  0.671073  0.016344  1
  Al  Al7  1  0.671073  0.328927  0.983656  1
  Al  Al8  1  0.667813  0.332187  0.514232  1
  Al  Al9  1  0.332187  0.667813  0.485768  1
  Al  Al10  1  0.160826  0.324111  0.573407  1
  Al  Al11  1  0.839174  0.675889  0.426593  1
  Al  Al12  1  0.675889  0.839174  0.573407  1
  Al  Al13  1  0.849050  0.677878  0.078877  1
  Al  Al14  1  0.324111  0.160826  0.426593  1
  Al  Al15  1  0.150950  0.322122  0.921123  1
  Al  Al16  1  0.164091  0.835909  0.573883  1
  Al  Al17  1  0.322122  0.150950  0.078877  1
  Al  Al18  1  0.835909  0.164091  0.426117  1
  Al  Al19  1  0.677878  0.849050  0.921123  1
  Al  Al20  1  0.835714  0.164286  0.074223  1
  Al  Al21  1  0.164286  0.835714  0.925777  1
  Al  Al22  1  0.561030  0.125021  0.249391  1
  Al  Al23  1  0.438970  0.874979  0.750609  1
  Al  Al24  1  0.874979  0.438970  0.249391  1
  Al  Al25  1  0.125021  0.561030  0.750609  1
  Al  Al26  1  0.563245  0.436755  0.255227  1
  Al  Al27  1  0.436755  0.563245  0.744773  1
  Al  Al28  1  0.997870  0.002130  0.250455  1
  Al  Al29  1  0.002130  0.997870  0.749545  1
  Zn  Zn30  1  0.500000  0.500000  0.000000  1
  Os  Os31  1  0.500000  0.000000  0.000000  1
  Os  Os32  1  0.000000  0.500000  0.000000  1
  Os  Os33  1  0.500000  0.000000  0.500000  1
  Os  Os34  1  0.000000  0.500000  0.500000  1
  Os  Os35  1  0.000000  0.000000  0.000000  1
  Os  Os36  1  0.000000  0.000000  0.500000  1
  Rh  Rh37  1  0.500000  0.500000  0.500000  1
