# generated using pymatgen
data_LaBe(Fe2Si)4
_symmetry_space_group_name_H-M   'P 1'
_cell_length_a   7.97490602
_cell_length_b   7.97490735
_cell_length_c   7.97490672
_cell_angle_alpha   121.16890976
_cell_angle_beta   121.16891267
_cell_angle_gamma   87.98703638
_symmetry_Int_Tables_number   1
_chemical_formula_structural   LaBe(Fe2Si)4
_chemical_formula_sum   'La2 Be2 Fe16 Si8'
_cell_volume   352.07009430
_cell_formula_units_Z   2
loop_
 _symmetry_equiv_pos_site_id
 _symmetry_equiv_pos_as_xyz
  1  'x, y, z'
loop_
 _atom_site_type_symbol
 _atom_site_label
 _atom_site_symmetry_multiplicity
 _atom_site_fract_x
 _atom_site_fract_y
 _atom_site_fract_z
 _atom_site_occupancy
  La  La0  1  0.250000  0.250000  0.000000  1
  La  La1  1  0.750000  0.750000  0.000000  1
  Be  Be2  1  0.500000  0.000000  0.500000  1
  Be  Be3  1  0.000000  0.500000  0.500000  1
  Fe  Fe4  1  0.937525  0.204837  0.142361  1
  Fe  Fe5  1  0.204837  0.062475  0.267312  1
  Fe  Fe6  1  0.795163  0.937525  0.732688  1
  Fe  Fe7  1  0.437525  0.295163  0.732688  1
  Fe  Fe8  1  0.062475  0.795163  0.857639  1
  Fe  Fe9  1  0.789394  0.058509  0.500000  1
  Fe  Fe10  1  0.558509  0.289394  0.500000  1
  Fe  Fe11  1  0.210606  0.941491  0.500000  1
  Fe  Fe12  1  0.441491  0.710606  0.500000  1
  Fe  Fe13  1  0.941491  0.441491  0.730883  1
  Fe  Fe14  1  0.710606  0.210606  0.269117  1
  Fe  Fe15  1  0.058509  0.558509  0.269117  1
  Fe  Fe16  1  0.704837  0.437525  0.142361  1
  Fe  Fe17  1  0.562475  0.704837  0.267312  1
  Fe  Fe18  1  0.289394  0.789394  0.730883  1
  Fe  Fe19  1  0.295163  0.562475  0.857639  1
  Si  Si20  1  0.799318  0.299318  0.852180  1
  Si  Si21  1  0.552862  0.052862  0.852180  1
  Si  Si22  1  0.052862  0.200682  0.500000  1
  Si  Si23  1  0.299318  0.447138  0.500000  1
  Si  Si24  1  0.947138  0.799318  0.500000  1
  Si  Si25  1  0.447138  0.947138  0.147820  1
  Si  Si26  1  0.200682  0.700682  0.147820  1
  Si  Si27  1  0.700682  0.552862  0.500000  1
