# generated using pymatgen
data_CePH
_symmetry_space_group_name_H-M   'P 1'
_cell_length_a   3.95827200
_cell_length_b   3.95837095
_cell_length_c   7.16526300
_cell_angle_alpha   90.00016989
_cell_angle_beta   89.99885327
_cell_angle_gamma   120.00041394
_symmetry_Int_Tables_number   1
_chemical_formula_structural   CePH
_chemical_formula_sum   'Ce2 P2 H2'
_cell_volume   97.22614819
_cell_formula_units_Z   2
loop_
 _symmetry_equiv_pos_site_id
 _symmetry_equiv_pos_as_xyz
  1  'x, y, z'
loop_
 _atom_site_type_symbol
 _atom_site_label
 _atom_site_symmetry_multiplicity
 _atom_site_fract_x
 _atom_site_fract_y
 _atom_site_fract_z
 _atom_site_occupancy
  Ce  Ce0  1  0.333336  0.666669  0.249999  1
  Ce  Ce1  1  0.666659  0.333331  0.750001  1
  P  P2  1  0.000001  0.999999  0.000095  1
  P  P3  1  0.000000  0.999997  0.499904  1
  H  H4  1  0.666673  0.333341  0.249998  1
  H  H5  1  0.333329  0.666660  0.749999  1
