# generated using pymatgen
data_Zr9NbSn6As
_symmetry_space_group_name_H-M   'P 1'
_cell_length_a   5.85302900
_cell_length_b   8.59284979
_cell_length_c   8.59285900
_cell_angle_alpha   119.99991606
_cell_angle_beta   89.99986792
_cell_angle_gamma   90.00020930
_symmetry_Int_Tables_number   1
_chemical_formula_structural   Zr9NbSn6As
_chemical_formula_sum   'Zr9 Nb1 Sn6 As1'
_cell_volume   374.27134709
_cell_formula_units_Z   1
loop_
 _symmetry_equiv_pos_site_id
 _symmetry_equiv_pos_as_xyz
  1  'x, y, z'
loop_
 _atom_site_type_symbol
 _atom_site_label
 _atom_site_symmetry_multiplicity
 _atom_site_fract_x
 _atom_site_fract_y
 _atom_site_fract_z
 _atom_site_occupancy
  Zr  Zr0  1  0.500001  0.666667  0.333334  1
  Zr  Zr1  1  0.000000  0.666667  0.333333  1
  Zr  Zr2  1  0.000000  0.333333  0.666665  1
  Zr  Zr3  1  0.762431  0.255247  0.999319  1
  Zr  Zr4  1  0.762431  0.744075  0.744756  1
  Zr  Zr5  1  0.762434  0.000682  0.255925  1
  Zr  Zr6  1  0.237567  0.744076  0.999319  1
  Zr  Zr7  1  0.237569  0.255244  0.255927  1
  Zr  Zr8  1  0.237567  0.000680  0.744755  1
  Nb  Nb9  1  0.499998  0.333333  0.666666  1
  Sn  Sn10  1  0.743712  0.604805  0.997054  1
  Sn  Sn11  1  0.743717  0.392251  0.395193  1
  Sn  Sn12  1  0.743713  0.002946  0.607752  1
  Sn  Sn13  1  0.256284  0.392249  0.997055  1
  Sn  Sn14  1  0.256290  0.604801  0.607751  1
  Sn  Sn15  1  0.256287  0.002945  0.395195  1
  As  As16  1  0.500002  0.000002  0.000000  1
