# generated using pymatgen
data_La3Si2Se8I
_symmetry_space_group_name_H-M   'P 1'
_cell_length_a   9.39452479
_cell_length_b   9.39452510
_cell_length_c   11.56385073
_cell_angle_alpha   82.74517452
_cell_angle_beta   97.25482571
_cell_angle_gamma   127.57757562
_symmetry_Int_Tables_number   1
_chemical_formula_structural   La3Si2Se8I
_chemical_formula_sum   'La6 Si4 Se16 I2'
_cell_volume   800.79540195
_cell_formula_units_Z   2
loop_
 _symmetry_equiv_pos_site_id
 _symmetry_equiv_pos_as_xyz
  1  'x, y, z'
loop_
 _atom_site_type_symbol
 _atom_site_label
 _atom_site_symmetry_multiplicity
 _atom_site_fract_x
 _atom_site_fract_y
 _atom_site_fract_z
 _atom_site_occupancy
  La  La0  1  0.324651  0.922744  0.681610  1
  La  La1  1  0.922744  0.324651  0.818390  1
  La  La2  1  0.675350  0.077256  0.318390  1
  La  La3  1  0.077257  0.675349  0.181611  1
  La  La4  1  0.607659  0.607659  0.750000  1
  La  La5  1  0.392343  0.392343  0.250000  1
  Si  Si6  1  0.624935  0.304288  0.029250  1
  Si  Si7  1  0.304287  0.624935  0.470749  1
  Si  Si8  1  0.375066  0.695715  0.970749  1
  Si  Si9  1  0.695714  0.375066  0.529251  1
  Se  Se10  1  0.855009  0.283276  0.086375  1
  Se  Se11  1  0.283276  0.855009  0.413625  1
  Se  Se12  1  0.144992  0.716724  0.913624  1
  Se  Se13  1  0.716724  0.144991  0.586376  1
  Se  Se14  1  0.393665  0.105513  0.146995  1
  Se  Se15  1  0.105513  0.393665  0.353006  1
  Se  Se16  1  0.606335  0.894485  0.853006  1
  Se  Se17  1  0.894485  0.606334  0.646994  1
  Se  Se18  1  0.547521  0.253413  0.835159  1
  Se  Se19  1  0.253413  0.547521  0.664842  1
  Se  Se20  1  0.452478  0.746586  0.164841  1
  Se  Se21  1  0.746587  0.452477  0.335159  1
  Se  Se22  1  0.725977  0.592312  0.044179  1
  Se  Se23  1  0.592312  0.725977  0.455820  1
  Se  Se24  1  0.274023  0.407689  0.955821  1
  Se  Se25  1  0.407689  0.274023  0.544179  1
  I  I26  1  0.990823  0.990823  0.250000  1
  I  I27  1  0.009176  0.009176  0.750000  1
