# generated using pymatgen
data_Tb5(OsO6)2
_symmetry_space_group_name_H-M   'P 1'
_cell_length_a   6.91767501
_cell_length_b   6.91767491
_cell_length_c   7.54271938
_cell_angle_alpha   73.97718958
_cell_angle_beta   73.97719213
_cell_angle_gamma   48.40487093
_symmetry_Int_Tables_number   1
_chemical_formula_structural   Tb5(OsO6)2
_chemical_formula_sum   'Tb5 Os2 O12'
_cell_volume   257.28180824
_cell_formula_units_Z   1
loop_
 _symmetry_equiv_pos_site_id
 _symmetry_equiv_pos_as_xyz
  1  'x, y, z'
loop_
 _atom_site_type_symbol
 _atom_site_label
 _atom_site_symmetry_multiplicity
 _atom_site_fract_x
 _atom_site_fract_y
 _atom_site_fract_z
 _atom_site_occupancy
  Tb  Tb0  1  0.698338  0.698338  0.641934  1
  Tb  Tb1  1  0.301662  0.301662  0.358066  1
  Tb  Tb2  1  0.688182  0.688182  0.170550  1
  Tb  Tb3  1  0.311818  0.311818  0.829450  1
  Tb  Tb4  1  0.000000  0.000000  0.500000  1
  Os  Os5  1  0.781011  0.218989  0.000000  1
  Os  Os6  1  0.218989  0.781011  0.000000  1
  O  O7  1  0.000569  0.000569  0.202692  1
  O  O8  1  0.999431  0.999431  0.797308  1
  O  O9  1  0.582207  0.086988  0.084988  1
  O  O10  1  0.417793  0.913012  0.915012  1
  O  O11  1  0.913012  0.417793  0.915012  1
  O  O12  1  0.086988  0.582207  0.084988  1
  O  O13  1  0.499155  0.499155  0.172416  1
  O  O14  1  0.500845  0.500845  0.827584  1
  O  O15  1  0.404582  0.901818  0.426321  1
  O  O16  1  0.595418  0.098182  0.573679  1
  O  O17  1  0.098182  0.595418  0.573679  1
  O  O18  1  0.901818  0.404582  0.426321  1
