# generated using pymatgen
data_Ce12Sc5Nb3(MoN4)12
_symmetry_space_group_name_H-M   'P 1'
_cell_length_a   11.25845113
_cell_length_b   11.25845100
_cell_length_c   11.30605600
_cell_angle_alpha   109.55689630
_cell_angle_beta   109.55689605
_cell_angle_gamma   109.38541043
_symmetry_Int_Tables_number   1
_chemical_formula_structural   Ce12Sc5Nb3(MoN4)12
_chemical_formula_sum   'Ce12 Sc5 Nb3 Mo12 N48'
_cell_volume   1102.01176262
_cell_formula_units_Z   1
loop_
 _symmetry_equiv_pos_site_id
 _symmetry_equiv_pos_as_xyz
  1  'x, y, z'
loop_
 _atom_site_type_symbol
 _atom_site_label
 _atom_site_symmetry_multiplicity
 _atom_site_fract_x
 _atom_site_fract_y
 _atom_site_fract_z
 _atom_site_occupancy
  Ce  Ce0  1  0.250142  0.374053  0.125204  1
  Ce  Ce1  1  0.374790  0.750124  0.124521  1
  Ce  Ce2  1  0.375336  0.125210  0.249731  1
  Ce  Ce3  1  0.874052  0.623909  0.248848  1
  Ce  Ce4  1  0.749876  0.124665  0.374396  1
  Ce  Ce5  1  0.123909  0.249858  0.375063  1
  Ce  Ce6  1  0.876091  0.750142  0.624938  1
  Ce  Ce7  1  0.250124  0.875335  0.625604  1
  Ce  Ce8  1  0.125948  0.376091  0.751152  1
  Ce  Ce9  1  0.624665  0.874790  0.750269  1
  Ce  Ce10  1  0.625210  0.249876  0.875479  1
  Ce  Ce11  1  0.749858  0.625948  0.874796  1
  Sc  Sc12  1  0.000000  0.000000  0.000000  1
  Sc  Sc13  1  0.500001  0.000000  0.000000  1
  Sc  Sc14  1  0.500000  0.500000  0.000000  1
  Sc  Sc15  1  0.500000  0.000000  0.500000  1
  Sc  Sc16  1  0.000000  0.500000  0.500000  1
  Nb  Nb17  1  0.000000  0.500001  0.000000  1
  Nb  Nb18  1  0.000000  0.000000  0.500001  1
  Nb  Nb19  1  0.500001  0.500001  0.500001  1
  Mo  Mo20  1  0.876846  0.251597  0.126208  1
  Mo  Mo21  1  0.751597  0.874750  0.125387  1
  Mo  Mo22  1  0.625250  0.376846  0.250637  1
  Mo  Mo23  1  0.126509  0.876840  0.250607  1
  Mo  Mo24  1  0.249670  0.626510  0.375903  1
  Mo  Mo25  1  0.623160  0.749670  0.373768  1
  Mo  Mo26  1  0.376840  0.250330  0.626233  1
  Mo  Mo27  1  0.750330  0.373491  0.624097  1
  Mo  Mo28  1  0.873490  0.123160  0.749393  1
  Mo  Mo29  1  0.374751  0.623154  0.749363  1
  Mo  Mo30  1  0.248403  0.125249  0.874613  1
  Mo  Mo31  1  0.123154  0.748403  0.873791  1
  N  N32  1  0.213797  0.127972  0.025706  1
  N  N33  1  0.310464  0.896141  0.023566  1
  N  N34  1  0.879453  0.402247  0.083268  1
  N  N35  1  0.713158  0.687385  0.084668  1
  N  N36  1  0.627972  0.414174  0.102265  1
  N  N37  1  0.980757  0.683839  0.100015  1
  N  N38  1  0.025773  0.213158  0.128490  1
  N  N39  1  0.603860  0.914324  0.127425  1
  N  N40  1  0.203217  0.582972  0.183042  1
  N  N41  1  0.475213  0.602476  0.187836  1
  N  N42  1  0.127265  0.024787  0.212624  1
  N  N43  1  0.585676  0.189537  0.213102  1
  N  N44  1  0.477206  0.379452  0.296185  1
  N  N45  1  0.312363  0.915625  0.288770  1
  N  N46  1  0.902248  0.022795  0.318980  1
  N  N47  1  0.914174  0.286203  0.311909  1
  N  N48  1  0.296918  0.480757  0.380741  1
  N  N49  1  0.584374  0.896737  0.373144  1
  N  N50  1  0.812615  0.525773  0.397282  1
  N  N51  1  0.082972  0.879756  0.399930  1
  N  N52  1  0.102476  0.627265  0.414640  1
  N  N53  1  0.816163  0.796918  0.416176  1
  N  N54  1  0.603262  0.187637  0.476407  1
  N  N55  1  0.379755  0.296784  0.479826  1
  N  N56  1  0.620244  0.703217  0.520175  1
  N  N57  1  0.396737  0.812363  0.523593  1
  N  N58  1  0.183838  0.203083  0.583824  1
  N  N59  1  0.897523  0.372735  0.585359  1
  N  N60  1  0.917028  0.120244  0.600070  1
  N  N61  1  0.187385  0.474227  0.602717  1
  N  N62  1  0.415625  0.103262  0.626856  1
  N  N63  1  0.703083  0.519244  0.619258  1
  N  N64  1  0.097753  0.977206  0.681022  1
  N  N65  1  0.085826  0.713797  0.688091  1
  N  N66  1  0.687637  0.084375  0.711230  1
  N  N67  1  0.522795  0.620547  0.703816  1
  N  N68  1  0.414324  0.810464  0.786899  1
  N  N69  1  0.872735  0.975213  0.787376  1
  N  N70  1  0.524787  0.397523  0.812164  1
  N  N71  1  0.796784  0.417028  0.816959  1
  N  N72  1  0.974227  0.786842  0.871510  1
  N  N73  1  0.396140  0.085676  0.872575  1
  N  N74  1  0.019244  0.316163  0.899986  1
  N  N75  1  0.372028  0.585825  0.897734  1
  N  N76  1  0.286842  0.312615  0.915332  1
  N  N77  1  0.120547  0.597753  0.916732  1
  N  N78  1  0.689538  0.103860  0.976435  1
  N  N79  1  0.786203  0.872028  0.974294  1
