# generated using pymatgen
data_Ho3LuZr4F28
_symmetry_space_group_name_H-M   'P 1'
_cell_length_a   5.71535790
_cell_length_b   9.05700693
_cell_length_c   12.18722407
_cell_angle_alpha   62.39532113
_cell_angle_beta   89.97943186
_cell_angle_gamma   90.05420272
_symmetry_Int_Tables_number   1
_chemical_formula_structural   Ho3LuZr4F28
_chemical_formula_sum   'Ho3 Lu1 Zr4 F28'
_cell_volume   559.04596136
_cell_formula_units_Z   1
loop_
 _symmetry_equiv_pos_site_id
 _symmetry_equiv_pos_as_xyz
  1  'x, y, z'
loop_
 _atom_site_type_symbol
 _atom_site_label
 _atom_site_symmetry_multiplicity
 _atom_site_fract_x
 _atom_site_fract_y
 _atom_site_fract_z
 _atom_site_occupancy
  Ho  Ho0  1  0.257007  0.816004  0.266505  1
  Ho  Ho1  1  0.743975  0.181790  0.733473  1
  Ho  Ho2  1  0.757076  0.183074  0.233369  1
  Lu  Lu3  1  0.242719  0.816492  0.766571  1
  Zr  Zr4  1  0.756874  0.725787  0.043629  1
  Zr  Zr5  1  0.243433  0.276082  0.953733  1
  Zr  Zr6  1  0.256435  0.272693  0.455248  1
  Zr  Zr7  1  0.742325  0.726278  0.547568  1
  F  F8  1  0.966375  0.710599  0.423528  1
  F  F9  1  0.033540  0.291048  0.578642  1
  F  F10  1  0.466038  0.291003  0.078391  1
  F  F11  1  0.530021  0.710403  0.920397  1
  F  F12  1  0.487486  0.734237  0.150409  1
  F  F13  1  0.511674  0.263759  0.847852  1
  F  F14  1  0.985686  0.265006  0.349288  1
  F  F15  1  0.009016  0.737209  0.655341  1
  F  F16  1  0.971114  0.744851  0.172588  1
  F  F17  1  0.028970  0.256375  0.825366  1
  F  F18  1  0.468980  0.253983  0.325870  1
  F  F19  1  0.522038  0.746492  0.674529  1
  F  F20  1  0.775257  0.473170  0.139042  1
  F  F21  1  0.229004  0.529588  0.858881  1
  F  F22  1  0.273241  0.525990  0.360695  1
  F  F23  1  0.726718  0.473279  0.640672  1
  F  F24  1  0.947559  0.275166  0.049440  1
  F  F25  1  0.051026  0.725839  0.945931  1
  F  F26  1  0.449715  0.725291  0.450220  1
  F  F27  1  0.552240  0.274261  0.550436  1
  F  F28  1  0.740289  0.977820  0.441420  1
  F  F29  1  0.258686  0.020850  0.561150  1
  F  F30  1  0.240915  0.024040  0.058838  1
  F  F31  1  0.760985  0.978032  0.940596  1
  F  F32  1  0.572312  0.973569  0.233097  1
  F  F33  1  0.430857  0.019804  0.766030  1
  F  F34  1  0.072190  0.025776  0.266551  1
  F  F35  1  0.938227  0.974362  0.734700  1
