# generated using pymatgen
data_Ba2LaGaSe5
_symmetry_space_group_name_H-M   'P 1'
_cell_length_a   7.46363111
_cell_length_b   9.02340570
_cell_length_c   9.70090441
_cell_angle_alpha   103.78383151
_cell_angle_beta   102.72786431
_cell_angle_gamma   107.82587772
_symmetry_Int_Tables_number   1
_chemical_formula_structural   Ba2LaGaSe5
_chemical_formula_sum   'Ba4 La2 Ga2 Se10'
_cell_volume   572.86290587
_cell_formula_units_Z   2
loop_
 _symmetry_equiv_pos_site_id
 _symmetry_equiv_pos_as_xyz
  1  'x, y, z'
loop_
 _atom_site_type_symbol
 _atom_site_label
 _atom_site_symmetry_multiplicity
 _atom_site_fract_x
 _atom_site_fract_y
 _atom_site_fract_z
 _atom_site_occupancy
  Ba  Ba0  1  0.636559  0.979404  0.295823  1
  Ba  Ba1  1  0.363441  0.020596  0.704177  1
  Ba  Ba2  1  0.342609  0.509183  0.704593  1
  Ba  Ba3  1  0.657391  0.490817  0.295407  1
  La  La4  1  0.997518  0.733302  0.997724  1
  La  La5  1  0.002482  0.266698  0.002276  1
  Ga  Ga6  1  0.806609  0.871947  0.686103  1
  Ga  Ga7  1  0.193391  0.128053  0.313897  1
  Se  Se8  1  0.988332  0.687497  0.676630  1
  Se  Se9  1  0.011668  0.312503  0.323370  1
  Se  Se10  1  0.984474  0.146273  0.681223  1
  Se  Se11  1  0.015526  0.853727  0.318777  1
  Se  Se12  1  0.701759  0.903853  0.917798  1
  Se  Se13  1  0.298241  0.096147  0.082202  1
  Se  Se14  1  0.694847  0.406688  0.943804  1
  Se  Se15  1  0.305153  0.593312  0.056196  1
  Se  Se16  1  0.492500  0.742304  0.493947  1
  Se  Se17  1  0.507500  0.257696  0.506053  1
