# generated using pymatgen
data_Yb10Ni4HgBi
_symmetry_space_group_name_H-M   'P 1'
_cell_length_a   8.86993485
_cell_length_b   8.86993404
_cell_length_c   8.86993628
_cell_angle_alpha   129.38733512
_cell_angle_beta   129.38732662
_cell_angle_gamma   74.38813132
_symmetry_Int_Tables_number   1
_chemical_formula_structural   Yb10Ni4HgBi
_chemical_formula_sum   'Yb10 Ni4 Hg1 Bi1'
_cell_volume   406.29742185
_cell_formula_units_Z   1
loop_
 _symmetry_equiv_pos_site_id
 _symmetry_equiv_pos_as_xyz
  1  'x, y, z'
loop_
 _atom_site_type_symbol
 _atom_site_label
 _atom_site_symmetry_multiplicity
 _atom_site_fract_x
 _atom_site_fract_y
 _atom_site_fract_z
 _atom_site_occupancy
  Yb  Yb0  1  0.996412  0.996412  0.000000  1
  Yb  Yb1  1  0.503588  0.503588  0.000000  1
  Yb  Yb2  1  0.803652  0.295412  0.836868  1
  Yb  Yb3  1  0.204588  0.696348  0.163132  1
  Yb  Yb4  1  0.458545  0.966784  0.163132  1
  Yb  Yb5  1  0.295412  0.458545  0.491761  1
  Yb  Yb6  1  0.041455  0.204588  0.508239  1
  Yb  Yb7  1  0.533216  0.041455  0.836868  1
  Yb  Yb8  1  0.696348  0.533216  0.491761  1
  Yb  Yb9  1  0.966784  0.803652  0.508239  1
  Ni  Ni10  1  0.113957  0.613957  0.727917  1
  Ni  Ni11  1  0.886043  0.386043  0.272083  1
  Ni  Ni12  1  0.613957  0.886043  0.500000  1
  Ni  Ni13  1  0.386043  0.113957  0.500000  1
  Hg  Hg14  1  0.250000  0.250000  0.000000  1
  Bi  Bi15  1  0.750000  0.750000  0.000000  1
