# generated using pymatgen
data_RbSm3(SbAu)4
_symmetry_space_group_name_H-M   'P 1'
_cell_length_a   4.67228100
_cell_length_b   4.67228122
_cell_length_c   17.65306200
_cell_angle_alpha   90.00000000
_cell_angle_beta   90.00000000
_cell_angle_gamma   120.00000555
_symmetry_Int_Tables_number   1
_chemical_formula_structural   RbSm3(SbAu)4
_chemical_formula_sum   'Rb1 Sm3 Sb4 Au4'
_cell_volume   333.74024648
_cell_formula_units_Z   1
loop_
 _symmetry_equiv_pos_site_id
 _symmetry_equiv_pos_as_xyz
  1  'x, y, z'
loop_
 _atom_site_type_symbol
 _atom_site_label
 _atom_site_symmetry_multiplicity
 _atom_site_fract_x
 _atom_site_fract_y
 _atom_site_fract_z
 _atom_site_occupancy
  Rb  Rb0  1  0.000000  0.000000  0.250000  1
  Sm  Sm1  1  0.000000  0.000000  0.515993  1
  Sm  Sm2  1  0.000000  0.000000  0.984007  1
  Sm  Sm3  1  0.000000  0.000000  0.750000  1
  Sb  Sb4  1  0.333333  0.666667  0.395924  1
  Sb  Sb5  1  0.666667  0.333333  0.619884  1
  Sb  Sb6  1  0.666667  0.333333  0.880116  1
  Sb  Sb7  1  0.333333  0.666667  0.104076  1
  Au  Au8  1  0.666667  0.333333  0.429152  1
  Au  Au9  1  0.333333  0.666667  0.666484  1
  Au  Au10  1  0.333333  0.666667  0.833516  1
  Au  Au11  1  0.666667  0.333333  0.070848  1
