# generated using pymatgen
data_Tb5HoMn3(Co5P4)3
_symmetry_space_group_name_H-M   'P 1'
_cell_length_a   3.71097500
_cell_length_b   10.58358234
_cell_length_c   12.18082156
_cell_angle_alpha   89.94216959
_cell_angle_beta   90.00000000
_cell_angle_gamma   90.00000000
_symmetry_Int_Tables_number   1
_chemical_formula_structural   Tb5HoMn3(Co5P4)3
_chemical_formula_sum   'Tb5 Ho1 Mn3 Co15 P12'
_cell_volume   478.40651082
_cell_formula_units_Z   1
loop_
 _symmetry_equiv_pos_site_id
 _symmetry_equiv_pos_as_xyz
  1  'x, y, z'
loop_
 _atom_site_type_symbol
 _atom_site_label
 _atom_site_symmetry_multiplicity
 _atom_site_fract_x
 _atom_site_fract_y
 _atom_site_fract_z
 _atom_site_occupancy
  Tb  Tb0  1  0.000000  0.500093  0.523649  1
  Tb  Tb1  1  0.500000  0.000034  0.477355  1
  Tb  Tb2  1  0.500000  0.818394  0.205086  1
  Tb  Tb3  1  0.500000  0.181520  0.204766  1
  Tb  Tb4  1  0.000000  0.319646  0.795669  1
  Ho  Ho5  1  0.000000  0.680541  0.795931  1
  Mn  Mn6  1  0.500000  0.499768  0.153548  1
  Mn  Mn7  1  0.000000  0.000223  0.841560  1
  Mn  Mn8  1  0.000000  0.500347  0.988800  1
  Co  Co9  1  0.500000  0.500625  0.700234  1
  Co  Co10  1  0.000000  0.999875  0.297709  1
  Co  Co11  1  0.500000  0.999623  0.012724  1
  Co  Co12  1  0.500000  0.330595  0.994155  1
  Co  Co13  1  0.500000  0.669535  0.994022  1
  Co  Co14  1  0.000000  0.164824  0.004555  1
  Co  Co15  1  0.000000  0.834867  0.004232  1
  Co  Co16  1  0.500000  0.296101  0.430621  1
  Co  Co17  1  0.500000  0.704013  0.431175  1
  Co  Co18  1  0.000000  0.203535  0.570102  1
  Co  Co19  1  0.000000  0.796488  0.570835  1
  Co  Co20  1  0.500000  0.879562  0.710107  1
  Co  Co21  1  0.500000  0.119908  0.709511  1
  Co  Co22  1  0.000000  0.620965  0.291751  1
  Co  Co23  1  0.000000  0.378978  0.291454  1
  P  P24  1  0.500000  0.500689  0.882721  1
  P  P25  1  0.000000  0.999760  0.116638  1
  P  P26  1  0.500000  0.499971  0.345864  1
  P  P27  1  0.000000  0.000085  0.655514  1
  P  P28  1  0.500000  0.310119  0.616237  1
  P  P29  1  0.500000  0.690038  0.617258  1
  P  P30  1  0.000000  0.189469  0.384449  1
  P  P31  1  0.000000  0.810450  0.384903  1
  P  P32  1  0.500000  0.846748  0.892588  1
  P  P33  1  0.500000  0.152598  0.892876  1
  P  P34  1  0.000000  0.655140  0.105837  1
  P  P35  1  0.000000  0.344872  0.105562  1
