# generated using pymatgen
data_YTi2(GaPt)2
_symmetry_space_group_name_H-M   'P 1'
_cell_length_a   5.52872517
_cell_length_b   5.52872461
_cell_length_c   5.52872564
_cell_angle_alpha   100.06860369
_cell_angle_beta   103.38005313
_cell_angle_gamma   126.42453724
_symmetry_Int_Tables_number   1
_chemical_formula_structural   YTi2(GaPt)2
_chemical_formula_sum   'Y1 Ti2 Ga2 Pt2'
_cell_volume   121.31080315
_cell_formula_units_Z   1
loop_
 _symmetry_equiv_pos_site_id
 _symmetry_equiv_pos_as_xyz
  1  'x, y, z'
loop_
 _atom_site_type_symbol
 _atom_site_label
 _atom_site_symmetry_multiplicity
 _atom_site_fract_x
 _atom_site_fract_y
 _atom_site_fract_z
 _atom_site_occupancy
  Y  Y0  1  0.000840  0.000000  0.000840  1
  Ti  Ti1  1  0.247937  0.749447  0.498490  1
  Ti  Ti2  1  0.749043  0.250553  0.498490  1
  Ga  Ga3  1  0.306721  0.300336  0.607055  1
  Ga  Ga4  1  0.306721  0.699664  0.006385  1
  Pt  Pt5  1  0.694370  0.298581  0.992951  1
  Pt  Pt6  1  0.694370  0.701419  0.395789  1
