# generated using pymatgen
data_Sc4TcRu7
_symmetry_space_group_name_H-M   'P 1'
_cell_length_a   5.10710528
_cell_length_b   5.21868234
_cell_length_c   8.70042800
_cell_angle_alpha   90.00000000
_cell_angle_beta   90.00000000
_cell_angle_gamma   120.72538379
_symmetry_Int_Tables_number   1
_chemical_formula_structural   Sc4TcRu7
_chemical_formula_sum   'Sc4 Tc1 Ru7'
_cell_volume   199.33604306
_cell_formula_units_Z   1
loop_
 _symmetry_equiv_pos_site_id
 _symmetry_equiv_pos_as_xyz
  1  'x, y, z'
loop_
 _atom_site_type_symbol
 _atom_site_label
 _atom_site_symmetry_multiplicity
 _atom_site_fract_x
 _atom_site_fract_y
 _atom_site_fract_z
 _atom_site_occupancy
  Sc  Sc0  1  0.332263  0.666132  0.432473  1
  Sc  Sc1  1  0.661987  0.330993  0.566942  1
  Sc  Sc2  1  0.661987  0.330993  0.933058  1
  Sc  Sc3  1  0.332263  0.666132  0.067527  1
  Tc  Tc4  1  0.667054  0.833526  0.750000  1
  Ru  Ru5  1  0.983597  0.991798  0.499370  1
  Ru  Ru6  1  0.983597  0.991798  0.000630  1
  Ru  Ru7  1  0.833547  0.171717  0.250000  1
  Ru  Ru8  1  0.833547  0.661831  0.250000  1
  Ru  Ru9  1  0.350094  0.175048  0.250000  1
  Ru  Ru10  1  0.180031  0.831981  0.750000  1
  Ru  Ru11  1  0.180031  0.348050  0.750000  1
