# generated using pymatgen
data_TbNdDyGa8Ag3
_symmetry_space_group_name_H-M   'P 1'
_cell_length_a   4.36329932
_cell_length_b   8.42439028
_cell_length_c   8.42439000
_cell_angle_alpha   69.04383112
_cell_angle_beta   74.99114928
_cell_angle_gamma   74.99114162
_symmetry_Int_Tables_number   1
_chemical_formula_structural   TbNdDyGa8Ag3
_chemical_formula_sum   'Tb1 Nd1 Dy1 Ga8 Ag3'
_cell_volume   274.52563654
_cell_formula_units_Z   1
loop_
 _symmetry_equiv_pos_site_id
 _symmetry_equiv_pos_as_xyz
  1  'x, y, z'
loop_
 _atom_site_type_symbol
 _atom_site_label
 _atom_site_symmetry_multiplicity
 _atom_site_fract_x
 _atom_site_fract_y
 _atom_site_fract_z
 _atom_site_occupancy
  Tb  Tb0  1  0.800696  0.199304  0.199304  1
  Nd  Nd1  1  0.500000  0.500000  0.500000  1
  Dy  Dy2  1  0.199304  0.800696  0.800696  1
  Ga  Ga3  1  0.354884  0.362167  0.928064  1
  Ga  Ga4  1  0.645116  0.637833  0.071936  1
  Ga  Ga5  1  0.354884  0.928064  0.362167  1
  Ga  Ga6  1  0.645116  0.071936  0.637833  1
  Ga  Ga7  1  0.160208  0.472039  0.207545  1
  Ga  Ga8  1  0.839792  0.527961  0.792455  1
  Ga  Ga9  1  0.160208  0.207545  0.472039  1
  Ga  Ga10  1  0.839792  0.792455  0.527961  1
  Ag  Ag11  1  0.500000  0.000000  0.000000  1
  Ag  Ag12  1  0.000000  0.804410  0.195590  1
  Ag  Ag13  1  0.000000  0.195590  0.804410  1
