# generated using pymatgen
data_Th2SiP3(IrRh)2
_symmetry_space_group_name_H-M   'P 1'
_cell_length_a   4.23349300
_cell_length_b   4.23349300
_cell_length_c   9.59177000
_cell_angle_alpha   90.00000000
_cell_angle_beta   90.00000000
_cell_angle_gamma   90.00000000
_symmetry_Int_Tables_number   1
_chemical_formula_structural   Th2SiP3(IrRh)2
_chemical_formula_sum   'Th2 Si1 P3 Ir2 Rh2'
_cell_volume   171.90814275
_cell_formula_units_Z   1
loop_
 _symmetry_equiv_pos_site_id
 _symmetry_equiv_pos_as_xyz
  1  'x, y, z'
loop_
 _atom_site_type_symbol
 _atom_site_label
 _atom_site_symmetry_multiplicity
 _atom_site_fract_x
 _atom_site_fract_y
 _atom_site_fract_z
 _atom_site_occupancy
  Th  Th0  1  0.000000  0.500000  0.255801  1
  Th  Th1  1  0.500000  0.000000  0.745126  1
  Si  Si2  1  0.500000  0.000000  0.136383  1
  P  P3  1  0.000000  0.000000  0.500980  1
  P  P4  1  0.500000  0.500000  0.500980  1
  P  P5  1  0.000000  0.500000  0.861747  1
  Ir  Ir6  1  0.000000  0.500000  0.610346  1
  Ir  Ir7  1  0.500000  0.000000  0.391762  1
  Rh  Rh8  1  0.000000  0.000000  0.998438  1
  Rh  Rh9  1  0.500000  0.500000  0.998438  1
