# generated using pymatgen
data_CeDy3Lu4(CdRu)2
_symmetry_space_group_name_H-M   'P 1'
_cell_length_a   9.60484750
_cell_length_b   9.51018252
_cell_length_c   9.51036466
_cell_angle_alpha   59.56167389
_cell_angle_beta   59.47029959
_cell_angle_gamma   59.46921294
_symmetry_Int_Tables_number   1
_chemical_formula_structural   CeDy3Lu4(CdRu)2
_chemical_formula_sum   'Ce2 Dy6 Lu8 Cd4 Ru4'
_cell_volume   607.29247406
_cell_formula_units_Z   2
loop_
 _symmetry_equiv_pos_site_id
 _symmetry_equiv_pos_as_xyz
  1  'x, y, z'
loop_
 _atom_site_type_symbol
 _atom_site_label
 _atom_site_symmetry_multiplicity
 _atom_site_fract_x
 _atom_site_fract_y
 _atom_site_fract_z
 _atom_site_occupancy
  Ce  Ce0  1  0.970310  0.341312  0.341326  1
  Ce  Ce1  1  0.348560  0.340616  0.340664  1
  Dy  Dy2  1  0.561867  0.561033  0.938413  1
  Dy  Dy3  1  0.938459  0.560560  0.939266  1
  Dy  Dy4  1  0.556778  0.942400  0.942392  1
  Dy  Dy5  1  0.938448  0.939266  0.560563  1
  Dy  Dy6  1  0.561865  0.938427  0.561026  1
  Dy  Dy7  1  0.938957  0.560023  0.560016  1
  Lu  Lu8  1  0.187875  0.186877  0.814016  1
  Lu  Lu9  1  0.810294  0.186630  0.813901  1
  Lu  Lu10  1  0.186750  0.812694  0.812686  1
  Lu  Lu11  1  0.810314  0.813890  0.186630  1
  Lu  Lu12  1  0.187870  0.814029  0.186871  1
  Lu  Lu13  1  0.813616  0.186457  0.186455  1
  Lu  Lu14  1  0.348159  0.352364  0.951649  1
  Lu  Lu15  1  0.348147  0.951667  0.352361  1
  Cd  Cd16  1  0.581636  0.579267  0.257336  1
  Cd  Cd17  1  0.581616  0.257364  0.579254  1
  Cd  Cd18  1  0.259199  0.580072  0.580078  1
  Cd  Cd19  1  0.580150  0.579307  0.579299  1
  Ru  Ru20  1  0.139052  0.149585  0.574824  1
  Ru  Ru21  1  0.139290  0.574703  0.149549  1
  Ru  Ru22  1  0.573580  0.146140  0.146110  1
  Ru  Ru23  1  0.137202  0.145318  0.145310  1
