# generated using pymatgen
data_Sr2Li2Si2P
_symmetry_space_group_name_H-M   'P 1'
_cell_length_a   9.85727329
_cell_length_b   9.85727287
_cell_length_c   7.02215200
_cell_angle_alpha   90.00000000
_cell_angle_beta   90.00000000
_cell_angle_gamma   153.63814333
_symmetry_Int_Tables_number   1
_chemical_formula_structural   Sr2Li2Si2P
_chemical_formula_sum   'Sr4 Li4 Si4 P2'
_cell_volume   302.97354213
_cell_formula_units_Z   2
loop_
 _symmetry_equiv_pos_site_id
 _symmetry_equiv_pos_as_xyz
  1  'x, y, z'
loop_
 _atom_site_type_symbol
 _atom_site_label
 _atom_site_symmetry_multiplicity
 _atom_site_fract_x
 _atom_site_fract_y
 _atom_site_fract_z
 _atom_site_occupancy
  Sr  Sr0  1  0.559879  0.440121  0.750000  1
  Sr  Sr1  1  0.440121  0.559879  0.250000  1
  Sr  Sr2  1  0.339058  0.660942  0.750000  1
  Sr  Sr3  1  0.660942  0.339058  0.250000  1
  Li  Li4  1  0.807779  0.192221  0.442130  1
  Li  Li5  1  0.192221  0.807779  0.557870  1
  Li  Li6  1  0.807779  0.192221  0.057870  1
  Li  Li7  1  0.192221  0.807779  0.942130  1
  Si  Si8  1  0.945897  0.054103  0.918687  1
  Si  Si9  1  0.054103  0.945897  0.081313  1
  Si  Si10  1  0.945897  0.054103  0.581313  1
  Si  Si11  1  0.054103  0.945897  0.418687  1
  P  P12  1  0.722387  0.277613  0.750000  1
  P  P13  1  0.277613  0.722387  0.250000  1
