# generated using pymatgen
data_Ho2Al3(Ga2Ir)3
_symmetry_space_group_name_H-M   'P 1'
_cell_length_a   7.55976500
_cell_length_b   7.55735921
_cell_length_c   9.52336271
_cell_angle_alpha   90.17158202
_cell_angle_beta   89.92569548
_cell_angle_gamma   119.73933770
_symmetry_Int_Tables_number   1
_chemical_formula_structural   Ho2Al3(Ga2Ir)3
_chemical_formula_sum   'Ho4 Al6 Ga12 Ir6'
_cell_volume   472.42415929
_cell_formula_units_Z   2
loop_
 _symmetry_equiv_pos_site_id
 _symmetry_equiv_pos_as_xyz
  1  'x, y, z'
loop_
 _atom_site_type_symbol
 _atom_site_label
 _atom_site_symmetry_multiplicity
 _atom_site_fract_x
 _atom_site_fract_y
 _atom_site_fract_z
 _atom_site_occupancy
  Ho  Ho0  1  0.998455  0.667025  0.251100  1
  Ho  Ho1  1  0.001545  0.332975  0.748900  1
  Ho  Ho2  1  0.671253  0.000218  0.254305  1
  Ho  Ho3  1  0.328747  0.999782  0.745695  1
  Al  Al4  1  0.664442  0.997912  0.928197  1
  Al  Al5  1  0.335558  0.002088  0.071803  1
  Al  Al6  1  0.332598  0.332586  0.554075  1
  Al  Al7  1  0.667402  0.667414  0.445925  1
  Al  Al8  1  0.667909  0.667325  0.055243  1
  Al  Al9  1  0.332091  0.332675  0.944757  1
  Ga  Ga10  1  0.128331  0.125365  0.249413  1
  Ga  Ga11  1  0.871669  0.874635  0.750587  1
  Ga  Ga12  1  0.998528  0.333338  0.077678  1
  Ga  Ga13  1  0.001472  0.666662  0.922322  1
  Ga  Ga14  1  0.998709  0.664867  0.579224  1
  Ga  Ga15  1  0.334914  0.999752  0.418826  1
  Ga  Ga16  1  0.001291  0.335133  0.420776  1
  Ga  Ga17  1  0.665086  0.000248  0.581174  1
  Ga  Ga18  1  0.343952  0.549618  0.249858  1
  Ga  Ga19  1  0.656048  0.450382  0.750142  1
  Ga  Ga20  1  0.547675  0.342876  0.249157  1
  Ga  Ga21  1  0.452325  0.657124  0.750843  1
  Ir  Ir22  1  0.667344  0.325783  0.999197  1
  Ir  Ir23  1  0.332656  0.674217  0.000803  1
  Ir  Ir24  1  0.330332  0.669482  0.500628  1
  Ir  Ir25  1  0.669668  0.330518  0.499372  1
  Ir  Ir26  1  0.000000  0.000000  0.000000  1
  Ir  Ir27  1  0.000000  0.000000  0.500000  1
