# generated using pymatgen
data_UTl4CrCl12
_symmetry_space_group_name_H-M   'P 1'
_cell_length_a   7.26334600
_cell_length_b   7.26334600
_cell_length_c   10.68436100
_cell_angle_alpha   90.00000000
_cell_angle_beta   90.00000000
_cell_angle_gamma   90.00000000
_symmetry_Int_Tables_number   1
_chemical_formula_structural   UTl4CrCl12
_chemical_formula_sum   'U1 Tl4 Cr1 Cl12'
_cell_volume   563.66623360
_cell_formula_units_Z   1
loop_
 _symmetry_equiv_pos_site_id
 _symmetry_equiv_pos_as_xyz
  1  'x, y, z'
loop_
 _atom_site_type_symbol
 _atom_site_label
 _atom_site_symmetry_multiplicity
 _atom_site_fract_x
 _atom_site_fract_y
 _atom_site_fract_z
 _atom_site_occupancy
  U  U0  1  0.500000  0.500000  0.500000  1
  Tl  Tl1  1  0.500000  0.000000  0.800651  1
  Tl  Tl2  1  0.500000  0.000000  0.199349  1
  Tl  Tl3  1  0.000000  0.500000  0.199349  1
  Tl  Tl4  1  0.000000  0.500000  0.800651  1
  Cr  Cr5  1  0.000000  0.000000  0.000000  1
  Cl  Cl6  1  0.770800  0.234299  0.000000  1
  Cl  Cl7  1  0.229200  0.765701  0.000000  1
  Cl  Cl8  1  0.500000  0.500000  0.260283  1
  Cl  Cl9  1  0.294464  0.220632  0.500000  1
  Cl  Cl10  1  0.234299  0.229200  0.000000  1
  Cl  Cl11  1  0.779368  0.294464  0.500000  1
  Cl  Cl12  1  0.000000  0.000000  0.219791  1
  Cl  Cl13  1  0.705536  0.779368  0.500000  1
  Cl  Cl14  1  0.220632  0.705536  0.500000  1
  Cl  Cl15  1  0.500000  0.500000  0.739717  1
  Cl  Cl16  1  0.765701  0.770800  0.000000  1
  Cl  Cl17  1  0.000000  0.000000  0.780209  1
