# generated using pymatgen
data_Re6AsP12
_symmetry_space_group_name_H-M   'P 1'
_cell_length_a   9.57024896
_cell_length_b   9.57024895
_cell_length_c   9.57024888
_cell_angle_alpha   111.83193797
_cell_angle_beta   111.83192881
_cell_angle_gamma   111.83193858
_symmetry_Int_Tables_number   1
_chemical_formula_structural   Re6AsP12
_chemical_formula_sum   'Re12 As2 P24'
_cell_volume   608.69817253
_cell_formula_units_Z   2
loop_
 _symmetry_equiv_pos_site_id
 _symmetry_equiv_pos_as_xyz
  1  'x, y, z'
loop_
 _atom_site_type_symbol
 _atom_site_label
 _atom_site_symmetry_multiplicity
 _atom_site_fract_x
 _atom_site_fract_y
 _atom_site_fract_z
 _atom_site_occupancy
  Re  Re0  1  0.821028  0.910738  0.329311  1
  Re  Re1  1  0.910738  0.329311  0.821028  1
  Re  Re2  1  0.329311  0.821028  0.910738  1
  Re  Re3  1  0.178972  0.089262  0.670689  1
  Re  Re4  1  0.089262  0.670689  0.178972  1
  Re  Re5  1  0.670689  0.178972  0.089262  1
  Re  Re6  1  0.837678  0.732050  0.501362  1
  Re  Re7  1  0.732050  0.501362  0.837678  1
  Re  Re8  1  0.501362  0.837678  0.732050  1
  Re  Re9  1  0.162322  0.267950  0.498638  1
  Re  Re10  1  0.267950  0.498638  0.162322  1
  Re  Re11  1  0.498638  0.162322  0.267950  1
  As  As12  1  0.356635  0.356635  0.356635  1
  As  As13  1  0.643365  0.643365  0.643365  1
  P  P14  1  0.962415  0.003189  0.195842  1
  P  P15  1  0.003189  0.195842  0.962415  1
  P  P16  1  0.195842  0.962415  0.003189  1
  P  P17  1  0.037585  0.996811  0.804158  1
  P  P18  1  0.996811  0.804158  0.037585  1
  P  P19  1  0.804158  0.037585  0.996811  1
  P  P20  1  0.378660  0.008892  0.797351  1
  P  P21  1  0.008892  0.797351  0.378660  1
  P  P22  1  0.797351  0.378660  0.008892  1
  P  P23  1  0.621340  0.991108  0.202649  1
  P  P24  1  0.991108  0.202649  0.621340  1
  P  P25  1  0.202649  0.621340  0.991108  1
  P  P26  1  0.401862  0.226543  0.613949  1
  P  P27  1  0.226543  0.613950  0.401862  1
  P  P28  1  0.613950  0.401862  0.226543  1
  P  P29  1  0.598138  0.773457  0.386050  1
  P  P30  1  0.773457  0.386051  0.598138  1
  P  P31  1  0.386050  0.598138  0.773457  1
  P  P32  1  0.602889  0.610774  0.999332  1
  P  P33  1  0.610774  0.999332  0.602889  1
  P  P34  1  0.999332  0.602889  0.610774  1
  P  P35  1  0.397111  0.389226  0.000668  1
  P  P36  1  0.389226  0.000668  0.397111  1
  P  P37  1  0.000668  0.397111  0.389226  1
