# generated using pymatgen
data_Tb4Tm4Re3B24Ru
_symmetry_space_group_name_H-M   'P 1'
_cell_length_a   3.66080200
_cell_length_b   9.13233723
_cell_length_c   11.52929501
_cell_angle_alpha   89.90457256
_cell_angle_beta   90.00000000
_cell_angle_gamma   90.00000000
_symmetry_Int_Tables_number   1
_chemical_formula_structural   Tb4Tm4Re3B24Ru
_chemical_formula_sum   'Tb4 Tm4 Re3 B24 Ru1'
_cell_volume   385.44314802
_cell_formula_units_Z   1
loop_
 _symmetry_equiv_pos_site_id
 _symmetry_equiv_pos_as_xyz
  1  'x, y, z'
loop_
 _atom_site_type_symbol
 _atom_site_label
 _atom_site_symmetry_multiplicity
 _atom_site_fract_x
 _atom_site_fract_y
 _atom_site_fract_z
 _atom_site_occupancy
  Tb  Tb0  1  0.000000  0.322638  0.413688  1
  Tb  Tb1  1  0.000000  0.675793  0.584435  1
  Tb  Tb2  1  0.000000  0.822365  0.087518  1
  Tb  Tb3  1  0.000000  0.178535  0.914184  1
  Tm  Tm4  1  0.000000  0.943111  0.370987  1
  Tm  Tm5  1  0.000000  0.056878  0.630391  1
  Tm  Tm6  1  0.000000  0.443638  0.129252  1
  Tm  Tm7  1  0.000000  0.558110  0.869766  1
  Re  Re8  1  0.000000  0.638726  0.320060  1
  Re  Re9  1  0.000000  0.361182  0.680420  1
  Re  Re10  1  0.000000  0.138355  0.178950  1
  B  B11  1  0.500000  0.553219  0.432312  1
  B  B12  1  0.500000  0.446379  0.567341  1
  B  B13  1  0.500000  0.053267  0.067302  1
  B  B14  1  0.500000  0.945748  0.932132  1
  B  B15  1  0.500000  0.749553  0.418280  1
  B  B16  1  0.500000  0.249597  0.581946  1
  B  B17  1  0.500000  0.250329  0.081622  1
  B  B18  1  0.500000  0.750705  0.917892  1
  B  B19  1  0.500000  0.792365  0.265968  1
  B  B20  1  0.500000  0.207878  0.734856  1
  B  B21  1  0.500000  0.292267  0.234087  1
  B  B22  1  0.500000  0.708921  0.765614  1
  B  B23  1  0.500000  0.630431  0.185194  1
  B  B24  1  0.500000  0.369926  0.815215  1
  B  B25  1  0.500000  0.129790  0.314383  1
  B  B26  1  0.500000  0.869408  0.685568  1
  B  B27  1  0.500000  0.981628  0.212662  1
  B  B28  1  0.500000  0.016586  0.787649  1
  B  B29  1  0.500000  0.482078  0.286954  1
  B  B30  1  0.500000  0.517911  0.712483  1
  B  B31  1  0.500000  0.600615  0.027438  1
  B  B32  1  0.500000  0.401551  0.972066  1
  B  B33  1  0.500000  0.099354  0.472876  1
  B  B34  1  0.500000  0.899998  0.528318  1
  Ru  Ru35  1  0.000000  0.861164  0.820189  1
