# generated using pymatgen
data_Pr4ZnSi2Pd27
_symmetry_space_group_name_H-M   'P 1'
_cell_length_a   8.98987630
_cell_length_b   8.98987630
_cell_length_c   7.16237909
_cell_angle_alpha   90.32720516
_cell_angle_beta   90.32720516
_cell_angle_gamma   89.08483082
_symmetry_Int_Tables_number   1
_chemical_formula_structural   Pr4ZnSi2Pd27
_chemical_formula_sum   'Pr4 Zn1 Si2 Pd27'
_cell_volume   578.75584691
_cell_formula_units_Z   1
loop_
 _symmetry_equiv_pos_site_id
 _symmetry_equiv_pos_as_xyz
  1  'x, y, z'
loop_
 _atom_site_type_symbol
 _atom_site_label
 _atom_site_symmetry_multiplicity
 _atom_site_fract_x
 _atom_site_fract_y
 _atom_site_fract_z
 _atom_site_occupancy
  Pr  Pr0  1  0.507335  0.007335  0.933941  1
  Pr  Pr1  1  0.992665  0.492665  0.066059  1
  Pr  Pr2  1  0.002030  0.997970  0.500000  1
  Pr  Pr3  1  0.497970  0.502030  0.500000  1
  Zn  Zn4  1  0.250000  0.750000  0.000000  1
  Si  Si5  1  0.501451  0.001451  0.446757  1
  Si  Si6  1  0.998549  0.498549  0.553243  1
  Pd  Pd7  1  0.336735  0.836735  0.607509  1
  Pd  Pd8  1  0.333354  0.166073  0.617791  1
  Pd  Pd9  1  0.666073  0.833354  0.617791  1
  Pd  Pd10  1  0.665640  0.165640  0.612350  1
  Pd  Pd11  1  0.163265  0.663265  0.392491  1
  Pd  Pd12  1  0.166646  0.333927  0.382209  1
  Pd  Pd13  1  0.833927  0.666646  0.382209  1
  Pd  Pd14  1  0.834360  0.334360  0.387650  1
  Pd  Pd15  1  0.500514  0.771692  0.254408  1
  Pd  Pd16  1  0.497128  0.230964  0.257058  1
  Pd  Pd17  1  0.271692  0.000514  0.254408  1
  Pd  Pd18  1  0.730964  0.997128  0.257058  1
  Pd  Pd19  1  0.999486  0.728308  0.745592  1
  Pd  Pd20  1  0.002872  0.269036  0.742942  1
  Pd  Pd21  1  0.228308  0.499486  0.745592  1
  Pd  Pd22  1  0.769036  0.502872  0.742942  1
  Pd  Pd23  1  0.498091  0.352700  0.855782  1
  Pd  Pd24  1  0.493136  0.659733  0.862981  1
  Pd  Pd25  1  0.852700  0.998091  0.855782  1
  Pd  Pd26  1  0.159733  0.993136  0.862981  1
  Pd  Pd27  1  0.001909  0.147300  0.144218  1
  Pd  Pd28  1  0.006864  0.840267  0.137019  1
  Pd  Pd29  1  0.647300  0.501909  0.144218  1
  Pd  Pd30  1  0.340267  0.506864  0.137019  1
  Pd  Pd31  1  0.250000  0.250000  0.000000  1
  Pd  Pd32  1  0.750000  0.750000  0.000000  1
  Pd  Pd33  1  0.750000  0.250000  0.000000  1
