# generated using pymatgen
data_Tb2YPa(Pd2Pb)2
_symmetry_space_group_name_H-M   'P 1'
_cell_length_a   7.99813479
_cell_length_b   7.99813526
_cell_length_c   3.59995200
_cell_angle_alpha   90.00000000
_cell_angle_beta   90.00000000
_cell_angle_gamma   91.61847301
_symmetry_Int_Tables_number   1
_chemical_formula_structural   Tb2YPa(Pd2Pb)2
_chemical_formula_sum   'Tb2 Y1 Pa1 Pd4 Pb2'
_cell_volume   230.19764779
_cell_formula_units_Z   1
loop_
 _symmetry_equiv_pos_site_id
 _symmetry_equiv_pos_as_xyz
  1  'x, y, z'
loop_
 _atom_site_type_symbol
 _atom_site_label
 _atom_site_symmetry_multiplicity
 _atom_site_fract_x
 _atom_site_fract_y
 _atom_site_fract_z
 _atom_site_occupancy
  Tb  Tb0  1  0.169536  0.330092  0.500000  1
  Tb  Tb1  1  0.830092  0.669536  0.500000  1
  Y  Y2  1  0.326618  0.826618  0.500000  1
  Pa  Pa3  1  0.668909  0.168909  0.500000  1
  Pd  Pd4  1  0.864513  0.364513  0.000000  1
  Pd  Pd5  1  0.385280  0.131425  0.000000  1
  Pd  Pd6  1  0.631425  0.885280  0.000000  1
  Pd  Pd7  1  0.120782  0.620782  0.000000  1
  Pb  Pb8  1  0.006860  0.995984  0.000000  1
  Pb  Pb9  1  0.495984  0.506860  0.000000  1
