# generated using pymatgen
data_KTc2Te7W4
_symmetry_space_group_name_H-M   'P 1'
_cell_length_a   10.42446638
_cell_length_b   10.40032413
_cell_length_c   10.38177838
_cell_angle_alpha   60.37550307
_cell_angle_beta   60.31855563
_cell_angle_gamma   60.21772393
_symmetry_Int_Tables_number   1
_chemical_formula_structural   KTc2Te7W4
_chemical_formula_sum   'K2 Tc4 Te14 W8'
_cell_volume   801.36876930
_cell_formula_units_Z   2
loop_
 _symmetry_equiv_pos_site_id
 _symmetry_equiv_pos_as_xyz
  1  'x, y, z'
loop_
 _atom_site_type_symbol
 _atom_site_label
 _atom_site_symmetry_multiplicity
 _atom_site_fract_x
 _atom_site_fract_y
 _atom_site_fract_z
 _atom_site_occupancy
  K  K0  1  0.621851  0.621679  0.622625  1
  K  K1  1  0.380088  0.377467  0.377674  1
  Tc  Tc2  1  0.713286  0.876639  0.008504  1
  Tc  Tc3  1  0.009671  0.710946  0.878352  1
  Tc  Tc4  1  0.877457  0.007856  0.712557  1
  Tc  Tc5  1  0.287300  0.123475  0.992559  1
  Te  Te6  1  0.428857  0.810747  0.160192  1
  Te  Te7  1  0.168931  0.426484  0.802541  1
  Te  Te8  1  0.800801  0.166447  0.430957  1
  Te  Te9  1  0.575106  0.186613  0.838966  1
  Te  Te10  1  0.836773  0.576255  0.188464  1
  Te  Te11  1  0.187747  0.836129  0.577549  1
  Te  Te12  1  0.630147  0.968224  0.258340  1
  Te  Te13  1  0.257169  0.630106  0.971148  1
  Te  Te14  1  0.967882  0.257447  0.630889  1
  Te  Te15  1  0.369089  0.029012  0.741218  1
  Te  Te16  1  0.740267  0.370160  0.024903  1
  Te  Te17  1  0.029470  0.738878  0.368159  1
  Te  Te18  1  0.783521  0.779033  0.779954  1
  Te  Te19  1  0.224300  0.223535  0.221689  1
  W  W20  1  0.993150  0.285652  0.122624  1
  W  W21  1  0.120018  0.995921  0.286097  1
  W  W22  1  0.946038  0.808961  0.109333  1
  W  W23  1  0.106537  0.946580  0.810785  1
  W  W24  1  0.807940  0.107458  0.948146  1
  W  W25  1  0.053814  0.190471  0.892594  1
  W  W26  1  0.892076  0.053511  0.190953  1
  W  W27  1  0.190712  0.894317  0.052231  1
