# generated using pymatgen
data_La18ErTmGa12
_symmetry_space_group_name_H-M   'P 1'
_cell_length_a   7.94454200
_cell_length_b   7.94454200
_cell_length_c   15.05742300
_cell_angle_alpha   90.00000000
_cell_angle_beta   90.00000000
_cell_angle_gamma   90.00000000
_symmetry_Int_Tables_number   1
_chemical_formula_structural   La18ErTmGa12
_chemical_formula_sum   'La18 Er1 Tm1 Ga12'
_cell_volume   950.36050942
_cell_formula_units_Z   1
loop_
 _symmetry_equiv_pos_site_id
 _symmetry_equiv_pos_as_xyz
  1  'x, y, z'
loop_
 _atom_site_type_symbol
 _atom_site_label
 _atom_site_symmetry_multiplicity
 _atom_site_fract_x
 _atom_site_fract_y
 _atom_site_fract_z
 _atom_site_occupancy
  La  La0  1  0.338086  0.311455  0.104484  1
  La  La1  1  0.838040  0.811477  0.895499  1
  La  La2  1  0.840153  0.183448  0.396236  1
  La  La3  1  0.161960  0.188523  0.895499  1
  La  La4  1  0.661914  0.688545  0.104484  1
  La  La5  1  0.000000  0.500000  0.707012  1
  La  La6  1  0.816512  0.840166  0.603774  1
  La  La7  1  0.316552  0.340153  0.396236  1
  La  La8  1  0.188545  0.838086  0.104484  1
  La  La9  1  0.183488  0.159834  0.603774  1
  La  La10  1  0.811455  0.161914  0.104484  1
  La  La11  1  0.340166  0.683488  0.603774  1
  La  La12  1  0.500000  0.000000  0.292995  1
  La  La13  1  0.688523  0.338040  0.895499  1
  La  La14  1  0.659834  0.316512  0.603774  1
  La  La15  1  0.311477  0.661960  0.895499  1
  La  La16  1  0.159847  0.816552  0.396236  1
  La  La17  1  0.683448  0.659847  0.396236  1
  Er  Er18  1  0.000000  0.500000  0.225403  1
  Tm  Tm19  1  0.500000  0.000000  0.774583  1
  Ga  Ga20  1  0.623957  0.383970  0.249049  1
  Ga  Ga21  1  0.875998  0.116037  0.750962  1
  Ga  Ga22  1  0.500000  0.000000  0.499073  1
  Ga  Ga23  1  0.883970  0.876043  0.249049  1
  Ga  Ga24  1  0.000000  0.500000  0.019732  1
  Ga  Ga25  1  0.124002  0.883963  0.750962  1
  Ga  Ga26  1  0.383963  0.375998  0.750962  1
  Ga  Ga27  1  0.116030  0.123957  0.249049  1
  Ga  Ga28  1  0.376043  0.616030  0.249049  1
  Ga  Ga29  1  0.616037  0.624002  0.750962  1
  Ga  Ga30  1  0.500000  0.000000  0.980238  1
  Ga  Ga31  1  0.000000  0.500000  0.500950  1
