# generated using pymatgen
data_Ho4Tm4Cr(B8Rh)3
_symmetry_space_group_name_H-M   'P 1'
_cell_length_a   3.61628100
_cell_length_b   9.11701948
_cell_length_c   11.47184206
_cell_angle_alpha   90.12394415
_cell_angle_beta   90.00000000
_cell_angle_gamma   90.00000000
_symmetry_Int_Tables_number   1
_chemical_formula_structural   Ho4Tm4Cr(B8Rh)3
_chemical_formula_sum   'Ho4 Tm4 Cr1 B24 Rh3'
_cell_volume   378.22235590
_cell_formula_units_Z   1
loop_
 _symmetry_equiv_pos_site_id
 _symmetry_equiv_pos_as_xyz
  1  'x, y, z'
loop_
 _atom_site_type_symbol
 _atom_site_label
 _atom_site_symmetry_multiplicity
 _atom_site_fract_x
 _atom_site_fract_y
 _atom_site_fract_z
 _atom_site_occupancy
  Ho  Ho0  1  0.500000  0.318299  0.410439  1
  Ho  Ho1  1  0.500000  0.677616  0.585361  1
  Ho  Ho2  1  0.500000  0.178104  0.917927  1
  Ho  Ho3  1  0.500000  0.825408  0.087406  1
  Tm  Tm4  1  0.500000  0.442034  0.126109  1
  Tm  Tm5  1  0.500000  0.556666  0.872894  1
  Tm  Tm6  1  0.500000  0.056164  0.627985  1
  Tm  Tm7  1  0.500000  0.946778  0.371951  1
  Cr  Cr8  1  0.500000  0.138773  0.179675  1
  B  B9  1  0.000000  0.106718  0.471519  1
  B  B10  1  0.000000  0.892781  0.529453  1
  B  B11  1  0.000000  0.393690  0.970196  1
  B  B12  1  0.000000  0.607930  0.029144  1
  B  B13  1  0.000000  0.131561  0.314801  1
  B  B14  1  0.000000  0.867556  0.683817  1
  B  B15  1  0.000000  0.368306  0.816634  1
  B  B16  1  0.000000  0.632238  0.183735  1
  B  B17  1  0.000000  0.053350  0.067319  1
  B  B18  1  0.000000  0.947239  0.934154  1
  B  B19  1  0.000000  0.445478  0.565418  1
  B  B20  1  0.000000  0.552738  0.433284  1
  B  B21  1  0.000000  0.481736  0.286478  1
  B  B22  1  0.000000  0.517955  0.712798  1
  B  B23  1  0.000000  0.018146  0.787574  1
  B  B24  1  0.000000  0.983334  0.213030  1
  B  B25  1  0.000000  0.248611  0.080970  1
  B  B26  1  0.000000  0.751112  0.920320  1
  B  B27  1  0.000000  0.249782  0.579162  1
  B  B28  1  0.000000  0.749954  0.420040  1
  B  B29  1  0.000000  0.292453  0.234496  1
  B  B30  1  0.000000  0.706104  0.764039  1
  B  B31  1  0.000000  0.207412  0.735915  1
  B  B32  1  0.000000  0.793321  0.265285  1
  Rh  Rh33  1  0.500000  0.861221  0.820581  1
  Rh  Rh34  1  0.500000  0.360694  0.679434  1
  Rh  Rh35  1  0.500000  0.638741  0.320655  1
