# generated using pymatgen
data_Tb4HoEr5Sb6
_symmetry_space_group_name_H-M   'P 1'
_cell_length_a   8.95806760
_cell_length_b   8.96256542
_cell_length_c   6.27105800
_cell_angle_alpha   90.00000000
_cell_angle_beta   90.00000000
_cell_angle_gamma   120.01660440
_symmetry_Int_Tables_number   1
_chemical_formula_structural   Tb4HoEr5Sb6
_chemical_formula_sum   'Tb4 Ho1 Er5 Sb6'
_cell_volume   435.95878546
_cell_formula_units_Z   1
loop_
 _symmetry_equiv_pos_site_id
 _symmetry_equiv_pos_as_xyz
  1  'x, y, z'
loop_
 _atom_site_type_symbol
 _atom_site_label
 _atom_site_symmetry_multiplicity
 _atom_site_fract_x
 _atom_site_fract_y
 _atom_site_fract_z
 _atom_site_occupancy
  Tb  Tb0  1  0.753896  0.752918  0.250000  1
  Tb  Tb1  1  0.753930  0.001074  0.750000  1
  Tb  Tb2  1  0.246070  0.247144  0.750000  1
  Tb  Tb3  1  0.246104  0.999022  0.250000  1
  Ho  Ho4  1  0.000000  0.752197  0.750000  1
  Er  Er5  1  0.000000  0.247593  0.250000  1
  Er  Er6  1  0.333951  0.666979  0.500018  1
  Er  Er7  1  0.666049  0.333027  0.999982  1
  Er  Er8  1  0.666049  0.333027  0.500018  1
  Er  Er9  1  0.333951  0.666979  0.999982  1
  Sb  Sb10  1  0.388847  0.999306  0.750000  1
  Sb  Sb11  1  0.388552  0.389524  0.250000  1
  Sb  Sb12  1  0.000000  0.608261  0.250000  1
  Sb  Sb13  1  0.000000  0.391516  0.750000  1
  Sb  Sb14  1  0.611153  0.610460  0.750000  1
  Sb  Sb15  1  0.611448  0.000974  0.250000  1
