# generated using pymatgen
data_LiTb3ThCo
_symmetry_space_group_name_H-M   'P 1'
_cell_length_a   9.59373096
_cell_length_b   9.59373123
_cell_length_c   9.59373200
_cell_angle_alpha   60.00000424
_cell_angle_beta   60.00000329
_cell_angle_gamma   60.00000115
_symmetry_Int_Tables_number   1
_chemical_formula_structural   LiTb3ThCo
_chemical_formula_sum   'Li4 Tb12 Th4 Co4'
_cell_volume   624.37814826
_cell_formula_units_Z   4
loop_
 _symmetry_equiv_pos_site_id
 _symmetry_equiv_pos_as_xyz
  1  'x, y, z'
loop_
 _atom_site_type_symbol
 _atom_site_label
 _atom_site_symmetry_multiplicity
 _atom_site_fract_x
 _atom_site_fract_y
 _atom_site_fract_z
 _atom_site_occupancy
  Li  Li0  1  0.829485  0.829485  0.829485  1
  Li  Li1  1  0.829485  0.829485  0.511545  1
  Li  Li2  1  0.829485  0.511545  0.829485  1
  Li  Li3  1  0.511545  0.829485  0.829485  1
  Tb  Tb4  1  0.064017  0.435983  0.435983  1
  Tb  Tb5  1  0.435983  0.064017  0.064017  1
  Tb  Tb6  1  0.435983  0.064017  0.435983  1
  Tb  Tb7  1  0.064017  0.435983  0.064017  1
  Tb  Tb8  1  0.435983  0.435983  0.064017  1
  Tb  Tb9  1  0.064017  0.064017  0.435983  1
  Tb  Tb10  1  0.185784  0.814216  0.814216  1
  Tb  Tb11  1  0.814216  0.185784  0.185784  1
  Tb  Tb12  1  0.814216  0.185784  0.814216  1
  Tb  Tb13  1  0.185784  0.814216  0.185784  1
  Tb  Tb14  1  0.814216  0.814216  0.185784  1
  Tb  Tb15  1  0.185784  0.185784  0.814216  1
  Th  Th16  1  0.593828  0.593828  0.593828  1
  Th  Th17  1  0.593828  0.593828  0.218514  1
  Th  Th18  1  0.593828  0.218514  0.593828  1
  Th  Th19  1  0.218514  0.593828  0.593828  1
  Co  Co20  1  0.395372  0.395372  0.395372  1
  Co  Co21  1  0.395372  0.395372  0.813885  1
  Co  Co22  1  0.395372  0.813885  0.395372  1
  Co  Co23  1  0.813885  0.395372  0.395372  1
