# generated using pymatgen
data_NaY(BIr)4
_symmetry_space_group_name_H-M   'P 1'
_cell_length_a   7.10563869
_cell_length_b   6.14674143
_cell_length_c   5.48258084
_cell_angle_alpha   75.08216165
_cell_angle_beta   56.70920628
_cell_angle_gamma   48.20862732
_symmetry_Int_Tables_number   1
_chemical_formula_structural   NaY(BIr)4
_chemical_formula_sum   'Na1 Y1 B4 Ir4'
_cell_volume   146.96430190
_cell_formula_units_Z   1
loop_
 _symmetry_equiv_pos_site_id
 _symmetry_equiv_pos_as_xyz
  1  'x, y, z'
loop_
 _atom_site_type_symbol
 _atom_site_label
 _atom_site_symmetry_multiplicity
 _atom_site_fract_x
 _atom_site_fract_y
 _atom_site_fract_z
 _atom_site_occupancy
  Na  Na0  1  0.750000  0.750000  0.750000  1
  Y  Y1  1  0.500000  0.500000  0.500000  1
  B  B2  1  0.069896  0.430104  0.069896  1
  B  B3  1  0.822447  0.177553  0.822447  1
  B  B4  1  0.430104  0.069896  0.430104  1
  B  B5  1  0.177553  0.822447  0.177553  1
  Ir  Ir6  1  0.378618  0.378618  0.121382  1
  Ir  Ir7  1  0.130343  0.130343  0.869657  1
  Ir  Ir8  1  0.869657  0.869657  0.130343  1
  Ir  Ir9  1  0.121382  0.121382  0.378618  1
