# generated using pymatgen
data_ReHg(PO3)6
_symmetry_space_group_name_H-M   'P 1'
_cell_length_a   6.84318900
_cell_length_b   6.84319017
_cell_length_c   10.14276100
_cell_angle_alpha   90.00000000
_cell_angle_beta   90.00000000
_cell_angle_gamma   120.00000885
_symmetry_Int_Tables_number   1
_chemical_formula_structural   ReHg(PO3)6
_chemical_formula_sum   'Re1 Hg1 P6 O18'
_cell_volume   411.34282729
_cell_formula_units_Z   1
loop_
 _symmetry_equiv_pos_site_id
 _symmetry_equiv_pos_as_xyz
  1  'x, y, z'
loop_
 _atom_site_type_symbol
 _atom_site_label
 _atom_site_symmetry_multiplicity
 _atom_site_fract_x
 _atom_site_fract_y
 _atom_site_fract_z
 _atom_site_occupancy
  Re  Re0  1  0.000000  0.000000  0.000000  1
  Hg  Hg1  1  0.000000  0.000000  0.500000  1
  P  P2  1  0.725891  0.119076  0.768157  1
  P  P3  1  0.880924  0.274109  0.231843  1
  P  P4  1  0.725891  0.606816  0.231843  1
  P  P5  1  0.880924  0.606816  0.768157  1
  P  P6  1  0.393184  0.274109  0.768157  1
  P  P7  1  0.393184  0.119076  0.231843  1
  O  O8  1  0.900700  0.515839  0.209117  1
  O  O9  1  0.900700  0.384861  0.790883  1
  O  O10  1  0.484161  0.099300  0.790883  1
  O  O11  1  0.615139  0.099300  0.209117  1
  O  O12  1  0.739071  0.038311  0.634801  1
  O  O13  1  0.755383  0.998968  0.886977  1
  O  O14  1  0.484161  0.384861  0.209117  1
  O  O15  1  0.739071  0.700760  0.365199  1
  O  O16  1  0.755383  0.756416  0.113023  1
  O  O17  1  0.615139  0.515839  0.790883  1
  O  O18  1  0.961689  0.260929  0.365199  1
  O  O19  1  0.001032  0.244617  0.113023  1
  O  O20  1  0.243584  0.244617  0.886977  1
  O  O21  1  0.299240  0.260929  0.634801  1
  O  O22  1  0.001032  0.756416  0.886977  1
  O  O23  1  0.961689  0.700760  0.634801  1
  O  O24  1  0.243584  0.998968  0.113023  1
  O  O25  1  0.299240  0.038311  0.365199  1
