# generated using pymatgen
data_Zr6Zn22GaRh
_symmetry_space_group_name_H-M   'P 1'
_cell_length_a   8.79843319
_cell_length_b   8.79843271
_cell_length_c   8.79843400
_cell_angle_alpha   60.00000267
_cell_angle_beta   60.00000448
_cell_angle_gamma   59.99999467
_symmetry_Int_Tables_number   1
_chemical_formula_structural   Zr6Zn22GaRh
_chemical_formula_sum   'Zr6 Zn22 Ga1 Rh1'
_cell_volume   481.61615513
_cell_formula_units_Z   1
loop_
 _symmetry_equiv_pos_site_id
 _symmetry_equiv_pos_as_xyz
  1  'x, y, z'
loop_
 _atom_site_type_symbol
 _atom_site_label
 _atom_site_symmetry_multiplicity
 _atom_site_fract_x
 _atom_site_fract_y
 _atom_site_fract_z
 _atom_site_occupancy
  Zr  Zr0  1  0.717007  0.282993  0.282993  1
  Zr  Zr1  1  0.282993  0.717007  0.717007  1
  Zr  Zr2  1  0.282993  0.717007  0.282993  1
  Zr  Zr3  1  0.717007  0.282993  0.717007  1
  Zr  Zr4  1  0.282993  0.282993  0.717007  1
  Zr  Zr5  1  0.717007  0.717007  0.282993  1
  Zn  Zn6  1  0.122183  0.122183  0.122183  1
  Zn  Zn7  1  0.877817  0.877817  0.877817  1
  Zn  Zn8  1  0.122183  0.122183  0.633449  1
  Zn  Zn9  1  0.122183  0.633449  0.122183  1
  Zn  Zn10  1  0.877817  0.877817  0.366551  1
  Zn  Zn11  1  0.877817  0.366551  0.877817  1
  Zn  Zn12  1  0.633449  0.122183  0.122183  1
  Zn  Zn13  1  0.366551  0.877817  0.877817  1
  Zn  Zn14  1  0.500000  0.000000  0.000000  1
  Zn  Zn15  1  0.000000  0.500000  0.500000  1
  Zn  Zn16  1  0.000000  0.500000  0.000000  1
  Zn  Zn17  1  0.500000  0.000000  0.500000  1
  Zn  Zn18  1  0.000000  0.000000  0.500000  1
  Zn  Zn19  1  0.500000  0.500000  0.000000  1
  Zn  Zn20  1  0.340257  0.340257  0.340257  1
  Zn  Zn21  1  0.659743  0.659743  0.659743  1
  Zn  Zn22  1  0.340257  0.340257  0.979228  1
  Zn  Zn23  1  0.340257  0.979228  0.340257  1
  Zn  Zn24  1  0.659743  0.659743  0.020772  1
  Zn  Zn25  1  0.659743  0.020772  0.659743  1
  Zn  Zn26  1  0.979228  0.340257  0.340257  1
  Zn  Zn27  1  0.020772  0.659743  0.659743  1
  Ga  Ga28  1  0.500000  0.500000  0.500000  1
  Rh  Rh29  1  0.000000  0.000000  0.000000  1
