# generated using pymatgen
data_Tb4Ho4Sc11Si16Hg
_symmetry_space_group_name_H-M   'P 1'
_cell_length_a   7.04355936
_cell_length_b   7.39277657
_cell_length_c   14.01127376
_cell_angle_alpha   90.01049900
_cell_angle_beta   90.03621023
_cell_angle_gamma   89.89332475
_symmetry_Int_Tables_number   1
_chemical_formula_structural   Tb4Ho4Sc11Si16Hg
_chemical_formula_sum   'Tb4 Ho4 Sc11 Si16 Hg1'
_cell_volume   729.58606701
_cell_formula_units_Z   1
loop_
 _symmetry_equiv_pos_site_id
 _symmetry_equiv_pos_as_xyz
  1  'x, y, z'
loop_
 _atom_site_type_symbol
 _atom_site_label
 _atom_site_symmetry_multiplicity
 _atom_site_fract_x
 _atom_site_fract_y
 _atom_site_fract_z
 _atom_site_occupancy
  Tb  Tb0  1  0.010147  0.174366  0.096667  1
  Tb  Tb1  1  0.990960  0.817575  0.901873  1
  Tb  Tb2  1  0.484979  0.673299  0.902139  1
  Tb  Tb3  1  0.990985  0.817513  0.597997  1
  Ho  Ho4  1  0.510930  0.323792  0.097025  1
  Ho  Ho5  1  0.010539  0.174648  0.403169  1
  Ho  Ho6  1  0.510871  0.323706  0.403106  1
  Ho  Ho7  1  0.485000  0.673609  0.598009  1
  Sc  Sc8  1  0.838255  0.497596  0.250086  1
  Sc  Sc9  1  0.339415  0.003444  0.250074  1
  Sc  Sc10  1  0.657749  0.997704  0.749926  1
  Sc  Sc11  1  0.326145  0.182842  0.625749  1
  Sc  Sc12  1  0.670771  0.823818  0.375091  1
  Sc  Sc13  1  0.169879  0.679765  0.373488  1
  Sc  Sc14  1  0.670761  0.823771  0.125047  1
  Sc  Sc15  1  0.837134  0.325338  0.625745  1
  Sc  Sc16  1  0.326100  0.182699  0.874142  1
  Sc  Sc17  1  0.837280  0.325340  0.874115  1
  Sc  Sc18  1  0.169917  0.679616  0.126610  1
  Si  Si19  1  0.027960  0.095946  0.749932  1
  Si  Si20  1  0.967817  0.887580  0.250159  1
  Si  Si21  1  0.467092  0.616525  0.250061  1
  Si  Si22  1  0.543887  0.379889  0.749843  1
  Si  Si23  1  0.291579  0.887874  0.749790  1
  Si  Si24  1  0.713019  0.128774  0.250284  1
  Si  Si25  1  0.213193  0.372879  0.250220  1
  Si  Si26  1  0.769754  0.630891  0.749699  1
  Si  Si27  1  0.162652  0.459038  0.528747  1
  Si  Si28  1  0.841695  0.535719  0.461868  1
  Si  Si29  1  0.343741  0.966290  0.462140  1
  Si  Si30  1  0.841626  0.536056  0.038054  1
  Si  Si31  1  0.657386  0.033464  0.540416  1
  Si  Si32  1  0.162179  0.459213  0.971269  1
  Si  Si33  1  0.657464  0.033856  0.959627  1
  Si  Si34  1  0.344248  0.966394  0.037878  1
  Hg  Hg35  1  0.156887  0.509171  0.749955  1
