# generated using pymatgen
data_Gd3SiAuSe7
_symmetry_space_group_name_H-M   'P 1'
_cell_length_a   10.61368700
_cell_length_b   10.61354265
_cell_length_c   6.01797900
_cell_angle_alpha   90.00000000
_cell_angle_beta   90.00000000
_cell_angle_gamma   119.99973615
_symmetry_Int_Tables_number   1
_chemical_formula_structural   Gd3SiAuSe7
_chemical_formula_sum   'Gd6 Si2 Au2 Se14'
_cell_volume   587.09597087
_cell_formula_units_Z   2
loop_
 _symmetry_equiv_pos_site_id
 _symmetry_equiv_pos_as_xyz
  1  'x, y, z'
loop_
 _atom_site_type_symbol
 _atom_site_label
 _atom_site_symmetry_multiplicity
 _atom_site_fract_x
 _atom_site_fract_y
 _atom_site_fract_z
 _atom_site_occupancy
  Gd  Gd0  1  0.123095  0.355304  0.253742  1
  Gd  Gd1  1  0.645226  0.767940  0.253654  1
  Gd  Gd2  1  0.231981  0.877178  0.253875  1
  Gd  Gd3  1  0.768018  0.122822  0.753876  1
  Gd  Gd4  1  0.354774  0.232059  0.753655  1
  Gd  Gd5  1  0.876905  0.644696  0.753743  1
  Si  Si6  1  0.666660  0.333336  0.164706  1
  Si  Si7  1  0.333339  0.666664  0.664707  1
  Au  Au8  1  0.000052  0.999999  0.281040  1
  Au  Au9  1  0.999948  0.000001  0.781041  1
  Se  Se10  1  0.893593  0.414130  0.009019  1
  Se  Se11  1  0.520585  0.106611  0.008841  1
  Se  Se12  1  0.585918  0.479307  0.008831  1
  Se  Se13  1  0.333299  0.666639  0.042316  1
  Se  Se14  1  0.906274  0.727119  0.266821  1
  Se  Se15  1  0.820994  0.093914  0.266641  1
  Se  Se16  1  0.272862  0.179511  0.266514  1
  Se  Se17  1  0.106408  0.585870  0.509018  1
  Se  Se18  1  0.414082  0.520693  0.508830  1
  Se  Se19  1  0.479415  0.893389  0.508842  1
  Se  Se20  1  0.666701  0.333361  0.542315  1
  Se  Se21  1  0.093726  0.272880  0.766820  1
  Se  Se22  1  0.727138  0.820489  0.766514  1
  Se  Se23  1  0.179006  0.906086  0.766641  1
