# generated using pymatgen
data_Pr2Nd4Al24Ru7Au
_symmetry_space_group_name_H-M   'P 1'
_cell_length_a   8.95589811
_cell_length_b   8.95352596
_cell_length_c   9.67391802
_cell_angle_alpha   89.92330830
_cell_angle_beta   90.07297535
_cell_angle_gamma   119.93172546
_symmetry_Int_Tables_number   1
_chemical_formula_structural   Pr2Nd4Al24Ru7Au
_chemical_formula_sum   'Pr2 Nd4 Al24 Ru7 Au1'
_cell_volume   672.25517663
_cell_formula_units_Z   1
loop_
 _symmetry_equiv_pos_site_id
 _symmetry_equiv_pos_as_xyz
  1  'x, y, z'
loop_
 _atom_site_type_symbol
 _atom_site_label
 _atom_site_symmetry_multiplicity
 _atom_site_fract_x
 _atom_site_fract_y
 _atom_site_fract_z
 _atom_site_occupancy
  Pr  Pr0  1  0.191636  0.383605  0.249162  1
  Pr  Pr1  1  0.808364  0.616395  0.750838  1
  Nd  Nd2  1  0.616439  0.808436  0.249185  1
  Nd  Nd3  1  0.383561  0.191564  0.750815  1
  Nd  Nd4  1  0.192539  0.807478  0.252694  1
  Nd  Nd5  1  0.807461  0.192522  0.747306  1
  Al  Al6  1  0.328001  0.672128  0.014110  1
  Al  Al7  1  0.671999  0.327872  0.985890  1
  Al  Al8  1  0.666824  0.333053  0.510547  1
  Al  Al9  1  0.333176  0.666947  0.489453  1
  Al  Al10  1  0.161548  0.324858  0.576373  1
  Al  Al11  1  0.838452  0.675142  0.423627  1
  Al  Al12  1  0.675107  0.838506  0.576262  1
  Al  Al13  1  0.849181  0.678172  0.078645  1
  Al  Al14  1  0.324893  0.161494  0.423738  1
  Al  Al15  1  0.150819  0.321828  0.921355  1
  Al  Al16  1  0.162705  0.837426  0.576992  1
  Al  Al17  1  0.321853  0.150778  0.078545  1
  Al  Al18  1  0.837295  0.162574  0.423008  1
  Al  Al19  1  0.678147  0.849222  0.921455  1
  Al  Al20  1  0.837177  0.162679  0.076511  1
  Al  Al21  1  0.162823  0.837321  0.923489  1
  Al  Al22  1  0.561926  0.123631  0.248560  1
  Al  Al23  1  0.438074  0.876369  0.751440  1
  Al  Al24  1  0.876251  0.438096  0.248569  1
  Al  Al25  1  0.123749  0.561904  0.751431  1
  Al  Al26  1  0.564794  0.435337  0.256648  1
  Al  Al27  1  0.435206  0.564663  0.743352  1
  Al  Al28  1  0.999234  0.000562  0.250248  1
  Al  Al29  1  0.000766  0.999438  0.749752  1
  Ru  Ru30  1  0.500000  0.000000  0.000000  1
  Ru  Ru31  1  0.000000  0.500000  0.000000  1
  Ru  Ru32  1  0.500000  0.000000  0.500000  1
  Ru  Ru33  1  0.000000  0.500000  0.500000  1
  Ru  Ru34  1  0.500000  0.500000  0.500000  1
  Ru  Ru35  1  0.000000  0.000000  0.000000  1
  Ru  Ru36  1  0.000000  0.000000  0.500000  1
  Au  Au37  1  0.500000  0.500000  0.000000  1
