# generated using pymatgen
data_Rb2AsBr3F2
_symmetry_space_group_name_H-M   'P 1'
_cell_length_a   7.67376441
_cell_length_b   7.67848556
_cell_length_c   13.46284198
_cell_angle_alpha   84.46986632
_cell_angle_beta   78.97576105
_cell_angle_gamma   60.42232205
_symmetry_Int_Tables_number   1
_chemical_formula_structural   Rb2AsBr3F2
_chemical_formula_sum   'Rb6 As3 Br9 F6'
_cell_volume   677.16353713
_cell_formula_units_Z   3
loop_
 _symmetry_equiv_pos_site_id
 _symmetry_equiv_pos_as_xyz
  1  'x, y, z'
loop_
 _atom_site_type_symbol
 _atom_site_label
 _atom_site_symmetry_multiplicity
 _atom_site_fract_x
 _atom_site_fract_y
 _atom_site_fract_z
 _atom_site_occupancy
  Rb  Rb0  1  0.303657  0.332490  0.093912  1
  Rb  Rb1  1  0.435893  0.336295  0.684100  1
  Rb  Rb2  1  0.103336  0.001563  0.680012  1
  Rb  Rb3  1  0.696343  0.667510  0.906088  1
  Rb  Rb4  1  0.564107  0.663705  0.315900  1
  Rb  Rb5  1  0.896664  0.998437  0.319988  1
  As  As6  1  0.204185  0.333864  0.385769  1
  As  As7  1  0.795815  0.666136  0.614231  1
  As  As8  1  0.000000  0.000000  0.000000  1
  Br  Br9  1  0.286296  0.791780  0.115678  1
  Br  Br10  1  0.177329  0.671629  0.499396  1
  Br  Br11  1  0.822671  0.328371  0.500604  1
  Br  Br12  1  0.846959  0.325099  0.115088  1
  Br  Br13  1  0.249489  0.114802  0.883561  1
  Br  Br14  1  0.713704  0.208220  0.884322  1
  Br  Br15  1  0.500000  0.000000  0.500000  1
  Br  Br16  1  0.750511  0.885198  0.116439  1
  Br  Br17  1  0.153041  0.674901  0.884912  1
  F  F18  1  0.576797  0.662047  0.696005  1
  F  F19  1  0.769553  0.860179  0.695268  1
  F  F20  1  0.032453  0.529733  0.306644  1
  F  F21  1  0.967547  0.470267  0.693356  1
  F  F22  1  0.230447  0.139821  0.304732  1
  F  F23  1  0.423203  0.337953  0.303995  1
