# generated using pymatgen
data_KBa(Si2Au5)2
_symmetry_space_group_name_H-M   'P 1'
_cell_length_a   7.08931500
_cell_length_b   9.09252400
_cell_length_c   10.26238000
_cell_angle_alpha   90.00000000
_cell_angle_beta   90.00000000
_cell_angle_gamma   90.00000000
_symmetry_Int_Tables_number   1
_chemical_formula_structural   KBa(Si2Au5)2
_chemical_formula_sum   'K2 Ba2 Si8 Au20'
_cell_volume   661.51062142
_cell_formula_units_Z   2
loop_
 _symmetry_equiv_pos_site_id
 _symmetry_equiv_pos_as_xyz
  1  'x, y, z'
loop_
 _atom_site_type_symbol
 _atom_site_label
 _atom_site_symmetry_multiplicity
 _atom_site_fract_x
 _atom_site_fract_y
 _atom_site_fract_z
 _atom_site_occupancy
  K  K0  1  0.750000  0.753182  0.879780  1
  K  K1  1  0.750000  0.253182  0.620220  1
  Ba  Ba2  1  0.250000  0.248248  0.119994  1
  Ba  Ba3  1  0.250000  0.748248  0.380006  1
  Si  Si4  1  0.250000  0.041055  0.635398  1
  Si  Si5  1  0.250000  0.541055  0.864602  1
  Si  Si6  1  0.750000  0.957734  0.366407  1
  Si  Si7  1  0.750000  0.457734  0.133593  1
  Si  Si8  1  0.250000  0.327676  0.459225  1
  Si  Si9  1  0.250000  0.827676  0.040775  1
  Si  Si10  1  0.750000  0.671594  0.542875  1
  Si  Si11  1  0.750000  0.171594  0.957125  1
  Au  Au12  1  0.046087  0.099828  0.396024  1
  Au  Au13  1  0.453913  0.599828  0.103976  1
  Au  Au14  1  0.548128  0.901694  0.605427  1
  Au  Au15  1  0.951872  0.401694  0.894573  1
  Au  Au16  1  0.951872  0.901694  0.605427  1
  Au  Au17  1  0.548128  0.401694  0.894573  1
  Au  Au18  1  0.453913  0.099828  0.396024  1
  Au  Au19  1  0.046087  0.599828  0.103976  1
  Au  Au20  1  0.033547  0.069071  0.859596  1
  Au  Au21  1  0.466453  0.569071  0.640404  1
  Au  Au22  1  0.533926  0.930378  0.139391  1
  Au  Au23  1  0.966074  0.430378  0.360609  1
  Au  Au24  1  0.966074  0.930378  0.139391  1
  Au  Au25  1  0.533926  0.430378  0.360609  1
  Au  Au26  1  0.466453  0.069071  0.859596  1
  Au  Au27  1  0.033547  0.569071  0.640404  1
  Au  Au28  1  0.250000  0.302927  0.696862  1
  Au  Au29  1  0.250000  0.802927  0.803138  1
  Au  Au30  1  0.750000  0.695643  0.302241  1
  Au  Au31  1  0.750000  0.195643  0.197759  1
