# generated using pymatgen
data_Ce2Re3Si2WC2
_symmetry_space_group_name_H-M   'P 1'
_cell_length_a   5.86981964
_cell_length_b   5.86982169
_cell_length_c   7.42959957
_cell_angle_alpha   89.18003416
_cell_angle_beta   90.81996395
_cell_angle_gamma   140.39871580
_symmetry_Int_Tables_number   1
_chemical_formula_structural   Ce2Re3Si2WC2
_chemical_formula_sum   'Ce2 Re3 Si2 W1 C2'
_cell_volume   163.15673369
_cell_formula_units_Z   1
loop_
 _symmetry_equiv_pos_site_id
 _symmetry_equiv_pos_as_xyz
  1  'x, y, z'
loop_
 _atom_site_type_symbol
 _atom_site_label
 _atom_site_symmetry_multiplicity
 _atom_site_fract_x
 _atom_site_fract_y
 _atom_site_fract_z
 _atom_site_occupancy
  Ce  Ce0  1  0.541506  0.458494  0.251143  1
  Ce  Ce1  1  0.459761  0.540239  0.747765  1
  Re  Re2  1  0.180004  0.819996  0.941832  1
  Re  Re3  1  0.169129  0.830871  0.565021  1
  Re  Re4  1  0.828567  0.171433  0.434539  1
  Si  Si5  1  0.261044  0.738956  0.263470  1
  Si  Si6  1  0.735051  0.264949  0.737885  1
  W  W7  1  0.823676  0.176324  0.059395  1
  C  C8  1  0.002087  0.997913  0.999386  1
  C  C9  1  0.999176  0.000824  0.499564  1
