# generated using pymatgen
data_AlV3(SiRh5)2
_symmetry_space_group_name_H-M   'P 1'
_cell_length_a   3.96389000
_cell_length_b   5.34359277
_cell_length_c   10.35360739
_cell_angle_alpha   88.93290820
_cell_angle_beta   90.00000000
_cell_angle_gamma   90.00000000
_symmetry_Int_Tables_number   1
_chemical_formula_structural   AlV3(SiRh5)2
_chemical_formula_sum   'Al1 V3 Si2 Rh10'
_cell_volume   219.26601065
_cell_formula_units_Z   1
loop_
 _symmetry_equiv_pos_site_id
 _symmetry_equiv_pos_as_xyz
  1  'x, y, z'
loop_
 _atom_site_type_symbol
 _atom_site_label
 _atom_site_symmetry_multiplicity
 _atom_site_fract_x
 _atom_site_fract_y
 _atom_site_fract_z
 _atom_site_occupancy
  Al  Al0  1  0.500000  0.341712  0.144769  1
  V  V1  1  0.500000  0.166243  0.642760  1
  V  V2  1  0.500000  0.839118  0.352047  1
  V  V3  1  0.500000  0.658447  0.859982  1
  Si  Si4  1  0.000000  0.498519  0.503005  1
  Si  Si5  1  0.000000  0.981044  0.995813  1
  Rh  Rh6  1  0.500000  0.315110  0.401281  1
  Rh  Rh7  1  0.500000  0.689033  0.606035  1
  Rh  Rh8  1  0.500000  0.817624  0.103704  1
  Rh  Rh9  1  0.500000  0.178351  0.891169  1
  Rh  Rh10  1  0.000000  0.419615  0.738805  1
  Rh  Rh11  1  0.000000  0.600894  0.270849  1
  Rh  Rh12  1  0.000000  0.919357  0.759620  1
  Rh  Rh13  1  0.000000  0.090633  0.232325  1
  Rh  Rh14  1  0.000000  0.488248  0.001254  1
  Rh  Rh15  1  0.000000  0.996053  0.496584  1
