# generated using pymatgen
data_Sm3Lu5Hg4
_symmetry_space_group_name_H-M   'P 1'
_cell_length_a   5.01591700
_cell_length_b   7.19907735
_cell_length_c   9.16785483
_cell_angle_alpha   89.77213709
_cell_angle_beta   90.00000000
_cell_angle_gamma   90.00000000
_symmetry_Int_Tables_number   1
_chemical_formula_structural   Sm3Lu5Hg4
_chemical_formula_sum   'Sm3 Lu5 Hg4'
_cell_volume   331.04838581
_cell_formula_units_Z   1
loop_
 _symmetry_equiv_pos_site_id
 _symmetry_equiv_pos_as_xyz
  1  'x, y, z'
loop_
 _atom_site_type_symbol
 _atom_site_label
 _atom_site_symmetry_multiplicity
 _atom_site_fract_x
 _atom_site_fract_y
 _atom_site_fract_z
 _atom_site_occupancy
  Sm  Sm0  1  0.250000  0.982779  0.309946  1
  Sm  Sm1  1  0.750000  0.517006  0.809416  1
  Sm  Sm2  1  0.750000  0.016635  0.689843  1
  Lu  Lu3  1  0.250000  0.837171  0.930518  1
  Lu  Lu4  1  0.250000  0.339135  0.571361  1
  Lu  Lu5  1  0.750000  0.165608  0.074579  1
  Lu  Lu6  1  0.750000  0.659565  0.422355  1
  Lu  Lu7  1  0.250000  0.482307  0.188829  1
  Hg  Hg8  1  0.250000  0.254913  0.899624  1
  Hg  Hg9  1  0.250000  0.752458  0.605843  1
  Hg  Hg10  1  0.750000  0.742468  0.103884  1
  Hg  Hg11  1  0.750000  0.249953  0.393804  1
