# generated using pymatgen
data_Nd3Hg3Pd2Rh
_symmetry_space_group_name_H-M   'P 1'
_cell_length_a   7.76809700
_cell_length_b   7.76809545
_cell_length_c   3.99265500
_cell_angle_alpha   90.00000000
_cell_angle_beta   90.00000000
_cell_angle_gamma   119.99998529
_symmetry_Int_Tables_number   1
_chemical_formula_structural   Nd3Hg3Pd2Rh
_chemical_formula_sum   'Nd3 Hg3 Pd2 Rh1'
_cell_volume   208.65157850
_cell_formula_units_Z   1
loop_
 _symmetry_equiv_pos_site_id
 _symmetry_equiv_pos_as_xyz
  1  'x, y, z'
loop_
 _atom_site_type_symbol
 _atom_site_label
 _atom_site_symmetry_multiplicity
 _atom_site_fract_x
 _atom_site_fract_y
 _atom_site_fract_z
 _atom_site_occupancy
  Nd  Nd0  1  0.409718  0.397774  0.000000  1
  Nd  Nd1  1  0.602226  0.011945  0.000000  1
  Nd  Nd2  1  0.988055  0.590282  0.000000  1
  Hg  Hg3  1  0.737753  0.739673  0.500000  1
  Hg  Hg4  1  0.260327  0.998082  0.500000  1
  Hg  Hg5  1  0.001918  0.262247  0.500000  1
  Pd  Pd6  1  0.000000  0.000000  0.000000  1
  Pd  Pd7  1  0.333333  0.666667  0.500000  1
  Rh  Rh8  1  0.666667  0.333333  0.500000  1
