# generated using pymatgen
data_Tm3As2S
_symmetry_space_group_name_H-M   'P 1'
_cell_length_a   6.95256879
_cell_length_b   6.95256922
_cell_length_c   6.95256900
_cell_angle_alpha   146.42349778
_cell_angle_beta   131.88473610
_cell_angle_gamma   59.94822567
_symmetry_Int_Tables_number   1
_chemical_formula_structural   Tm3As2S
_chemical_formula_sum   'Tm3 As2 S1'
_cell_volume   137.11452486
_cell_formula_units_Z   1
loop_
 _symmetry_equiv_pos_site_id
 _symmetry_equiv_pos_as_xyz
  1  'x, y, z'
loop_
 _atom_site_type_symbol
 _atom_site_label
 _atom_site_symmetry_multiplicity
 _atom_site_fract_x
 _atom_site_fract_y
 _atom_site_fract_z
 _atom_site_occupancy
  Tm  Tm0  1  0.000000  0.000000  0.000000  1
  Tm  Tm1  1  0.666633  0.666633  0.000000  1
  Tm  Tm2  1  0.333367  0.333367  0.000000  1
  As  As3  1  0.166498  0.666498  0.500000  1
  As  As4  1  0.833502  0.333502  0.500000  1
  S  S5  1  0.500000  0.000000  0.500000  1
