# generated using pymatgen
data_Ag2RuCl6
_symmetry_space_group_name_H-M   'P 1'
_cell_length_a   7.04715355
_cell_length_b   7.04715266
_cell_length_c   7.04715238
_cell_angle_alpha   56.23374681
_cell_angle_beta   56.23375429
_cell_angle_gamma   56.23374595
_symmetry_Int_Tables_number   1
_chemical_formula_structural   Ag2RuCl6
_chemical_formula_sum   'Ag2 Ru1 Cl6'
_cell_volume   225.90237223
_cell_formula_units_Z   1
loop_
 _symmetry_equiv_pos_site_id
 _symmetry_equiv_pos_as_xyz
  1  'x, y, z'
loop_
 _atom_site_type_symbol
 _atom_site_label
 _atom_site_symmetry_multiplicity
 _atom_site_fract_x
 _atom_site_fract_y
 _atom_site_fract_z
 _atom_site_occupancy
  Ag  Ag0  1  0.765721  0.765721  0.765721  1
  Ag  Ag1  1  0.234279  0.234279  0.234279  1
  Ru  Ru2  1  0.500000  0.500000  0.500000  1
  Cl  Cl3  1  0.391357  0.151197  0.726312  1
  Cl  Cl4  1  0.151197  0.726312  0.391357  1
  Cl  Cl5  1  0.726312  0.391357  0.151197  1
  Cl  Cl6  1  0.273688  0.608643  0.848803  1
  Cl  Cl7  1  0.848803  0.273688  0.608643  1
  Cl  Cl8  1  0.608643  0.848803  0.273688  1
