# generated using pymatgen
data_Cs5Mn3Se7
_symmetry_space_group_name_H-M   'P 1'
_cell_length_a   11.42653931
_cell_length_b   11.42653902
_cell_length_c   9.63095739
_cell_angle_alpha   74.72663782
_cell_angle_beta   74.72663892
_cell_angle_gamma   70.10092065
_symmetry_Int_Tables_number   1
_chemical_formula_structural   Cs5Mn3Se7
_chemical_formula_sum   'Cs10 Mn6 Se14'
_cell_volume   1119.50789012
_cell_formula_units_Z   2
loop_
 _symmetry_equiv_pos_site_id
 _symmetry_equiv_pos_as_xyz
  1  'x, y, z'
loop_
 _atom_site_type_symbol
 _atom_site_label
 _atom_site_symmetry_multiplicity
 _atom_site_fract_x
 _atom_site_fract_y
 _atom_site_fract_z
 _atom_site_occupancy
  Cs  Cs0  1  0.022429  0.436801  0.726766  1
  Cs  Cs1  1  0.436801  0.022429  0.726766  1
  Cs  Cs2  1  0.977571  0.563199  0.273234  1
  Cs  Cs3  1  0.563199  0.977571  0.273234  1
  Cs  Cs4  1  0.282811  0.717189  0.000000  1
  Cs  Cs5  1  0.717189  0.282811  0.000000  1
  Cs  Cs6  1  0.847777  0.152223  0.500000  1
  Cs  Cs7  1  0.152223  0.847777  0.500000  1
  Cs  Cs8  1  0.424420  0.424420  0.700475  1
  Cs  Cs9  1  0.575580  0.575580  0.299525  1
  Mn  Mn10  1  0.210048  0.210048  0.182863  1
  Mn  Mn11  1  0.789952  0.789952  0.817137  1
  Mn  Mn12  1  0.072444  0.072444  0.058475  1
  Mn  Mn13  1  0.927556  0.927556  0.941525  1
  Mn  Mn14  1  0.342668  0.342668  0.336272  1
  Mn  Mn15  1  0.657332  0.657332  0.663728  1
  Se  Se16  1  0.996981  0.286415  0.119664  1
  Se  Se17  1  0.286415  0.996981  0.119664  1
  Se  Se18  1  0.003019  0.713585  0.880336  1
  Se  Se19  1  0.713585  0.003019  0.880336  1
  Se  Se20  1  0.207778  0.207778  0.441577  1
  Se  Se21  1  0.792222  0.792222  0.558423  1
  Se  Se22  1  0.064544  0.064544  0.808249  1
  Se  Se23  1  0.935456  0.935456  0.191751  1
  Se  Se24  1  0.349028  0.349028  0.083938  1
  Se  Se25  1  0.650972  0.650972  0.916062  1
  Se  Se26  1  0.257659  0.543159  0.398885  1
  Se  Se27  1  0.543159  0.257659  0.398885  1
  Se  Se28  1  0.742341  0.456841  0.601115  1
  Se  Se29  1  0.456841  0.742341  0.601115  1
