# generated using pymatgen
data_HoLu(ScAu)2
_symmetry_space_group_name_H-M   'P 1'
_cell_length_a   4.75631600
_cell_length_b   6.97026100
_cell_length_c   8.56056800
_cell_angle_alpha   90.00000000
_cell_angle_beta   90.00000000
_cell_angle_gamma   90.00000000
_symmetry_Int_Tables_number   1
_chemical_formula_structural   HoLu(ScAu)2
_chemical_formula_sum   'Ho2 Lu2 Sc4 Au4'
_cell_volume   283.80648991
_cell_formula_units_Z   2
loop_
 _symmetry_equiv_pos_site_id
 _symmetry_equiv_pos_as_xyz
  1  'x, y, z'
loop_
 _atom_site_type_symbol
 _atom_site_label
 _atom_site_symmetry_multiplicity
 _atom_site_fract_x
 _atom_site_fract_y
 _atom_site_fract_z
 _atom_site_occupancy
  Ho  Ho0  1  0.750000  0.517269  0.821562  1
  Ho  Ho1  1  0.750000  0.017269  0.678438  1
  Lu  Lu2  1  0.250000  0.482337  0.180113  1
  Lu  Lu3  1  0.250000  0.982337  0.319887  1
  Sc  Sc4  1  0.250000  0.854041  0.925145  1
  Sc  Sc5  1  0.250000  0.354041  0.574855  1
  Sc  Sc6  1  0.750000  0.145972  0.079004  1
  Sc  Sc7  1  0.750000  0.645972  0.420996  1
  Au  Au8  1  0.250000  0.247112  0.899165  1
  Au  Au9  1  0.250000  0.747112  0.600835  1
  Au  Au10  1  0.750000  0.753270  0.104495  1
  Au  Au11  1  0.750000  0.253270  0.395505  1
