# generated using pymatgen
data_TbCe7Ru6
_symmetry_space_group_name_H-M   'P 1'
_cell_length_a   8.08191525
_cell_length_b   8.04687713
_cell_length_c   6.02499264
_cell_angle_alpha   78.23722345
_cell_angle_beta   74.11044093
_cell_angle_gamma   116.90340084
_symmetry_Int_Tables_number   1
_chemical_formula_structural   TbCe7Ru6
_chemical_formula_sum   'Tb1 Ce7 Ru6'
_cell_volume   310.56818846
_cell_formula_units_Z   1
loop_
 _symmetry_equiv_pos_site_id
 _symmetry_equiv_pos_as_xyz
  1  'x, y, z'
loop_
 _atom_site_type_symbol
 _atom_site_label
 _atom_site_symmetry_multiplicity
 _atom_site_fract_x
 _atom_site_fract_y
 _atom_site_fract_z
 _atom_site_occupancy
  Tb  Tb0  1  0.882408  0.611224  0.159636  1
  Ce  Ce1  1  0.351039  0.349660  0.271378  1
  Ce  Ce2  1  0.120034  0.389644  0.830833  1
  Ce  Ce3  1  0.383912  0.118761  0.835675  1
  Ce  Ce4  1  0.161114  0.831234  0.501962  1
  Ce  Ce5  1  0.648408  0.653213  0.724645  1
  Ce  Ce6  1  0.835222  0.169217  0.494896  1
  Ce  Ce7  1  0.614965  0.883649  0.161927  1
  Ru  Ru8  1  0.818839  0.426857  0.741342  1
  Ru  Ru9  1  0.990504  0.994682  0.259390  1
  Ru  Ru10  1  0.409180  0.823892  0.751559  1
  Ru  Ru11  1  0.578799  0.167582  0.252013  1
  Ru  Ru12  1  0.004623  0.010323  0.756273  1
  Ru  Ru13  1  0.200953  0.570063  0.258472  1
