# generated using pymatgen
data_Li4Ho3ErSi8
_symmetry_space_group_name_H-M   'P 1'
_cell_length_a   3.78029300
_cell_length_b   7.57474830
_cell_length_c   10.12019314
_cell_angle_alpha   90.03951155
_cell_angle_beta   90.00000000
_cell_angle_gamma   90.00000000
_symmetry_Int_Tables_number   1
_chemical_formula_structural   Li4Ho3ErSi8
_chemical_formula_sum   'Li4 Ho3 Er1 Si8'
_cell_volume   289.78931351
_cell_formula_units_Z   1
loop_
 _symmetry_equiv_pos_site_id
 _symmetry_equiv_pos_as_xyz
  1  'x, y, z'
loop_
 _atom_site_type_symbol
 _atom_site_label
 _atom_site_symmetry_multiplicity
 _atom_site_fract_x
 _atom_site_fract_y
 _atom_site_fract_z
 _atom_site_occupancy
  Li  Li0  1  0.250000  0.992903  0.392440  1
  Li  Li1  1  0.750000  0.011422  0.608353  1
  Li  Li2  1  0.250000  0.488559  0.108841  1
  Li  Li3  1  0.750000  0.509718  0.893155  1
  Ho  Ho4  1  0.250000  0.136023  0.863074  1
  Ho  Ho5  1  0.750000  0.861302  0.136030  1
  Ho  Ho6  1  0.250000  0.637967  0.636006  1
  Er  Er7  1  0.750000  0.362550  0.363309  1
  Si  Si8  1  0.750000  0.266212  0.066891  1
  Si  Si9  1  0.250000  0.731697  0.932781  1
  Si  Si10  1  0.750000  0.768768  0.432521  1
  Si  Si11  1  0.250000  0.234686  0.566631  1
  Si  Si12  1  0.750000  0.841352  0.818878  1
  Si  Si13  1  0.250000  0.156325  0.180322  1
  Si  Si14  1  0.750000  0.343987  0.680656  1
  Si  Si15  1  0.250000  0.656529  0.320114  1
