# generated using pymatgen
data_TiVBr6
_symmetry_space_group_name_H-M   'P 1'
_cell_length_a   9.85851608
_cell_length_b   6.27134442
_cell_length_c   9.25323691
_cell_angle_alpha   54.44802605
_cell_angle_beta   66.02115510
_cell_angle_gamma   47.76165822
_symmetry_Int_Tables_number   1
_chemical_formula_structural   TiVBr6
_chemical_formula_sum   'Ti1 V1 Br6'
_cell_volume   344.48152278
_cell_formula_units_Z   1
loop_
 _symmetry_equiv_pos_site_id
 _symmetry_equiv_pos_as_xyz
  1  'x, y, z'
loop_
 _atom_site_type_symbol
 _atom_site_label
 _atom_site_symmetry_multiplicity
 _atom_site_fract_x
 _atom_site_fract_y
 _atom_site_fract_z
 _atom_site_occupancy
  Ti  Ti0  1  0.513594  0.254904  0.569263  1
  V  V1  1  0.514021  0.768419  0.570227  1
  Br  Br2  1  0.233900  0.288728  0.596497  1
  Br  Br3  1  0.637452  0.097164  0.322428  1
  Br  Br4  1  0.358133  0.859483  0.354660  1
  Br  Br5  1  0.670051  0.660731  0.791861  1
  Br  Br6  1  0.395756  0.425680  0.812666  1
  Br  Br7  1  0.787559  0.243572  0.542848  1
