# generated using pymatgen
data_Lu20Ga2Bi9Te
_symmetry_space_group_name_H-M   'P 1'
_cell_length_a   8.00980105
_cell_length_b   9.28746200
_cell_length_c   11.71082683
_cell_angle_alpha   90.00000000
_cell_angle_beta   90.15561292
_cell_angle_gamma   90.00000000
_symmetry_Int_Tables_number   1
_chemical_formula_structural   Lu20Ga2Bi9Te
_chemical_formula_sum   'Lu20 Ga2 Bi9 Te1'
_cell_volume   871.17366046
_cell_formula_units_Z   1
loop_
 _symmetry_equiv_pos_site_id
 _symmetry_equiv_pos_as_xyz
  1  'x, y, z'
loop_
 _atom_site_type_symbol
 _atom_site_label
 _atom_site_symmetry_multiplicity
 _atom_site_fract_x
 _atom_site_fract_y
 _atom_site_fract_z
 _atom_site_occupancy
  Lu  Lu0  1  0.035381  0.250000  0.507866  1
  Lu  Lu1  1  0.979209  0.750000  0.490313  1
  Lu  Lu2  1  0.460716  0.750000  0.010342  1
  Lu  Lu3  1  0.521409  0.250000  0.990918  1
  Lu  Lu4  1  0.349999  0.250000  0.294060  1
  Lu  Lu5  1  0.651945  0.750000  0.713604  1
  Lu  Lu6  1  0.149365  0.750000  0.791572  1
  Lu  Lu7  1  0.846463  0.250000  0.217317  1
  Lu  Lu8  1  0.196664  0.250000  0.775356  1
  Lu  Lu9  1  0.823193  0.750000  0.208625  1
  Lu  Lu10  1  0.311179  0.750000  0.281890  1
  Lu  Lu11  1  0.675865  0.250000  0.708439  1
  Lu  Lu12  1  0.190777  0.051663  0.060054  1
  Lu  Lu13  1  0.814609  0.927139  0.945190  1
  Lu  Lu14  1  0.310294  0.945397  0.558321  1
  Lu  Lu15  1  0.814609  0.572861  0.945190  1
  Lu  Lu16  1  0.682424  0.070983  0.446461  1
  Lu  Lu17  1  0.190777  0.448337  0.060054  1
  Lu  Lu18  1  0.682424  0.429017  0.446461  1
  Lu  Lu19  1  0.310294  0.554603  0.558321  1
  Ga  Ga20  1  0.404089  0.250000  0.540214  1
  Ga  Ga21  1  0.094076  0.750000  0.039342  1
  Bi  Bi22  1  0.906878  0.250000  0.954239  1
  Bi  Bi23  1  0.058646  0.001564  0.322144  1
  Bi  Bi24  1  0.938029  0.997944  0.675954  1
  Bi  Bi25  1  0.441520  0.996576  0.823225  1
  Bi  Bi26  1  0.938029  0.502056  0.675954  1
  Bi  Bi27  1  0.561719  0.002051  0.178108  1
  Bi  Bi28  1  0.058646  0.498436  0.322144  1
  Bi  Bi29  1  0.561719  0.497949  0.178108  1
  Bi  Bi30  1  0.441520  0.503424  0.823225  1
  Te  Te31  1  0.597535  0.750000  0.456989  1
