# generated using pymatgen
data_PrHoCoSi5Rh2
_symmetry_space_group_name_H-M   'P 1'
_cell_length_a   8.12203285
_cell_length_b   8.12386324
_cell_length_c   8.12386341
_cell_angle_alpha   138.48000091
_cell_angle_beta   105.30492888
_cell_angle_gamma   89.27669384
_symmetry_Int_Tables_number   1
_chemical_formula_structural   PrHoCoSi5Rh2
_chemical_formula_sum   'Pr2 Ho2 Co2 Si10 Rh4'
_cell_volume   328.06209765
_cell_formula_units_Z   2
loop_
 _symmetry_equiv_pos_site_id
 _symmetry_equiv_pos_as_xyz
  1  'x, y, z'
loop_
 _atom_site_type_symbol
 _atom_site_label
 _atom_site_symmetry_multiplicity
 _atom_site_fract_x
 _atom_site_fract_y
 _atom_site_fract_z
 _atom_site_occupancy
  Pr  Pr0  1  0.600932  0.867579  0.733354  1
  Pr  Pr1  1  0.136065  0.368644  0.767419  1
  Ho  Ho2  1  0.864027  0.631804  0.232224  1
  Ho  Ho3  1  0.399256  0.131335  0.267922  1
  Co  Co4  1  0.471229  0.363088  0.108141  1
  Co  Co5  1  0.747139  0.136986  0.610152  1
  Si  Si6  1  0.772261  0.032253  0.265328  1
  Si  Si7  1  0.229823  0.988697  0.765627  1
  Si  Si8  1  0.772261  0.506933  0.740009  1
  Si  Si9  1  0.944403  0.108718  0.835686  1
  Si  Si10  1  0.044717  0.892967  0.151750  1
  Si  Si11  1  0.511946  0.251925  0.758114  1
  Si  Si12  1  0.511946  0.753832  0.260020  1
  Si  Si13  1  0.728402  0.392259  0.336144  1
  Si  Si14  1  0.260293  0.607562  0.652731  1
  Si  Si15  1  0.229823  0.464195  0.241125  1
  Rh  Rh16  1  0.996649  0.251134  0.245775  1
  Rh  Rh17  1  0.996649  0.750875  0.745515  1
  Rh  Rh18  1  0.253630  0.861579  0.392052  1
  Rh  Rh19  1  0.528548  0.637636  0.890912  1
