# generated using pymatgen
data_Ho7TmIn8
_symmetry_space_group_name_H-M   'P 1'
_cell_length_a   6.45872300
_cell_length_b   6.45872260
_cell_length_c   10.24123400
_cell_angle_alpha   90.00000000
_cell_angle_beta   90.00000000
_cell_angle_gamma   103.22042111
_symmetry_Int_Tables_number   1
_chemical_formula_structural   Ho7TmIn8
_chemical_formula_sum   'Ho7 Tm1 In8'
_cell_volume   415.89184068
_cell_formula_units_Z   1
loop_
 _symmetry_equiv_pos_site_id
 _symmetry_equiv_pos_as_xyz
  1  'x, y, z'
loop_
 _atom_site_type_symbol
 _atom_site_label
 _atom_site_symmetry_multiplicity
 _atom_site_fract_x
 _atom_site_fract_y
 _atom_site_fract_z
 _atom_site_occupancy
  Ho  Ho0  1  0.987013  0.987013  0.250000  1
  Ho  Ho1  1  0.521668  0.521668  0.250000  1
  Ho  Ho2  1  0.477692  0.477692  0.750000  1
  Ho  Ho3  1  0.247939  0.752274  0.500322  1
  Ho  Ho4  1  0.247939  0.752274  0.999678  1
  Ho  Ho5  1  0.752274  0.247939  0.500322  1
  Ho  Ho6  1  0.752274  0.247939  0.999678  1
  Tm  Tm7  1  0.012799  0.012799  0.750000  1
  In  In8  1  0.252196  0.252196  0.011562  1
  In  In9  1  0.747922  0.747922  0.987552  1
  In  In10  1  0.252196  0.252196  0.488438  1
  In  In11  1  0.747922  0.747922  0.512448  1
  In  In12  1  0.492218  0.014686  0.250000  1
  In  In13  1  0.985434  0.507829  0.750000  1
  In  In14  1  0.507829  0.985434  0.750000  1
  In  In15  1  0.014686  0.492218  0.250000  1
