# generated using pymatgen
data_LiTbPr(P3Pd10)2
_symmetry_space_group_name_H-M   'P 1'
_cell_length_a   8.66878163
_cell_length_b   8.66878135
_cell_length_c   8.66878100
_cell_angle_alpha   59.99999752
_cell_angle_beta   59.99999857
_cell_angle_gamma   59.99999579
_symmetry_Int_Tables_number   1
_chemical_formula_structural   LiTbPr(P3Pd10)2
_chemical_formula_sum   'Li1 Tb1 Pr1 P6 Pd20'
_cell_volume   460.63731789
_cell_formula_units_Z   1
loop_
 _symmetry_equiv_pos_site_id
 _symmetry_equiv_pos_as_xyz
  1  'x, y, z'
loop_
 _atom_site_type_symbol
 _atom_site_label
 _atom_site_symmetry_multiplicity
 _atom_site_fract_x
 _atom_site_fract_y
 _atom_site_fract_z
 _atom_site_occupancy
  Li  Li0  1  0.000000  0.000000  0.000000  1
  Tb  Tb1  1  0.250000  0.250000  0.250000  1
  Pr  Pr2  1  0.750000  0.750000  0.750000  1
  P  P3  1  0.740247  0.259753  0.259753  1
  P  P4  1  0.259753  0.740247  0.740247  1
  P  P5  1  0.259753  0.740247  0.259753  1
  P  P6  1  0.740247  0.259753  0.740247  1
  P  P7  1  0.259753  0.259753  0.740247  1
  P  P8  1  0.740247  0.740247  0.259753  1
  Pd  Pd9  1  0.383771  0.383771  0.383771  1
  Pd  Pd10  1  0.611917  0.611917  0.611917  1
  Pd  Pd11  1  0.383771  0.383771  0.848689  1
  Pd  Pd12  1  0.383771  0.848689  0.383771  1
  Pd  Pd13  1  0.611917  0.611917  0.164247  1
  Pd  Pd14  1  0.611917  0.164247  0.611917  1
  Pd  Pd15  1  0.848689  0.383771  0.383771  1
  Pd  Pd16  1  0.164247  0.611917  0.611917  1
  Pd  Pd17  1  0.343902  0.001433  0.001433  1
  Pd  Pd18  1  0.653231  0.001433  0.001433  1
  Pd  Pd19  1  0.001433  0.343902  0.653231  1
  Pd  Pd20  1  0.001433  0.653231  0.343902  1
  Pd  Pd21  1  0.001433  0.343902  0.001433  1
  Pd  Pd22  1  0.653231  0.001433  0.343902  1
  Pd  Pd23  1  0.001433  0.653231  0.001433  1
  Pd  Pd24  1  0.343902  0.001433  0.653231  1
  Pd  Pd25  1  0.001433  0.001433  0.343902  1
  Pd  Pd26  1  0.001433  0.001433  0.653231  1
  Pd  Pd27  1  0.653231  0.343902  0.001433  1
  Pd  Pd28  1  0.343902  0.653231  0.001433  1
