# generated using pymatgen
data_Tb4Dy8Co4BiIr
_symmetry_space_group_name_H-M   'P 1'
_cell_length_a   8.35071607
_cell_length_b   8.35071678
_cell_length_c   8.35071574
_cell_angle_alpha   111.35246791
_cell_angle_beta   110.40592816
_cell_angle_gamma   106.69199769
_symmetry_Int_Tables_number   1
_chemical_formula_structural   Tb4Dy8Co4BiIr
_chemical_formula_sum   'Tb4 Dy8 Co4 Bi1 Ir1'
_cell_volume   447.46151936
_cell_formula_units_Z   1
loop_
 _symmetry_equiv_pos_site_id
 _symmetry_equiv_pos_as_xyz
  1  'x, y, z'
loop_
 _atom_site_type_symbol
 _atom_site_label
 _atom_site_symmetry_multiplicity
 _atom_site_fract_x
 _atom_site_fract_y
 _atom_site_fract_z
 _atom_site_occupancy
  Tb  Tb0  1  0.593110  0.790328  0.802782  1
  Tb  Tb1  1  0.406890  0.209672  0.197218  1
  Tb  Tb2  1  0.987545  0.790328  0.197218  1
  Tb  Tb3  1  0.012455  0.209672  0.802782  1
  Dy  Dy4  1  0.817833  0.711731  0.529565  1
  Dy  Dy5  1  0.182167  0.288269  0.470435  1
  Dy  Dy6  1  0.182167  0.711731  0.893900  1
  Dy  Dy7  1  0.817833  0.288269  0.106100  1
  Dy  Dy8  1  0.687643  0.378427  0.690784  1
  Dy  Dy9  1  0.312357  0.621573  0.309216  1
  Dy  Dy10  1  0.687643  0.996860  0.309216  1
  Dy  Dy11  1  0.312357  0.003140  0.690784  1
  Co  Co12  1  0.621931  0.000000  0.621931  1
  Co  Co13  1  0.378069  0.000000  0.378069  1
  Co  Co14  1  0.110675  0.610675  0.500000  1
  Co  Co15  1  0.889325  0.389325  0.500000  1
  Bi  Bi16  1  0.500000  0.500000  0.000000  1
  Ir  Ir17  1  0.000000  0.000000  0.000000  1
