# generated using pymatgen
data_Sn3(ClO)2
_symmetry_space_group_name_H-M   'P 1'
_cell_length_a   5.74005500
_cell_length_b   9.62037361
_cell_length_c   12.05564307
_cell_angle_alpha   89.98481761
_cell_angle_beta   90.00000000
_cell_angle_gamma   90.00000000
_symmetry_Int_Tables_number   1
_chemical_formula_structural   Sn3(ClO)2
_chemical_formula_sum   'Sn12 Cl8 O8'
_cell_volume   665.73035257
_cell_formula_units_Z   4
loop_
 _symmetry_equiv_pos_site_id
 _symmetry_equiv_pos_as_xyz
  1  'x, y, z'
loop_
 _atom_site_type_symbol
 _atom_site_label
 _atom_site_symmetry_multiplicity
 _atom_site_fract_x
 _atom_site_fract_y
 _atom_site_fract_z
 _atom_site_occupancy
  Sn  Sn0  1  0.500000  0.284966  0.932188  1
  Sn  Sn1  1  0.500000  0.215245  0.432370  1
  Sn  Sn2  1  0.000000  0.714824  0.068120  1
  Sn  Sn3  1  0.000000  0.784767  0.567417  1
  Sn  Sn4  1  0.500000  0.861127  0.214036  1
  Sn  Sn5  1  0.500000  0.639330  0.713811  1
  Sn  Sn6  1  0.000000  0.138964  0.785921  1
  Sn  Sn7  1  0.000000  0.360662  0.286025  1
  Sn  Sn8  1  0.500000  0.918926  0.923963  1
  Sn  Sn9  1  0.500000  0.580850  0.423833  1
  Sn  Sn10  1  0.000000  0.081149  0.076114  1
  Sn  Sn11  1  0.000000  0.418976  0.576144  1
  Cl  Cl12  1  0.500000  0.603258  0.129875  1
  Cl  Cl13  1  0.500000  0.208014  0.205937  1
  Cl  Cl14  1  0.500000  0.292252  0.705739  1
  Cl  Cl15  1  0.000000  0.792356  0.793867  1
  Cl  Cl16  1  0.000000  0.707833  0.294271  1
  Cl  Cl17  1  0.500000  0.896889  0.629614  1
  Cl  Cl18  1  0.000000  0.396807  0.870163  1
  Cl  Cl19  1  0.000000  0.103037  0.370383  1
  O  O20  1  0.244935  0.895225  0.080180  1
  O  O21  1  0.755127  0.604963  0.579875  1
  O  O22  1  0.744648  0.104701  0.919942  1
  O  O23  1  0.255549  0.394995  0.420107  1
  O  O24  1  0.255352  0.104701  0.919942  1
  O  O25  1  0.744451  0.394995  0.420107  1
  O  O26  1  0.755065  0.895225  0.080180  1
  O  O27  1  0.244873  0.604963  0.579875  1
