# generated using pymatgen
data_Ca20Zn3(CdNi2)3
_symmetry_space_group_name_H-M   'P 1'
_cell_length_a   7.84208418
_cell_length_b   7.84208418
_cell_length_c   14.74045383
_cell_angle_alpha   90.03952689
_cell_angle_beta   90.03952689
_cell_angle_gamma   91.03637625
_symmetry_Int_Tables_number   1
_chemical_formula_structural   Ca20Zn3(CdNi2)3
_chemical_formula_sum   'Ca20 Zn3 Cd3 Ni6'
_cell_volume   906.36388771
_cell_formula_units_Z   1
loop_
 _symmetry_equiv_pos_site_id
 _symmetry_equiv_pos_as_xyz
  1  'x, y, z'
loop_
 _atom_site_type_symbol
 _atom_site_label
 _atom_site_symmetry_multiplicity
 _atom_site_fract_x
 _atom_site_fract_y
 _atom_site_fract_z
 _atom_site_occupancy
  Ca  Ca0  1  0.675362  0.176643  0.113018  1
  Ca  Ca1  1  0.172118  0.679508  0.615427  1
  Ca  Ca2  1  0.316310  0.832434  0.113153  1
  Ca  Ca3  1  0.819316  0.329200  0.615623  1
  Ca  Ca4  1  0.841842  0.665203  0.112526  1
  Ca  Ca5  1  0.339346  0.161819  0.615143  1
  Ca  Ca6  1  0.164825  0.327848  0.113698  1
  Ca  Ca7  1  0.667644  0.830844  0.616541  1
  Ca  Ca8  1  0.823357  0.324638  0.886982  1
  Ca  Ca9  1  0.320492  0.827882  0.384573  1
  Ca  Ca10  1  0.167566  0.683690  0.886847  1
  Ca  Ca11  1  0.670800  0.180684  0.384377  1
  Ca  Ca12  1  0.672152  0.835175  0.886302  1
  Ca  Ca13  1  0.169156  0.332356  0.383459  1
  Ca  Ca14  1  0.334797  0.158158  0.887474  1
  Ca  Ca15  1  0.838181  0.660654  0.384857  1
  Ca  Ca16  1  0.506920  0.502927  0.753642  1
  Ca  Ca17  1  0.006340  0.002917  0.250500  1
  Ca  Ca18  1  0.997083  0.993660  0.749500  1
  Ca  Ca19  1  0.497073  0.493080  0.246358  1
  Zn  Zn20  1  0.112111  0.388952  0.751317  1
  Zn  Zn21  1  0.611048  0.887889  0.248683  1
  Zn  Zn22  1  0.999038  0.000962  0.000000  1
  Cd  Cd23  1  0.498298  0.501702  0.500000  1
  Cd  Cd24  1  0.498205  0.501795  0.000000  1
  Cd  Cd25  1  0.998280  0.001720  0.500000  1
  Ni  Ni26  1  0.610719  0.109726  0.751530  1
  Ni  Ni27  1  0.110259  0.610073  0.248539  1
  Ni  Ni28  1  0.890274  0.389281  0.248470  1
  Ni  Ni29  1  0.389927  0.889741  0.751461  1
  Ni  Ni30  1  0.890661  0.609502  0.751552  1
  Ni  Ni31  1  0.390498  0.109339  0.248448  1
