# generated using pymatgen
data_Tb4CeCo19P12
_symmetry_space_group_name_H-M   'P 1'
_cell_length_a   11.97318300
_cell_length_b   12.00481900
_cell_length_c   3.69307000
_cell_angle_alpha   90.00000000
_cell_angle_beta   90.00000000
_cell_angle_gamma   119.91286128
_symmetry_Int_Tables_number   1
_chemical_formula_structural   Tb4CeCo19P12
_chemical_formula_sum   'Tb4 Ce1 Co19 P12'
_cell_volume   460.11254920
_cell_formula_units_Z   1
loop_
 _symmetry_equiv_pos_site_id
 _symmetry_equiv_pos_as_xyz
  1  'x, y, z'
loop_
 _atom_site_type_symbol
 _atom_site_label
 _atom_site_symmetry_multiplicity
 _atom_site_fract_x
 _atom_site_fract_y
 _atom_site_fract_z
 _atom_site_occupancy
  Tb  Tb0  1  0.334076  0.667483  0.000000  1
  Tb  Tb1  1  0.666594  0.332517  0.000000  1
  Tb  Tb2  1  0.999438  0.188881  0.500000  1
  Tb  Tb3  1  0.810558  0.811119  0.500000  1
  Ce  Ce4  1  0.183884  0.000000  0.500000  1
  Co  Co5  1  0.199467  0.379590  0.000000  1
  Co  Co6  1  0.622753  0.822077  0.000000  1
  Co  Co7  1  0.177871  0.800141  0.000000  1
  Co  Co8  1  0.819876  0.620410  0.000000  1
  Co  Co9  1  0.800676  0.177923  0.000000  1
  Co  Co10  1  0.377730  0.199859  0.000000  1
  Co  Co11  1  0.554747  0.000000  0.000000  1
  Co  Co12  1  0.999453  0.553146  0.000000  1
  Co  Co13  1  0.446307  0.446854  0.000000  1
  Co  Co14  1  0.124735  0.485291  0.500000  1
  Co  Co15  1  0.516119  0.640633  0.500000  1
  Co  Co16  1  0.360286  0.875726  0.500000  1
  Co  Co17  1  0.639444  0.514709  0.500000  1
  Co  Co18  1  0.875486  0.359367  0.500000  1
  Co  Co19  1  0.484560  0.124274  0.500000  1
  Co  Co20  1  0.715422  0.000000  0.500000  1
  Co  Co21  1  0.998962  0.712560  0.500000  1
  Co  Co22  1  0.286402  0.287440  0.500000  1
  Co  Co23  1  0.003347  0.000000  0.000000  1
  P  P24  1  0.370792  0.000000  0.000000  1
  P  P25  1  0.000004  0.369556  0.000000  1
  P  P26  1  0.630448  0.630444  0.000000  1
  P  P27  1  0.313208  0.480874  0.500000  1
  P  P28  1  0.521377  0.833598  0.500000  1
  P  P29  1  0.167067  0.687499  0.500000  1
  P  P30  1  0.832335  0.519126  0.500000  1
  P  P31  1  0.687779  0.166402  0.500000  1
  P  P32  1  0.479569  0.312501  0.500000  1
  P  P33  1  0.821218  0.000000  0.000000  1
  P  P34  1  0.996536  0.815061  0.000000  1
  P  P35  1  0.181474  0.184939  0.000000  1
