# generated using pymatgen
data_TbY3Tm4(ReB6)4
_symmetry_space_group_name_H-M   'P 1'
_cell_length_a   3.66046700
_cell_length_b   9.14264200
_cell_length_c   11.53813000
_cell_angle_alpha   90.00170641
_cell_angle_beta   90.00000000
_cell_angle_gamma   90.00000000
_symmetry_Int_Tables_number   1
_chemical_formula_structural   TbY3Tm4(ReB6)4
_chemical_formula_sum   'Tb1 Y3 Tm4 Re4 B24'
_cell_volume   386.13897377
_cell_formula_units_Z   1
loop_
 _symmetry_equiv_pos_site_id
 _symmetry_equiv_pos_as_xyz
  1  'x, y, z'
loop_
 _atom_site_type_symbol
 _atom_site_label
 _atom_site_symmetry_multiplicity
 _atom_site_fract_x
 _atom_site_fract_y
 _atom_site_fract_z
 _atom_site_occupancy
  Tb  Tb0  1  0.000000  0.176682  0.913989  1
  Y  Y1  1  0.000000  0.323311  0.414070  1
  Y  Y2  1  0.000000  0.676718  0.585954  1
  Y  Y3  1  0.000000  0.823312  0.085955  1
  Tm  Tm4  1  0.000000  0.943416  0.370131  1
  Tm  Tm5  1  0.000000  0.056575  0.629876  1
  Tm  Tm6  1  0.000000  0.443409  0.129917  1
  Tm  Tm7  1  0.000000  0.556619  0.870063  1
  Re  Re8  1  0.000000  0.639079  0.320085  1
  Re  Re9  1  0.000000  0.360913  0.679843  1
  Re  Re10  1  0.000000  0.139092  0.179977  1
  Re  Re11  1  0.000000  0.860882  0.820132  1
  B  B12  1  0.500000  0.553637  0.432526  1
  B  B13  1  0.500000  0.446377  0.567470  1
  B  B14  1  0.500000  0.053685  0.067526  1
  B  B15  1  0.500000  0.946329  0.932486  1
  B  B16  1  0.500000  0.750474  0.418365  1
  B  B17  1  0.500000  0.249526  0.581632  1
  B  B18  1  0.500000  0.250463  0.081694  1
  B  B19  1  0.500000  0.749503  0.918380  1
  B  B20  1  0.500000  0.792898  0.265569  1
  B  B21  1  0.500000  0.207184  0.734423  1
  B  B22  1  0.500000  0.292885  0.234427  1
  B  B23  1  0.500000  0.707128  0.765558  1
  B  B24  1  0.500000  0.630419  0.185327  1
  B  B25  1  0.500000  0.369580  0.814652  1
  B  B26  1  0.500000  0.130411  0.314682  1
  B  B27  1  0.500000  0.869577  0.685290  1
  B  B28  1  0.500000  0.982181  0.212635  1
  B  B29  1  0.500000  0.017713  0.787338  1
  B  B30  1  0.500000  0.482212  0.287378  1
  B  B31  1  0.500000  0.517782  0.712636  1
  B  B32  1  0.500000  0.598546  0.027407  1
  B  B33  1  0.500000  0.401504  0.972616  1
  B  B34  1  0.500000  0.098567  0.472571  1
  B  B35  1  0.500000  0.901414  0.527420  1
