# generated using pymatgen
data_MnCrFeNiP4
_symmetry_space_group_name_H-M   'P 1'
_cell_length_a   3.03338400
_cell_length_b   5.25654065
_cell_length_c   5.88591710
_cell_angle_alpha   90.19939116
_cell_angle_beta   90.00000000
_cell_angle_gamma   90.00000000
_symmetry_Int_Tables_number   1
_chemical_formula_structural   MnCrFeNiP4
_chemical_formula_sum   'Mn1 Cr1 Fe1 Ni1 P4'
_cell_volume   93.85100540
_cell_formula_units_Z   1
loop_
 _symmetry_equiv_pos_site_id
 _symmetry_equiv_pos_as_xyz
  1  'x, y, z'
loop_
 _atom_site_type_symbol
 _atom_site_label
 _atom_site_symmetry_multiplicity
 _atom_site_fract_x
 _atom_site_fract_y
 _atom_site_fract_z
 _atom_site_occupancy
  Mn  Mn0  1  0.000000  0.994747  0.795906  1
  Cr  Cr1  1  0.500000  0.505051  0.301497  1
  Fe  Fe2  1  0.000000  0.495356  0.697995  1
  Ni  Ni3  1  0.500000  0.003131  0.201171  1
  P  P4  1  0.500000  0.688740  0.931974  1
  P  P5  1  0.500000  0.197868  0.572965  1
  P  P6  1  0.000000  0.311513  0.057654  1
  P  P7  1  0.000000  0.803595  0.440835  1
