# generated using pymatgen
data_Zr4TaNbRh10
_symmetry_space_group_name_H-M   'P 1'
_cell_length_a   5.60879944
_cell_length_b   5.60879777
_cell_length_c   8.63018400
_cell_angle_alpha   90.00000000
_cell_angle_beta   90.00000000
_cell_angle_gamma   102.53113806
_symmetry_Int_Tables_number   1
_chemical_formula_structural   Zr4TaNbRh10
_chemical_formula_sum   'Zr4 Ta1 Nb1 Rh10'
_cell_volume   265.02623593
_cell_formula_units_Z   1
loop_
 _symmetry_equiv_pos_site_id
 _symmetry_equiv_pos_as_xyz
  1  'x, y, z'
loop_
 _atom_site_type_symbol
 _atom_site_label
 _atom_site_symmetry_multiplicity
 _atom_site_fract_x
 _atom_site_fract_y
 _atom_site_fract_z
 _atom_site_occupancy
  Zr  Zr0  1  0.789616  0.210417  0.499967  1
  Zr  Zr1  1  0.210417  0.789616  0.000033  1
  Zr  Zr2  1  0.210417  0.789616  0.499967  1
  Zr  Zr3  1  0.789616  0.210417  0.000033  1
  Ta  Ta4  1  0.578439  0.578439  0.750000  1
  Nb  Nb5  1  0.421616  0.421616  0.250000  1
  Rh  Rh6  1  0.703059  0.703059  0.030547  1
  Rh  Rh7  1  0.703059  0.703059  0.469453  1
  Rh  Rh8  1  0.297026  0.297026  0.968807  1
  Rh  Rh9  1  0.297026  0.297026  0.531193  1
  Rh  Rh10  1  0.486629  0.012853  0.750000  1
  Rh  Rh11  1  0.513543  0.986923  0.250000  1
  Rh  Rh12  1  0.018719  0.018719  0.250000  1
  Rh  Rh13  1  0.981043  0.981043  0.750000  1
  Rh  Rh14  1  0.012853  0.486629  0.750000  1
  Rh  Rh15  1  0.986923  0.513543  0.250000  1
