# generated using pymatgen
data_La4Sm3Au10
_symmetry_space_group_name_H-M   'P 1'
_cell_length_a   9.02755148
_cell_length_b   9.02735188
_cell_length_c   10.76765900
_cell_angle_alpha   89.98440564
_cell_angle_beta   89.98136589
_cell_angle_gamma   107.25833350
_symmetry_Int_Tables_number   1
_chemical_formula_structural   La4Sm3Au10
_chemical_formula_sum   'La8 Sm6 Au20'
_cell_volume   838.00074676
_cell_formula_units_Z   2
loop_
 _symmetry_equiv_pos_site_id
 _symmetry_equiv_pos_as_xyz
  1  'x, y, z'
loop_
 _atom_site_type_symbol
 _atom_site_label
 _atom_site_symmetry_multiplicity
 _atom_site_fract_x
 _atom_site_fract_y
 _atom_site_fract_z
 _atom_site_occupancy
  La  La0  1  0.693483  0.306559  0.000010  1
  La  La1  1  0.193417  0.806598  0.500009  1
  La  La2  1  0.813327  0.813368  0.309401  1
  La  La3  1  0.313309  0.313301  0.190592  1
  La  La4  1  0.806583  0.193402  0.499991  1
  La  La5  1  0.306517  0.693441  0.999990  1
  La  La6  1  0.686691  0.686699  0.809408  1
  La  La7  1  0.186673  0.186632  0.690599  1
  Sm  Sm8  1  0.504034  0.004051  0.249964  1
  Sm  Sm9  1  0.995961  0.495955  0.750005  1
  Sm  Sm10  1  0.000000  0.000000  0.000000  1
  Sm  Sm11  1  0.004039  0.504045  0.249995  1
  Sm  Sm12  1  0.495966  0.995949  0.750036  1
  Sm  Sm13  1  0.500000  0.500000  0.500000  1
  Au  Au14  1  0.145364  0.439524  0.496492  1
  Au  Au15  1  0.895445  0.895447  0.598645  1
  Au  Au16  1  0.560470  0.854643  0.503510  1
  Au  Au17  1  0.863588  0.152782  0.209032  1
  Au  Au18  1  0.363588  0.652782  0.290955  1
  Au  Au19  1  0.652779  0.363588  0.290953  1
  Au  Au20  1  0.395447  0.395446  0.901371  1
  Au  Au21  1  0.939507  0.645343  0.003512  1
  Au  Au22  1  0.347221  0.636412  0.709047  1
  Au  Au23  1  0.354654  0.060495  0.996488  1
  Au  Au24  1  0.604553  0.604554  0.098629  1
  Au  Au25  1  0.645346  0.939505  0.003512  1
  Au  Au26  1  0.104555  0.104553  0.401355  1
  Au  Au27  1  0.636412  0.347218  0.709045  1
  Au  Au28  1  0.136412  0.847218  0.790968  1
  Au  Au29  1  0.060493  0.354657  0.996488  1
  Au  Au30  1  0.854636  0.560476  0.503508  1
  Au  Au31  1  0.152775  0.863589  0.209036  1
  Au  Au32  1  0.439530  0.145357  0.496490  1
  Au  Au33  1  0.847225  0.136411  0.790964  1
