# generated using pymatgen
data_YHo15MgAg3Rh4
_symmetry_space_group_name_H-M   'P 1'
_cell_length_a   9.50098204
_cell_length_b   9.52629035
_cell_length_c   9.52704682
_cell_angle_alpha   60.28091750
_cell_angle_beta   60.32342498
_cell_angle_gamma   60.28948738
_symmetry_Int_Tables_number   1
_chemical_formula_structural   YHo15MgAg3Rh4
_chemical_formula_sum   'Y1 Ho15 Mg1 Ag3 Rh4'
_cell_volume   613.83804649
_cell_formula_units_Z   1
loop_
 _symmetry_equiv_pos_site_id
 _symmetry_equiv_pos_as_xyz
  1  'x, y, z'
loop_
 _atom_site_type_symbol
 _atom_site_label
 _atom_site_symmetry_multiplicity
 _atom_site_fract_x
 _atom_site_fract_y
 _atom_site_fract_z
 _atom_site_occupancy
  Y  Y0  1  0.184247  0.185719  0.814763  1
  Ho  Ho1  1  0.602100  0.598995  0.598675  1
  Ho  Ho2  1  0.600732  0.599135  0.201925  1
  Ho  Ho3  1  0.601173  0.201760  0.598905  1
  Ho  Ho4  1  0.184834  0.605649  0.605057  1
  Ho  Ho5  1  0.060069  0.438470  0.437698  1
  Ho  Ho6  1  0.436089  0.063129  0.063327  1
  Ho  Ho7  1  0.436000  0.063150  0.435863  1
  Ho  Ho8  1  0.059954  0.438717  0.061626  1
  Ho  Ho9  1  0.435610  0.436382  0.063194  1
  Ho  Ho10  1  0.060193  0.061651  0.438184  1
  Ho  Ho11  1  0.184176  0.813485  0.814376  1
  Ho  Ho12  1  0.814755  0.185316  0.185669  1
  Ho  Ho13  1  0.813341  0.185732  0.815343  1
  Ho  Ho14  1  0.184233  0.813542  0.187312  1
  Ho  Ho15  1  0.814180  0.815373  0.185455  1
  Mg  Mg16  1  0.538384  0.820749  0.820938  1
  Ag  Ag17  1  0.832802  0.834995  0.835053  1
  Ag  Ag18  1  0.833121  0.835171  0.497654  1
  Ag  Ag19  1  0.832286  0.498464  0.835202  1
  Rh  Rh20  1  0.389249  0.394842  0.394258  1
  Rh  Rh21  1  0.390665  0.396131  0.820269  1
  Rh  Rh22  1  0.390513  0.820196  0.395956  1
  Rh  Rh23  1  0.821293  0.393249  0.393298  1
