# generated using pymatgen
data_LiDy11Ho5Cd2InRh4
_symmetry_space_group_name_H-M   'P 1'
_cell_length_a   9.63503312
_cell_length_b   9.63650733
_cell_length_c   9.63672800
_cell_angle_alpha   59.89067980
_cell_angle_beta   59.87533872
_cell_angle_gamma   59.86600967
_symmetry_Int_Tables_number   1
_chemical_formula_structural   LiDy11Ho5Cd2InRh4
_chemical_formula_sum   'Li1 Dy11 Ho5 Cd2 In1 Rh4'
_cell_volume   630.92402669
_cell_formula_units_Z   1
loop_
 _symmetry_equiv_pos_site_id
 _symmetry_equiv_pos_as_xyz
  1  'x, y, z'
loop_
 _atom_site_type_symbol
 _atom_site_label
 _atom_site_symmetry_multiplicity
 _atom_site_fract_x
 _atom_site_fract_y
 _atom_site_fract_z
 _atom_site_occupancy
  Li  Li0  1  0.820318  0.821629  0.820160  1
  Dy  Dy1  1  0.188482  0.184366  0.814546  1
  Dy  Dy2  1  0.599443  0.598449  0.204394  1
  Dy  Dy3  1  0.439740  0.060116  0.440039  1
  Dy  Dy4  1  0.440850  0.440535  0.058759  1
  Dy  Dy5  1  0.814679  0.187226  0.814288  1
  Dy  Dy6  1  0.185859  0.814397  0.186575  1
  Dy  Dy7  1  0.435164  0.063557  0.063257  1
  Dy  Dy8  1  0.187471  0.813160  0.813587  1
  Dy  Dy9  1  0.061620  0.436888  0.062150  1
  Dy  Dy10  1  0.814005  0.813146  0.187582  1
  Dy  Dy11  1  0.203681  0.599097  0.599370  1
  Ho  Ho12  1  0.058594  0.440420  0.440919  1
  Ho  Ho13  1  0.063304  0.063842  0.435040  1
  Ho  Ho14  1  0.814928  0.183824  0.188752  1
  Ho  Ho15  1  0.599882  0.205563  0.598950  1
  Ho  Ho16  1  0.600366  0.599190  0.599864  1
  Cd  Cd17  1  0.831699  0.833129  0.504413  1
  Cd  Cd18  1  0.504542  0.832803  0.831608  1
  In  In19  1  0.830973  0.504910  0.831389  1
  Rh  Rh20  1  0.393858  0.822938  0.394216  1
  Rh  Rh21  1  0.393123  0.393144  0.393348  1
  Rh  Rh22  1  0.823842  0.393577  0.393567  1
  Rh  Rh23  1  0.393580  0.394096  0.823227  1
