# generated using pymatgen
data_HoPaCoNi
_symmetry_space_group_name_H-M   'P 1'
_cell_length_a   5.94337015
_cell_length_b   5.94337103
_cell_length_c   3.80855200
_cell_angle_alpha   90.00000000
_cell_angle_beta   90.00000000
_cell_angle_gamma   144.84206480
_symmetry_Int_Tables_number   1
_chemical_formula_structural   HoPaCoNi
_chemical_formula_sum   'Ho1 Pa1 Co1 Ni1'
_cell_volume   77.46784716
_cell_formula_units_Z   1
loop_
 _symmetry_equiv_pos_site_id
 _symmetry_equiv_pos_as_xyz
  1  'x, y, z'
loop_
 _atom_site_type_symbol
 _atom_site_label
 _atom_site_symmetry_multiplicity
 _atom_site_fract_x
 _atom_site_fract_y
 _atom_site_fract_z
 _atom_site_occupancy
  Ho  Ho0  1  0.150148  0.849852  0.000000  1
  Pa  Pa1  1  0.882936  0.117064  0.500000  1
  Co  Co2  1  0.402927  0.597073  0.000000  1
  Ni  Ni3  1  0.563989  0.436011  0.500000  1
