# generated using pymatgen
data_Li3Nd3Sn4Hg
_symmetry_space_group_name_H-M   'P 1'
_cell_length_a   8.90323080
_cell_length_b   8.87356847
_cell_length_c   8.87356852
_cell_angle_alpha   149.18211738
_cell_angle_beta   131.07206533
_cell_angle_gamma   58.91706845
_symmetry_Int_Tables_number   1
_chemical_formula_structural   Li3Nd3Sn4Hg
_chemical_formula_sum   'Li3 Nd3 Sn4 Hg1'
_cell_volume   268.66295768
_cell_formula_units_Z   1
loop_
 _symmetry_equiv_pos_site_id
 _symmetry_equiv_pos_as_xyz
  1  'x, y, z'
loop_
 _atom_site_type_symbol
 _atom_site_label
 _atom_site_symmetry_multiplicity
 _atom_site_fract_x
 _atom_site_fract_y
 _atom_site_fract_z
 _atom_site_occupancy
  Li  Li0  1  0.483954  0.672019  0.811937  1
  Li  Li1  1  0.855415  0.672239  0.183176  1
  Li  Li2  1  0.140167  0.330577  0.809590  1
  Nd  Nd3  1  0.496542  0.997755  0.498787  1
  Nd  Nd4  1  0.879085  0.872493  0.006592  1
  Nd  Nd5  1  0.130757  0.126082  0.004675  1
  Sn  Sn6  1  0.259378  0.782440  0.476938  1
  Sn  Sn7  1  0.722629  0.212043  0.510586  1
  Sn  Sn8  1  0.812081  0.506235  0.305846  1
  Sn  Sn9  1  0.198673  0.500371  0.698302  1
  Hg  Hg10  1  0.521319  0.327746  0.193572  1
