# generated using pymatgen
data_Tb6Sc4Bi5Pb
_symmetry_space_group_name_H-M   'P 1'
_cell_length_a   9.02502616
_cell_length_b   9.02502671
_cell_length_c   6.23255900
_cell_angle_alpha   90.00000000
_cell_angle_beta   90.00000000
_cell_angle_gamma   119.94195398
_symmetry_Int_Tables_number   1
_chemical_formula_structural   Tb6Sc4Bi5Pb
_chemical_formula_sum   'Tb6 Sc4 Bi5 Pb1'
_cell_volume   439.89367915
_cell_formula_units_Z   1
loop_
 _symmetry_equiv_pos_site_id
 _symmetry_equiv_pos_as_xyz
  1  'x, y, z'
loop_
 _atom_site_type_symbol
 _atom_site_label
 _atom_site_symmetry_multiplicity
 _atom_site_fract_x
 _atom_site_fract_y
 _atom_site_fract_z
 _atom_site_occupancy
  Tb  Tb0  1  0.754876  0.754876  0.750000  1
  Tb  Tb1  1  0.244233  0.002908  0.750000  1
  Tb  Tb2  1  0.002908  0.244233  0.750000  1
  Tb  Tb3  1  0.243731  0.243731  0.250000  1
  Tb  Tb4  1  0.756106  0.999313  0.250000  1
  Tb  Tb5  1  0.999313  0.756106  0.250000  1
  Sc  Sc6  1  0.666009  0.333485  0.999859  1
  Sc  Sc7  1  0.333485  0.666009  0.999859  1
  Sc  Sc8  1  0.333485  0.666009  0.500141  1
  Sc  Sc9  1  0.666009  0.333485  0.500141  1
  Bi  Bi10  1  0.604939  0.000351  0.750000  1
  Bi  Bi11  1  0.000351  0.604939  0.750000  1
  Bi  Bi12  1  0.603770  0.603770  0.250000  1
  Bi  Bi13  1  0.394935  0.999572  0.250000  1
  Bi  Bi14  1  0.999572  0.394935  0.250000  1
  Pb  Pb15  1  0.396279  0.396279  0.750000  1
