# generated using pymatgen
data_Sm5Ho3(Si3Rh)4
_symmetry_space_group_name_H-M   'P 1'
_cell_length_a   8.20159800
_cell_length_b   8.20159781
_cell_length_c   8.06660700
_cell_angle_alpha   90.00000000
_cell_angle_beta   90.00000000
_cell_angle_gamma   120.00000077
_symmetry_Int_Tables_number   1
_chemical_formula_structural   Sm5Ho3(Si3Rh)4
_chemical_formula_sum   'Sm5 Ho3 Si12 Rh4'
_cell_volume   469.91409777
_cell_formula_units_Z   1
loop_
 _symmetry_equiv_pos_site_id
 _symmetry_equiv_pos_as_xyz
  1  'x, y, z'
loop_
 _atom_site_type_symbol
 _atom_site_label
 _atom_site_symmetry_multiplicity
 _atom_site_fract_x
 _atom_site_fract_y
 _atom_site_fract_z
 _atom_site_occupancy
  Sm  Sm0  1  0.000000  0.000000  0.250000  1
  Sm  Sm1  1  0.000000  0.000000  0.750000  1
  Sm  Sm2  1  0.507335  0.492665  0.250000  1
  Sm  Sm3  1  0.507335  0.014671  0.250000  1
  Sm  Sm4  1  0.985329  0.492665  0.250000  1
  Ho  Ho5  1  0.491560  0.508440  0.750000  1
  Ho  Ho6  1  0.491560  0.983120  0.750000  1
  Ho  Ho7  1  0.016880  0.508440  0.750000  1
  Si  Si8  1  0.166958  0.833042  0.504667  1
  Si  Si9  1  0.166958  0.333916  0.504667  1
  Si  Si10  1  0.666084  0.833042  0.504667  1
  Si  Si11  1  0.832234  0.167766  0.503254  1
  Si  Si12  1  0.832234  0.664469  0.503254  1
  Si  Si13  1  0.335531  0.167766  0.503254  1
  Si  Si14  1  0.832234  0.167766  0.996746  1
  Si  Si15  1  0.832234  0.664469  0.996746  1
  Si  Si16  1  0.335531  0.167766  0.996746  1
  Si  Si17  1  0.166958  0.833042  0.995333  1
  Si  Si18  1  0.166958  0.333916  0.995333  1
  Si  Si19  1  0.666084  0.833042  0.995333  1
  Rh  Rh20  1  0.333333  0.666667  0.477968  1
  Rh  Rh21  1  0.666667  0.333333  0.542574  1
  Rh  Rh22  1  0.666667  0.333333  0.957426  1
  Rh  Rh23  1  0.333333  0.666667  0.022032  1
