# generated using pymatgen
data_Hf3ZrRe2(B2Ru5)2
_symmetry_space_group_name_H-M   'P 1'
_cell_length_a   9.49932881
_cell_length_b   9.49932881
_cell_length_c   3.02527900
_cell_angle_alpha   90.00000000
_cell_angle_beta   90.00000000
_cell_angle_gamma   90.26189060
_symmetry_Int_Tables_number   1
_chemical_formula_structural   Hf3ZrRe2(B2Ru5)2
_chemical_formula_sum   'Hf3 Zr1 Re2 B4 Ru10'
_cell_volume   272.98999904
_cell_formula_units_Z   1
loop_
 _symmetry_equiv_pos_site_id
 _symmetry_equiv_pos_as_xyz
  1  'x, y, z'
loop_
 _atom_site_type_symbol
 _atom_site_label
 _atom_site_symmetry_multiplicity
 _atom_site_fract_x
 _atom_site_fract_y
 _atom_site_fract_z
 _atom_site_occupancy
  Hf  Hf0  1  0.676414  0.176763  0.000000  1
  Hf  Hf1  1  0.323237  0.823586  0.000000  1
  Hf  Hf2  1  0.176951  0.323049  0.000000  1
  Zr  Zr3  1  0.823710  0.676290  0.000000  1
  Re  Re4  1  0.999686  0.998796  0.000000  1
  Re  Re5  1  0.501204  0.500314  0.000000  1
  B  B6  1  0.121610  0.619914  0.000000  1
  B  B7  1  0.880086  0.378390  0.000000  1
  B  B8  1  0.619712  0.880288  0.000000  1
  B  B9  1  0.378708  0.121292  0.000000  1
  Ru  Ru10  1  0.217234  0.071313  0.500000  1
  Ru  Ru11  1  0.779952  0.932421  0.500000  1
  Ru  Ru12  1  0.073341  0.781651  0.500000  1
  Ru  Ru13  1  0.718349  0.426659  0.500000  1
  Ru  Ru14  1  0.928956  0.216592  0.500000  1
  Ru  Ru15  1  0.283408  0.571044  0.500000  1
  Ru  Ru16  1  0.567579  0.720048  0.500000  1
  Ru  Ru17  1  0.428687  0.282766  0.500000  1
  Ru  Ru18  1  0.498613  0.001387  0.500000  1
  Ru  Ru19  1  0.002561  0.497439  0.500000  1
