# generated using pymatgen
data_Tm4Co2ReRu5
_symmetry_space_group_name_H-M   'P 1'
_cell_length_a   5.11371609
_cell_length_b   5.27317378
_cell_length_c   8.81148200
_cell_angle_alpha   90.00000000
_cell_angle_beta   90.00000000
_cell_angle_gamma   120.95777731
_symmetry_Int_Tables_number   1
_chemical_formula_structural   Tm4Co2ReRu5
_chemical_formula_sum   'Tm4 Co2 Re1 Ru5'
_cell_volume   203.75833866
_cell_formula_units_Z   1
loop_
 _symmetry_equiv_pos_site_id
 _symmetry_equiv_pos_as_xyz
  1  'x, y, z'
loop_
 _atom_site_type_symbol
 _atom_site_label
 _atom_site_symmetry_multiplicity
 _atom_site_fract_x
 _atom_site_fract_y
 _atom_site_fract_z
 _atom_site_occupancy
  Tm  Tm0  1  0.327907  0.663506  0.432887  1
  Tm  Tm1  1  0.658553  0.328363  0.564405  1
  Tm  Tm2  1  0.658553  0.328363  0.935595  1
  Tm  Tm3  1  0.327907  0.663506  0.067113  1
  Co  Co4  1  0.836885  0.163539  0.250000  1
  Co  Co5  1  0.182391  0.836392  0.750000  1
  Re  Re6  1  0.676903  0.838141  0.750000  1
  Ru  Ru7  1  0.979281  0.988936  0.500077  1
  Ru  Ru8  1  0.979281  0.988936  0.999923  1
  Ru  Ru9  1  0.832551  0.665154  0.250000  1
  Ru  Ru10  1  0.352939  0.177243  0.250000  1
  Ru  Ru11  1  0.186851  0.357925  0.750000  1
