# generated using pymatgen
data_Pa4Al18Os5Au
_symmetry_space_group_name_H-M   'P 1'
_cell_length_a   7.59490024
_cell_length_b   7.59490141
_cell_length_c   9.34753500
_cell_angle_alpha   90.04401158
_cell_angle_beta   90.04401913
_cell_angle_gamma   119.04223155
_symmetry_Int_Tables_number   1
_chemical_formula_structural   Pa4Al18Os5Au
_chemical_formula_sum   'Pa4 Al18 Os5 Au1'
_cell_volume   471.39229664
_cell_formula_units_Z   1
loop_
 _symmetry_equiv_pos_site_id
 _symmetry_equiv_pos_as_xyz
  1  'x, y, z'
loop_
 _atom_site_type_symbol
 _atom_site_label
 _atom_site_symmetry_multiplicity
 _atom_site_fract_x
 _atom_site_fract_y
 _atom_site_fract_z
 _atom_site_occupancy
  Pa  Pa0  1  0.998309  0.677109  0.245257  1
  Pa  Pa1  1  0.002885  0.320323  0.754957  1
  Pa  Pa2  1  0.679677  0.997115  0.245043  1
  Pa  Pa3  1  0.322891  0.001691  0.754743  1
  Al  Al4  1  0.135370  0.132208  0.250148  1
  Al  Al5  1  0.867792  0.864630  0.749852  1
  Al  Al6  1  0.007088  0.338582  0.078740  1
  Al  Al7  1  0.994165  0.659678  0.922469  1
  Al  Al8  1  0.002499  0.670682  0.577674  1
  Al  Al9  1  0.329318  0.997501  0.422326  1
  Al  Al10  1  0.013050  0.339859  0.419564  1
  Al  Al11  1  0.660141  0.986950  0.580436  1
  Al  Al12  1  0.661418  0.992912  0.921260  1
  Al  Al13  1  0.340322  0.005835  0.077531  1
  Al  Al14  1  0.327239  0.336845  0.554712  1
  Al  Al15  1  0.663155  0.672761  0.445288  1
  Al  Al16  1  0.664542  0.663822  0.044980  1
  Al  Al17  1  0.336178  0.335458  0.955020  1
  Al  Al18  1  0.346069  0.555174  0.249780  1
  Al  Al19  1  0.654704  0.450804  0.756275  1
  Al  Al20  1  0.549196  0.345296  0.243725  1
  Al  Al21  1  0.444826  0.653931  0.750220  1
  Os  Os22  1  0.675739  0.324261  0.000000  1
  Os  Os23  1  0.325736  0.674264  0.000000  1
  Os  Os24  1  0.325514  0.674486  0.500000  1
  Os  Os25  1  0.000248  0.999752  0.000000  1
  Os  Os26  1  0.998097  0.001903  0.500000  1
  Au  Au27  1  0.673834  0.326166  0.500000  1
