# generated using pymatgen
data_Tb3Y(Tc3Ge4)2
_symmetry_space_group_name_H-M   'P 1'
_cell_length_a   8.32105107
_cell_length_b   5.70745760
_cell_length_c   7.03148201
_cell_angle_alpha   76.27151353
_cell_angle_beta   90.00004551
_cell_angle_gamma   90.01452384
_symmetry_Int_Tables_number   1
_chemical_formula_structural   Tb3Y(Tc3Ge4)2
_chemical_formula_sum   'Tb3 Y1 Tc6 Ge8'
_cell_volume   324.39922357
_cell_formula_units_Z   1
loop_
 _symmetry_equiv_pos_site_id
 _symmetry_equiv_pos_as_xyz
  1  'x, y, z'
loop_
 _atom_site_type_symbol
 _atom_site_label
 _atom_site_symmetry_multiplicity
 _atom_site_fract_x
 _atom_site_fract_y
 _atom_site_fract_z
 _atom_site_occupancy
  Tb  Tb0  1  0.556109  0.076174  0.245525  1
  Tb  Tb1  1  0.056121  0.423933  0.754452  1
  Tb  Tb2  1  0.443740  0.923770  0.754525  1
  Y  Y3  1  0.943705  0.575789  0.245335  1
  Tc  Tc4  1  0.205319  0.112334  0.115949  1
  Tc  Tc5  1  0.705523  0.387446  0.884524  1
  Tc  Tc6  1  0.794640  0.887805  0.884105  1
  Tc  Tc7  1  0.294992  0.612525  0.115617  1
  Tc  Tc8  1  0.999931  0.000471  0.499507  1
  Tc  Tc9  1  0.500068  0.499909  0.500138  1
  Ge  Ge10  1  0.901882  0.119654  0.126540  1
  Ge  Ge11  1  0.401832  0.380048  0.873766  1
  Ge  Ge12  1  0.098025  0.879622  0.873989  1
  Ge  Ge13  1  0.598193  0.620237  0.126090  1
  Ge  Ge14  1  0.747902  0.222451  0.578627  1
  Ge  Ge15  1  0.247695  0.278056  0.421321  1
  Ge  Ge16  1  0.251982  0.777380  0.421305  1
  Ge  Ge17  1  0.752339  0.722393  0.578686  1
