# generated using pymatgen
data_Y6TcNi17As12
_symmetry_space_group_name_H-M   'P 1'
_cell_length_a   3.90443800
_cell_length_b   10.92156100
_cell_length_c   12.80032600
_cell_angle_alpha   90.00000000
_cell_angle_beta   90.00000000
_cell_angle_gamma   90.00000000
_symmetry_Int_Tables_number   1
_chemical_formula_structural   Y6TcNi17As12
_chemical_formula_sum   'Y6 Tc1 Ni17 As12'
_cell_volume   545.83864116
_cell_formula_units_Z   1
loop_
 _symmetry_equiv_pos_site_id
 _symmetry_equiv_pos_as_xyz
  1  'x, y, z'
loop_
 _atom_site_type_symbol
 _atom_site_label
 _atom_site_symmetry_multiplicity
 _atom_site_fract_x
 _atom_site_fract_y
 _atom_site_fract_z
 _atom_site_occupancy
  Y  Y0  1  0.000000  0.500000  0.524591  1
  Y  Y1  1  0.500000  0.000000  0.478532  1
  Y  Y2  1  0.500000  0.817331  0.207219  1
  Y  Y3  1  0.500000  0.182669  0.207219  1
  Y  Y4  1  0.000000  0.684478  0.792862  1
  Y  Y5  1  0.000000  0.315522  0.792862  1
  Tc  Tc6  1  0.500000  0.500000  0.152784  1
  Ni  Ni7  1  0.000000  0.000000  0.843138  1
  Ni  Ni8  1  0.500000  0.500000  0.700283  1
  Ni  Ni9  1  0.000000  0.000000  0.301273  1
  Ni  Ni10  1  0.000000  0.500000  0.983371  1
  Ni  Ni11  1  0.500000  0.000000  0.018438  1
  Ni  Ni12  1  0.500000  0.329713  0.992940  1
  Ni  Ni13  1  0.500000  0.670287  0.992940  1
  Ni  Ni14  1  0.000000  0.164713  0.003803  1
  Ni  Ni15  1  0.000000  0.835287  0.003803  1
  Ni  Ni16  1  0.500000  0.303315  0.426819  1
  Ni  Ni17  1  0.500000  0.696685  0.426819  1
  Ni  Ni18  1  0.000000  0.196579  0.572982  1
  Ni  Ni19  1  0.000000  0.803421  0.572982  1
  Ni  Ni20  1  0.500000  0.879189  0.707938  1
  Ni  Ni21  1  0.500000  0.120811  0.707938  1
  Ni  Ni22  1  0.000000  0.619667  0.291966  1
  Ni  Ni23  1  0.000000  0.380333  0.291966  1
  As  As24  1  0.500000  0.500000  0.878370  1
  As  As25  1  0.000000  0.000000  0.124563  1
  As  As26  1  0.500000  0.500000  0.347506  1
  As  As27  1  0.000000  0.000000  0.654767  1
  As  As28  1  0.500000  0.313797  0.613885  1
  As  As29  1  0.500000  0.686203  0.613885  1
  As  As30  1  0.000000  0.185277  0.386512  1
  As  As31  1  0.000000  0.814723  0.386512  1
  As  As32  1  0.500000  0.849662  0.890192  1
  As  As33  1  0.500000  0.150338  0.890192  1
  As  As34  1  0.000000  0.654260  0.109075  1
  As  As35  1  0.000000  0.345740  0.109075  1
