# generated using pymatgen
data_Ta6CrSi2Os3C2
_symmetry_space_group_name_H-M   'P 1'
_cell_length_a   8.23100164
_cell_length_b   8.23100110
_cell_length_c   8.23100066
_cell_angle_alpha   119.86918571
_cell_angle_beta   120.05945143
_cell_angle_gamma   90.06189191
_symmetry_Int_Tables_number   1
_chemical_formula_structural   Ta6CrSi2Os3C2
_chemical_formula_sum   'Ta12 Cr2 Si4 Os6 C4'
_cell_volume   394.52577434
_cell_formula_units_Z   2
loop_
 _symmetry_equiv_pos_site_id
 _symmetry_equiv_pos_as_xyz
  1  'x, y, z'
loop_
 _atom_site_type_symbol
 _atom_site_label
 _atom_site_symmetry_multiplicity
 _atom_site_fract_x
 _atom_site_fract_y
 _atom_site_fract_z
 _atom_site_occupancy
  Ta  Ta0  1  0.572090  0.072090  0.500000  1
  Ta  Ta1  1  0.177902  0.677902  0.500000  1
  Ta  Ta2  1  0.179238  0.072656  0.500341  1
  Ta  Ta3  1  0.572315  0.678898  0.499659  1
  Ta  Ta4  1  0.572315  0.072656  0.893418  1
  Ta  Ta5  1  0.179238  0.678898  0.106582  1
  Ta  Ta6  1  0.927120  0.927120  0.000000  1
  Ta  Ta7  1  0.318983  0.318983  0.000000  1
  Ta  Ta8  1  0.326447  0.936163  0.006012  1
  Ta  Ta9  1  0.930151  0.320436  0.993988  1
  Ta  Ta10  1  0.930151  0.936163  0.609715  1
  Ta  Ta11  1  0.326447  0.320436  0.390285  1
  Cr  Cr12  1  0.955354  0.292620  0.662733  1
  Cr  Cr13  1  0.629888  0.292620  0.337267  1
  Si  Si14  1  0.747021  0.496470  0.250551  1
  Si  Si15  1  0.245920  0.496470  0.749449  1
  Si  Si16  1  0.748975  0.492856  0.743881  1
  Si  Si17  1  0.748975  0.005095  0.256119  1
  Os  Os18  1  0.956764  0.289633  0.332868  1
  Os  Os19  1  0.956764  0.623896  0.667132  1
  Os  Os20  1  0.540370  0.707531  0.832839  1
  Os  Os21  1  0.874692  0.707531  0.167161  1
  Os  Os22  1  0.540529  0.707469  0.166940  1
  Os  Os23  1  0.540529  0.373588  0.833060  1
  C  C24  1  0.248360  0.000487  0.247873  1
  C  C25  1  0.752615  0.000487  0.752127  1
  C  C26  1  0.250421  0.999242  0.748822  1
  C  C27  1  0.250421  0.501601  0.251178  1
