# generated using pymatgen
data_SmIn2Pd3
_symmetry_space_group_name_H-M   'P 1'
_cell_length_a   10.36623300
_cell_length_b   4.66497700
_cell_length_c   9.95365900
_cell_angle_alpha   90.00000000
_cell_angle_beta   90.00000000
_cell_angle_gamma   90.00000000
_symmetry_Int_Tables_number   1
_chemical_formula_structural   SmIn2Pd3
_chemical_formula_sum   'Sm4 In8 Pd12'
_cell_volume   481.34141609
_cell_formula_units_Z   4
loop_
 _symmetry_equiv_pos_site_id
 _symmetry_equiv_pos_as_xyz
  1  'x, y, z'
loop_
 _atom_site_type_symbol
 _atom_site_label
 _atom_site_symmetry_multiplicity
 _atom_site_fract_x
 _atom_site_fract_y
 _atom_site_fract_z
 _atom_site_occupancy
  Sm  Sm0  1  0.227811  0.250001  0.056542  1
  Sm  Sm1  1  0.727811  0.250001  0.443458  1
  Sm  Sm2  1  0.272189  0.750000  0.556542  1
  Sm  Sm3  1  0.772189  0.750000  0.943458  1
  In  In4  1  0.484332  0.750000  0.115294  1
  In  In5  1  0.894004  0.250001  0.159292  1
  In  In6  1  0.394003  0.250001  0.340708  1
  In  In7  1  0.984333  0.750000  0.384706  1
  In  In8  1  0.015667  0.250001  0.615294  1
  In  In9  1  0.605996  0.750000  0.659292  1
  In  In10  1  0.105997  0.750000  0.840708  1
  In  In11  1  0.515668  0.250001  0.884707  1
  Pd  Pd12  1  0.026341  0.750000  0.104688  1
  Pd  Pd13  1  0.620745  0.250001  0.144114  1
  Pd  Pd14  1  0.758205  0.750000  0.240543  1
  Pd  Pd15  1  0.258205  0.750000  0.259457  1
  Pd  Pd16  1  0.120745  0.250001  0.355886  1
  Pd  Pd17  1  0.526341  0.750000  0.395312  1
  Pd  Pd18  1  0.473659  0.250001  0.604688  1
  Pd  Pd19  1  0.879254  0.750000  0.644114  1
  Pd  Pd20  1  0.741795  0.250001  0.740543  1
  Pd  Pd21  1  0.241794  0.250001  0.759458  1
  Pd  Pd22  1  0.379255  0.750000  0.855886  1
  Pd  Pd23  1  0.973659  0.250001  0.895313  1
