# generated using pymatgen
data_Zr12Os3Pt
_symmetry_space_group_name_H-M   'P 1'
_cell_length_a   8.23490104
_cell_length_b   8.16413253
_cell_length_c   8.16413259
_cell_angle_alpha   95.08782012
_cell_angle_beta   98.29053779
_cell_angle_gamma   139.40191937
_symmetry_Int_Tables_number   1
_chemical_formula_structural   Zr12Os3Pt
_chemical_formula_sum   'Zr12 Os3 Pt1'
_cell_volume   336.29861614
_cell_formula_units_Z   1
loop_
 _symmetry_equiv_pos_site_id
 _symmetry_equiv_pos_as_xyz
  1  'x, y, z'
loop_
 _atom_site_type_symbol
 _atom_site_label
 _atom_site_symmetry_multiplicity
 _atom_site_fract_x
 _atom_site_fract_y
 _atom_site_fract_z
 _atom_site_occupancy
  Zr  Zr0  1  0.546916  0.959728  0.995722  1
  Zr  Zr1  1  0.453084  0.448806  0.412813  1
  Zr  Zr2  1  0.032787  0.032381  0.586487  1
  Zr  Zr3  1  0.967213  0.553701  0.999594  1
  Zr  Zr4  1  0.500000  0.856229  0.356229  1
  Zr  Zr5  1  0.852075  0.505040  0.355907  1
  Zr  Zr6  1  0.147925  0.503832  0.652965  1
  Zr  Zr7  1  0.500000  0.143661  0.643661  1
  Zr  Zr8  1  0.166089  0.355613  0.999258  1
  Zr  Zr9  1  0.833911  0.833168  0.189524  1
  Zr  Zr10  1  0.647870  0.645700  0.808598  1
  Zr  Zr11  1  0.352130  0.160728  0.997831  1
  Os  Os12  1  0.000000  0.707930  0.707930  1
  Os  Os13  1  0.713225  0.003923  0.709885  1
  Os  Os14  1  0.286775  0.996660  0.290697  1
  Pt  Pt15  1  0.000000  0.292899  0.292899  1
