# generated using pymatgen
data_NaEuGdCl6
_symmetry_space_group_name_H-M   'P 1'
_cell_length_a   7.89315218
_cell_length_b   7.89376794
_cell_length_c   7.89323700
_cell_angle_alpha   54.52638926
_cell_angle_beta   54.52486203
_cell_angle_gamma   54.52532465
_symmetry_Int_Tables_number   1
_chemical_formula_structural   NaEuGdCl6
_chemical_formula_sum   'Na1 Eu1 Gd1 Cl6'
_cell_volume   303.37696455
_cell_formula_units_Z   1
loop_
 _symmetry_equiv_pos_site_id
 _symmetry_equiv_pos_as_xyz
  1  'x, y, z'
loop_
 _atom_site_type_symbol
 _atom_site_label
 _atom_site_symmetry_multiplicity
 _atom_site_fract_x
 _atom_site_fract_y
 _atom_site_fract_z
 _atom_site_occupancy
  Na  Na0  1  0.669852  0.669903  0.669888  1
  Eu  Eu1  1  0.330530  0.330424  0.330707  1
  Gd  Gd2  1  0.000283  0.999992  0.999627  1
  Cl  Cl3  1  0.243326  0.612366  0.926499  1
  Cl  Cl4  1  0.612415  0.926456  0.243364  1
  Cl  Cl5  1  0.926322  0.243471  0.612363  1
  Cl  Cl6  1  0.752472  0.383213  0.081729  1
  Cl  Cl7  1  0.383340  0.081687  0.752505  1
  Cl  Cl8  1  0.081463  0.752486  0.383318  1
