# generated using pymatgen
data_Ac(S8F)3
_symmetry_space_group_name_H-M   'P 1'
_cell_length_a   15.42546125
_cell_length_b   15.42546149
_cell_length_c   15.42546156
_cell_angle_alpha   119.26309695
_cell_angle_beta   119.26310235
_cell_angle_gamma   119.26309830
_symmetry_Int_Tables_number   1
_chemical_formula_structural   Ac(S8F)3
_chemical_formula_sum   'Ac1 S24 F3'
_cell_volume   817.10740814
_cell_formula_units_Z   1
loop_
 _symmetry_equiv_pos_site_id
 _symmetry_equiv_pos_as_xyz
  1  'x, y, z'
loop_
 _atom_site_type_symbol
 _atom_site_label
 _atom_site_symmetry_multiplicity
 _atom_site_fract_x
 _atom_site_fract_y
 _atom_site_fract_z
 _atom_site_occupancy
  Ac  Ac0  1  0.553115  0.553115  0.553115  1
  S  S1  1  0.822003  0.552432  0.552432  1
  S  S2  1  0.552432  0.552432  0.822003  1
  S  S3  1  0.552432  0.822003  0.552432  1
  S  S4  1  0.230125  0.357958  0.607448  1
  S  S5  1  0.373850  0.960514  0.373850  1
  S  S6  1  0.373850  0.373850  0.960514  1
  S  S7  1  0.960514  0.373850  0.373850  1
  S  S8  1  0.106758  0.703839  0.232805  1
  S  S9  1  0.232805  0.106758  0.703839  1
  S  S10  1  0.703839  0.232805  0.106758  1
  S  S11  1  0.703839  0.106758  0.232805  1
  S  S12  1  0.232805  0.703839  0.106758  1
  S  S13  1  0.106758  0.232805  0.703839  1
  S  S14  1  0.387638  0.903119  0.563700  1
  S  S15  1  0.563700  0.387638  0.903119  1
  S  S16  1  0.903119  0.563700  0.387638  1
  S  S17  1  0.903119  0.387638  0.563700  1
  S  S18  1  0.563700  0.903119  0.387638  1
  S  S19  1  0.387638  0.563700  0.903119  1
  S  S20  1  0.230125  0.607448  0.357958  1
  S  S21  1  0.357958  0.230125  0.607448  1
  S  S22  1  0.607448  0.357958  0.230125  1
  S  S23  1  0.607448  0.230125  0.357958  1
  S  S24  1  0.357958  0.607448  0.230125  1
  F  F25  1  0.982808  0.083757  0.083757  1
  F  F26  1  0.083757  0.083757  0.982808  1
  F  F27  1  0.083757  0.982808  0.083757  1
