# generated using pymatgen
data_Pr(GaAu)3
_symmetry_space_group_name_H-M   'P 1'
_cell_length_a   4.59672900
_cell_length_b   7.02852100
_cell_length_c   8.72547900
_cell_angle_alpha   90.00000000
_cell_angle_beta   90.00000000
_cell_angle_gamma   90.00000000
_symmetry_Int_Tables_number   1
_chemical_formula_structural   Pr(GaAu)3
_chemical_formula_sum   'Pr2 Ga6 Au6'
_cell_volume   281.90457567
_cell_formula_units_Z   2
loop_
 _symmetry_equiv_pos_site_id
 _symmetry_equiv_pos_as_xyz
  1  'x, y, z'
loop_
 _atom_site_type_symbol
 _atom_site_label
 _atom_site_symmetry_multiplicity
 _atom_site_fract_x
 _atom_site_fract_y
 _atom_site_fract_z
 _atom_site_occupancy
  Pr  Pr0  1  0.500000  0.000000  0.751999  1
  Pr  Pr1  1  0.000000  0.500000  0.248001  1
  Ga  Ga2  1  0.000000  0.301178  0.892747  1
  Ga  Ga3  1  0.500000  0.198822  0.107253  1
  Ga  Ga4  1  0.000000  0.698822  0.892747  1
  Ga  Ga5  1  0.000000  0.000000  0.378191  1
  Ga  Ga6  1  0.500000  0.801178  0.107253  1
  Ga  Ga7  1  0.500000  0.500000  0.621809  1
  Au  Au8  1  0.000000  0.733506  0.599927  1
  Au  Au9  1  0.500000  0.766494  0.400073  1
  Au  Au10  1  0.500000  0.500000  0.928804  1
  Au  Au11  1  0.000000  0.000000  0.071196  1
  Au  Au12  1  0.500000  0.233506  0.400073  1
  Au  Au13  1  0.000000  0.266494  0.599927  1
