# generated using pymatgen
data_La6YRhO12
_symmetry_space_group_name_H-M   'P 1'
_cell_length_a   6.96657515
_cell_length_b   6.96657510
_cell_length_c   6.96657461
_cell_angle_alpha   96.45920019
_cell_angle_beta   96.45919666
_cell_angle_gamma   96.45920828
_symmetry_Int_Tables_number   1
_chemical_formula_structural   La6YRhO12
_chemical_formula_sum   'La6 Y1 Rh1 O12'
_cell_volume   331.13839937
_cell_formula_units_Z   1
loop_
 _symmetry_equiv_pos_site_id
 _symmetry_equiv_pos_as_xyz
  1  'x, y, z'
loop_
 _atom_site_type_symbol
 _atom_site_label
 _atom_site_symmetry_multiplicity
 _atom_site_fract_x
 _atom_site_fract_y
 _atom_site_fract_z
 _atom_site_occupancy
  La  La0  1  0.727904  0.903569  0.419414  1
  La  La1  1  0.419414  0.727904  0.903569  1
  La  La2  1  0.096431  0.580586  0.272096  1
  La  La3  1  0.903569  0.419414  0.727904  1
  La  La4  1  0.580586  0.272096  0.096431  1
  La  La5  1  0.272096  0.096431  0.580586  1
  Y  Y6  1  0.000000  0.000000  0.000000  1
  Rh  Rh7  1  0.500000  0.500000  0.500000  1
  O  O8  1  0.061347  0.922144  0.313332  1
  O  O9  1  0.686668  0.938653  0.077856  1
  O  O10  1  0.443411  0.791328  0.574096  1
  O  O11  1  0.077856  0.686668  0.938653  1
  O  O12  1  0.791328  0.574096  0.443411  1
  O  O13  1  0.425904  0.556589  0.208672  1
  O  O14  1  0.574096  0.443411  0.791328  1
  O  O15  1  0.208672  0.425904  0.556589  1
  O  O16  1  0.922144  0.313332  0.061347  1
  O  O17  1  0.556589  0.208672  0.425904  1
  O  O18  1  0.313332  0.061347  0.922144  1
  O  O19  1  0.938653  0.077856  0.686668  1
