# generated using pymatgen
data_TmLu2Sc3VBi2
_symmetry_space_group_name_H-M   'P 1'
_cell_length_a   7.89368800
_cell_length_b   7.90460164
_cell_length_c   4.28069800
_cell_angle_alpha   90.00000000
_cell_angle_beta   90.00000000
_cell_angle_gamma   119.95432997
_symmetry_Int_Tables_number   1
_chemical_formula_structural   TmLu2Sc3VBi2
_chemical_formula_sum   'Tm1 Lu2 Sc3 V1 Bi2'
_cell_volume   231.42210811
_cell_formula_units_Z   1
loop_
 _symmetry_equiv_pos_site_id
 _symmetry_equiv_pos_as_xyz
  1  'x, y, z'
loop_
 _atom_site_type_symbol
 _atom_site_label
 _atom_site_symmetry_multiplicity
 _atom_site_fract_x
 _atom_site_fract_y
 _atom_site_fract_z
 _atom_site_occupancy
  Tm  Tm0  1  0.610862  0.000000  0.000000  1
  Lu  Lu1  1  0.999922  0.613258  0.000000  1
  Lu  Lu2  1  0.386665  0.386742  0.000000  1
  Sc  Sc3  1  0.231615  0.000000  0.500000  1
  Sc  Sc4  1  0.000471  0.231164  0.500000  1
  Sc  Sc5  1  0.769306  0.768836  0.500000  1
  V  V6  1  0.001331  0.000000  0.000000  1
  Bi  Bi7  1  0.332636  0.665445  0.500000  1
  Bi  Bi8  1  0.667193  0.334555  0.500000  1
