# generated using pymatgen
data_La3Pr7(Al2Ru3)2
_symmetry_space_group_name_H-M   'P 1'
_cell_length_a   8.58764167
_cell_length_b   8.65678681
_cell_length_c   8.58764145
_cell_angle_alpha   109.06677673
_cell_angle_beta   109.37873419
_cell_angle_gamma   109.64442101
_symmetry_Int_Tables_number   1
_chemical_formula_structural   La3Pr7(Al2Ru3)2
_chemical_formula_sum   'La3 Pr7 Al4 Ru6'
_cell_volume   493.39803058
_cell_formula_units_Z   1
loop_
 _symmetry_equiv_pos_site_id
 _symmetry_equiv_pos_as_xyz
  1  'x, y, z'
loop_
 _atom_site_type_symbol
 _atom_site_label
 _atom_site_symmetry_multiplicity
 _atom_site_fract_x
 _atom_site_fract_y
 _atom_site_fract_z
 _atom_site_occupancy
  La  La0  1  0.250307  0.689474  0.441205  1
  La  La1  1  0.751732  0.810526  0.060833  1
  La  La2  1  0.440675  0.250000  0.690675  1
  Pr  Pr3  1  0.686700  0.436008  0.252882  1
  Pr  Pr4  1  0.064170  0.750000  0.814170  1
  Pr  Pr5  1  0.816874  0.063992  0.750692  1
  Pr  Pr6  1  0.216368  0.215543  0.214712  1
  Pr  Pr7  1  0.497258  0.995741  0.283266  1
  Pr  Pr8  1  0.287524  0.504259  0.001517  1
  Pr  Pr9  1  0.999169  0.284457  0.500825  1
  Al  Al10  1  0.590210  0.589816  0.587795  1
  Al  Al11  1  0.502935  0.003409  0.914871  1
  Al  Al12  1  0.911463  0.496591  0.999527  1
  Al  Al13  1  0.997979  0.910184  0.500394  1
  Ru  Ru14  1  0.254792  0.124362  0.862098  1
  Ru  Ru15  1  0.737736  0.375638  0.630430  1
  Ru  Ru16  1  0.868035  0.250000  0.118036  1
  Ru  Ru17  1  0.109611  0.859527  0.244606  1
  Ru  Ru18  1  0.631385  0.750000  0.381385  1
  Ru  Ru19  1  0.385077  0.640472  0.750083  1
