# generated using pymatgen
data_Dy2YEr2Bi3
_symmetry_space_group_name_H-M   'P 1'
_cell_length_a   8.24510300
_cell_length_b   9.49123900
_cell_length_c   12.05535400
_cell_angle_alpha   90.00000000
_cell_angle_beta   90.00000000
_cell_angle_gamma   90.00000000
_symmetry_Int_Tables_number   1
_chemical_formula_structural   Dy2YEr2Bi3
_chemical_formula_sum   'Dy8 Y4 Er8 Bi12'
_cell_volume   943.40671391
_cell_formula_units_Z   4
loop_
 _symmetry_equiv_pos_site_id
 _symmetry_equiv_pos_as_xyz
  1  'x, y, z'
loop_
 _atom_site_type_symbol
 _atom_site_label
 _atom_site_symmetry_multiplicity
 _atom_site_fract_x
 _atom_site_fract_y
 _atom_site_fract_z
 _atom_site_occupancy
  Dy  Dy0  1  0.186402  0.749901  0.718716  1
  Dy  Dy1  1  0.686402  0.750099  0.781284  1
  Dy  Dy2  1  0.813598  0.249901  0.281284  1
  Dy  Dy3  1  0.313598  0.250099  0.218716  1
  Dy  Dy4  1  0.693672  0.563324  0.059871  1
  Dy  Dy5  1  0.193672  0.936676  0.440129  1
  Dy  Dy6  1  0.306328  0.063324  0.940129  1
  Dy  Dy7  1  0.806328  0.436676  0.559871  1
  Y  Y8  1  0.354101  0.750089  0.215333  1
  Y  Y9  1  0.854101  0.749911  0.284667  1
  Y  Y10  1  0.645899  0.250089  0.784667  1
  Y  Y11  1  0.145899  0.249911  0.715333  1
  Er  Er12  1  0.025735  0.750113  0.988617  1
  Er  Er13  1  0.525735  0.749887  0.511383  1
  Er  Er14  1  0.974265  0.250113  0.011383  1
  Er  Er15  1  0.474265  0.249887  0.488617  1
  Er  Er16  1  0.306582  0.435367  0.940234  1
  Er  Er17  1  0.806582  0.064633  0.559766  1
  Er  Er18  1  0.693418  0.935367  0.059766  1
  Er  Er19  1  0.193418  0.564633  0.440234  1
  Bi  Bi20  1  0.433987  0.003631  0.673200  1
  Bi  Bi21  1  0.933987  0.496369  0.826800  1
  Bi  Bi22  1  0.566013  0.503631  0.326800  1
  Bi  Bi23  1  0.066013  0.996369  0.173200  1
  Bi  Bi24  1  0.566490  0.996201  0.326824  1
  Bi  Bi25  1  0.066490  0.503799  0.173176  1
  Bi  Bi26  1  0.433510  0.496201  0.673176  1
  Bi  Bi27  1  0.933510  0.003799  0.826824  1
  Bi  Bi28  1  0.408357  0.748912  0.957755  1
  Bi  Bi29  1  0.908357  0.751088  0.542245  1
  Bi  Bi30  1  0.591643  0.248912  0.042245  1
  Bi  Bi31  1  0.091643  0.251088  0.457755  1
