# generated using pymatgen
data_Ho2Tm3Lu11(CdNi)4
_symmetry_space_group_name_H-M   'P 1'
_cell_length_a   9.39404183
_cell_length_b   9.39338251
_cell_length_c   9.39431003
_cell_angle_alpha   59.98795102
_cell_angle_beta   59.99470253
_cell_angle_gamma   59.99187731
_symmetry_Int_Tables_number   1
_chemical_formula_structural   Ho2Tm3Lu11(CdNi)4
_chemical_formula_sum   'Ho2 Tm3 Lu11 Cd4 Ni4'
_cell_volume   586.05824246
_cell_formula_units_Z   1
loop_
 _symmetry_equiv_pos_site_id
 _symmetry_equiv_pos_as_xyz
  1  'x, y, z'
loop_
 _atom_site_type_symbol
 _atom_site_label
 _atom_site_symmetry_multiplicity
 _atom_site_fract_x
 _atom_site_fract_y
 _atom_site_fract_z
 _atom_site_occupancy
  Ho  Ho0  1  0.348104  0.348271  0.348954  1
  Ho  Ho1  1  0.348238  0.348261  0.954585  1
  Tm  Tm2  1  0.348004  0.954921  0.348552  1
  Tm  Tm3  1  0.954992  0.348044  0.348568  1
  Tm  Tm4  1  0.812164  0.188193  0.187929  1
  Lu  Lu5  1  0.188180  0.812190  0.811708  1
  Lu  Lu6  1  0.188285  0.812059  0.187936  1
  Lu  Lu7  1  0.812194  0.188189  0.811587  1
  Lu  Lu8  1  0.187828  0.187728  0.812154  1
  Lu  Lu9  1  0.811623  0.811483  0.188401  1
  Lu  Lu10  1  0.935970  0.564012  0.563977  1
  Lu  Lu11  1  0.564008  0.935973  0.936042  1
  Lu  Lu12  1  0.563947  0.935938  0.564040  1
  Lu  Lu13  1  0.936002  0.564083  0.936008  1
  Lu  Lu14  1  0.564128  0.564278  0.935766  1
  Lu  Lu15  1  0.936299  0.936242  0.563807  1
  Cd  Cd16  1  0.582088  0.582108  0.580993  1
  Cd  Cd17  1  0.582087  0.582124  0.254804  1
  Cd  Cd18  1  0.582556  0.254551  0.581470  1
  Cd  Cd19  1  0.254558  0.582567  0.581442  1
  Ni  Ni20  1  0.141506  0.141365  0.142739  1
  Ni  Ni21  1  0.141357  0.141356  0.574571  1
  Ni  Ni22  1  0.140675  0.575377  0.141980  1
  Ni  Ni23  1  0.575207  0.140685  0.141989  1
