# generated using pymatgen
data_TbNp(ZnP)6
_symmetry_space_group_name_H-M   'P 1'
_cell_length_a   4.01552100
_cell_length_b   4.01552058
_cell_length_c   19.76231700
_cell_angle_alpha   90.00000000
_cell_angle_beta   90.00000000
_cell_angle_gamma   119.99999522
_symmetry_Int_Tables_number   1
_chemical_formula_structural   TbNp(ZnP)6
_chemical_formula_sum   'Tb1 Np1 Zn6 P6'
_cell_volume   275.96389856
_cell_formula_units_Z   1
loop_
 _symmetry_equiv_pos_site_id
 _symmetry_equiv_pos_as_xyz
  1  'x, y, z'
loop_
 _atom_site_type_symbol
 _atom_site_label
 _atom_site_symmetry_multiplicity
 _atom_site_fract_x
 _atom_site_fract_y
 _atom_site_fract_z
 _atom_site_occupancy
  Tb  Tb0  1  0.000000  0.000000  0.500000  1
  Np  Np1  1  0.000000  0.000000  0.000000  1
  Zn  Zn2  1  0.333333  0.666667  0.750083  1
  Zn  Zn3  1  0.666667  0.333333  0.249917  1
  Zn  Zn4  1  0.333333  0.666667  0.126651  1
  Zn  Zn5  1  0.666667  0.333333  0.873349  1
  Zn  Zn6  1  0.666667  0.333333  0.628303  1
  Zn  Zn7  1  0.333333  0.666667  0.371697  1
  P  P8  1  0.333333  0.666667  0.584265  1
  P  P9  1  0.666667  0.333333  0.415735  1
  P  P10  1  0.666667  0.333333  0.081753  1
  P  P11  1  0.333333  0.666667  0.918247  1
  P  P12  1  0.333333  0.666667  0.248918  1
  P  P13  1  0.666667  0.333333  0.751082  1
