# generated using pymatgen
data_Y12Th4MgZn3Ir4
_symmetry_space_group_name_H-M   'P 1'
_cell_length_a   9.69312524
_cell_length_b   9.72145523
_cell_length_c   9.72146333
_cell_angle_alpha   59.84585904
_cell_angle_beta   59.81557038
_cell_angle_gamma   59.81572448
_symmetry_Int_Tables_number   1
_chemical_formula_structural   Y12Th4MgZn3Ir4
_chemical_formula_sum   'Y12 Th4 Mg1 Zn3 Ir4'
_cell_volume   645.19399112
_cell_formula_units_Z   1
loop_
 _symmetry_equiv_pos_site_id
 _symmetry_equiv_pos_as_xyz
  1  'x, y, z'
loop_
 _atom_site_type_symbol
 _atom_site_label
 _atom_site_symmetry_multiplicity
 _atom_site_fract_x
 _atom_site_fract_y
 _atom_site_fract_z
 _atom_site_occupancy
  Y  Y0  1  0.059436  0.440880  0.440880  1
  Y  Y1  1  0.437913  0.062186  0.062186  1
  Y  Y2  1  0.438691  0.061598  0.438957  1
  Y  Y3  1  0.060632  0.439826  0.060950  1
  Y  Y4  1  0.438691  0.438957  0.061598  1
  Y  Y5  1  0.060632  0.060949  0.439825  1
  Y  Y6  1  0.183229  0.815517  0.815517  1
  Y  Y7  1  0.813250  0.186613  0.186613  1
  Y  Y8  1  0.814647  0.188258  0.815654  1
  Y  Y9  1  0.182166  0.814243  0.190350  1
  Y  Y10  1  0.814647  0.815654  0.188258  1
  Y  Y11  1  0.182166  0.190350  0.814243  1
  Th  Th12  1  0.599935  0.598948  0.598948  1
  Th  Th13  1  0.603411  0.601621  0.195424  1
  Th  Th14  1  0.603411  0.195424  0.601621  1
  Th  Th15  1  0.188448  0.604638  0.604638  1
  Mg  Mg16  1  0.529706  0.821381  0.821381  1
  Zn  Zn17  1  0.832921  0.832981  0.832980  1
  Zn  Zn18  1  0.830647  0.831322  0.499557  1
  Zn  Zn19  1  0.830646  0.499557  0.831322  1
  Ir  Ir20  1  0.393155  0.394702  0.394703  1
  Ir  Ir21  1  0.391517  0.393347  0.818170  1
  Ir  Ir22  1  0.391517  0.818169  0.393347  1
  Ir  Ir23  1  0.818584  0.392875  0.392875  1
