# generated using pymatgen
data_Np5Co17Si2(P5Ru)2
_symmetry_space_group_name_H-M   'P 1'
_cell_length_a   12.08168500
_cell_length_b   12.05439877
_cell_length_c   3.70824700
_cell_angle_alpha   90.00000000
_cell_angle_beta   90.00000000
_cell_angle_gamma   119.92530679
_symmetry_Int_Tables_number   1
_chemical_formula_structural   Np5Co17Si2(P5Ru)2
_chemical_formula_sum   'Np5 Co17 Si2 P10 Ru2'
_cell_volume   468.05698611
_cell_formula_units_Z   1
loop_
 _symmetry_equiv_pos_site_id
 _symmetry_equiv_pos_as_xyz
  1  'x, y, z'
loop_
 _atom_site_type_symbol
 _atom_site_label
 _atom_site_symmetry_multiplicity
 _atom_site_fract_x
 _atom_site_fract_y
 _atom_site_fract_z
 _atom_site_occupancy
  Np  Np0  1  0.664767  0.332381  0.000000  1
  Np  Np1  1  0.335233  0.667614  0.000000  1
  Np  Np2  1  0.178676  0.179704  0.500000  1
  Np  Np3  1  0.821324  0.001028  0.500000  1
  Np  Np4  1  0.000000  0.814402  0.500000  1
  Co  Co5  1  0.000000  0.448526  0.000000  1
  Co  Co6  1  0.823179  0.203218  0.000000  1
  Co  Co7  1  0.804775  0.623503  0.000000  1
  Co  Co8  1  0.375026  0.176205  0.000000  1
  Co  Co9  1  0.195225  0.818727  0.000000  1
  Co  Co10  1  0.624974  0.801178  0.000000  1
  Co  Co11  1  0.176821  0.380039  0.000000  1
  Co  Co12  1  0.642337  0.125911  0.500000  1
  Co  Co13  1  0.875839  0.517523  0.500000  1
  Co  Co14  1  0.482979  0.356463  0.500000  1
  Co  Co15  1  0.124161  0.641683  0.500000  1
  Co  Co16  1  0.517021  0.873485  0.500000  1
  Co  Co17  1  0.357663  0.483575  0.500000  1
  Co  Co18  1  0.716618  0.715607  0.500000  1
  Co  Co19  1  0.283382  0.998991  0.500000  1
  Co  Co20  1  0.000000  0.289356  0.500000  1
  Co  Co21  1  0.000000  0.001117  0.000000  1
  Si  Si22  1  0.361782  0.362693  0.000000  1
  Si  Si23  1  0.638218  0.000911  0.000000  1
  P  P24  1  0.000000  0.631743  0.000000  1
  P  P25  1  0.832423  0.314475  0.500000  1
  P  P26  1  0.686987  0.519887  0.500000  1
  P  P27  1  0.478561  0.164833  0.500000  1
  P  P28  1  0.313013  0.832902  0.500000  1
  P  P29  1  0.521439  0.686272  0.500000  1
  P  P30  1  0.167577  0.482052  0.500000  1
  P  P31  1  0.817500  0.815869  0.000000  1
  P  P32  1  0.182500  0.998367  0.000000  1
  P  P33  1  0.000000  0.187057  0.000000  1
  Ru  Ru34  1  0.555727  0.554214  0.000000  1
  Ru  Ru35  1  0.444273  0.998487  0.000000  1
