# generated using pymatgen
data_Dy2Mn3Si7Pt9
_symmetry_space_group_name_H-M   'P 1'
_cell_length_a   9.89243600
_cell_length_b   9.89243564
_cell_length_c   3.92188200
_cell_angle_alpha   90.00000000
_cell_angle_beta   90.00000000
_cell_angle_gamma   120.00000079
_symmetry_Int_Tables_number   1
_chemical_formula_structural   Dy2Mn3Si7Pt9
_chemical_formula_sum   'Dy2 Mn3 Si7 Pt9'
_cell_volume   332.37751268
_cell_formula_units_Z   1
loop_
 _symmetry_equiv_pos_site_id
 _symmetry_equiv_pos_as_xyz
  1  'x, y, z'
loop_
 _atom_site_type_symbol
 _atom_site_label
 _atom_site_symmetry_multiplicity
 _atom_site_fract_x
 _atom_site_fract_y
 _atom_site_fract_z
 _atom_site_occupancy
  Dy  Dy0  1  0.000000  0.000000  0.000000  1
  Dy  Dy1  1  0.333333  0.666667  0.500000  1
  Mn  Mn2  1  0.880997  0.453939  0.500000  1
  Mn  Mn3  1  0.572943  0.119003  0.500000  1
  Mn  Mn4  1  0.546061  0.427057  0.500000  1
  Si  Si5  1  0.259858  0.215798  0.500000  1
  Si  Si6  1  0.784202  0.044061  0.500000  1
  Si  Si7  1  0.955939  0.740142  0.500000  1
  Si  Si8  1  0.552864  0.633003  0.000000  1
  Si  Si9  1  0.366997  0.919859  0.000000  1
  Si  Si10  1  0.080141  0.447136  0.000000  1
  Si  Si11  1  0.666667  0.333333  0.000000  1
  Pt  Pt12  1  0.224241  0.946333  0.500000  1
  Pt  Pt13  1  0.053667  0.277909  0.500000  1
  Pt  Pt14  1  0.722091  0.775759  0.500000  1
  Pt  Pt15  1  0.304249  0.408613  0.000000  1
  Pt  Pt16  1  0.591387  0.895636  0.000000  1
  Pt  Pt17  1  0.104364  0.695751  0.000000  1
  Pt  Pt18  1  0.393654  0.177483  0.000000  1
  Pt  Pt19  1  0.822517  0.216170  0.000000  1
  Pt  Pt20  1  0.783830  0.606346  0.000000  1
