# generated using pymatgen
data_Ho3HfAl14(Ga2Ir3)2
_symmetry_space_group_name_H-M   'P 1'
_cell_length_a   7.50805325
_cell_length_b   7.50397840
_cell_length_c   9.46687400
_cell_angle_alpha   90.00000000
_cell_angle_beta   90.00000000
_cell_angle_gamma   119.58352795
_symmetry_Int_Tables_number   1
_chemical_formula_structural   Ho3HfAl14(Ga2Ir3)2
_chemical_formula_sum   'Ho3 Hf1 Al14 Ga4 Ir6'
_cell_volume   463.83495515
_cell_formula_units_Z   1
loop_
 _symmetry_equiv_pos_site_id
 _symmetry_equiv_pos_as_xyz
  1  'x, y, z'
loop_
 _atom_site_type_symbol
 _atom_site_label
 _atom_site_symmetry_multiplicity
 _atom_site_fract_x
 _atom_site_fract_y
 _atom_site_fract_z
 _atom_site_occupancy
  Ho  Ho0  1  0.005012  0.327203  0.750000  1
  Ho  Ho1  1  0.674227  0.997167  0.250000  1
  Ho  Ho2  1  0.328798  0.006150  0.750000  1
  Hf  Hf3  1  0.998574  0.673804  0.250000  1
  Al  Al4  1  0.000032  0.338133  0.078325  1
  Al  Al5  1  0.998028  0.664712  0.930284  1
  Al  Al6  1  0.998028  0.664712  0.569716  1
  Al  Al7  1  0.332903  0.998576  0.421152  1
  Al  Al8  1  0.000032  0.338133  0.421675  1
  Al  Al9  1  0.664083  0.996780  0.573284  1
  Al  Al10  1  0.664083  0.996780  0.926716  1
  Al  Al11  1  0.332903  0.998576  0.078848  1
  Al  Al12  1  0.334430  0.334726  0.549159  1
  Al  Al13  1  0.668976  0.666651  0.435949  1
  Al  Al14  1  0.668976  0.666651  0.064051  1
  Al  Al15  1  0.334430  0.334726  0.950841  1
  Al  Al16  1  0.333901  0.550262  0.250000  1
  Al  Al17  1  0.556058  0.342020  0.250000  1
  Ga  Ga18  1  0.129997  0.128156  0.250000  1
  Ga  Ga19  1  0.870574  0.869115  0.750000  1
  Ga  Ga20  1  0.659789  0.451987  0.750000  1
  Ga  Ga21  1  0.450043  0.658215  0.750000  1
  Ir  Ir22  1  0.671929  0.327985  0.003038  1
  Ir  Ir23  1  0.327243  0.671911  0.003768  1
  Ir  Ir24  1  0.327243  0.671911  0.496232  1
  Ir  Ir25  1  0.671929  0.327985  0.496962  1
  Ir  Ir26  1  0.998888  0.998485  0.001102  1
  Ir  Ir27  1  0.998888  0.998485  0.498898  1
