# generated using pymatgen
data_CaZr8Mn(In7Co3)2
_symmetry_space_group_name_H-M   'P 1'
_cell_length_a   9.50596734
_cell_length_b   9.50573316
_cell_length_c   9.50574769
_cell_angle_alpha   60.15514226
_cell_angle_beta   60.15122455
_cell_angle_gamma   60.15227963
_symmetry_Int_Tables_number   1
_chemical_formula_structural   CaZr8Mn(In7Co3)2
_chemical_formula_sum   'Ca1 Zr8 Mn1 In14 Co6'
_cell_volume   609.47307644
_cell_formula_units_Z   1
loop_
 _symmetry_equiv_pos_site_id
 _symmetry_equiv_pos_as_xyz
  1  'x, y, z'
loop_
 _atom_site_type_symbol
 _atom_site_label
 _atom_site_symmetry_multiplicity
 _atom_site_fract_x
 _atom_site_fract_y
 _atom_site_fract_z
 _atom_site_occupancy
  Ca  Ca0  1  0.500000  0.500000  0.500000  1
  Zr  Zr1  1  0.119989  0.640771  0.119958  1
  Zr  Zr2  1  0.359223  0.880012  0.879989  1
  Zr  Zr3  1  0.879644  0.879594  0.879618  1
  Zr  Zr4  1  0.640777  0.119988  0.120011  1
  Zr  Zr5  1  0.879990  0.880041  0.359229  1
  Zr  Zr6  1  0.120356  0.120406  0.120382  1
  Zr  Zr7  1  0.880011  0.359229  0.880042  1
  Zr  Zr8  1  0.120010  0.119959  0.640771  1
  Mn  Mn9  1  0.000000  0.000000  0.000000  1
  In  In10  1  0.500004  0.843795  0.156215  1
  In  In11  1  0.500642  0.844112  0.500569  1
  In  In12  1  0.499358  0.155888  0.499431  1
  In  In13  1  0.500655  0.500536  0.844130  1
  In  In14  1  0.155887  0.499393  0.499410  1
  In  In15  1  0.843791  0.156202  0.500038  1
  In  In16  1  0.156209  0.843798  0.499962  1
  In  In17  1  0.499996  0.156205  0.843785  1
  In  In18  1  0.156223  0.499961  0.843786  1
  In  In19  1  0.499345  0.499464  0.155870  1
  In  In20  1  0.844113  0.500607  0.500590  1
  In  In21  1  0.843777  0.500039  0.156214  1
  In  In22  1  0.250193  0.250178  0.250176  1
  In  In23  1  0.749807  0.749822  0.749824  1
  Co  Co24  1  0.780516  0.780509  0.218039  1
  Co  Co25  1  0.219458  0.781982  0.219468  1
  Co  Co26  1  0.218079  0.780465  0.780471  1
  Co  Co27  1  0.219484  0.219491  0.781961  1
  Co  Co28  1  0.780542  0.218018  0.780532  1
  Co  Co29  1  0.781921  0.219535  0.219529  1
