# generated using pymatgen
data_Lu2Sc18Bi5Sb7
_symmetry_space_group_name_H-M   'P 1'
_cell_length_a   7.69659939
_cell_length_b   8.90167722
_cell_length_c   11.30827550
_cell_angle_alpha   89.97699546
_cell_angle_beta   89.91935380
_cell_angle_gamma   90.01051878
_symmetry_Int_Tables_number   1
_chemical_formula_structural   Lu2Sc18Bi5Sb7
_chemical_formula_sum   'Lu2 Sc18 Bi5 Sb7'
_cell_volume   774.75900374
_cell_formula_units_Z   1
loop_
 _symmetry_equiv_pos_site_id
 _symmetry_equiv_pos_as_xyz
  1  'x, y, z'
loop_
 _atom_site_type_symbol
 _atom_site_label
 _atom_site_symmetry_multiplicity
 _atom_site_fract_x
 _atom_site_fract_y
 _atom_site_fract_z
 _atom_site_occupancy
  Lu  Lu0  1  0.314445  0.753776  0.282444  1
  Lu  Lu1  1  0.683294  0.243470  0.718507  1
  Sc  Sc2  1  0.023448  0.244858  0.512087  1
  Sc  Sc3  1  0.976796  0.755314  0.488195  1
  Sc  Sc4  1  0.474185  0.752739  0.009452  1
  Sc  Sc5  1  0.524311  0.247315  0.986992  1
  Sc  Sc6  1  0.349361  0.247412  0.283485  1
  Sc  Sc7  1  0.647385  0.756007  0.717493  1
  Sc  Sc8  1  0.149051  0.756146  0.784217  1
  Sc  Sc9  1  0.854038  0.246704  0.216243  1
  Sc  Sc10  1  0.184243  0.243472  0.781457  1
  Sc  Sc11  1  0.818981  0.752487  0.219097  1
  Sc  Sc12  1  0.191493  0.063410  0.059819  1
  Sc  Sc13  1  0.807556  0.936731  0.937324  1
  Sc  Sc14  1  0.307664  0.936863  0.561292  1
  Sc  Sc15  1  0.808314  0.565029  0.940585  1
  Sc  Sc16  1  0.693723  0.063509  0.441285  1
  Sc  Sc17  1  0.191604  0.434842  0.059142  1
  Sc  Sc18  1  0.690239  0.434433  0.440506  1
  Sc  Sc19  1  0.309497  0.565657  0.559613  1
  Bi  Bi20  1  0.937414  0.506604  0.674034  1
  Bi  Bi21  1  0.569223  0.005336  0.173533  1
  Bi  Bi22  1  0.062345  0.493279  0.326386  1
  Bi  Bi23  1  0.568596  0.494673  0.173150  1
  Bi  Bi24  1  0.431003  0.505236  0.826160  1
  Sb  Sb25  1  0.404130  0.250090  0.535960  1
  Sb  Sb26  1  0.595962  0.749973  0.464065  1
  Sb  Sb27  1  0.090480  0.749978  0.037868  1
  Sb  Sb28  1  0.909209  0.250011  0.961955  1
  Sb  Sb29  1  0.062028  0.007086  0.326634  1
  Sb  Sb30  1  0.937973  0.992963  0.673055  1
  Sb  Sb31  1  0.432008  0.994598  0.827967  1
