# generated using pymatgen
data_Li2CrNi9Mo2P7
_symmetry_space_group_name_H-M   'P 1'
_cell_length_a   9.07528375
_cell_length_b   9.07542125
_cell_length_c   3.58760200
_cell_angle_alpha   90.00000000
_cell_angle_beta   90.00000000
_cell_angle_gamma   119.84007196
_symmetry_Int_Tables_number   1
_chemical_formula_structural   Li2CrNi9Mo2P7
_chemical_formula_sum   'Li2 Cr1 Ni9 Mo2 P7'
_cell_volume   256.30644349
_cell_formula_units_Z   1
loop_
 _symmetry_equiv_pos_site_id
 _symmetry_equiv_pos_as_xyz
  1  'x, y, z'
loop_
 _atom_site_type_symbol
 _atom_site_label
 _atom_site_symmetry_multiplicity
 _atom_site_fract_x
 _atom_site_fract_y
 _atom_site_fract_z
 _atom_site_occupancy
  Li  Li0  1  0.333838  0.666378  0.000000  1
  Li  Li1  1  0.667476  0.334552  0.500000  1
  Cr  Cr2  1  0.875403  0.777539  0.500000  1
  Ni  Ni3  1  0.713220  0.874708  0.000000  1
  Ni  Ni4  1  0.163785  0.289210  0.000000  1
  Ni  Ni5  1  0.123445  0.834954  0.000000  1
  Ni  Ni6  1  0.627584  0.564686  0.000000  1
  Ni  Ni7  1  0.936673  0.375607  0.000000  1
  Ni  Ni8  1  0.436049  0.062129  0.000000  1
  Ni  Ni9  1  0.555815  0.942121  0.500000  1
  Ni  Ni10  1  0.389085  0.444848  0.500000  1
  Ni  Ni11  1  0.052452  0.612503  0.500000  1
  Mo  Mo12  1  0.901761  0.124167  0.500000  1
  Mo  Mo13  1  0.219543  0.096810  0.500000  1
  P  P14  1  0.591761  0.710200  0.500000  1
  P  P15  1  0.125906  0.417300  0.500000  1
  P  P16  1  0.289460  0.873017  0.500000  1
  P  P17  1  0.996532  0.992434  0.000000  1
  P  P18  1  0.879106  0.587939  0.000000  1
  P  P19  1  0.702709  0.121018  0.000000  1
  P  P20  1  0.418397  0.297878  0.000000  1
