# generated using pymatgen
data_Tm18Lu2HgBi11
_symmetry_space_group_name_H-M   'P 1'
_cell_length_a   8.14936826
_cell_length_b   9.43439600
_cell_length_c   11.89701912
_cell_angle_alpha   90.00000000
_cell_angle_beta   89.66889249
_cell_angle_gamma   90.00000000
_symmetry_Int_Tables_number   1
_chemical_formula_structural   Tm18Lu2HgBi11
_chemical_formula_sum   'Tm18 Lu2 Hg1 Bi11'
_cell_volume   914.67951486
_cell_formula_units_Z   1
loop_
 _symmetry_equiv_pos_site_id
 _symmetry_equiv_pos_as_xyz
  1  'x, y, z'
loop_
 _atom_site_type_symbol
 _atom_site_label
 _atom_site_symmetry_multiplicity
 _atom_site_fract_x
 _atom_site_fract_y
 _atom_site_fract_z
 _atom_site_occupancy
  Tm  Tm0  1  0.978343  0.750000  0.489440  1
  Tm  Tm1  1  0.475460  0.750000  0.010559  1
  Tm  Tm2  1  0.355415  0.250000  0.289804  1
  Tm  Tm3  1  0.647527  0.750000  0.716862  1
  Tm  Tm4  1  0.149090  0.750000  0.783493  1
  Tm  Tm5  1  0.853528  0.250000  0.215404  1
  Tm  Tm6  1  0.191764  0.250000  0.779873  1
  Tm  Tm7  1  0.809637  0.750000  0.216995  1
  Tm  Tm8  1  0.312748  0.750000  0.281734  1
  Tm  Tm9  1  0.679730  0.250000  0.713237  1
  Tm  Tm10  1  0.193186  0.065906  0.060524  1
  Tm  Tm11  1  0.806800  0.934173  0.940762  1
  Tm  Tm12  1  0.307158  0.945854  0.559768  1
  Tm  Tm13  1  0.806800  0.565827  0.940762  1
  Tm  Tm14  1  0.688277  0.069916  0.443807  1
  Tm  Tm15  1  0.193186  0.434094  0.060524  1
  Tm  Tm16  1  0.688277  0.430084  0.443807  1
  Tm  Tm17  1  0.307158  0.554146  0.559768  1
  Lu  Lu18  1  0.033859  0.250000  0.508358  1
  Lu  Lu19  1  0.524950  0.250000  0.989893  1
  Hg  Hg20  1  0.405228  0.250000  0.540810  1
  Bi  Bi21  1  0.594103  0.750000  0.457367  1
  Bi  Bi22  1  0.094845  0.750000  0.043027  1
  Bi  Bi23  1  0.905338  0.250000  0.954646  1
  Bi  Bi24  1  0.062524  0.002558  0.323658  1
  Bi  Bi25  1  0.935751  0.997333  0.675423  1
  Bi  Bi26  1  0.435971  0.997002  0.825938  1
  Bi  Bi27  1  0.935751  0.502667  0.675423  1
  Bi  Bi28  1  0.564551  0.004008  0.174369  1
  Bi  Bi29  1  0.062524  0.497442  0.323658  1
  Bi  Bi30  1  0.564551  0.495992  0.174369  1
  Bi  Bi31  1  0.435971  0.502998  0.825938  1
