# generated using pymatgen
data_Ce2U2As6Ru7
_symmetry_space_group_name_H-M   'P 1'
_cell_length_a   7.24867226
_cell_length_b   7.29035608
_cell_length_c   7.25527188
_cell_angle_alpha   109.46742148
_cell_angle_beta   109.34837423
_cell_angle_gamma   109.40590209
_symmetry_Int_Tables_number   1
_chemical_formula_structural   Ce2U2As6Ru7
_chemical_formula_sum   'Ce2 U2 As6 Ru7'
_cell_volume   295.84435634
_cell_formula_units_Z   1
loop_
 _symmetry_equiv_pos_site_id
 _symmetry_equiv_pos_as_xyz
  1  'x, y, z'
loop_
 _atom_site_type_symbol
 _atom_site_label
 _atom_site_symmetry_multiplicity
 _atom_site_fract_x
 _atom_site_fract_y
 _atom_site_fract_z
 _atom_site_occupancy
  Ce  Ce0  1  0.000000  0.000000  0.500000  1
  Ce  Ce1  1  0.500000  0.000000  0.000000  1
  U  U2  1  0.000000  0.500000  0.000000  1
  U  U3  1  0.500000  0.500000  0.500000  1
  As  As4  1  0.313469  0.000070  0.313411  1
  As  As5  1  0.999343  0.312551  0.312663  1
  As  As6  1  0.000657  0.687449  0.687337  1
  As  As7  1  0.313043  0.313070  0.000001  1
  As  As8  1  0.686957  0.686930  0.999999  1
  As  As9  1  0.686531  0.999930  0.686589  1
  Ru  Ru10  1  0.750067  0.500213  0.250339  1
  Ru  Ru11  1  0.494357  0.744433  0.249514  1
  Ru  Ru12  1  0.505643  0.255567  0.750486  1
  Ru  Ru13  1  0.750602  0.256309  0.506380  1
  Ru  Ru14  1  0.249398  0.743691  0.493620  1
  Ru  Ru15  1  0.249933  0.499787  0.749661  1
  Ru  Ru16  1  0.000000  0.000000  0.000000  1
