# generated using pymatgen
data_SrCaHo2(SbAu)4
_symmetry_space_group_name_H-M   'P 1'
_cell_length_a   4.59943200
_cell_length_b   4.59943341
_cell_length_c   17.14101300
_cell_angle_alpha   90.00000000
_cell_angle_beta   90.00000000
_cell_angle_gamma   120.00000428
_symmetry_Int_Tables_number   1
_chemical_formula_structural   SrCaHo2(SbAu)4
_chemical_formula_sum   'Sr1 Ca1 Ho2 Sb4 Au4'
_cell_volume   314.03325071
_cell_formula_units_Z   1
loop_
 _symmetry_equiv_pos_site_id
 _symmetry_equiv_pos_as_xyz
  1  'x, y, z'
loop_
 _atom_site_type_symbol
 _atom_site_label
 _atom_site_symmetry_multiplicity
 _atom_site_fract_x
 _atom_site_fract_y
 _atom_site_fract_z
 _atom_site_occupancy
  Sr  Sr0  1  0.000000  0.000000  0.500000  1
  Ca  Ca1  1  0.000000  0.000000  0.000000  1
  Ho  Ho2  1  0.000000  0.000000  0.243088  1
  Ho  Ho3  1  0.000000  0.000000  0.756912  1
  Sb  Sb4  1  0.333333  0.666667  0.375027  1
  Sb  Sb5  1  0.666667  0.333333  0.624973  1
  Sb  Sb6  1  0.666667  0.333333  0.888728  1
  Sb  Sb7  1  0.333333  0.666667  0.111272  1
  Au  Au8  1  0.666667  0.333333  0.329881  1
  Au  Au9  1  0.333333  0.666667  0.670119  1
  Au  Au10  1  0.333333  0.666667  0.843150  1
  Au  Au11  1  0.666667  0.333333  0.156850  1
