# generated using pymatgen
data_K4(CuO2)3
_symmetry_space_group_name_H-M   'P 1'
_cell_length_a   5.48638921
_cell_length_b   5.48638951
_cell_length_c   8.05380716
_cell_angle_alpha   88.69365774
_cell_angle_beta   88.69365397
_cell_angle_gamma   68.61140065
_symmetry_Int_Tables_number   1
_chemical_formula_structural   K4(CuO2)3
_chemical_formula_sum   'K4 Cu3 O6'
_cell_volume   225.64129540
_cell_formula_units_Z   1
loop_
 _symmetry_equiv_pos_site_id
 _symmetry_equiv_pos_as_xyz
  1  'x, y, z'
loop_
 _atom_site_type_symbol
 _atom_site_label
 _atom_site_symmetry_multiplicity
 _atom_site_fract_x
 _atom_site_fract_y
 _atom_site_fract_z
 _atom_site_occupancy
  K  K0  1  0.675944  0.675944  0.625135  1
  K  K1  1  0.324056  0.324056  0.374865  1
  K  K2  1  0.652642  0.652642  0.108240  1
  K  K3  1  0.347358  0.347358  0.891760  1
  Cu  Cu4  1  0.000000  0.000000  0.000000  1
  Cu  Cu5  1  0.964176  0.964176  0.328029  1
  Cu  Cu6  1  0.035824  0.035824  0.671971  1
  O  O7  1  0.136238  0.728327  0.157659  1
  O  O8  1  0.728327  0.136238  0.157659  1
  O  O9  1  0.863762  0.271673  0.842341  1
  O  O10  1  0.271673  0.863762  0.842341  1
  O  O11  1  0.198914  0.801086  0.500000  1
  O  O12  1  0.801086  0.198914  0.500000  1
