# generated using pymatgen
data_BeFe4B2P
_symmetry_space_group_name_H-M   'P 1'
_cell_length_a   6.35819687
_cell_length_b   6.35819673
_cell_length_c   6.35819655
_cell_angle_alpha   131.09015327
_cell_angle_beta   131.09014419
_cell_angle_gamma   71.66988595
_symmetry_Int_Tables_number   1
_chemical_formula_structural   BeFe4B2P
_chemical_formula_sum   'Be2 Fe8 B4 P2'
_cell_volume   142.84949380
_cell_formula_units_Z   2
loop_
 _symmetry_equiv_pos_site_id
 _symmetry_equiv_pos_as_xyz
  1  'x, y, z'
loop_
 _atom_site_type_symbol
 _atom_site_label
 _atom_site_symmetry_multiplicity
 _atom_site_fract_x
 _atom_site_fract_y
 _atom_site_fract_z
 _atom_site_occupancy
  Be  Be0  1  0.500000  0.500000  0.000000  1
  Be  Be1  1  0.000000  0.000000  0.000000  1
  Fe  Fe2  1  0.313918  0.450828  0.500000  1
  Fe  Fe3  1  0.813918  0.313918  0.863090  1
  Fe  Fe4  1  0.686082  0.549172  0.500000  1
  Fe  Fe5  1  0.049172  0.186082  0.500000  1
  Fe  Fe6  1  0.549172  0.049172  0.863090  1
  Fe  Fe7  1  0.186082  0.686082  0.136910  1
  Fe  Fe8  1  0.450828  0.950828  0.136910  1
  Fe  Fe9  1  0.950828  0.813918  0.500000  1
  B  B10  1  0.882368  0.382368  0.264735  1
  B  B11  1  0.382368  0.117632  0.500000  1
  B  B12  1  0.117632  0.617632  0.735265  1
  B  B13  1  0.617632  0.882368  0.500000  1
  P  P14  1  0.250000  0.250000  0.000000  1
  P  P15  1  0.750000  0.750000  0.000000  1
