# generated using pymatgen
data_Dy2TmZr(Al3Ir)6
_symmetry_space_group_name_H-M   'P 1'
_cell_length_a   7.53815333
_cell_length_b   7.53006185
_cell_length_c   9.41103800
_cell_angle_alpha   90.00000000
_cell_angle_beta   90.00000000
_cell_angle_gamma   119.58405259
_symmetry_Int_Tables_number   1
_chemical_formula_structural   Dy2TmZr(Al3Ir)6
_chemical_formula_sum   'Dy2 Tm1 Zr1 Al18 Ir6'
_cell_volume   464.55457127
_cell_formula_units_Z   1
loop_
 _symmetry_equiv_pos_site_id
 _symmetry_equiv_pos_as_xyz
  1  'x, y, z'
loop_
 _atom_site_type_symbol
 _atom_site_label
 _atom_site_symmetry_multiplicity
 _atom_site_fract_x
 _atom_site_fract_y
 _atom_site_fract_z
 _atom_site_occupancy
  Dy  Dy0  1  0.005873  0.327230  0.750000  1
  Dy  Dy1  1  0.328638  0.006547  0.750000  1
  Tm  Tm2  1  0.671486  0.995815  0.250000  1
  Zr  Zr3  1  0.996695  0.672289  0.250000  1
  Al  Al4  1  0.125495  0.123394  0.250000  1
  Al  Al5  1  0.870163  0.868883  0.750000  1
  Al  Al6  1  0.999939  0.337434  0.079048  1
  Al  Al7  1  0.999205  0.664841  0.929293  1
  Al  Al8  1  0.999205  0.664841  0.570707  1
  Al  Al9  1  0.332988  0.998326  0.420726  1
  Al  Al10  1  0.999939  0.337434  0.420952  1
  Al  Al11  1  0.664390  0.998174  0.574261  1
  Al  Al12  1  0.664390  0.998174  0.925739  1
  Al  Al13  1  0.332988  0.998326  0.079274  1
  Al  Al14  1  0.333998  0.334094  0.550429  1
  Al  Al15  1  0.669000  0.667459  0.442954  1
  Al  Al16  1  0.669000  0.667459  0.057046  1
  Al  Al17  1  0.333998  0.334094  0.949571  1
  Al  Al18  1  0.336499  0.550263  0.250000  1
  Al  Al19  1  0.660710  0.451962  0.750000  1
  Al  Al20  1  0.555075  0.343688  0.250000  1
  Al  Al21  1  0.450800  0.659353  0.750000  1
  Ir  Ir22  1  0.672428  0.327957  0.001014  1
  Ir  Ir23  1  0.328153  0.672575  0.001752  1
  Ir  Ir24  1  0.328153  0.672575  0.498248  1
  Ir  Ir25  1  0.672428  0.327957  0.498986  1
  Ir  Ir26  1  0.999184  0.999427  0.001005  1
  Ir  Ir27  1  0.999184  0.999427  0.498995  1
