# generated using pymatgen
data_DyAl3NiHg
_symmetry_space_group_name_H-M   'P 1'
_cell_length_a   8.10401863
_cell_length_b   8.10401900
_cell_length_c   6.67698500
_cell_angle_alpha   90.00000000
_cell_angle_beta   90.00000000
_cell_angle_gamma   150.84040678
_symmetry_Int_Tables_number   1
_chemical_formula_structural   DyAl3NiHg
_chemical_formula_sum   'Dy2 Al6 Ni2 Hg2'
_cell_volume   213.66220991
_cell_formula_units_Z   2
loop_
 _symmetry_equiv_pos_site_id
 _symmetry_equiv_pos_as_xyz
  1  'x, y, z'
loop_
 _atom_site_type_symbol
 _atom_site_label
 _atom_site_symmetry_multiplicity
 _atom_site_fract_x
 _atom_site_fract_y
 _atom_site_fract_z
 _atom_site_occupancy
  Dy  Dy0  1  0.123873  0.876127  0.750000  1
  Dy  Dy1  1  0.876127  0.123873  0.250000  1
  Al  Al2  1  0.922079  0.077921  0.750000  1
  Al  Al3  1  0.077921  0.922079  0.250000  1
  Al  Al4  1  0.308875  0.691125  0.946708  1
  Al  Al5  1  0.691125  0.308875  0.053292  1
  Al  Al6  1  0.691125  0.308875  0.446708  1
  Al  Al7  1  0.308875  0.691125  0.553292  1
  Ni  Ni8  1  0.774421  0.225579  0.750000  1
  Ni  Ni9  1  0.225579  0.774421  0.250000  1
  Hg  Hg10  1  0.500000  0.500000  0.000000  1
  Hg  Hg11  1  0.500000  0.500000  0.500000  1
