# generated using pymatgen
data_YbY2Lu(Ir2O7)2
_symmetry_space_group_name_H-M   'P 1'
_cell_length_a   7.20668454
_cell_length_b   7.22119763
_cell_length_c   7.20668484
_cell_angle_alpha   60.15321197
_cell_angle_beta   60.13944759
_cell_angle_gamma   60.15321067
_symmetry_Int_Tables_number   1
_chemical_formula_structural   YbY2Lu(Ir2O7)2
_chemical_formula_sum   'Yb1 Y2 Lu1 Ir4 O14'
_cell_volume   266.08773220
_cell_formula_units_Z   1
loop_
 _symmetry_equiv_pos_site_id
 _symmetry_equiv_pos_as_xyz
  1  'x, y, z'
loop_
 _atom_site_type_symbol
 _atom_site_label
 _atom_site_symmetry_multiplicity
 _atom_site_fract_x
 _atom_site_fract_y
 _atom_site_fract_z
 _atom_site_occupancy
  Yb  Yb0  1  0.125000  0.625000  0.125000  1
  Y  Y1  1  0.625000  0.125000  0.125000  1
  Y  Y2  1  0.125000  0.125000  0.625000  1
  Lu  Lu3  1  0.125000  0.125000  0.125000  1
  Ir  Ir4  1  0.125000  0.625000  0.625000  1
  Ir  Ir5  1  0.625000  0.125000  0.625000  1
  Ir  Ir6  1  0.625000  0.625000  0.125000  1
  Ir  Ir7  1  0.625000  0.625000  0.625000  1
  O  O8  1  0.703889  0.713743  0.290819  1
  O  O9  1  0.289766  0.288366  0.716260  1
  O  O10  1  0.710534  0.288470  0.710534  1
  O  O11  1  0.290915  0.719701  0.290915  1
  O  O12  1  0.290819  0.713743  0.703889  1
  O  O13  1  0.716260  0.288366  0.289766  1
  O  O14  1  0.546111  0.536257  0.959181  1
  O  O15  1  0.960234  0.961634  0.533740  1
  O  O16  1  0.539466  0.961530  0.539466  1
  O  O17  1  0.959085  0.530299  0.959085  1
  O  O18  1  0.959181  0.536257  0.546111  1
  O  O19  1  0.533740  0.961634  0.960234  1
  O  O20  1  0.249590  0.242400  0.249590  1
  O  O21  1  0.000410  0.007600  0.000410  1
