# generated using pymatgen
data_Sm4CdGa4Ru3
_symmetry_space_group_name_H-M   'P 1'
_cell_length_a   4.61642000
_cell_length_b   7.33809654
_cell_length_c   7.41408039
_cell_angle_alpha   91.84056072
_cell_angle_beta   90.00000000
_cell_angle_gamma   90.00000000
_symmetry_Int_Tables_number   1
_chemical_formula_structural   Sm4CdGa4Ru3
_chemical_formula_sum   'Sm4 Cd1 Ga4 Ru3'
_cell_volume   251.02784844
_cell_formula_units_Z   1
loop_
 _symmetry_equiv_pos_site_id
 _symmetry_equiv_pos_as_xyz
  1  'x, y, z'
loop_
 _atom_site_type_symbol
 _atom_site_label
 _atom_site_symmetry_multiplicity
 _atom_site_fract_x
 _atom_site_fract_y
 _atom_site_fract_z
 _atom_site_occupancy
  Sm  Sm0  1  0.250000  0.010861  0.318124  1
  Sm  Sm1  1  0.250000  0.528787  0.199137  1
  Sm  Sm2  1  0.750000  0.967990  0.685370  1
  Sm  Sm3  1  0.750000  0.495865  0.794592  1
  Cd  Cd4  1  0.750000  0.168558  0.070919  1
  Ga  Ga5  1  0.250000  0.697983  0.603498  1
  Ga  Ga6  1  0.250000  0.190160  0.860995  1
  Ga  Ga7  1  0.750000  0.300806  0.421005  1
  Ga  Ga8  1  0.750000  0.791507  0.104788  1
  Ru  Ru9  1  0.250000  0.345510  0.559661  1
  Ru  Ru10  1  0.250000  0.845347  0.944131  1
  Ru  Ru11  1  0.750000  0.656627  0.437779  1
