# generated using pymatgen
data_La6PtBr10
_symmetry_space_group_name_H-M   'P 1'
_cell_length_a   7.81378978
_cell_length_b   9.76511730
_cell_length_c   9.79658219
_cell_angle_alpha   108.65518850
_cell_angle_beta   96.96227877
_cell_angle_gamma   106.09309866
_symmetry_Int_Tables_number   1
_chemical_formula_structural   La6PtBr10
_chemical_formula_sum   'La6 Pt1 Br10'
_cell_volume   662.14436748
_cell_formula_units_Z   1
loop_
 _symmetry_equiv_pos_site_id
 _symmetry_equiv_pos_as_xyz
  1  'x, y, z'
loop_
 _atom_site_type_symbol
 _atom_site_label
 _atom_site_symmetry_multiplicity
 _atom_site_fract_x
 _atom_site_fract_y
 _atom_site_fract_z
 _atom_site_occupancy
  La  La0  1  0.866492  0.948820  0.247571  1
  La  La1  1  0.133508  0.051180  0.752429  1
  La  La2  1  0.366163  0.140392  0.186683  1
  La  La3  1  0.633837  0.859608  0.813317  1
  La  La4  1  0.967614  0.303707  0.097484  1
  La  La5  1  0.032386  0.696293  0.902516  1
  Pt  Pt6  1  0.000000  0.000000  0.000000  1
  Br  Br7  1  0.352207  0.454682  0.269372  1
  Br  Br8  1  0.647793  0.545318  0.730628  1
  Br  Br9  1  0.917342  0.634355  0.170305  1
  Br  Br10  1  0.082658  0.365645  0.829695  1
  Br  Br11  1  0.452095  0.827055  0.079349  1
  Br  Br12  1  0.547905  0.172945  0.920651  1
  Br  Br13  1  0.245947  0.080136  0.452670  1
  Br  Br14  1  0.754053  0.919864  0.547330  1
  Br  Br15  1  0.788972  0.252795  0.345695  1
  Br  Br16  1  0.211028  0.747205  0.654305  1
