# generated using pymatgen
data_Tm6CrCo17(Si5P)2
_symmetry_space_group_name_H-M   'P 1'
_cell_length_a   3.72878600
_cell_length_b   10.66105700
_cell_length_c   12.24502200
_cell_angle_alpha   90.00000000
_cell_angle_beta   90.00000000
_cell_angle_gamma   90.00000000
_symmetry_Int_Tables_number   1
_chemical_formula_structural   Tm6CrCo17(Si5P)2
_chemical_formula_sum   'Tm6 Cr1 Co17 Si10 P2'
_cell_volume   486.77391162
_cell_formula_units_Z   1
loop_
 _symmetry_equiv_pos_site_id
 _symmetry_equiv_pos_as_xyz
  1  'x, y, z'
loop_
 _atom_site_type_symbol
 _atom_site_label
 _atom_site_symmetry_multiplicity
 _atom_site_fract_x
 _atom_site_fract_y
 _atom_site_fract_z
 _atom_site_occupancy
  Tm  Tm0  1  0.000000  0.500000  0.524873  1
  Tm  Tm1  1  0.500000  0.000000  0.472822  1
  Tm  Tm2  1  0.500000  0.818926  0.204774  1
  Tm  Tm3  1  0.500000  0.181074  0.204774  1
  Tm  Tm4  1  0.000000  0.679546  0.797305  1
  Tm  Tm5  1  0.000000  0.320454  0.797305  1
  Cr  Cr6  1  0.500000  0.500000  0.152608  1
  Co  Co7  1  0.000000  0.000000  0.847785  1
  Co  Co8  1  0.500000  0.500000  0.701739  1
  Co  Co9  1  0.000000  0.000000  0.303482  1
  Co  Co10  1  0.000000  0.500000  0.980413  1
  Co  Co11  1  0.500000  0.000000  0.016591  1
  Co  Co12  1  0.500000  0.332865  0.991970  1
  Co  Co13  1  0.500000  0.667135  0.991970  1
  Co  Co14  1  0.000000  0.168371  0.004805  1
  Co  Co15  1  0.000000  0.831629  0.004805  1
  Co  Co16  1  0.500000  0.305649  0.429565  1
  Co  Co17  1  0.500000  0.694351  0.429565  1
  Co  Co18  1  0.000000  0.199776  0.570575  1
  Co  Co19  1  0.000000  0.800224  0.570575  1
  Co  Co20  1  0.500000  0.882105  0.706855  1
  Co  Co21  1  0.500000  0.117895  0.706855  1
  Co  Co22  1  0.000000  0.616784  0.293130  1
  Co  Co23  1  0.000000  0.383216  0.293130  1
  Si  Si24  1  0.000000  0.000000  0.117354  1
  Si  Si25  1  0.000000  0.000000  0.659726  1
  Si  Si26  1  0.500000  0.307317  0.615909  1
  Si  Si27  1  0.500000  0.692683  0.615909  1
  Si  Si28  1  0.000000  0.195631  0.385377  1
  Si  Si29  1  0.000000  0.804369  0.385377  1
  Si  Si30  1  0.500000  0.852206  0.891876  1
  Si  Si31  1  0.500000  0.147794  0.891876  1
  Si  Si32  1  0.000000  0.651065  0.106132  1
  Si  Si33  1  0.000000  0.348935  0.106132  1
  P  P34  1  0.500000  0.500000  0.883297  1
  P  P35  1  0.500000  0.500000  0.342761  1
