# generated using pymatgen
data_Dy6Sn6Ir5Rh
_symmetry_space_group_name_H-M   'P 1'
_cell_length_a   7.48456200
_cell_length_b   7.48456265
_cell_length_c   7.91261100
_cell_angle_alpha   90.00000000
_cell_angle_beta   90.00000000
_cell_angle_gamma   120.00000597
_symmetry_Int_Tables_number   1
_chemical_formula_structural   Dy6Sn6Ir5Rh
_chemical_formula_sum   'Dy6 Sn6 Ir5 Rh1'
_cell_volume   383.86917496
_cell_formula_units_Z   1
loop_
 _symmetry_equiv_pos_site_id
 _symmetry_equiv_pos_as_xyz
  1  'x, y, z'
loop_
 _atom_site_type_symbol
 _atom_site_label
 _atom_site_symmetry_multiplicity
 _atom_site_fract_x
 _atom_site_fract_y
 _atom_site_fract_z
 _atom_site_occupancy
  Dy  Dy0  1  0.406984  0.999985  0.250000  1
  Dy  Dy1  1  0.593002  0.593016  0.250000  1
  Dy  Dy2  1  0.000015  0.406998  0.250000  1
  Dy  Dy3  1  0.595070  0.595410  0.750000  1
  Dy  Dy4  1  0.000340  0.404930  0.750000  1
  Dy  Dy5  1  0.404590  0.999660  0.750000  1
  Sn  Sn6  1  0.258858  0.258625  0.499209  1
  Sn  Sn7  1  0.258858  0.258625  0.000791  1
  Sn  Sn8  1  0.741375  0.000231  0.000791  1
  Sn  Sn9  1  0.999769  0.741142  0.499209  1
  Sn  Sn10  1  0.741375  0.000231  0.499209  1
  Sn  Sn11  1  0.999769  0.741142  0.000791  1
  Ir  Ir12  1  0.666667  0.333333  0.500951  1
  Ir  Ir13  1  0.666667  0.333333  0.999049  1
  Ir  Ir14  1  0.333333  0.666667  0.999787  1
  Ir  Ir15  1  0.333333  0.666667  0.500213  1
  Ir  Ir16  1  0.000000  0.000000  0.750000  1
  Rh  Rh17  1  0.000000  0.000000  0.250000  1
