# generated using pymatgen
data_Rb2NaAgF6
_symmetry_space_group_name_H-M   'P 1'
_cell_length_a   6.23584300
_cell_length_b   6.23584359
_cell_length_c   6.23584300
_cell_angle_alpha   120.00000217
_cell_angle_beta   90.00000000
_cell_angle_gamma   120.00000217
_symmetry_Int_Tables_number   1
_chemical_formula_structural   Rb2NaAgF6
_chemical_formula_sum   'Rb2 Na1 Ag1 F6'
_cell_volume   171.46304499
_cell_formula_units_Z   1
loop_
 _symmetry_equiv_pos_site_id
 _symmetry_equiv_pos_as_xyz
  1  'x, y, z'
loop_
 _atom_site_type_symbol
 _atom_site_label
 _atom_site_symmetry_multiplicity
 _atom_site_fract_x
 _atom_site_fract_y
 _atom_site_fract_z
 _atom_site_occupancy
  Rb  Rb0  1  0.749998  0.499999  0.249999  1
  Rb  Rb1  1  0.249999  0.499999  0.750001  1
  Na  Na2  1  0.500000  0.000000  0.500000  1
  Ag  Ag3  1  0.000000  0.000000  0.000000  1
  F  F4  1  0.759621  0.000000  0.240378  1
  F  F5  1  0.240379  0.480759  0.240379  1
  F  F6  1  0.240380  0.000000  0.240380  1
  F  F7  1  0.759620  0.000000  0.759620  1
  F  F8  1  0.240378  0.000000  0.759621  1
  F  F9  1  0.759621  0.519242  0.759621  1
