# generated using pymatgen
data_SmY7GePd24
_symmetry_space_group_name_H-M   'P 1'
_cell_length_a   8.37732909
_cell_length_b   8.37732909
_cell_length_c   8.37732909
_cell_angle_alpha   90.01162636
_cell_angle_beta   90.01162636
_cell_angle_gamma   90.01162636
_symmetry_Int_Tables_number   1
_chemical_formula_structural   SmY7GePd24
_chemical_formula_sum   'Sm1 Y7 Ge1 Pd24'
_cell_volume   587.91792506
_cell_formula_units_Z   1
loop_
 _symmetry_equiv_pos_site_id
 _symmetry_equiv_pos_as_xyz
  1  'x, y, z'
loop_
 _atom_site_type_symbol
 _atom_site_label
 _atom_site_symmetry_multiplicity
 _atom_site_fract_x
 _atom_site_fract_y
 _atom_site_fract_z
 _atom_site_occupancy
  Sm  Sm0  1  0.253272  0.253272  0.253272  1
  Y  Y1  1  0.746641  0.746641  0.746641  1
  Y  Y2  1  0.746616  0.746616  0.253381  1
  Y  Y3  1  0.746616  0.253381  0.746616  1
  Y  Y4  1  0.253337  0.253337  0.746716  1
  Y  Y5  1  0.253337  0.746716  0.253337  1
  Y  Y6  1  0.253381  0.746616  0.746616  1
  Y  Y7  1  0.746716  0.253337  0.253337  1
  Ge  Ge8  1  0.999986  0.999986  0.999986  1
  Pd  Pd9  1  0.259660  0.500620  0.999270  1
  Pd  Pd10  1  0.740341  0.500071  0.999940  1
  Pd  Pd11  1  0.999270  0.259660  0.500620  1
  Pd  Pd12  1  0.500620  0.259660  0.999270  1
  Pd  Pd13  1  0.999940  0.740341  0.500071  1
  Pd  Pd14  1  0.500071  0.740341  0.999940  1
  Pd  Pd15  1  0.500620  0.999270  0.259660  1
  Pd  Pd16  1  0.259660  0.999270  0.500620  1
  Pd  Pd17  1  0.500071  0.999940  0.740341  1
  Pd  Pd18  1  0.740341  0.999940  0.500071  1
  Pd  Pd19  1  0.999270  0.500620  0.259660  1
  Pd  Pd20  1  0.999940  0.500071  0.740341  1
  Pd  Pd21  1  0.253239  0.500733  0.500733  1
  Pd  Pd22  1  0.746772  0.500064  0.500064  1
  Pd  Pd23  1  0.500733  0.253239  0.500733  1
  Pd  Pd24  1  0.500064  0.746772  0.500064  1
  Pd  Pd25  1  0.500733  0.500733  0.253239  1
  Pd  Pd26  1  0.500064  0.500064  0.746772  1
  Pd  Pd27  1  0.289240  0.999295  0.999295  1
  Pd  Pd28  1  0.710968  0.999945  0.999945  1
  Pd  Pd29  1  0.999295  0.289240  0.999295  1
  Pd  Pd30  1  0.999945  0.710968  0.999945  1
  Pd  Pd31  1  0.999295  0.999295  0.289240  1
  Pd  Pd32  1  0.999945  0.999945  0.710968  1
