# generated using pymatgen
data_NdPaFe3Re14C3
_symmetry_space_group_name_H-M   'P 1'
_cell_length_a   6.93713842
_cell_length_b   6.93713914
_cell_length_c   6.93713838
_cell_angle_alpha   82.75784079
_cell_angle_beta   82.75784217
_cell_angle_gamma   82.75782870
_symmetry_Int_Tables_number   1
_chemical_formula_structural   NdPaFe3Re14C3
_chemical_formula_sum   'Nd1 Pa1 Fe3 Re14 C3'
_cell_volume   326.47146332
_cell_formula_units_Z   1
loop_
 _symmetry_equiv_pos_site_id
 _symmetry_equiv_pos_as_xyz
  1  'x, y, z'
loop_
 _atom_site_type_symbol
 _atom_site_label
 _atom_site_symmetry_multiplicity
 _atom_site_fract_x
 _atom_site_fract_y
 _atom_site_fract_z
 _atom_site_occupancy
  Nd  Nd0  1  0.652562  0.652562  0.652562  1
  Pa  Pa1  1  0.352212  0.352212  0.352212  1
  Fe  Fe2  1  0.997531  0.997531  0.500790  1
  Fe  Fe3  1  0.500790  0.997531  0.997531  1
  Fe  Fe4  1  0.997531  0.500790  0.997531  1
  Re  Re5  1  0.722103  0.275864  0.999738  1
  Re  Re6  1  0.999738  0.722103  0.275864  1
  Re  Re7  1  0.275864  0.999738  0.722103  1
  Re  Re8  1  0.999738  0.275864  0.722103  1
  Re  Re9  1  0.722103  0.999738  0.275864  1
  Re  Re10  1  0.275864  0.722103  0.999738  1
  Re  Re11  1  0.345191  0.345191  0.864219  1
  Re  Re12  1  0.864219  0.345191  0.345191  1
  Re  Re13  1  0.345191  0.864219  0.345191  1
  Re  Re14  1  0.651056  0.651056  0.144642  1
  Re  Re15  1  0.144642  0.651056  0.651056  1
  Re  Re16  1  0.651056  0.144642  0.651056  1
  Re  Re17  1  0.898130  0.898130  0.898130  1
  Re  Re18  1  0.103465  0.103465  0.103465  1
  C  C19  1  0.497878  0.497878  0.005256  1
  C  C20  1  0.005256  0.497878  0.497878  1
  C  C21  1  0.497878  0.005256  0.497878  1
