# generated using pymatgen
data_Zr4FeReOs6
_symmetry_space_group_name_H-M   'P 1'
_cell_length_a   5.15284314
_cell_length_b   5.15284585
_cell_length_c   8.62849100
_cell_angle_alpha   90.00000000
_cell_angle_beta   90.00000000
_cell_angle_gamma   118.05624297
_symmetry_Int_Tables_number   1
_chemical_formula_structural   Zr4FeReOs6
_chemical_formula_sum   'Zr4 Fe1 Re1 Os6'
_cell_volume   202.17940129
_cell_formula_units_Z   1
loop_
 _symmetry_equiv_pos_site_id
 _symmetry_equiv_pos_as_xyz
  1  'x, y, z'
loop_
 _atom_site_type_symbol
 _atom_site_label
 _atom_site_symmetry_multiplicity
 _atom_site_fract_x
 _atom_site_fract_y
 _atom_site_fract_z
 _atom_site_occupancy
  Zr  Zr0  1  0.330771  0.669229  0.437322  1
  Zr  Zr1  1  0.666124  0.333876  0.567847  1
  Zr  Zr2  1  0.666124  0.333876  0.932153  1
  Zr  Zr3  1  0.330771  0.669229  0.062678  1
  Fe  Fe4  1  0.170952  0.829048  0.750000  1
  Re  Re5  1  0.832106  0.167894  0.250000  1
  Os  Os6  1  0.999819  0.000181  0.503515  1
  Os  Os7  1  0.999819  0.000181  0.996485  1
  Os  Os8  1  0.829479  0.653276  0.250000  1
  Os  Os9  1  0.346724  0.170521  0.250000  1
  Os  Os10  1  0.173274  0.345961  0.750000  1
  Os  Os11  1  0.654039  0.826726  0.750000  1
