# generated using pymatgen
data_La3AlC3
_symmetry_space_group_name_H-M   'P 1'
_cell_length_a   3.85562400
_cell_length_b   7.65095600
_cell_length_c   10.39566500
_cell_angle_alpha   90.00000000
_cell_angle_beta   90.00000000
_cell_angle_gamma   90.00000000
_symmetry_Int_Tables_number   1
_chemical_formula_structural   La3AlC3
_chemical_formula_sum   'La6 Al2 C6'
_cell_volume   306.66390052
_cell_formula_units_Z   2
loop_
 _symmetry_equiv_pos_site_id
 _symmetry_equiv_pos_as_xyz
  1  'x, y, z'
loop_
 _atom_site_type_symbol
 _atom_site_label
 _atom_site_symmetry_multiplicity
 _atom_site_fract_x
 _atom_site_fract_y
 _atom_site_fract_z
 _atom_site_occupancy
  La  La0  1  0.500000  0.511449  0.193203  1
  La  La1  1  0.500000  0.488551  0.806797  1
  La  La2  1  0.500000  0.988551  0.193203  1
  La  La3  1  0.500000  0.011449  0.806797  1
  La  La4  1  0.000000  0.750000  0.461254  1
  La  La5  1  0.000000  0.250000  0.538746  1
  Al  Al6  1  0.000000  0.750000  0.013697  1
  Al  Al7  1  0.000000  0.250000  0.986303  1
  C  C8  1  0.500000  0.505953  0.563151  1
  C  C9  1  0.500000  0.494047  0.436849  1
  C  C10  1  0.500000  0.994047  0.563151  1
  C  C11  1  0.500000  0.005953  0.436849  1
  C  C12  1  0.000000  0.750000  0.209290  1
  C  C13  1  0.000000  0.250000  0.790710  1
