# generated using pymatgen
data_Eu2MgMnF10
_symmetry_space_group_name_H-M   'P 1'
_cell_length_a   5.71909962
_cell_length_b   5.72111496
_cell_length_c   7.84520596
_cell_angle_alpha   70.31602403
_cell_angle_beta   69.73874039
_cell_angle_gamma   72.11270756
_symmetry_Int_Tables_number   1
_chemical_formula_structural   Eu2MgMnF10
_chemical_formula_sum   'Eu2 Mg1 Mn1 F10'
_cell_volume   221.40136658
_cell_formula_units_Z   1
loop_
 _symmetry_equiv_pos_site_id
 _symmetry_equiv_pos_as_xyz
  1  'x, y, z'
loop_
 _atom_site_type_symbol
 _atom_site_label
 _atom_site_symmetry_multiplicity
 _atom_site_fract_x
 _atom_site_fract_y
 _atom_site_fract_z
 _atom_site_occupancy
  Eu  Eu0  1  0.554246  0.453904  0.743112  1
  Eu  Eu1  1  0.445754  0.546096  0.256888  1
  Mg  Mg2  1  0.000000  0.000000  0.500000  1
  Mn  Mn3  1  0.000000  0.000000  0.000000  1
  F  F4  1  0.091361  0.908664  0.251631  1
  F  F5  1  0.908639  0.091336  0.748369  1
  F  F6  1  0.212969  0.254672  0.379305  1
  F  F7  1  0.750063  0.791440  0.117650  1
  F  F8  1  0.706668  0.314530  0.031169  1
  F  F9  1  0.690125  0.291375  0.467472  1
  F  F10  1  0.293332  0.685470  0.968831  1
  F  F11  1  0.309875  0.708625  0.532528  1
  F  F12  1  0.249937  0.208560  0.882350  1
  F  F13  1  0.787031  0.745328  0.620695  1
