# generated using pymatgen
data_ZrTa(NiH3)2
_symmetry_space_group_name_H-M   'P 1'
_cell_length_a   5.40178425
_cell_length_b   5.40178325
_cell_length_c   4.30054500
_cell_angle_alpha   90.00000000
_cell_angle_beta   90.00000000
_cell_angle_gamma   142.66058560
_symmetry_Int_Tables_number   1
_chemical_formula_structural   ZrTa(NiH3)2
_chemical_formula_sum   'Zr1 Ta1 Ni2 H6'
_cell_volume   76.11216739
_cell_formula_units_Z   1
loop_
 _symmetry_equiv_pos_site_id
 _symmetry_equiv_pos_as_xyz
  1  'x, y, z'
loop_
 _atom_site_type_symbol
 _atom_site_label
 _atom_site_symmetry_multiplicity
 _atom_site_fract_x
 _atom_site_fract_y
 _atom_site_fract_z
 _atom_site_occupancy
  Zr  Zr0  1  0.141382  0.858618  0.000000  1
  Ta  Ta1  1  0.861303  0.138697  0.500000  1
  Ni  Ni2  1  0.565268  0.434732  0.500000  1
  Ni  Ni3  1  0.428396  0.571604  0.000000  1
  H  H4  1  0.693745  0.306255  0.743392  1
  H  H5  1  0.315779  0.684221  0.726699  1
  H  H6  1  0.693745  0.306255  0.256608  1
  H  H7  1  0.315779  0.684221  0.273301  1
  H  H8  1  0.063013  0.936987  0.500000  1
  H  H9  1  0.921588  0.078412  0.000000  1
