# generated using pymatgen
data_Ho16Tl2CdInRh4
_symmetry_space_group_name_H-M   'P 1'
_cell_length_a   9.62628217
_cell_length_b   9.61069812
_cell_length_c   9.62628071
_cell_angle_alpha   59.99017463
_cell_angle_beta   60.01925334
_cell_angle_gamma   59.99017833
_symmetry_Int_Tables_number   1
_chemical_formula_structural   Ho16Tl2CdInRh4
_chemical_formula_sum   'Ho16 Tl2 Cd1 In1 Rh4'
_cell_volume   629.73188148
_cell_formula_units_Z   1
loop_
 _symmetry_equiv_pos_site_id
 _symmetry_equiv_pos_as_xyz
  1  'x, y, z'
loop_
 _atom_site_type_symbol
 _atom_site_label
 _atom_site_symmetry_multiplicity
 _atom_site_fract_x
 _atom_site_fract_y
 _atom_site_fract_z
 _atom_site_occupancy
  Ho  Ho0  1  0.937264  0.935177  0.564030  1
  Ho  Ho1  1  0.563934  0.559165  0.938179  1
  Ho  Ho2  1  0.689235  0.689723  0.311453  1
  Ho  Ho3  1  0.148517  0.550369  0.148517  1
  Ho  Ho4  1  0.688339  0.313458  0.688339  1
  Ho  Ho5  1  0.151972  0.151666  0.151972  1
  Ho  Ho6  1  0.549705  0.148918  0.148375  1
  Ho  Ho7  1  0.688820  0.312450  0.311530  1
  Ho  Ho8  1  0.148375  0.148918  0.549705  1
  Ho  Ho9  1  0.311000  0.690005  0.311000  1
  Ho  Ho10  1  0.311453  0.689723  0.689235  1
  Ho  Ho11  1  0.938179  0.559165  0.563934  1
  Ho  Ho12  1  0.935710  0.561720  0.935710  1
  Ho  Ho13  1  0.561420  0.937919  0.561420  1
  Ho  Ho14  1  0.564030  0.935177  0.937264  1
  Ho  Ho15  1  0.311530  0.312450  0.688820  1
  Tl  Tl16  1  0.914102  0.917834  0.253853  1
  Tl  Tl17  1  0.253853  0.917834  0.914102  1
  Cd  Cd18  1  0.917156  0.248467  0.917156  1
  In  In19  1  0.915965  0.918857  0.915965  1
  Rh  Rh20  1  0.357703  0.358266  0.926897  1
  Rh  Rh21  1  0.357874  0.927042  0.357874  1
  Rh  Rh22  1  0.926897  0.358266  0.357703  1
  Rh  Rh23  1  0.356967  0.357427  0.356967  1
