# generated using pymatgen
data_HoZrCoN3
_symmetry_space_group_name_H-M   'P 1'
_cell_length_a   6.48293011
_cell_length_b   3.24532504
_cell_length_c   12.03574300
_cell_angle_alpha   90.00000000
_cell_angle_beta   21.83418994
_cell_angle_gamma   75.50488260
_symmetry_Int_Tables_number   1
_chemical_formula_structural   HoZrCoN3
_chemical_formula_sum   'Ho1 Zr1 Co1 N3'
_cell_volume   69.66015056
_cell_formula_units_Z   1
loop_
 _symmetry_equiv_pos_site_id
 _symmetry_equiv_pos_as_xyz
  1  'x, y, z'
loop_
 _atom_site_type_symbol
 _atom_site_label
 _atom_site_symmetry_multiplicity
 _atom_site_fract_x
 _atom_site_fract_y
 _atom_site_fract_z
 _atom_site_occupancy
  Ho  Ho0  1  0.000000  0.000000  0.647661  1
  Zr  Zr1  1  0.000000  0.000000  0.350288  1
  Co  Co2  1  0.000000  0.000000  0.000160  1
  N  N3  1  0.000000  0.500000  0.492381  1
  N  N4  1  0.000000  0.000000  0.837702  1
  N  N5  1  0.000000  0.000000  0.171808  1
