# generated using pymatgen
data_Ho12Fe2Co3Bi
_symmetry_space_group_name_H-M   'P 1'
_cell_length_a   8.26347951
_cell_length_b   8.26344981
_cell_length_c   8.26347998
_cell_angle_alpha   111.65790332
_cell_angle_beta   111.08754610
_cell_angle_gamma   105.73236350
_symmetry_Int_Tables_number   1
_chemical_formula_structural   Ho12Fe2Co3Bi
_chemical_formula_sum   'Ho12 Fe2 Co3 Bi1'
_cell_volume   432.98779933
_cell_formula_units_Z   1
loop_
 _symmetry_equiv_pos_site_id
 _symmetry_equiv_pos_as_xyz
  1  'x, y, z'
loop_
 _atom_site_type_symbol
 _atom_site_label
 _atom_site_symmetry_multiplicity
 _atom_site_fract_x
 _atom_site_fract_y
 _atom_site_fract_z
 _atom_site_occupancy
  Ho  Ho0  1  0.815281  0.715252  0.530536  1
  Ho  Ho1  1  0.184719  0.284748  0.469464  1
  Ho  Ho2  1  0.184717  0.715252  0.899971  1
  Ho  Ho3  1  0.815283  0.284748  0.100029  1
  Ho  Ho4  1  0.689173  0.380727  0.691555  1
  Ho  Ho5  1  0.310827  0.619273  0.308445  1
  Ho  Ho6  1  0.689173  0.997618  0.308445  1
  Ho  Ho7  1  0.310827  0.002382  0.691555  1
  Ho  Ho8  1  0.595710  0.791511  0.804200  1
  Ho  Ho9  1  0.404290  0.208489  0.195800  1
  Ho  Ho10  1  0.987312  0.791511  0.195802  1
  Ho  Ho11  1  0.012688  0.208489  0.804198  1
  Fe  Fe12  1  0.617250  0.000000  0.617250  1
  Fe  Fe13  1  0.382750  0.000000  0.382750  1
  Co  Co14  1  0.110571  0.610571  0.500000  1
  Co  Co15  1  0.889429  0.389429  0.500000  1
  Co  Co16  1  0.000000  0.000000  0.000000  1
  Bi  Bi17  1  0.500000  0.500000  0.000000  1
