# generated using pymatgen
data_CsP2IO7
_symmetry_space_group_name_H-M   'P 1'
_cell_length_a   6.37067606
_cell_length_b   6.37067554
_cell_length_c   6.08416182
_cell_angle_alpha   90.80587197
_cell_angle_beta   90.80587927
_cell_angle_gamma   105.47460389
_symmetry_Int_Tables_number   1
_chemical_formula_structural   CsP2IO7
_chemical_formula_sum   'Cs1 P2 I1 O7'
_cell_volume   237.91313239
_cell_formula_units_Z   1
loop_
 _symmetry_equiv_pos_site_id
 _symmetry_equiv_pos_as_xyz
  1  'x, y, z'
loop_
 _atom_site_type_symbol
 _atom_site_label
 _atom_site_symmetry_multiplicity
 _atom_site_fract_x
 _atom_site_fract_y
 _atom_site_fract_z
 _atom_site_occupancy
  Cs  Cs0  1  0.150832  0.849169  0.000000  1
  P  P1  1  0.668133  0.960136  0.402540  1
  P  P2  1  0.039864  0.331866  0.597460  1
  I  I3  1  0.548789  0.451211  0.500000  1
  O  O4  1  0.693209  0.871654  0.179763  1
  O  O5  1  0.222289  0.408241  0.415941  1
  O  O6  1  0.506524  0.102735  0.421392  1
  O  O7  1  0.903333  0.096667  0.500000  1
  O  O8  1  0.897264  0.493475  0.578609  1
  O  O9  1  0.591759  0.777712  0.584059  1
  O  O10  1  0.128345  0.306790  0.820237  1
