# generated using pymatgen
data_Li3Al(Si2Ni3)4
_symmetry_space_group_name_H-M   'P 1'
_cell_length_a   4.48234087
_cell_length_b   4.46043915
_cell_length_c   13.47395893
_cell_angle_alpha   88.55780700
_cell_angle_beta   89.34940626
_cell_angle_gamma   89.36594379
_symmetry_Int_Tables_number   1
_chemical_formula_structural   Li3Al(Si2Ni3)4
_chemical_formula_sum   'Li3 Al1 Si8 Ni12'
_cell_volume   269.26931713
_cell_formula_units_Z   1
loop_
 _symmetry_equiv_pos_site_id
 _symmetry_equiv_pos_as_xyz
  1  'x, y, z'
loop_
 _atom_site_type_symbol
 _atom_site_label
 _atom_site_symmetry_multiplicity
 _atom_site_fract_x
 _atom_site_fract_y
 _atom_site_fract_z
 _atom_site_occupancy
  Li  Li0  1  0.348644  0.832465  0.114986  1
  Li  Li1  1  0.345072  0.853287  0.449307  1
  Li  Li2  1  0.348523  0.844169  0.781260  1
  Al  Al3  1  0.847878  0.664403  0.215875  1
  Si  Si4  1  0.849958  0.673234  0.548437  1
  Si  Si5  1  0.851641  0.664236  0.879388  1
  Si  Si6  1  0.648766  0.342558  0.056867  1
  Si  Si7  1  0.644339  0.355010  0.388625  1
  Si  Si8  1  0.645727  0.348314  0.722078  1
  Si  Si9  1  0.158712  0.146775  0.282251  1
  Si  Si10  1  0.168774  0.148236  0.616108  1
  Si  Si11  1  0.173551  0.140633  0.949013  1
  Ni  Ni12  1  0.639185  0.156565  0.219132  1
  Ni  Ni13  1  0.653505  0.159802  0.551775  1
  Ni  Ni14  1  0.655493  0.151923  0.882945  1
  Ni  Ni15  1  0.137965  0.332680  0.115781  1
  Ni  Ni16  1  0.131234  0.355178  0.453649  1
  Ni  Ni17  1  0.136404  0.347124  0.784836  1
  Ni  Ni18  1  0.347625  0.638631  0.288865  1
  Ni  Ni19  1  0.358914  0.638842  0.616750  1
  Ni  Ni20  1  0.360578  0.630191  0.948841  1
  Ni  Ni21  1  0.849651  0.850997  0.039175  1
  Ni  Ni22  1  0.846197  0.867838  0.382894  1
  Ni  Ni23  1  0.851664  0.856905  0.711160  1
