# generated using pymatgen
data_Nd5Pt19
_symmetry_space_group_name_H-M   'P 1'
_cell_length_a   5.42305366
_cell_length_b   5.42305442
_cell_length_c   18.28801429
_cell_angle_alpha   81.47343700
_cell_angle_beta   81.47343568
_cell_angle_gamma   59.99999705
_symmetry_Int_Tables_number   1
_chemical_formula_structural   Nd5Pt19
_chemical_formula_sum   'Nd5 Pt19'
_cell_volume   458.90739062
_cell_formula_units_Z   1
loop_
 _symmetry_equiv_pos_site_id
 _symmetry_equiv_pos_as_xyz
  1  'x, y, z'
loop_
 _atom_site_type_symbol
 _atom_site_label
 _atom_site_symmetry_multiplicity
 _atom_site_fract_x
 _atom_site_fract_y
 _atom_site_fract_z
 _atom_site_occupancy
  Nd  Nd0  1  0.000000  0.000000  0.000000  1
  Nd  Nd1  1  0.077396  0.077396  0.767811  1
  Nd  Nd2  1  0.922604  0.922604  0.232189  1
  Nd  Nd3  1  0.152129  0.152129  0.543612  1
  Nd  Nd4  1  0.847871  0.847871  0.456388  1
  Pt  Pt5  1  0.500000  0.500000  0.500000  1
  Pt  Pt6  1  0.249981  0.249981  0.250056  1
  Pt  Pt7  1  0.750019  0.750019  0.749944  1
  Pt  Pt8  1  0.333349  0.333349  0.999953  1
  Pt  Pt9  1  0.666651  0.666651  0.000047  1
  Pt  Pt10  1  0.416393  0.416393  0.750822  1
  Pt  Pt11  1  0.583607  0.583607  0.249178  1
  Pt  Pt12  1  0.122581  0.626342  0.624735  1
  Pt  Pt13  1  0.626342  0.626342  0.624735  1
  Pt  Pt14  1  0.626342  0.122581  0.624735  1
  Pt  Pt15  1  0.877419  0.373658  0.375265  1
  Pt  Pt16  1  0.373658  0.373658  0.375265  1
  Pt  Pt17  1  0.373658  0.877419  0.375265  1
  Pt  Pt18  1  0.041057  0.541299  0.876344  1
  Pt  Pt19  1  0.541299  0.541299  0.876344  1
  Pt  Pt20  1  0.541299  0.041057  0.876344  1
  Pt  Pt21  1  0.958943  0.458701  0.123656  1
  Pt  Pt22  1  0.458701  0.458701  0.123656  1
  Pt  Pt23  1  0.458701  0.958943  0.123656  1
