# generated using pymatgen
data_Lu5InSb2
_symmetry_space_group_name_H-M   'P 1'
_cell_length_a   6.31853601
_cell_length_b   8.78711935
_cell_length_c   8.78064117
_cell_angle_alpha   120.02441796
_cell_angle_beta   90.00320504
_cell_angle_gamma   89.99360574
_symmetry_Int_Tables_number   1
_chemical_formula_structural   Lu5InSb2
_chemical_formula_sum   'Lu10 In2 Sb4'
_cell_volume   422.09765283
_cell_formula_units_Z   2
loop_
 _symmetry_equiv_pos_site_id
 _symmetry_equiv_pos_as_xyz
  1  'x, y, z'
loop_
 _atom_site_type_symbol
 _atom_site_label
 _atom_site_symmetry_multiplicity
 _atom_site_fract_x
 _atom_site_fract_y
 _atom_site_fract_z
 _atom_site_occupancy
  Lu  Lu0  1  0.501157  0.332791  0.663829  1
  Lu  Lu1  1  0.501157  0.668962  0.336171  1
  Lu  Lu2  1  0.998848  0.668963  0.336165  1
  Lu  Lu3  1  0.998848  0.332798  0.663835  1
  Lu  Lu4  1  0.750008  0.240492  0.000000  1
  Lu  Lu5  1  0.750010  0.759622  0.758017  1
  Lu  Lu6  1  0.750010  0.001605  0.241983  1
  Lu  Lu7  1  0.250034  0.761062  0.000000  1
  Lu  Lu8  1  0.249996  0.238547  0.242866  1
  Lu  Lu9  1  0.249996  0.995681  0.757134  1
  In  In10  1  0.250003  0.606433  0.606730  1
  In  In11  1  0.250003  0.999703  0.393270  1
  Sb  Sb12  1  0.749959  0.608606  0.000000  1
  Sb  Sb13  1  0.749989  0.392954  0.391465  1
  Sb  Sb14  1  0.749989  0.001488  0.608535  1
  Sb  Sb15  1  0.249996  0.390295  0.000000  1
