# generated using pymatgen
data_Ta2Be8VRh
_symmetry_space_group_name_H-M   'P 1'
_cell_length_a   4.45873300
_cell_length_b   4.45873321
_cell_length_c   7.35630000
_cell_angle_alpha   90.00000000
_cell_angle_beta   90.00000000
_cell_angle_gamma   120.00000586
_symmetry_Int_Tables_number   1
_chemical_formula_structural   Ta2Be8VRh
_chemical_formula_sum   'Ta2 Be8 V1 Rh1'
_cell_volume   126.65227391
_cell_formula_units_Z   1
loop_
 _symmetry_equiv_pos_site_id
 _symmetry_equiv_pos_as_xyz
  1  'x, y, z'
loop_
 _atom_site_type_symbol
 _atom_site_label
 _atom_site_symmetry_multiplicity
 _atom_site_fract_x
 _atom_site_fract_y
 _atom_site_fract_z
 _atom_site_occupancy
  Ta  Ta0  1  0.666667  0.333333  0.561517  1
  Ta  Ta1  1  0.666667  0.333333  0.942140  1
  Be  Be2  1  0.000000  0.000000  0.003027  1
  Be  Be3  1  0.000000  0.000000  0.490732  1
  Be  Be4  1  0.830666  0.661330  0.252959  1
  Be  Be5  1  0.168353  0.831647  0.747651  1
  Be  Be6  1  0.663294  0.831647  0.747651  1
  Be  Be7  1  0.338670  0.169334  0.252959  1
  Be  Be8  1  0.830666  0.169334  0.252959  1
  Be  Be9  1  0.168353  0.336706  0.747651  1
  V  V10  1  0.333333  0.666667  0.429275  1
  Rh  Rh11  1  0.333333  0.666667  0.071478  1
