# generated using pymatgen
data_Sc7SbTe7
_symmetry_space_group_name_H-M   'P 1'
_cell_length_a   7.97843124
_cell_length_b   7.97842953
_cell_length_c   9.90439921
_cell_angle_alpha   54.44028995
_cell_angle_beta   54.44029888
_cell_angle_gamma   63.20484438
_symmetry_Int_Tables_number   1
_chemical_formula_structural   Sc7SbTe7
_chemical_formula_sum   'Sc7 Sb1 Te7'
_cell_volume   411.15907351
_cell_formula_units_Z   1
loop_
 _symmetry_equiv_pos_site_id
 _symmetry_equiv_pos_as_xyz
  1  'x, y, z'
loop_
 _atom_site_type_symbol
 _atom_site_label
 _atom_site_symmetry_multiplicity
 _atom_site_fract_x
 _atom_site_fract_y
 _atom_site_fract_z
 _atom_site_occupancy
  Sc  Sc0  1  0.738837  0.261569  0.497620  1
  Sc  Sc1  1  0.261569  0.738837  0.497620  1
  Sc  Sc2  1  0.506188  0.998491  0.497780  1
  Sc  Sc3  1  0.998491  0.506188  0.497780  1
  Sc  Sc4  1  0.746375  0.746375  0.007085  1
  Sc  Sc5  1  0.249950  0.249950  0.998086  1
  Sc  Sc6  1  0.998836  0.998836  0.004551  1
  Sb  Sb7  1  0.960943  0.960943  0.334375  1
  Te  Te8  1  0.039568  0.039568  0.666496  1
  Te  Te9  1  0.542167  0.044954  0.164578  1
  Te  Te10  1  0.458261  0.955263  0.834779  1
  Te  Te11  1  0.955263  0.458261  0.834779  1
  Te  Te12  1  0.044954  0.542167  0.164578  1
  Te  Te13  1  0.456081  0.456081  0.325276  1
  Te  Te14  1  0.542516  0.542516  0.674617  1
