# generated using pymatgen
data_Sc5VOsC7
_symmetry_space_group_name_H-M   'P 1'
_cell_length_a   7.85964868
_cell_length_b   7.85965055
_cell_length_c   3.23051000
_cell_angle_alpha   90.00000000
_cell_angle_beta   90.00000000
_cell_angle_gamma   121.00091916
_symmetry_Int_Tables_number   1
_chemical_formula_structural   Sc5VOsC7
_chemical_formula_sum   'Sc5 V1 Os1 C7'
_cell_volume   171.05621946
_cell_formula_units_Z   1
loop_
 _symmetry_equiv_pos_site_id
 _symmetry_equiv_pos_as_xyz
  1  'x, y, z'
loop_
 _atom_site_type_symbol
 _atom_site_label
 _atom_site_symmetry_multiplicity
 _atom_site_fract_x
 _atom_site_fract_y
 _atom_site_fract_z
 _atom_site_occupancy
  Sc  Sc0  1  0.082297  0.340991  0.500000  1
  Sc  Sc1  1  0.342730  0.085285  0.500000  1
  Sc  Sc2  1  0.501473  0.498527  0.000000  1
  Sc  Sc3  1  0.914715  0.657270  0.500000  1
  Sc  Sc4  1  0.659009  0.917703  0.500000  1
  V  V5  1  0.288895  0.711105  0.000000  1
  Os  Os6  1  0.714578  0.285422  0.000000  1
  C  C7  1  0.000133  0.999867  0.000000  1
  C  C8  1  0.006827  0.509418  0.000000  1
  C  C9  1  0.490582  0.993173  0.000000  1
  C  C10  1  0.173853  0.174880  0.000000  1
  C  C11  1  0.825120  0.826147  0.000000  1
  C  C12  1  0.619588  0.380412  0.500000  1
  C  C13  1  0.380199  0.619801  0.500000  1
