# generated using pymatgen
data_Nd4Co9P12Rh7W4
_symmetry_space_group_name_H-M   'P 1'
_cell_length_a   3.85679400
_cell_length_b   10.74951011
_cell_length_c   12.34809805
_cell_angle_alpha   89.73896193
_cell_angle_beta   90.00000000
_cell_angle_gamma   90.00000000
_symmetry_Int_Tables_number   1
_chemical_formula_structural   Nd4Co9P12Rh7W4
_chemical_formula_sum   'Nd4 Co9 P12 Rh7 W4'
_cell_volume   511.93011422
_cell_formula_units_Z   1
loop_
 _symmetry_equiv_pos_site_id
 _symmetry_equiv_pos_as_xyz
  1  'x, y, z'
loop_
 _atom_site_type_symbol
 _atom_site_label
 _atom_site_symmetry_multiplicity
 _atom_site_fract_x
 _atom_site_fract_y
 _atom_site_fract_z
 _atom_site_occupancy
  Nd  Nd0  1  0.250000  0.581325  0.706916  1
  Nd  Nd1  1  0.250000  0.915543  0.209040  1
  Nd  Nd2  1  0.750000  0.421063  0.292310  1
  Nd  Nd3  1  0.750000  0.080466  0.792277  1
  Co  Co4  1  0.750000  0.725942  0.321148  1
  Co  Co5  1  0.250000  0.885497  0.691385  1
  Co  Co6  1  0.250000  0.618796  0.196598  1
  Co  Co7  1  0.750000  0.111004  0.307420  1
  Co  Co8  1  0.750000  0.385568  0.806000  1
  Co  Co9  1  0.250000  0.465135  0.935619  1
  Co  Co10  1  0.250000  0.034615  0.436067  1
  Co  Co11  1  0.750000  0.534893  0.065208  1
  Co  Co12  1  0.750000  0.965208  0.561916  1
  P  P13  1  0.250000  0.429399  0.110907  1
  P  P14  1  0.250000  0.072715  0.610042  1
  P  P15  1  0.750000  0.571904  0.890359  1
  P  P16  1  0.750000  0.919626  0.387157  1
  P  P17  1  0.250000  0.276004  0.870769  1
  P  P18  1  0.250000  0.224836  0.370659  1
  P  P19  1  0.750000  0.722078  0.137478  1
  P  P20  1  0.750000  0.775636  0.628878  1
  P  P21  1  0.250000  0.608889  0.381939  1
  P  P22  1  0.250000  0.896136  0.888139  1
  P  P23  1  0.750000  0.398159  0.611315  1
  P  P24  1  0.750000  0.102088  0.113651  1
  Rh  Rh25  1  0.250000  0.405214  0.484990  1
  Rh  Rh26  1  0.250000  0.095957  0.986352  1
  Rh  Rh27  1  0.750000  0.599586  0.510475  1
  Rh  Rh28  1  0.750000  0.901023  0.016216  1
  Rh  Rh29  1  0.250000  0.225687  0.181514  1
  Rh  Rh30  1  0.250000  0.274115  0.680432  1
  Rh  Rh31  1  0.750000  0.774474  0.819235  1
  W  W32  1  0.250000  0.704271  0.987860  1
  W  W33  1  0.250000  0.796900  0.483445  1
  W  W34  1  0.750000  0.295596  0.013749  1
  W  W35  1  0.750000  0.204654  0.512531  1
