# generated using pymatgen
data_MgSc6Al5(Ga2Au)2
_symmetry_space_group_name_H-M   'P 1'
_cell_length_a   6.78167867
_cell_length_b   6.78164044
_cell_length_c   8.37298300
_cell_angle_alpha   90.00029307
_cell_angle_beta   89.99969085
_cell_angle_gamma   119.56602317
_symmetry_Int_Tables_number   1
_chemical_formula_structural   MgSc6Al5(Ga2Au)2
_chemical_formula_sum   'Mg1 Sc6 Al5 Ga4 Au2'
_cell_volume   334.93877949
_cell_formula_units_Z   1
loop_
 _symmetry_equiv_pos_site_id
 _symmetry_equiv_pos_as_xyz
  1  'x, y, z'
loop_
 _atom_site_type_symbol
 _atom_site_label
 _atom_site_symmetry_multiplicity
 _atom_site_fract_x
 _atom_site_fract_y
 _atom_site_fract_z
 _atom_site_occupancy
  Mg  Mg0  1  0.756034  0.756035  0.000002  1
  Sc  Sc1  1  0.573407  0.999412  0.747849  1
  Sc  Sc2  1  0.000083  0.573760  0.747875  1
  Sc  Sc3  1  0.423665  0.424020  0.748630  1
  Sc  Sc4  1  0.999409  0.573411  0.252151  1
  Sc  Sc5  1  0.573767  0.000086  0.252127  1
  Sc  Sc6  1  0.424023  0.423661  0.251367  1
  Al  Al7  1  0.246311  0.000717  0.999998  1
  Al  Al8  1  0.000713  0.246304  0.999999  1
  Al  Al9  1  0.754063  0.754069  0.500002  1
  Al  Al10  1  0.247908  0.001449  0.500002  1
  Al  Al11  1  0.001442  0.247899  0.500001  1
  Ga  Ga12  1  0.664141  0.326737  0.999705  1
  Ga  Ga13  1  0.666913  0.333220  0.500261  1
  Ga  Ga14  1  0.333230  0.666920  0.499744  1
  Ga  Ga15  1  0.326745  0.664149  0.000288  1
  Au  Au16  1  0.004072  0.004078  0.746609  1
  Au  Au17  1  0.004073  0.004072  0.253391  1
