# generated using pymatgen
data_LiY8Mg(SiB4)4
_symmetry_space_group_name_H-M   'P 1'
_cell_length_a   7.16913000
_cell_length_b   7.16913000
_cell_length_c   7.87095400
_cell_angle_alpha   90.00000000
_cell_angle_beta   90.00000000
_cell_angle_gamma   90.00000000
_symmetry_Int_Tables_number   1
_chemical_formula_structural   LiY8Mg(SiB4)4
_chemical_formula_sum   'Li1 Y8 Mg1 Si4 B16'
_cell_volume   404.53889660
_cell_formula_units_Z   1
loop_
 _symmetry_equiv_pos_site_id
 _symmetry_equiv_pos_as_xyz
  1  'x, y, z'
loop_
 _atom_site_type_symbol
 _atom_site_label
 _atom_site_symmetry_multiplicity
 _atom_site_fract_x
 _atom_site_fract_y
 _atom_site_fract_z
 _atom_site_occupancy
  Li  Li0  1  0.000000  0.000000  0.500000  1
  Y  Y1  1  0.684113  0.182178  0.234633  1
  Y  Y2  1  0.315887  0.817822  0.765367  1
  Y  Y3  1  0.315887  0.817822  0.234633  1
  Y  Y4  1  0.817822  0.684113  0.234633  1
  Y  Y5  1  0.817822  0.684113  0.765367  1
  Y  Y6  1  0.684113  0.182178  0.765367  1
  Y  Y7  1  0.182178  0.315887  0.765367  1
  Y  Y8  1  0.182178  0.315887  0.234633  1
  Mg  Mg9  1  0.500000  0.500000  0.500000  1
  Si  Si10  1  0.113855  0.615882  0.500000  1
  Si  Si11  1  0.886145  0.384118  0.500000  1
  Si  Si12  1  0.384118  0.113855  0.500000  1
  Si  Si13  1  0.615882  0.886145  0.500000  1
  B  B14  1  0.174065  0.039485  0.000000  1
  B  B15  1  0.825935  0.960515  0.000000  1
  B  B16  1  0.960515  0.174065  0.000000  1
  B  B17  1  0.326605  0.539575  0.000000  1
  B  B18  1  0.039485  0.825935  0.000000  1
  B  B19  1  0.673395  0.460425  0.000000  1
  B  B20  1  0.539575  0.673395  0.000000  1
  B  B21  1  0.460425  0.326605  0.000000  1
  B  B22  1  0.089045  0.589167  0.000000  1
  B  B23  1  0.910955  0.410833  0.000000  1
  B  B24  1  0.410833  0.089045  0.000000  1
  B  B25  1  0.589167  0.910955  0.000000  1
  B  B26  1  0.000000  0.000000  0.159713  1
  B  B27  1  0.000000  0.000000  0.840287  1
  B  B28  1  0.500000  0.500000  0.837879  1
  B  B29  1  0.500000  0.500000  0.162121  1
