# generated using pymatgen
data_Tm4(PbO4)3
_symmetry_space_group_name_H-M   'P 1'
_cell_length_a   6.42180429
_cell_length_b   6.47593944
_cell_length_c   6.67102461
_cell_angle_alpha   100.46240146
_cell_angle_beta   98.64619748
_cell_angle_gamma   99.47768001
_symmetry_Int_Tables_number   1
_chemical_formula_structural   Tm4(PbO4)3
_chemical_formula_sum   'Tm4 Pb3 O12'
_cell_volume   264.40643558
_cell_formula_units_Z   1
loop_
 _symmetry_equiv_pos_site_id
 _symmetry_equiv_pos_as_xyz
  1  'x, y, z'
loop_
 _atom_site_type_symbol
 _atom_site_label
 _atom_site_symmetry_multiplicity
 _atom_site_fract_x
 _atom_site_fract_y
 _atom_site_fract_z
 _atom_site_occupancy
  Tm  Tm0  1  0.395379  0.699924  0.862851  1
  Tm  Tm1  1  0.692813  0.868570  0.389054  1
  Tm  Tm2  1  0.604621  0.300076  0.137149  1
  Tm  Tm3  1  0.307187  0.131430  0.610946  1
  Pb  Pb4  1  0.000000  0.000000  0.000000  1
  Pb  Pb5  1  0.849607  0.397720  0.674350  1
  Pb  Pb6  1  0.150393  0.602280  0.325650  1
  O  O7  1  0.048940  0.676273  0.892849  1
  O  O8  1  0.678665  0.932868  0.064434  1
  O  O9  1  0.921170  0.073096  0.682638  1
  O  O10  1  0.951060  0.323727  0.107151  1
  O  O11  1  0.321335  0.067132  0.935566  1
  O  O12  1  0.078830  0.926904  0.317362  1
  O  O13  1  0.573478  0.182080  0.424637  1
  O  O14  1  0.179336  0.422990  0.582199  1
  O  O15  1  0.424805  0.585253  0.173906  1
  O  O16  1  0.426522  0.817920  0.575363  1
  O  O17  1  0.820664  0.577010  0.417801  1
  O  O18  1  0.575195  0.414747  0.826094  1
