# generated using pymatgen
data_CaHoGaO4
_symmetry_space_group_name_H-M   'P 1'
_cell_length_a   11.41395300
_cell_length_b   5.32918100
_cell_length_c   6.59145300
_cell_angle_alpha   90.00004758
_cell_angle_beta   89.99998127
_cell_angle_gamma   89.99984589
_symmetry_Int_Tables_number   1
_chemical_formula_structural   CaHoGaO4
_chemical_formula_sum   'Ca4 Ho4 Ga4 O16'
_cell_volume   400.93845310
_cell_formula_units_Z   4
loop_
 _symmetry_equiv_pos_site_id
 _symmetry_equiv_pos_as_xyz
  1  'x, y, z'
loop_
 _atom_site_type_symbol
 _atom_site_label
 _atom_site_symmetry_multiplicity
 _atom_site_fract_x
 _atom_site_fract_y
 _atom_site_fract_z
 _atom_site_occupancy
  Ca  Ca0  1  0.499972  0.499985  0.487202  1
  Ca  Ca1  1  0.500029  0.500019  0.987215  1
  Ca  Ca2  1  0.999968  0.000024  0.987053  1
  Ca  Ca3  1  0.000000  0.999991  0.487069  1
  Ho  Ho4  1  0.222407  0.504014  0.237140  1
  Ho  Ho5  1  0.777581  0.495989  0.737135  1
  Ho  Ho6  1  0.277589  0.004015  0.737161  1
  Ho  Ho7  1  0.722416  0.995990  0.237155  1
  Ga  Ga8  1  0.402994  0.058926  0.237164  1
  Ga  Ga9  1  0.597006  0.941080  0.737159  1
  Ga  Ga10  1  0.097013  0.558925  0.737135  1
  Ga  Ga11  1  0.903007  0.441070  0.237137  1
  O  O12  1  0.398913  0.716901  0.237189  1
  O  O13  1  0.601083  0.283100  0.737188  1
  O  O14  1  0.101092  0.216899  0.737112  1
  O  O15  1  0.898922  0.783102  0.237111  1
  O  O16  1  0.171011  0.730577  0.518364  1
  O  O17  1  0.828987  0.269440  0.018369  1
  O  O18  1  0.329000  0.230580  0.018387  1
  O  O19  1  0.671004  0.769428  0.518381  1
  O  O20  1  0.328955  0.230561  0.455895  1
  O  O21  1  0.671046  0.769446  0.955892  1
  O  O22  1  0.171037  0.730569  0.955879  1
  O  O23  1  0.828964  0.269438  0.455874  1
  O  O24  1  0.553716  0.205999  0.237200  1
  O  O25  1  0.446291  0.793994  0.737200  1
  O  O26  1  0.946288  0.705971  0.737119  1
  O  O27  1  0.053710  0.293968  0.237121  1
