# generated using pymatgen
data_LiZr6Zn22Ga
_symmetry_space_group_name_H-M   'P 1'
_cell_length_a   8.79843319
_cell_length_b   8.79843271
_cell_length_c   8.79843400
_cell_angle_alpha   60.00000267
_cell_angle_beta   60.00000448
_cell_angle_gamma   59.99999467
_symmetry_Int_Tables_number   1
_chemical_formula_structural   LiZr6Zn22Ga
_chemical_formula_sum   'Li1 Zr6 Zn22 Ga1'
_cell_volume   481.61615513
_cell_formula_units_Z   1
loop_
 _symmetry_equiv_pos_site_id
 _symmetry_equiv_pos_as_xyz
  1  'x, y, z'
loop_
 _atom_site_type_symbol
 _atom_site_label
 _atom_site_symmetry_multiplicity
 _atom_site_fract_x
 _atom_site_fract_y
 _atom_site_fract_z
 _atom_site_occupancy
  Li  Li0  1  0.000000  0.000000  0.000000  1
  Zr  Zr1  1  0.716849  0.283151  0.283151  1
  Zr  Zr2  1  0.283151  0.716849  0.716849  1
  Zr  Zr3  1  0.283151  0.716849  0.283151  1
  Zr  Zr4  1  0.716849  0.283151  0.716849  1
  Zr  Zr5  1  0.283151  0.283151  0.716849  1
  Zr  Zr6  1  0.716849  0.716849  0.283151  1
  Zn  Zn7  1  0.123455  0.123455  0.123455  1
  Zn  Zn8  1  0.876545  0.876545  0.876545  1
  Zn  Zn9  1  0.123455  0.123455  0.629633  1
  Zn  Zn10  1  0.123455  0.629633  0.123455  1
  Zn  Zn11  1  0.876545  0.876545  0.370367  1
  Zn  Zn12  1  0.876545  0.370367  0.876545  1
  Zn  Zn13  1  0.629633  0.123455  0.123455  1
  Zn  Zn14  1  0.370367  0.876545  0.876545  1
  Zn  Zn15  1  0.500000  0.000000  0.000000  1
  Zn  Zn16  1  0.000000  0.500000  0.500000  1
  Zn  Zn17  1  0.000000  0.500000  0.000000  1
  Zn  Zn18  1  0.500000  0.000000  0.500000  1
  Zn  Zn19  1  0.000000  0.000000  0.500000  1
  Zn  Zn20  1  0.500000  0.500000  0.000000  1
  Zn  Zn21  1  0.339767  0.339767  0.339767  1
  Zn  Zn22  1  0.660233  0.660233  0.660233  1
  Zn  Zn23  1  0.339767  0.339767  0.980697  1
  Zn  Zn24  1  0.339767  0.980697  0.339767  1
  Zn  Zn25  1  0.660233  0.660233  0.019303  1
  Zn  Zn26  1  0.660233  0.019303  0.660233  1
  Zn  Zn27  1  0.980697  0.339767  0.339767  1
  Zn  Zn28  1  0.019303  0.660233  0.660233  1
  Ga  Ga29  1  0.500000  0.500000  0.500000  1
