# generated using pymatgen
data_CeTh3AlCoSi6
_symmetry_space_group_name_H-M   'P 1'
_cell_length_a   8.16611300
_cell_length_b   8.16611298
_cell_length_c   4.17980400
_cell_angle_alpha   90.00000000
_cell_angle_beta   90.00000000
_cell_angle_gamma   120.00000412
_symmetry_Int_Tables_number   1
_chemical_formula_structural   CeTh3AlCoSi6
_chemical_formula_sum   'Ce1 Th3 Al1 Co1 Si6'
_cell_volume   241.38890270
_cell_formula_units_Z   1
loop_
 _symmetry_equiv_pos_site_id
 _symmetry_equiv_pos_as_xyz
  1  'x, y, z'
loop_
 _atom_site_type_symbol
 _atom_site_label
 _atom_site_symmetry_multiplicity
 _atom_site_fract_x
 _atom_site_fract_y
 _atom_site_fract_z
 _atom_site_occupancy
  Ce  Ce0  1  0.000000  0.000000  0.000000  1
  Th  Th1  1  0.505754  0.494246  0.000000  1
  Th  Th2  1  0.988491  0.494246  0.000000  1
  Th  Th3  1  0.505754  0.011509  0.000000  1
  Al  Al4  1  0.333333  0.666667  0.500000  1
  Co  Co5  1  0.666667  0.333333  0.500000  1
  Si  Si6  1  0.828377  0.656754  0.500000  1
  Si  Si7  1  0.162773  0.837227  0.500000  1
  Si  Si8  1  0.674454  0.837227  0.500000  1
  Si  Si9  1  0.162773  0.325546  0.500000  1
  Si  Si10  1  0.828377  0.171623  0.500000  1
  Si  Si11  1  0.343246  0.171623  0.500000  1
