# generated using pymatgen
data_Lu7Cd(Co3Sn11)2
_symmetry_space_group_name_H-M   'P 1'
_cell_length_a   9.60621100
_cell_length_b   9.60620923
_cell_length_c   9.97541600
_cell_angle_alpha   90.00000000
_cell_angle_beta   90.00000000
_cell_angle_gamma   120.00000267
_symmetry_Int_Tables_number   1
_chemical_formula_structural   Lu7Cd(Co3Sn11)2
_chemical_formula_sum   'Lu7 Cd1 Co6 Sn22'
_cell_volume   797.19726315
_cell_formula_units_Z   1
loop_
 _symmetry_equiv_pos_site_id
 _symmetry_equiv_pos_as_xyz
  1  'x, y, z'
loop_
 _atom_site_type_symbol
 _atom_site_label
 _atom_site_symmetry_multiplicity
 _atom_site_fract_x
 _atom_site_fract_y
 _atom_site_fract_z
 _atom_site_occupancy
  Lu  Lu0  1  0.000000  0.000000  0.000000  1
  Lu  Lu1  1  0.479837  0.520163  0.306034  1
  Lu  Lu2  1  0.520163  0.479837  0.693966  1
  Lu  Lu3  1  0.479837  0.959673  0.306034  1
  Lu  Lu4  1  0.520163  0.040327  0.693966  1
  Lu  Lu5  1  0.040327  0.520163  0.306034  1
  Lu  Lu6  1  0.959673  0.479837  0.693966  1
  Cd  Cd7  1  0.000000  0.000000  0.500000  1
  Co  Co8  1  0.831486  0.168514  0.197406  1
  Co  Co9  1  0.168514  0.831486  0.802594  1
  Co  Co10  1  0.831486  0.662972  0.197406  1
  Co  Co11  1  0.168514  0.337028  0.802594  1
  Co  Co12  1  0.337028  0.168514  0.197406  1
  Co  Co13  1  0.662972  0.831486  0.802594  1
  Sn  Sn14  1  0.346186  0.000000  0.000000  1
  Sn  Sn15  1  0.653814  0.000000  0.000000  1
  Sn  Sn16  1  0.000000  0.346186  0.000000  1
  Sn  Sn17  1  0.000000  0.653814  0.000000  1
  Sn  Sn18  1  0.653814  0.653814  0.000000  1
  Sn  Sn19  1  0.346186  0.346186  0.000000  1
  Sn  Sn20  1  0.333333  0.666667  0.817712  1
  Sn  Sn21  1  0.666667  0.333333  0.182288  1
  Sn  Sn22  1  0.782329  0.217671  0.454312  1
  Sn  Sn23  1  0.217671  0.782329  0.545688  1
  Sn  Sn24  1  0.782329  0.564660  0.454312  1
  Sn  Sn25  1  0.217671  0.435340  0.545688  1
  Sn  Sn26  1  0.435340  0.217671  0.454312  1
  Sn  Sn27  1  0.564660  0.782329  0.545688  1
  Sn  Sn28  1  0.333333  0.666667  0.122377  1
  Sn  Sn29  1  0.666667  0.333333  0.877623  1
  Sn  Sn30  1  0.117168  0.882832  0.271273  1
  Sn  Sn31  1  0.882832  0.117168  0.728727  1
  Sn  Sn32  1  0.117168  0.234336  0.271273  1
  Sn  Sn33  1  0.882832  0.765664  0.728727  1
  Sn  Sn34  1  0.765664  0.882832  0.271273  1
  Sn  Sn35  1  0.234336  0.117168  0.728727  1
