# generated using pymatgen
data_YHo5VB14Mo
_symmetry_space_group_name_H-M   'P 1'
_cell_length_a   8.13239606
_cell_length_b   8.13239661
_cell_length_c   9.43715900
_cell_angle_alpha   90.00000000
_cell_angle_beta   90.00000000
_cell_angle_gamma   155.54711105
_symmetry_Int_Tables_number   1
_chemical_formula_structural   YHo5VB14Mo
_chemical_formula_sum   'Y1 Ho5 V1 B14 Mo1'
_cell_volume   258.35738082
_cell_formula_units_Z   1
loop_
 _symmetry_equiv_pos_site_id
 _symmetry_equiv_pos_as_xyz
  1  'x, y, z'
loop_
 _atom_site_type_symbol
 _atom_site_label
 _atom_site_symmetry_multiplicity
 _atom_site_fract_x
 _atom_site_fract_y
 _atom_site_fract_z
 _atom_site_occupancy
  Y  Y0  1  0.745046  0.254954  0.750000  1
  Ho  Ho1  1  0.258312  0.741688  0.250000  1
  Ho  Ho2  1  0.606167  0.393833  0.061696  1
  Ho  Ho3  1  0.393418  0.606582  0.942228  1
  Ho  Ho4  1  0.393418  0.606582  0.557772  1
  Ho  Ho5  1  0.606167  0.393833  0.438304  1
  V  V6  1  0.447434  0.552566  0.250000  1
  B  B7  1  0.979020  0.020980  0.095069  1
  B  B8  1  0.019355  0.980645  0.909225  1
  B  B9  1  0.019355  0.980645  0.590775  1
  B  B10  1  0.979020  0.020980  0.404931  1
  B  B11  1  0.772723  0.227277  0.033587  1
  B  B12  1  0.227248  0.772752  0.969018  1
  B  B13  1  0.227248  0.772752  0.530982  1
  B  B14  1  0.772723  0.227277  0.466413  1
  B  B15  1  0.867510  0.132490  0.150126  1
  B  B16  1  0.134448  0.865552  0.854070  1
  B  B17  1  0.134448  0.865552  0.645930  1
  B  B18  1  0.867510  0.132490  0.349874  1
  B  B19  1  0.041405  0.958595  0.250000  1
  B  B20  1  0.955020  0.044980  0.750000  1
  Mo  Mo21  1  0.553006  0.446994  0.750000  1
