# generated using pymatgen
data_Y3ErLu12(InRh)4
_symmetry_space_group_name_H-M   'P 1'
_cell_length_a   9.49861405
_cell_length_b   9.49593301
_cell_length_c   9.52545825
_cell_angle_alpha   59.97875496
_cell_angle_beta   60.01696762
_cell_angle_gamma   60.17571614
_symmetry_Int_Tables_number   1
_chemical_formula_structural   Y3ErLu12(InRh)4
_chemical_formula_sum   'Y3 Er1 Lu12 In4 Rh4'
_cell_volume   608.31427050
_cell_formula_units_Z   1
loop_
 _symmetry_equiv_pos_site_id
 _symmetry_equiv_pos_as_xyz
  1  'x, y, z'
loop_
 _atom_site_type_symbol
 _atom_site_label
 _atom_site_symmetry_multiplicity
 _atom_site_fract_x
 _atom_site_fract_y
 _atom_site_fract_z
 _atom_site_occupancy
  Y  Y0  1  0.187981  0.189381  0.810991  1
  Y  Y1  1  0.439115  0.062173  0.061012  1
  Y  Y2  1  0.435705  0.064488  0.434734  1
  Er  Er3  1  0.189596  0.808453  0.190431  1
  Lu  Lu4  1  0.060778  0.440020  0.062479  1
  Lu  Lu5  1  0.649273  0.047727  0.649313  1
  Lu  Lu6  1  0.190870  0.808605  0.811003  1
  Lu  Lu7  1  0.056880  0.059973  0.440477  1
  Lu  Lu8  1  0.810164  0.190322  0.189329  1
  Lu  Lu9  1  0.813391  0.810172  0.189556  1
  Lu  Lu10  1  0.651317  0.648743  0.050898  1
  Lu  Lu11  1  0.653324  0.652791  0.648539  1
  Lu  Lu12  1  0.060729  0.439474  0.435315  1
  Lu  Lu13  1  0.047065  0.648867  0.651085  1
  Lu  Lu14  1  0.810769  0.191018  0.809787  1
  Lu  Lu15  1  0.440424  0.443150  0.057152  1
  In  In16  1  0.416846  0.747382  0.419030  1
  In  In17  1  0.416313  0.417015  0.750024  1
  In  In18  1  0.750390  0.416516  0.416724  1
  In  In19  1  0.416535  0.416104  0.416392  1
  Rh  Rh20  1  0.852111  0.430458  0.860696  1
  Rh  Rh21  1  0.860362  0.859392  0.427005  1
  Rh  Rh22  1  0.430415  0.850037  0.861212  1
  Rh  Rh23  1  0.859642  0.857735  0.856819  1
