# generated using pymatgen
data_Th2SiPtI2
_symmetry_space_group_name_H-M   'P 1'
_cell_length_a   4.27518300
_cell_length_b   4.27518181
_cell_length_c   12.90373100
_cell_angle_alpha   90.00000000
_cell_angle_beta   90.00000000
_cell_angle_gamma   120.00000146
_symmetry_Int_Tables_number   1
_chemical_formula_structural   Th2SiPtI2
_chemical_formula_sum   'Th2 Si1 Pt1 I2'
_cell_volume   204.24678281
_cell_formula_units_Z   1
loop_
 _symmetry_equiv_pos_site_id
 _symmetry_equiv_pos_as_xyz
  1  'x, y, z'
loop_
 _atom_site_type_symbol
 _atom_site_label
 _atom_site_symmetry_multiplicity
 _atom_site_fract_x
 _atom_site_fract_y
 _atom_site_fract_z
 _atom_site_occupancy
  Th  Th0  1  0.000000  0.000000  0.146178  1
  Th  Th1  1  0.000000  0.000000  0.848323  1
  Si  Si2  1  0.666667  0.333333  0.983352  1
  Pt  Pt3  1  0.333333  0.666667  0.020706  1
  I  I4  1  0.333333  0.666667  0.680955  1
  I  I5  1  0.666667  0.333333  0.320486  1
