# generated using pymatgen
data_NdZn2P6BrN12
_symmetry_space_group_name_H-M   'P 1'
_cell_length_a   7.36023363
_cell_length_b   7.35448128
_cell_length_c   7.36023317
_cell_angle_alpha   109.62203888
_cell_angle_beta   109.34538940
_cell_angle_gamma   109.62202066
_symmetry_Int_Tables_number   1
_chemical_formula_structural   NdZn2P6BrN12
_chemical_formula_sum   'Nd1 Zn2 P6 Br1 N12'
_cell_volume   306.03072614
_cell_formula_units_Z   1
loop_
 _symmetry_equiv_pos_site_id
 _symmetry_equiv_pos_as_xyz
  1  'x, y, z'
loop_
 _atom_site_type_symbol
 _atom_site_label
 _atom_site_symmetry_multiplicity
 _atom_site_fract_x
 _atom_site_fract_y
 _atom_site_fract_z
 _atom_site_occupancy
  Nd  Nd0  1  0.014254  0.332854  0.014254  1
  Zn  Zn1  1  0.998873  0.004444  0.403896  1
  Zn  Zn2  1  0.403896  0.004444  0.998873  1
  P  P3  1  0.496327  0.260276  0.744184  1
  P  P4  1  0.246170  0.755972  0.496044  1
  P  P5  1  0.741369  0.506484  0.258972  1
  P  P6  1  0.744184  0.260276  0.496327  1
  P  P7  1  0.496044  0.755972  0.246170  1
  P  P8  1  0.258972  0.506484  0.741369  1
  Br  Br9  1  0.025177  0.948249  0.025177  1
  N  N10  1  0.389924  0.689407  0.389924  1
  N  N11  1  0.703923  0.432746  0.429117  1
  N  N12  1  0.429117  0.432746  0.703923  1
  N  N13  1  0.711440  0.279100  0.711440  1
  N  N14  1  0.990285  0.576393  0.290786  1
  N  N15  1  0.290786  0.576393  0.990285  1
  N  N16  1  0.276677  0.005754  0.566609  1
  N  N17  1  0.998408  0.284179  0.570138  1
  N  N18  1  0.717740  0.728945  0.289687  1
  N  N19  1  0.566609  0.005754  0.276677  1
  N  N20  1  0.289687  0.728945  0.717740  1
  N  N21  1  0.570138  0.284179  0.998408  1
