# generated using pymatgen
data_Nd20PtRh15
_symmetry_space_group_name_H-M   'P 1'
_cell_length_a   7.62665249
_cell_length_b   7.72137246
_cell_length_c   15.01477812
_cell_angle_alpha   89.86461731
_cell_angle_beta   90.11026608
_cell_angle_gamma   89.98354342
_symmetry_Int_Tables_number   1
_chemical_formula_structural   Nd20PtRh15
_chemical_formula_sum   'Nd20 Pt1 Rh15'
_cell_volume   884.18948199
_cell_formula_units_Z   1
loop_
 _symmetry_equiv_pos_site_id
 _symmetry_equiv_pos_as_xyz
  1  'x, y, z'
loop_
 _atom_site_type_symbol
 _atom_site_label
 _atom_site_symmetry_multiplicity
 _atom_site_fract_x
 _atom_site_fract_y
 _atom_site_fract_z
 _atom_site_occupancy
  Nd  Nd0  1  0.662176  0.173905  0.624479  1
  Nd  Nd1  1  0.163580  0.330962  0.878194  1
  Nd  Nd2  1  0.335464  0.832230  0.121308  1
  Nd  Nd3  1  0.839823  0.664454  0.376980  1
  Nd  Nd4  1  0.332398  0.829118  0.377887  1
  Nd  Nd5  1  0.836012  0.668594  0.121342  1
  Nd  Nd6  1  0.664536  0.168420  0.878648  1
  Nd  Nd7  1  0.160761  0.329564  0.621392  1
  Nd  Nd8  1  0.510884  0.678914  0.596301  1
  Nd  Nd9  1  0.014617  0.819642  0.906179  1
  Nd  Nd10  1  0.486772  0.318976  0.092599  1
  Nd  Nd11  1  0.990684  0.181591  0.403688  1
  Nd  Nd12  1  0.486476  0.322973  0.405820  1
  Nd  Nd13  1  0.986028  0.181565  0.093019  1
  Nd  Nd14  1  0.513619  0.681027  0.906216  1
  Nd  Nd15  1  0.013584  0.818983  0.594774  1
  Nd  Nd16  1  0.826826  0.511864  0.750887  1
  Nd  Nd17  1  0.326453  0.990569  0.750147  1
  Nd  Nd18  1  0.176627  0.489115  0.247440  1
  Nd  Nd19  1  0.673371  0.009078  0.249063  1
  Pt  Pt20  1  0.673405  0.968279  0.460256  1
  Rh  Rh21  1  0.174556  0.530743  0.040897  1
  Rh  Rh22  1  0.325804  0.030080  0.958461  1
  Rh  Rh23  1  0.823058  0.470913  0.540969  1
  Rh  Rh24  1  0.326733  0.028731  0.541012  1
  Rh  Rh25  1  0.825147  0.470364  0.958596  1
  Rh  Rh26  1  0.674041  0.971253  0.042459  1
  Rh  Rh27  1  0.172722  0.527262  0.458073  1
  Rh  Rh28  1  0.457150  0.401672  0.750805  1
  Rh  Rh29  1  0.957857  0.098080  0.749837  1
  Rh  Rh30  1  0.543687  0.599368  0.251241  1
  Rh  Rh31  1  0.041727  0.902448  0.250647  1
  Rh  Rh32  1  0.696748  0.855379  0.750128  1
  Rh  Rh33  1  0.197616  0.645419  0.749671  1
  Rh  Rh34  1  0.305049  0.144979  0.250280  1
  Rh  Rh35  1  0.804007  0.353485  0.250304  1
