# generated using pymatgen
data_Ca5Co14As12Ru5
_symmetry_space_group_name_H-M   'P 1'
_cell_length_a   12.56353800
_cell_length_b   12.57332513
_cell_length_c   3.84290600
_cell_angle_alpha   90.00000000
_cell_angle_beta   90.00000000
_cell_angle_gamma   119.88679406
_symmetry_Int_Tables_number   1
_chemical_formula_structural   Ca5Co14As12Ru5
_chemical_formula_sum   'Ca5 Co14 As12 Ru5'
_cell_volume   526.31625554
_cell_formula_units_Z   1
loop_
 _symmetry_equiv_pos_site_id
 _symmetry_equiv_pos_as_xyz
  1  'x, y, z'
loop_
 _atom_site_type_symbol
 _atom_site_label
 _atom_site_symmetry_multiplicity
 _atom_site_fract_x
 _atom_site_fract_y
 _atom_site_fract_z
 _atom_site_occupancy
  Ca  Ca0  1  0.665005  0.333750  0.000000  1
  Ca  Ca1  1  0.332606  0.666241  0.000000  1
  Ca  Ca2  1  0.182758  0.181859  0.500000  1
  Ca  Ca3  1  0.819500  0.000337  0.500000  1
  Ca  Ca4  1  0.000072  0.819742  0.500000  1
  Co  Co5  1  0.827676  0.199838  0.000000  1
  Co  Co6  1  0.798502  0.625997  0.000000  1
  Co  Co7  1  0.375116  0.177226  0.000000  1
  Co  Co8  1  0.199490  0.823203  0.000000  1
  Co  Co9  1  0.621706  0.799485  0.000000  1
  Co  Co10  1  0.179597  0.376809  0.000000  1
  Co  Co11  1  0.474163  0.353493  0.500000  1
  Co  Co12  1  0.128683  0.646715  0.500000  1
  Co  Co13  1  0.518298  0.871413  0.500000  1
  Co  Co14  1  0.355106  0.478552  0.500000  1
  Co  Co15  1  0.712681  0.715310  0.500000  1
  Co  Co16  1  0.283967  0.999139  0.500000  1
  Co  Co17  1  0.004317  0.286206  0.500000  1
  Co  Co18  1  0.999215  0.999092  0.000000  1
  As  As19  1  0.359996  0.360500  0.000000  1
  As  As20  1  0.636493  0.994737  0.000000  1
  As  As21  1  0.005151  0.642475  0.000000  1
  As  As22  1  0.839972  0.318063  0.500000  1
  As  As23  1  0.676949  0.517802  0.500000  1
  As  As24  1  0.478565  0.165995  0.500000  1
  As  As25  1  0.317022  0.834591  0.500000  1
  As  As26  1  0.515822  0.681926  0.500000  1
  As  As27  1  0.167722  0.482787  0.500000  1
  As  As28  1  0.818311  0.820149  0.000000  1
  As  As29  1  0.179606  0.999701  0.000000  1
  As  As30  1  0.002587  0.180591  0.000000  1
  Ru  Ru31  1  0.551252  0.553867  0.000000  1
  Ru  Ru32  1  0.441976  0.995345  0.000000  1
  Ru  Ru33  1  0.007110  0.448769  0.000000  1
  Ru  Ru34  1  0.646062  0.122663  0.500000  1
  Ru  Ru35  1  0.876942  0.525632  0.500000  1
