# generated using pymatgen
data_Nd3In3Cu2Rh
_symmetry_space_group_name_H-M   'P 1'
_cell_length_a   7.69339000
_cell_length_b   7.69339121
_cell_length_c   4.06610100
_cell_angle_alpha   90.00000000
_cell_angle_beta   90.00000000
_cell_angle_gamma   120.00000340
_symmetry_Int_Tables_number   1
_chemical_formula_structural   Nd3In3Cu2Rh
_chemical_formula_sum   'Nd3 In3 Cu2 Rh1'
_cell_volume   208.42237692
_cell_formula_units_Z   1
loop_
 _symmetry_equiv_pos_site_id
 _symmetry_equiv_pos_as_xyz
  1  'x, y, z'
loop_
 _atom_site_type_symbol
 _atom_site_label
 _atom_site_symmetry_multiplicity
 _atom_site_fract_x
 _atom_site_fract_y
 _atom_site_fract_z
 _atom_site_occupancy
  Nd  Nd0  1  0.986527  0.406342  0.500000  1
  Nd  Nd1  1  0.593658  0.580186  0.500000  1
  Nd  Nd2  1  0.419814  0.013473  0.500000  1
  In  In3  1  0.245828  0.249528  0.000000  1
  In  In4  1  0.003700  0.754172  0.000000  1
  In  In5  1  0.750472  0.996300  0.000000  1
  Cu  Cu6  1  0.333333  0.666667  0.000000  1
  Cu  Cu7  1  0.000000  0.000000  0.500000  1
  Rh  Rh8  1  0.666667  0.333333  0.000000  1
