# generated using pymatgen
data_Nd2BeAlBO7
_symmetry_space_group_name_H-M   'P 1'
_cell_length_a   7.54294000
_cell_length_b   4.85596717
_cell_length_c   7.55152691
_cell_angle_alpha   89.79507835
_cell_angle_beta   90.00000000
_cell_angle_gamma   90.00000000
_symmetry_Int_Tables_number   1
_chemical_formula_structural   Nd2BeAlBO7
_chemical_formula_sum   'Nd4 Be2 Al2 B2 O14'
_cell_volume   276.59759006
_cell_formula_units_Z   2
loop_
 _symmetry_equiv_pos_site_id
 _symmetry_equiv_pos_as_xyz
  1  'x, y, z'
loop_
 _atom_site_type_symbol
 _atom_site_label
 _atom_site_symmetry_multiplicity
 _atom_site_fract_x
 _atom_site_fract_y
 _atom_site_fract_z
 _atom_site_occupancy
  Nd  Nd0  1  0.663336  0.511467  0.578775  1
  Nd  Nd1  1  0.163336  0.488533  0.421225  1
  Nd  Nd2  1  0.335565  0.503669  0.906811  1
  Nd  Nd3  1  0.835565  0.496331  0.093189  1
  Be  Be4  1  0.866475  0.952609  0.384457  1
  Be  Be5  1  0.366475  0.047391  0.615543  1
  Al  Al6  1  0.498038  0.000582  0.245446  1
  Al  Al7  1  0.998038  0.999418  0.754554  1
  B  B8  1  0.134620  0.941708  0.116013  1
  B  B9  1  0.634620  0.058292  0.883987  1
  O  O10  1  0.577281  0.198471  0.060416  1
  O  O11  1  0.077281  0.801529  0.939584  1
  O  O12  1  0.424549  0.205735  0.423121  1
  O  O13  1  0.924549  0.794265  0.576879  1
  O  O14  1  0.675450  0.790851  0.317154  1
  O  O15  1  0.175450  0.209149  0.682846  1
  O  O16  1  0.313330  0.806498  0.163687  1
  O  O17  1  0.813330  0.193502  0.836313  1
  O  O18  1  0.860192  0.279941  0.385862  1
  O  O19  1  0.360192  0.720059  0.614138  1
  O  O20  1  0.140468  0.239898  0.105335  1
  O  O21  1  0.640468  0.760102  0.894665  1
  O  O22  1  0.510695  0.167145  0.753401  1
  O  O23  1  0.010695  0.832855  0.246599  1
