# generated using pymatgen
data_Er4Al4Ir3Pd
_symmetry_space_group_name_H-M   'P 1'
_cell_length_a   4.25720800
_cell_length_b   6.83180717
_cell_length_c   7.89706849
_cell_angle_alpha   89.82259851
_cell_angle_beta   90.00000000
_cell_angle_gamma   90.00000000
_symmetry_Int_Tables_number   1
_chemical_formula_structural   Er4Al4Ir3Pd
_chemical_formula_sum   'Er4 Al4 Ir3 Pd1'
_cell_volume   229.68058826
_cell_formula_units_Z   1
loop_
 _symmetry_equiv_pos_site_id
 _symmetry_equiv_pos_as_xyz
  1  'x, y, z'
loop_
 _atom_site_type_symbol
 _atom_site_label
 _atom_site_symmetry_multiplicity
 _atom_site_fract_x
 _atom_site_fract_y
 _atom_site_fract_z
 _atom_site_occupancy
  Er  Er0  1  0.250000  0.027440  0.324438  1
  Er  Er1  1  0.250000  0.538912  0.180623  1
  Er  Er2  1  0.750000  0.969426  0.678469  1
  Er  Er3  1  0.750000  0.471643  0.817069  1
  Al  Al4  1  0.250000  0.137121  0.936191  1
  Al  Al5  1  0.250000  0.638624  0.561564  1
  Al  Al6  1  0.750000  0.856410  0.060295  1
  Al  Al7  1  0.750000  0.363201  0.442721  1
  Ir  Ir8  1  0.250000  0.265913  0.621462  1
  Ir  Ir9  1  0.250000  0.765754  0.878912  1
  Ir  Ir10  1  0.750000  0.733602  0.376555  1
  Pd  Pd11  1  0.750000  0.231954  0.121700  1
