# generated using pymatgen
data_La8Hg2Pd23
_symmetry_space_group_name_H-M   'P 1'
_cell_length_a   8.51009000
_cell_length_b   8.63710900
_cell_length_c   8.63710900
_cell_angle_alpha   90.00000000
_cell_angle_beta   90.00000000
_cell_angle_gamma   90.00000000
_symmetry_Int_Tables_number   1
_chemical_formula_structural   La8Hg2Pd23
_chemical_formula_sum   'La8 Hg2 Pd23'
_cell_volume   634.84975145
_cell_formula_units_Z   1
loop_
 _symmetry_equiv_pos_site_id
 _symmetry_equiv_pos_as_xyz
  1  'x, y, z'
loop_
 _atom_site_type_symbol
 _atom_site_label
 _atom_site_symmetry_multiplicity
 _atom_site_fract_x
 _atom_site_fract_y
 _atom_site_fract_z
 _atom_site_occupancy
  La  La0  1  0.248789  0.240214  0.240214  1
  La  La1  1  0.749613  0.749076  0.749076  1
  La  La2  1  0.749613  0.749076  0.250924  1
  La  La3  1  0.749613  0.250924  0.749076  1
  La  La4  1  0.248789  0.240214  0.759786  1
  La  La5  1  0.248789  0.759786  0.240214  1
  La  La6  1  0.248789  0.759786  0.759786  1
  La  La7  1  0.749613  0.250924  0.250924  1
  Hg  Hg8  1  0.998819  0.000000  0.000000  1
  Hg  Hg9  1  0.260217  0.500000  0.500000  1
  Pd  Pd10  1  0.265887  0.500000  0.000000  1
  Pd  Pd11  1  0.732755  0.500000  0.000000  1
  Pd  Pd12  1  0.002911  0.265166  0.500000  1
  Pd  Pd13  1  0.501490  0.268445  0.000000  1
  Pd  Pd14  1  0.002911  0.734834  0.500000  1
  Pd  Pd15  1  0.501490  0.731555  0.000000  1
  Pd  Pd16  1  0.501490  0.000000  0.268445  1
  Pd  Pd17  1  0.265887  0.000000  0.500000  1
  Pd  Pd18  1  0.501490  0.000000  0.731555  1
  Pd  Pd19  1  0.732755  0.000000  0.500000  1
  Pd  Pd20  1  0.002911  0.500000  0.265166  1
  Pd  Pd21  1  0.002911  0.500000  0.734834  1
  Pd  Pd22  1  0.745540  0.500000  0.500000  1
  Pd  Pd23  1  0.497641  0.251709  0.500000  1
  Pd  Pd24  1  0.497641  0.748291  0.500000  1
  Pd  Pd25  1  0.497641  0.500000  0.251709  1
  Pd  Pd26  1  0.497641  0.500000  0.748291  1
  Pd  Pd27  1  0.322429  0.000000  0.000000  1
  Pd  Pd28  1  0.680253  0.000000  0.000000  1
  Pd  Pd29  1  0.998421  0.316636  0.000000  1
  Pd  Pd30  1  0.998421  0.683364  0.000000  1
  Pd  Pd31  1  0.998421  0.000000  0.316636  1
  Pd  Pd32  1  0.998421  0.000000  0.683364  1
