# generated using pymatgen
data_Y3TmSb10
_symmetry_space_group_name_H-M   'P 1'
_cell_length_a   4.24376900
_cell_length_b   13.17666643
_cell_length_c   14.66749131
_cell_angle_alpha   77.72656119
_cell_angle_beta   90.00000000
_cell_angle_gamma   90.00000000
_symmetry_Int_Tables_number   1
_chemical_formula_structural   Y3TmSb10
_chemical_formula_sum   'Y6 Tm2 Sb20'
_cell_volume   801.44144549
_cell_formula_units_Z   2
loop_
 _symmetry_equiv_pos_site_id
 _symmetry_equiv_pos_as_xyz
  1  'x, y, z'
loop_
 _atom_site_type_symbol
 _atom_site_label
 _atom_site_symmetry_multiplicity
 _atom_site_fract_x
 _atom_site_fract_y
 _atom_site_fract_z
 _atom_site_occupancy
  Y  Y0  1  0.250000  0.663007  0.855924  1
  Y  Y1  1  0.750000  0.336993  0.144076  1
  Y  Y2  1  0.250000  0.669528  0.577043  1
  Y  Y3  1  0.750000  0.330472  0.422957  1
  Y  Y4  1  0.250000  0.952405  0.360124  1
  Y  Y5  1  0.750000  0.047595  0.639876  1
  Tm  Tm6  1  0.250000  0.394748  0.771385  1
  Tm  Tm7  1  0.750000  0.605252  0.228615  1
  Sb  Sb8  1  0.250000  0.144073  0.780708  1
  Sb  Sb9  1  0.750000  0.855927  0.219292  1
  Sb  Sb10  1  0.250000  0.142737  0.482382  1
  Sb  Sb11  1  0.750000  0.857263  0.517618  1
  Sb  Sb12  1  0.250000  0.151573  0.172534  1
  Sb  Sb13  1  0.750000  0.848427  0.827466  1
  Sb  Sb14  1  0.250000  0.420110  0.974951  1
  Sb  Sb15  1  0.750000  0.579890  0.025049  1
  Sb  Sb16  1  0.750000  0.030663  0.907102  1
  Sb  Sb17  1  0.250000  0.969337  0.092898  1
  Sb  Sb18  1  0.750000  0.138414  0.322159  1
  Sb  Sb19  1  0.250000  0.861586  0.677841  1
  Sb  Sb20  1  0.750000  0.279982  0.937422  1
  Sb  Sb21  1  0.250000  0.720018  0.062578  1
  Sb  Sb22  1  0.750000  0.287326  0.654221  1
  Sb  Sb23  1  0.250000  0.712674  0.345779  1
  Sb  Sb24  1  0.750000  0.574476  0.735174  1
  Sb  Sb25  1  0.250000  0.425524  0.264826  1
  Sb  Sb26  1  0.750000  0.574380  0.446075  1
  Sb  Sb27  1  0.250000  0.425620  0.553925  1
