# generated using pymatgen
data_Tb4DyEr11(CdNi)4
_symmetry_space_group_name_H-M   'P 1'
_cell_length_a   9.48343323
_cell_length_b   9.48343246
_cell_length_c   9.48924600
_cell_angle_alpha   59.97971938
_cell_angle_beta   59.97972204
_cell_angle_gamma   60.07159495
_symmetry_Int_Tables_number   1
_chemical_formula_structural   Tb4DyEr11(CdNi)4
_chemical_formula_sum   'Tb4 Dy1 Er11 Cd4 Ni4'
_cell_volume   603.59961995
_cell_formula_units_Z   1
loop_
 _symmetry_equiv_pos_site_id
 _symmetry_equiv_pos_as_xyz
  1  'x, y, z'
loop_
 _atom_site_type_symbol
 _atom_site_label
 _atom_site_symmetry_multiplicity
 _atom_site_fract_x
 _atom_site_fract_y
 _atom_site_fract_z
 _atom_site_occupancy
  Tb  Tb0  1  0.598891  0.598891  0.597518  1
  Tb  Tb1  1  0.598891  0.598891  0.204701  1
  Tb  Tb2  1  0.602666  0.197575  0.599880  1
  Tb  Tb3  1  0.197575  0.602666  0.599880  1
  Dy  Dy4  1  0.186977  0.186977  0.813023  1
  Er  Er5  1  0.062856  0.438605  0.437036  1
  Er  Er6  1  0.438605  0.062856  0.061503  1
  Er  Er7  1  0.438605  0.062856  0.437036  1
  Er  Er8  1  0.062856  0.438605  0.061503  1
  Er  Er9  1  0.439159  0.439159  0.060841  1
  Er  Er10  1  0.063870  0.063870  0.436130  1
  Er  Er11  1  0.185979  0.814001  0.814139  1
  Er  Er12  1  0.814001  0.185979  0.185882  1
  Er  Er13  1  0.814001  0.185979  0.814139  1
  Er  Er14  1  0.185979  0.814001  0.185882  1
  Er  Er15  1  0.815754  0.815754  0.184246  1
  Cd  Cd16  1  0.830117  0.830117  0.833757  1
  Cd  Cd17  1  0.830117  0.830117  0.506010  1
  Cd  Cd18  1  0.829204  0.504601  0.833098  1
  Cd  Cd19  1  0.504601  0.829204  0.833098  1
  Ni  Ni20  1  0.391851  0.391851  0.394274  1
  Ni  Ni21  1  0.391851  0.391851  0.822023  1
  Ni  Ni22  1  0.390232  0.825365  0.392201  1
  Ni  Ni23  1  0.825365  0.390232  0.392201  1
