# generated using pymatgen
data_TbYSO6
_symmetry_space_group_name_H-M   'P 1'
_cell_length_a   4.18893867
_cell_length_b   7.08438565
_cell_length_c   8.10971676
_cell_angle_alpha   107.09216734
_cell_angle_beta   90.04121586
_cell_angle_gamma   107.13601760
_symmetry_Int_Tables_number   1
_chemical_formula_structural   TbYSO6
_chemical_formula_sum   'Tb2 Y2 S2 O12'
_cell_volume   218.81658558
_cell_formula_units_Z   2
loop_
 _symmetry_equiv_pos_site_id
 _symmetry_equiv_pos_as_xyz
  1  'x, y, z'
loop_
 _atom_site_type_symbol
 _atom_site_label
 _atom_site_symmetry_multiplicity
 _atom_site_fract_x
 _atom_site_fract_y
 _atom_site_fract_z
 _atom_site_occupancy
  Tb  Tb0  1  0.336474  0.657275  0.915103  1
  Tb  Tb1  1  0.663526  0.342725  0.084897  1
  Y  Y2  1  0.679947  0.344152  0.585053  1
  Y  Y3  1  0.320053  0.655848  0.414947  1
  S  S4  1  0.941483  0.000098  0.749909  1
  S  S5  1  0.058517  0.999902  0.250091  1
  O  O6  1  0.771606  0.507600  0.876597  1
  O  O7  1  0.228394  0.492400  0.123403  1
  O  O8  1  0.263216  0.491335  0.622778  1
  O  O9  1  0.736784  0.508665  0.377222  1
  O  O10  1  0.729076  0.998162  0.600254  1
  O  O11  1  0.270924  0.001838  0.399746  1
  O  O12  1  0.731310  0.001891  0.899610  1
  O  O13  1  0.268690  0.998109  0.100390  1
  O  O14  1  0.234736  0.189314  0.797051  1
  O  O15  1  0.765264  0.810686  0.202949  1
  O  O16  1  0.046067  0.810899  0.703149  1
  O  O17  1  0.953933  0.189101  0.296851  1
