# generated using pymatgen
data_Nd3Sm(LuPt)4
_symmetry_space_group_name_H-M   'P 1'
_cell_length_a   4.79457200
_cell_length_b   7.20305422
_cell_length_c   8.72811200
_cell_angle_alpha   90.03338451
_cell_angle_beta   90.00000000
_cell_angle_gamma   90.00000000
_symmetry_Int_Tables_number   1
_chemical_formula_structural   Nd3Sm(LuPt)4
_chemical_formula_sum   'Nd3 Sm1 Lu4 Pt4'
_cell_volume   301.43020274
_cell_formula_units_Z   1
loop_
 _symmetry_equiv_pos_site_id
 _symmetry_equiv_pos_as_xyz
  1  'x, y, z'
loop_
 _atom_site_type_symbol
 _atom_site_label
 _atom_site_symmetry_multiplicity
 _atom_site_fract_x
 _atom_site_fract_y
 _atom_site_fract_z
 _atom_site_occupancy
  Nd  Nd0  1  0.250000  0.512629  0.824193  1
  Nd  Nd1  1  0.750000  0.988279  0.326419  1
  Nd  Nd2  1  0.750000  0.487024  0.173608  1
  Sm  Sm3  1  0.250000  0.014433  0.674546  1
  Lu  Lu4  1  0.250000  0.141193  0.074450  1
  Lu  Lu5  1  0.250000  0.643031  0.424976  1
  Lu  Lu6  1  0.750000  0.856628  0.921751  1
  Lu  Lu7  1  0.750000  0.358026  0.576519  1
  Pt  Pt8  1  0.250000  0.254659  0.410436  1
  Pt  Pt9  1  0.250000  0.754145  0.093313  1
  Pt  Pt10  1  0.750000  0.747762  0.595361  1
  Pt  Pt11  1  0.750000  0.242190  0.904428  1
