# generated using pymatgen
data_Dy2Sc3Ga3Ge
_symmetry_space_group_name_H-M   'P 1'
_cell_length_a   7.21004489
_cell_length_b   7.54352502
_cell_length_c   14.50648171
_cell_angle_alpha   89.97071884
_cell_angle_beta   90.02104905
_cell_angle_gamma   89.94766505
_symmetry_Int_Tables_number   1
_chemical_formula_structural   Dy2Sc3Ga3Ge
_chemical_formula_sum   'Dy8 Sc12 Ga12 Ge4'
_cell_volume   788.99478259
_cell_formula_units_Z   4
loop_
 _symmetry_equiv_pos_site_id
 _symmetry_equiv_pos_as_xyz
  1  'x, y, z'
loop_
 _atom_site_type_symbol
 _atom_site_label
 _atom_site_symmetry_multiplicity
 _atom_site_fract_x
 _atom_site_fract_y
 _atom_site_fract_z
 _atom_site_occupancy
  Dy  Dy0  1  0.010923  0.177805  0.094639  1
  Dy  Dy1  1  0.989153  0.822108  0.904193  1
  Dy  Dy2  1  0.488867  0.677573  0.905090  1
  Dy  Dy3  1  0.988719  0.821981  0.595701  1
  Dy  Dy4  1  0.511117  0.322356  0.094592  1
  Dy  Dy5  1  0.010313  0.177484  0.404983  1
  Dy  Dy6  1  0.511208  0.321498  0.405550  1
  Dy  Dy7  1  0.489189  0.678066  0.594843  1
  Sc  Sc8  1  0.162718  0.502299  0.750315  1
  Sc  Sc9  1  0.837888  0.498060  0.249564  1
  Sc  Sc10  1  0.337182  0.002279  0.250015  1
  Sc  Sc11  1  0.663024  0.997415  0.750235  1
  Sc  Sc12  1  0.328503  0.173660  0.622967  1
  Sc  Sc13  1  0.670548  0.825694  0.377070  1
  Sc  Sc14  1  0.170853  0.674660  0.377541  1
  Sc  Sc15  1  0.670900  0.825714  0.122813  1
  Sc  Sc16  1  0.828967  0.325172  0.623132  1
  Sc  Sc17  1  0.329056  0.174616  0.876622  1
  Sc  Sc18  1  0.829603  0.325646  0.876974  1
  Sc  Sc19  1  0.170091  0.674088  0.122514  1
  Ga  Ga20  1  0.530940  0.382624  0.749689  1
  Ga  Ga21  1  0.285014  0.871761  0.749585  1
  Ga  Ga22  1  0.715855  0.127832  0.250317  1
  Ga  Ga23  1  0.215850  0.372267  0.250543  1
  Ga  Ga24  1  0.783624  0.627395  0.749440  1
  Ga  Ga25  1  0.838682  0.537447  0.458875  1
  Ga  Ga26  1  0.340349  0.963119  0.459509  1
  Ga  Ga27  1  0.839732  0.537319  0.040914  1
  Ga  Ga28  1  0.660743  0.037413  0.540412  1
  Ga  Ga29  1  0.159935  0.463155  0.959796  1
  Ga  Ga30  1  0.660400  0.036383  0.959808  1
  Ga  Ga31  1  0.340055  0.962988  0.040541  1
  Ge  Ge32  1  0.030743  0.118207  0.749311  1
  Ge  Ge33  1  0.969444  0.880919  0.250332  1
  Ge  Ge34  1  0.469185  0.619081  0.251053  1
  Ge  Ge35  1  0.160628  0.463915  0.540520  1
