# generated using pymatgen
data_Ca4NbAl2RuO12
_symmetry_space_group_name_H-M   'P 1'
_cell_length_a   5.38822182
_cell_length_b   5.46704427
_cell_length_c   7.65666442
_cell_angle_alpha   89.67564717
_cell_angle_beta   89.91865128
_cell_angle_gamma   89.95866837
_symmetry_Int_Tables_number   1
_chemical_formula_structural   Ca4NbAl2RuO12
_chemical_formula_sum   'Ca4 Nb1 Al2 Ru1 O12'
_cell_volume   225.54342097
_cell_formula_units_Z   1
loop_
 _symmetry_equiv_pos_site_id
 _symmetry_equiv_pos_as_xyz
  1  'x, y, z'
loop_
 _atom_site_type_symbol
 _atom_site_label
 _atom_site_symmetry_multiplicity
 _atom_site_fract_x
 _atom_site_fract_y
 _atom_site_fract_z
 _atom_site_occupancy
  Ca  Ca0  1  0.990629  0.039332  0.244808  1
  Ca  Ca1  1  0.507470  0.542900  0.246950  1
  Ca  Ca2  1  0.492530  0.457103  0.753033  1
  Ca  Ca3  1  0.009368  0.960664  0.755179  1
  Nb  Nb4  1  0.000005  0.500004  0.499997  1
  Al  Al5  1  0.000002  0.499996  0.999999  1
  Al  Al6  1  0.500001  0.000006  0.499998  1
  Ru  Ru7  1  0.499998  0.999989  0.000000  1
  O  O8  1  0.794310  0.786645  0.040335  1
  O  O9  1  0.711999  0.292427  0.040784  1
  O  O10  1  0.072854  0.482846  0.242216  1
  O  O11  1  0.421676  0.981035  0.252201  1
  O  O12  1  0.783965  0.795416  0.461152  1
  O  O13  1  0.703089  0.284026  0.462047  1
  O  O14  1  0.296902  0.716002  0.537960  1
  O  O15  1  0.216047  0.204609  0.538855  1
  O  O16  1  0.578321  0.018966  0.747803  1
  O  O17  1  0.927143  0.517153  0.757785  1
  O  O18  1  0.288012  0.707548  0.959226  1
  O  O19  1  0.205680  0.213328  0.959671  1
