# generated using pymatgen
data_Dy2Lu8In8PtRh3
_symmetry_space_group_name_H-M   'P 1'
_cell_length_a   3.56566900
_cell_length_b   7.97945527
_cell_length_c   18.08689582
_cell_angle_alpha   90.07756707
_cell_angle_beta   90.00000000
_cell_angle_gamma   90.00000000
_symmetry_Int_Tables_number   1
_chemical_formula_structural   Dy2Lu8In8PtRh3
_chemical_formula_sum   'Dy2 Lu8 In8 Pt1 Rh3'
_cell_volume   514.60962996
_cell_formula_units_Z   1
loop_
 _symmetry_equiv_pos_site_id
 _symmetry_equiv_pos_as_xyz
  1  'x, y, z'
loop_
 _atom_site_type_symbol
 _atom_site_label
 _atom_site_symmetry_multiplicity
 _atom_site_fract_x
 _atom_site_fract_y
 _atom_site_fract_z
 _atom_site_occupancy
  Dy  Dy0  1  0.000000  0.000079  0.999788  1
  Dy  Dy1  1  0.000000  0.500396  0.500211  1
  Lu  Lu2  1  0.000000  0.115555  0.412701  1
  Lu  Lu3  1  0.000000  0.883335  0.588454  1
  Lu  Lu4  1  0.000000  0.383727  0.911397  1
  Lu  Lu5  1  0.000000  0.617180  0.086372  1
  Lu  Lu6  1  0.000000  0.240545  0.221617  1
  Lu  Lu7  1  0.000000  0.754944  0.778593  1
  Lu  Lu8  1  0.000000  0.254833  0.721632  1
  Lu  Lu9  1  0.000000  0.749149  0.279112  1
  In  In10  1  0.500000  0.423917  0.351541  1
  In  In11  1  0.500000  0.572569  0.650213  1
  In  In12  1  0.500000  0.073326  0.849782  1
  In  In13  1  0.500000  0.928181  0.149440  1
  In  In14  1  0.500000  0.294058  0.066028  1
  In  In15  1  0.500000  0.705030  0.931982  1
  In  In16  1  0.500000  0.204753  0.567490  1
  In  In17  1  0.500000  0.794905  0.432660  1
  Pt  Pt18  1  0.500000  0.524715  0.196442  1
  Rh  Rh19  1  0.500000  0.024017  0.304737  1
  Rh  Rh20  1  0.500000  0.977651  0.695614  1
  Rh  Rh21  1  0.500000  0.477134  0.804196  1
