# generated using pymatgen
data_HoTm3Lu16(CoSb2)4
_symmetry_space_group_name_H-M   'P 1'
_cell_length_a   7.68364116
_cell_length_b   8.69324100
_cell_length_c   11.95003425
_cell_angle_alpha   90.00000000
_cell_angle_beta   90.02355260
_cell_angle_gamma   90.00000000
_symmetry_Int_Tables_number   1
_chemical_formula_structural   HoTm3Lu16(CoSb2)4
_chemical_formula_sum   'Ho1 Tm3 Lu16 Co4 Sb8'
_cell_volume   798.21136583
_cell_formula_units_Z   1
loop_
 _symmetry_equiv_pos_site_id
 _symmetry_equiv_pos_as_xyz
  1  'x, y, z'
loop_
 _atom_site_type_symbol
 _atom_site_label
 _atom_site_symmetry_multiplicity
 _atom_site_fract_x
 _atom_site_fract_y
 _atom_site_fract_z
 _atom_site_occupancy
  Ho  Ho0  1  0.877249  0.750000  0.807961  1
  Tm  Tm1  1  0.622212  0.750000  0.308507  1
  Tm  Tm2  1  0.122200  0.250000  0.191487  1
  Tm  Tm3  1  0.377764  0.250000  0.691529  1
  Lu  Lu4  1  0.156515  0.750000  0.203876  1
  Lu  Lu5  1  0.656604  0.250000  0.296144  1
  Lu  Lu6  1  0.843430  0.250000  0.796135  1
  Lu  Lu7  1  0.343687  0.750000  0.703779  1
  Lu  Lu8  1  0.447703  0.750000  0.997781  1
  Lu  Lu9  1  0.947720  0.250000  0.502116  1
  Lu  Lu10  1  0.552101  0.250000  0.002215  1
  Lu  Lu11  1  0.052397  0.750000  0.497747  1
  Lu  Lu12  1  0.824416  0.962628  0.065591  1
  Lu  Lu13  1  0.324467  0.037720  0.434694  1
  Lu  Lu14  1  0.175824  0.461712  0.934795  1
  Lu  Lu15  1  0.675441  0.537657  0.565251  1
  Lu  Lu16  1  0.175824  0.038288  0.934795  1
  Lu  Lu17  1  0.675441  0.962343  0.565251  1
  Lu  Lu18  1  0.824416  0.537372  0.065591  1
  Lu  Lu19  1  0.324467  0.462280  0.434694  1
  Co  Co20  1  0.431077  0.750000  0.491004  1
  Co  Co21  1  0.931079  0.250000  0.009017  1
  Co  Co22  1  0.568929  0.250000  0.508960  1
  Co  Co23  1  0.069157  0.750000  0.991352  1
  Sb  Sb24  1  0.931946  0.991626  0.328331  1
  Sb  Sb25  1  0.432000  0.008322  0.171645  1
  Sb  Sb26  1  0.068373  0.491351  0.671523  1
  Sb  Sb27  1  0.567622  0.508103  0.828364  1
  Sb  Sb28  1  0.068373  0.008649  0.671523  1
  Sb  Sb29  1  0.567622  0.991897  0.828364  1
  Sb  Sb30  1  0.931946  0.508374  0.328331  1
  Sb  Sb31  1  0.432000  0.491678  0.171645  1
