# generated using pymatgen
data_Tb5Pr6Tm4Lu(CdIr)4
_symmetry_space_group_name_H-M   'P 1'
_cell_length_a   9.76036783
_cell_length_b   9.73821926
_cell_length_c   9.73821829
_cell_angle_alpha   59.83791429
_cell_angle_beta   59.92474282
_cell_angle_gamma   59.92474015
_symmetry_Int_Tables_number   1
_chemical_formula_structural   Tb5Pr6Tm4Lu(CdIr)4
_chemical_formula_sum   'Tb5 Pr6 Tm4 Lu1 Cd4 Ir4'
_cell_volume   652.95262178
_cell_formula_units_Z   1
loop_
 _symmetry_equiv_pos_site_id
 _symmetry_equiv_pos_as_xyz
  1  'x, y, z'
loop_
 _atom_site_type_symbol
 _atom_site_label
 _atom_site_symmetry_multiplicity
 _atom_site_fract_x
 _atom_site_fract_y
 _atom_site_fract_z
 _atom_site_occupancy
  Tb  Tb0  1  0.346042  0.348874  0.348874  1
  Tb  Tb1  1  0.347710  0.349339  0.955240  1
  Tb  Tb2  1  0.347710  0.955240  0.349339  1
  Tb  Tb3  1  0.956211  0.348874  0.348874  1
  Tb  Tb4  1  0.814149  0.185851  0.185851  1
  Pr  Pr5  1  0.940686  0.559314  0.559314  1
  Pr  Pr6  1  0.558176  0.941824  0.941824  1
  Pr  Pr7  1  0.557879  0.940505  0.559108  1
  Pr  Pr8  1  0.942507  0.559108  0.940505  1
  Pr  Pr9  1  0.557879  0.559108  0.940505  1
  Pr  Pr10  1  0.942507  0.940505  0.559108  1
  Tm  Tm11  1  0.187767  0.813078  0.184427  1
  Tm  Tm12  1  0.814728  0.184427  0.813078  1
  Tm  Tm13  1  0.187767  0.184427  0.813078  1
  Tm  Tm14  1  0.814728  0.813078  0.184427  1
  Lu  Lu15  1  0.185274  0.814726  0.814726  1
  Cd  Cd16  1  0.579379  0.578946  0.578946  1
  Cd  Cd17  1  0.579313  0.579712  0.261660  1
  Cd  Cd18  1  0.579313  0.261660  0.579712  1
  Cd  Cd19  1  0.262725  0.578946  0.578946  1
  Ir  Ir20  1  0.141125  0.140798  0.140798  1
  Ir  Ir21  1  0.139571  0.140582  0.580276  1
  Ir  Ir22  1  0.139571  0.580276  0.140582  1
  Ir  Ir23  1  0.577278  0.140798  0.140798  1
