# generated using pymatgen
data_Ba2CaTa5O15
_symmetry_space_group_name_H-M   'P 1'
_cell_length_a   9.25140501
_cell_length_b   9.25140578
_cell_length_c   4.00402600
_cell_angle_alpha   90.00000000
_cell_angle_beta   90.00000000
_cell_angle_gamma   111.43915190
_symmetry_Int_Tables_number   1
_chemical_formula_structural   Ba2CaTa5O15
_chemical_formula_sum   'Ba2 Ca1 Ta5 O15'
_cell_volume   318.98599225
_cell_formula_units_Z   1
loop_
 _symmetry_equiv_pos_site_id
 _symmetry_equiv_pos_as_xyz
  1  'x, y, z'
loop_
 _atom_site_type_symbol
 _atom_site_label
 _atom_site_symmetry_multiplicity
 _atom_site_fract_x
 _atom_site_fract_y
 _atom_site_fract_z
 _atom_site_occupancy
  Ba  Ba0  1  0.299286  0.700714  0.000000  1
  Ba  Ba1  1  0.700714  0.299286  0.000000  1
  Ca  Ca2  1  0.000000  0.000000  0.000000  1
  Ta  Ta3  1  0.314625  0.058865  0.500000  1
  Ta  Ta4  1  0.058865  0.314625  0.500000  1
  Ta  Ta5  1  0.685375  0.941135  0.500000  1
  Ta  Ta6  1  0.941135  0.685375  0.500000  1
  Ta  Ta7  1  0.500000  0.500000  0.500000  1
  O  O8  1  0.133405  0.133405  0.500000  1
  O  O9  1  0.168464  0.831536  0.500000  1
  O  O10  1  0.274060  0.465509  0.500000  1
  O  O11  1  0.831536  0.168464  0.500000  1
  O  O12  1  0.866595  0.866595  0.500000  1
  O  O13  1  0.299386  0.045803  0.000000  1
  O  O14  1  0.700614  0.954197  0.000000  1
  O  O15  1  0.534491  0.725940  0.500000  1
  O  O16  1  0.045803  0.299386  0.000000  1
  O  O17  1  0.500000  0.000000  0.500000  1
  O  O18  1  0.465509  0.274060  0.500000  1
  O  O19  1  0.954197  0.700614  0.000000  1
  O  O20  1  0.500000  0.500000  0.000000  1
  O  O21  1  0.725940  0.534491  0.500000  1
  O  O22  1  0.000000  0.500000  0.500000  1
