# generated using pymatgen
data_Ho(AlBr4)3
_symmetry_space_group_name_H-M   'P 1'
_cell_length_a   11.61120000
_cell_length_b   11.61119935
_cell_length_c   17.17839500
_cell_angle_alpha   90.00000000
_cell_angle_beta   90.00000000
_cell_angle_gamma   119.99999614
_symmetry_Int_Tables_number   1
_chemical_formula_structural   Ho(AlBr4)3
_chemical_formula_sum   'Ho3 Al9 Br36'
_cell_volume   2005.70667844
_cell_formula_units_Z   3
loop_
 _symmetry_equiv_pos_site_id
 _symmetry_equiv_pos_as_xyz
  1  'x, y, z'
loop_
 _atom_site_type_symbol
 _atom_site_label
 _atom_site_symmetry_multiplicity
 _atom_site_fract_x
 _atom_site_fract_y
 _atom_site_fract_z
 _atom_site_occupancy
  Ho  Ho0  1  0.991020  0.495510  0.000000  1
  Ho  Ho1  1  0.504490  0.008980  0.666667  1
  Ho  Ho2  1  0.504490  0.495510  0.333333  1
  Al  Al3  1  0.731280  0.268720  0.833333  1
  Al  Al4  1  0.132812  0.765559  0.603629  1
  Al  Al5  1  0.234441  0.367254  0.936962  1
  Al  Al6  1  0.632746  0.867188  0.270295  1
  Al  Al7  1  0.731280  0.462559  0.166667  1
  Al  Al8  1  0.537441  0.268720  0.500000  1
  Al  Al9  1  0.132812  0.367254  0.396371  1
  Al  Al10  1  0.632746  0.765559  0.729705  1
  Al  Al11  1  0.234441  0.867188  0.063038  1
  Br  Br12  1  0.009679  0.841691  0.543689  1
  Br  Br13  1  0.832011  0.990321  0.210356  1
  Br  Br14  1  0.158309  0.167989  0.877023  1
  Br  Br15  1  0.788414  0.590108  0.280571  1
  Br  Br16  1  0.409892  0.198306  0.613905  1
  Br  Br17  1  0.801694  0.211586  0.947238  1
  Br  Br18  1  0.409892  0.211586  0.386095  1
  Br  Br19  1  0.801694  0.590108  0.052762  1
  Br  Br20  1  0.788414  0.198306  0.719429  1
  Br  Br21  1  0.229747  0.345442  0.277398  1
  Br  Br22  1  0.654558  0.884305  0.610731  1
  Br  Br23  1  0.115695  0.770253  0.944065  1
  Br  Br24  1  0.654558  0.770253  0.389269  1
  Br  Br25  1  0.115695  0.345442  0.055935  1
  Br  Br26  1  0.229747  0.884305  0.722602  1
  Br  Br27  1  0.502160  0.656993  0.205667  1
  Br  Br28  1  0.343007  0.845168  0.539001  1
  Br  Br29  1  0.154832  0.497840  0.872334  1
  Br  Br30  1  0.343007  0.497840  0.460999  1
  Br  Br31  1  0.154832  0.656993  0.127666  1
  Br  Br32  1  0.502160  0.845168  0.794333  1
  Br  Br33  1  0.662387  0.498195  0.481782  1
  Br  Br34  1  0.501805  0.164192  0.815116  1
  Br  Br35  1  0.835808  0.337613  0.148449  1
  Br  Br36  1  0.501805  0.337613  0.184884  1
  Br  Br37  1  0.835808  0.498195  0.851551  1
  Br  Br38  1  0.662387  0.164192  0.518218  1
  Br  Br39  1  0.033232  0.490379  0.375904  1
  Br  Br40  1  0.509621  0.542853  0.709237  1
  Br  Br41  1  0.457147  0.966768  0.042570  1
  Br  Br42  1  0.509621  0.966768  0.290763  1
  Br  Br43  1  0.457147  0.490379  0.957430  1
  Br  Br44  1  0.033232  0.542853  0.624096  1
  Br  Br45  1  0.009679  0.167989  0.456311  1
  Br  Br46  1  0.832011  0.841691  0.789644  1
  Br  Br47  1  0.158309  0.990321  0.122977  1
