# generated using pymatgen
data_Dy3Er7Ga3NiBi2
_symmetry_space_group_name_H-M   'P 1'
_cell_length_a   8.52840514
_cell_length_b   8.52839558
_cell_length_c   8.71217734
_cell_angle_alpha   124.40351032
_cell_angle_beta   124.41684330
_cell_angle_gamma   81.11161873
_symmetry_Int_Tables_number   1
_chemical_formula_structural   Dy3Er7Ga3NiBi2
_chemical_formula_sum   'Dy3 Er7 Ga3 Ni1 Bi2'
_cell_volume   418.46407839
_cell_formula_units_Z   1
loop_
 _symmetry_equiv_pos_site_id
 _symmetry_equiv_pos_as_xyz
  1  'x, y, z'
loop_
 _atom_site_type_symbol
 _atom_site_label
 _atom_site_symmetry_multiplicity
 _atom_site_fract_x
 _atom_site_fract_y
 _atom_site_fract_z
 _atom_site_occupancy
  Dy  Dy0  1  0.499225  0.015501  0.795561  1
  Dy  Dy1  1  0.704444  0.515500  0.500001  1
  Dy  Dy2  1  0.984227  0.795554  0.499855  1
  Er  Er3  1  0.995780  0.997867  0.993481  1
  Er  Er4  1  0.502266  0.504814  0.006936  1
  Er  Er5  1  0.779572  0.295911  0.795187  1
  Er  Er6  1  0.204038  0.720399  0.204487  1
  Er  Er7  1  0.484275  0.000674  0.205095  1
  Er  Er8  1  0.302993  0.459283  0.499933  1
  Er  Er9  1  0.040329  0.197017  0.499857  1
  Ga  Ga10  1  0.146921  0.644610  0.791523  1
  Ga  Ga11  1  0.855712  0.353327  0.208844  1
  Ga  Ga12  1  0.634076  0.865782  0.499555  1
  Ni  Ni13  1  0.377175  0.122904  0.499636  1
  Bi  Bi14  1  0.244280  0.255591  0.999984  1
  Bi  Bi15  1  0.744686  0.755267  0.000064  1
