# generated using pymatgen
data_Ce4DyHo3(ReB6)4
_symmetry_space_group_name_H-M   'P 1'
_cell_length_a   3.72941800
_cell_length_b   9.20744602
_cell_length_c   11.59534702
_cell_angle_alpha   90.00733163
_cell_angle_beta   90.00000000
_cell_angle_gamma   90.00000000
_symmetry_Int_Tables_number   1
_chemical_formula_structural   Ce4DyHo3(ReB6)4
_chemical_formula_sum   'Ce4 Dy1 Ho3 Re4 B24'
_cell_volume   398.16583394
_cell_formula_units_Z   1
loop_
 _symmetry_equiv_pos_site_id
 _symmetry_equiv_pos_as_xyz
  1  'x, y, z'
loop_
 _atom_site_type_symbol
 _atom_site_label
 _atom_site_symmetry_multiplicity
 _atom_site_fract_x
 _atom_site_fract_y
 _atom_site_fract_z
 _atom_site_occupancy
  Ce  Ce0  1  0.000000  0.322632  0.414092  1
  Ce  Ce1  1  0.000000  0.677357  0.585771  1
  Ce  Ce2  1  0.000000  0.822669  0.085910  1
  Ce  Ce3  1  0.000000  0.177354  0.914223  1
  Dy  Dy4  1  0.000000  0.944307  0.372732  1
  Ho  Ho5  1  0.000000  0.055791  0.627340  1
  Ho  Ho6  1  0.000000  0.444260  0.127380  1
  Ho  Ho7  1  0.000000  0.555757  0.872673  1
  Re  Re8  1  0.000000  0.638324  0.320721  1
  Re  Re9  1  0.000000  0.361453  0.679198  1
  Re  Re10  1  0.000000  0.138672  0.179181  1
  Re  Re11  1  0.000000  0.861442  0.820779  1
  B  B12  1  0.500000  0.554475  0.431543  1
  B  B13  1  0.500000  0.445432  0.568395  1
  B  B14  1  0.500000  0.054546  0.068435  1
  B  B15  1  0.500000  0.945463  0.931584  1
  B  B16  1  0.500000  0.748605  0.418416  1
  B  B17  1  0.500000  0.251240  0.581525  1
  B  B18  1  0.500000  0.248763  0.081598  1
  B  B19  1  0.500000  0.751206  0.918444  1
  B  B20  1  0.500000  0.791242  0.265996  1
  B  B21  1  0.500000  0.208589  0.733941  1
  B  B22  1  0.500000  0.291459  0.233983  1
  B  B23  1  0.500000  0.708572  0.766051  1
  B  B24  1  0.500000  0.631380  0.185911  1
  B  B25  1  0.500000  0.368598  0.814076  1
  B  B26  1  0.500000  0.131592  0.314050  1
  B  B27  1  0.500000  0.868598  0.685889  1
  B  B28  1  0.500000  0.983757  0.212901  1
  B  B29  1  0.500000  0.016323  0.786973  1
  B  B30  1  0.500000  0.483654  0.287005  1
  B  B31  1  0.500000  0.516299  0.713017  1
  B  B32  1  0.500000  0.606098  0.029320  1
  B  B33  1  0.500000  0.393913  0.970702  1
  B  B34  1  0.500000  0.106340  0.470775  1
  B  B35  1  0.500000  0.893837  0.529470  1
