# generated using pymatgen
data_Y3TmCoOs7
_symmetry_space_group_name_H-M   'P 1'
_cell_length_a   5.30775503
_cell_length_b   5.30795760
_cell_length_c   8.74461767
_cell_angle_alpha   89.92190525
_cell_angle_beta   89.92282833
_cell_angle_gamma   59.87871016
_symmetry_Int_Tables_number   1
_chemical_formula_structural   Y3TmCoOs7
_chemical_formula_sum   'Y3 Tm1 Co1 Os7'
_cell_volume   213.09690902
_cell_formula_units_Z   1
loop_
 _symmetry_equiv_pos_site_id
 _symmetry_equiv_pos_as_xyz
  1  'x, y, z'
loop_
 _atom_site_type_symbol
 _atom_site_label
 _atom_site_symmetry_multiplicity
 _atom_site_fract_x
 _atom_site_fract_y
 _atom_site_fract_z
 _atom_site_occupancy
  Y  Y0  1  0.666067  0.666809  0.433027  1
  Y  Y1  1  0.665989  0.666442  0.067173  1
  Y  Y2  1  0.330610  0.330988  0.936336  1
  Tm  Tm3  1  0.330847  0.331509  0.563355  1
  Co  Co4  1  0.173682  0.173927  0.251159  1
  Os  Os5  1  0.996639  0.997277  0.496868  1
  Os  Os6  1  0.996410  0.996880  0.003760  1
  Os  Os7  1  0.827296  0.344796  0.748762  1
  Os  Os8  1  0.346451  0.826312  0.748769  1
  Os  Os9  1  0.831429  0.831180  0.748944  1
  Os  Os10  1  0.177038  0.656976  0.250921  1
  Os  Os11  1  0.657546  0.176903  0.250922  1
