# generated using pymatgen
data_La5Mg(Cu3P2)6
_symmetry_space_group_name_H-M   'P 1'
_cell_length_a   12.80785600
_cell_length_b   12.66080743
_cell_length_c   4.04018600
_cell_angle_alpha   90.00000000
_cell_angle_beta   90.00000000
_cell_angle_gamma   119.62093615
_symmetry_Int_Tables_number   1
_chemical_formula_structural   La5Mg(Cu3P2)6
_chemical_formula_sum   'La5 Mg1 Cu18 P12'
_cell_volume   569.52928988
_cell_formula_units_Z   1
loop_
 _symmetry_equiv_pos_site_id
 _symmetry_equiv_pos_as_xyz
  1  'x, y, z'
loop_
 _atom_site_type_symbol
 _atom_site_label
 _atom_site_symmetry_multiplicity
 _atom_site_fract_x
 _atom_site_fract_y
 _atom_site_fract_z
 _atom_site_occupancy
  La  La0  1  0.000000  0.188636  0.500000  1
  La  La1  1  0.807109  0.808306  0.500000  1
  La  La2  1  0.192891  0.001197  0.500000  1
  La  La3  1  0.661659  0.329078  0.000000  1
  La  La4  1  0.338341  0.667419  0.000000  1
  Mg  Mg5  1  0.000000  0.565738  0.000000  1
  Cu  Cu6  1  0.448025  0.453704  0.000000  1
  Cu  Cu7  1  0.551975  0.005679  0.000000  1
  Cu  Cu8  1  0.000000  0.717476  0.500000  1
  Cu  Cu9  1  0.287930  0.287112  0.500000  1
  Cu  Cu10  1  0.712070  0.999182  0.500000  1
  Cu  Cu11  1  0.793283  0.172067  0.000000  1
  Cu  Cu12  1  0.815437  0.619307  0.000000  1
  Cu  Cu13  1  0.378086  0.207563  0.000000  1
  Cu  Cu14  1  0.184563  0.803871  0.000000  1
  Cu  Cu15  1  0.621914  0.829478  0.000000  1
  Cu  Cu16  1  0.206717  0.378784  0.000000  1
  Cu  Cu17  1  0.880550  0.360616  0.500000  1
  Cu  Cu18  1  0.632496  0.513753  0.500000  1
  Cu  Cu19  1  0.482965  0.115964  0.500000  1
  Cu  Cu20  1  0.367504  0.881256  0.500000  1
  Cu  Cu21  1  0.517035  0.632999  0.500000  1
  Cu  Cu22  1  0.119450  0.480066  0.500000  1
  Cu  Cu23  1  0.000000  0.998712  0.000000  1
  P  P24  1  0.000000  0.820345  0.000000  1
  P  P25  1  0.176682  0.175788  0.000000  1
  P  P26  1  0.823318  0.999105  0.000000  1
  P  P27  1  0.692151  0.171150  0.500000  1
  P  P28  1  0.827579  0.518930  0.500000  1
  P  P29  1  0.478006  0.304641  0.500000  1
  P  P30  1  0.172421  0.691351  0.500000  1
  P  P31  1  0.521994  0.826634  0.500000  1
  P  P32  1  0.307849  0.478998  0.500000  1
  P  P33  1  0.000000  0.364257  0.000000  1
  P  P34  1  0.629902  0.630371  0.000000  1
  P  P35  1  0.370098  0.000469  0.000000  1
