# generated using pymatgen
data_Sm4VB16W3
_symmetry_space_group_name_H-M   'P 1'
_cell_length_a   3.63945500
_cell_length_b   6.09104865
_cell_length_c   11.78342897
_cell_angle_alpha   89.99359993
_cell_angle_beta   90.00000000
_cell_angle_gamma   90.00000000
_symmetry_Int_Tables_number   1
_chemical_formula_structural   Sm4VB16W3
_chemical_formula_sum   'Sm4 V1 B16 W3'
_cell_volume   261.21620016
_cell_formula_units_Z   1
loop_
 _symmetry_equiv_pos_site_id
 _symmetry_equiv_pos_as_xyz
  1  'x, y, z'
loop_
 _atom_site_type_symbol
 _atom_site_label
 _atom_site_symmetry_multiplicity
 _atom_site_fract_x
 _atom_site_fract_y
 _atom_site_fract_z
 _atom_site_occupancy
  Sm  Sm0  1  0.000000  0.625594  0.350427  1
  Sm  Sm1  1  0.000000  0.376492  0.649363  1
  Sm  Sm2  1  0.000000  0.126071  0.150695  1
  Sm  Sm3  1  0.000000  0.874402  0.847953  1
  V  V4  1  0.000000  0.873416  0.582240  1
  B  B5  1  0.500000  0.783961  0.185987  1
  B  B6  1  0.500000  0.214861  0.813483  1
  B  B7  1  0.500000  0.284252  0.314641  1
  B  B8  1  0.500000  0.718650  0.684086  1
  B  B9  1  0.500000  0.864774  0.032001  1
  B  B10  1  0.500000  0.135090  0.967320  1
  B  B11  1  0.500000  0.364488  0.469119  1
  B  B12  1  0.500000  0.638872  0.533972  1
  B  B13  1  0.500000  0.884784  0.455336  1
  B  B14  1  0.500000  0.110977  0.548506  1
  B  B15  1  0.500000  0.386931  0.046196  1
  B  B16  1  0.500000  0.613086  0.953075  1
  B  B17  1  0.500000  0.974113  0.308773  1
  B  B18  1  0.500000  0.021640  0.690774  1
  B  B19  1  0.500000  0.475137  0.191794  1
  B  B20  1  0.500000  0.525331  0.807315  1
  W  W21  1  0.000000  0.629429  0.083907  1
  W  W22  1  0.000000  0.370691  0.915718  1
  W  W23  1  0.000000  0.126961  0.417322  1
