# generated using pymatgen
data_Hf2GaRh5
_symmetry_space_group_name_H-M   'P 1'
_cell_length_a   4.10115700
_cell_length_b   5.52805700
_cell_length_c   10.93059400
_cell_angle_alpha   90.00000000
_cell_angle_beta   90.00000000
_cell_angle_gamma   90.00000000
_symmetry_Int_Tables_number   1
_chemical_formula_structural   Hf2GaRh5
_chemical_formula_sum   'Hf4 Ga2 Rh10'
_cell_volume   247.81219303
_cell_formula_units_Z   2
loop_
 _symmetry_equiv_pos_site_id
 _symmetry_equiv_pos_as_xyz
  1  'x, y, z'
loop_
 _atom_site_type_symbol
 _atom_site_label
 _atom_site_symmetry_multiplicity
 _atom_site_fract_x
 _atom_site_fract_y
 _atom_site_fract_z
 _atom_site_occupancy
  Hf  Hf0  1  0.500000  0.183434  0.638888  1
  Hf  Hf1  1  0.500000  0.816566  0.361112  1
  Hf  Hf2  1  0.500000  0.683434  0.861112  1
  Hf  Hf3  1  0.500000  0.316566  0.138888  1
  Ga  Ga4  1  0.000000  0.500000  0.500000  1
  Ga  Ga5  1  0.000000  0.000000  0.000000  1
  Rh  Rh6  1  0.500000  0.190015  0.890413  1
  Rh  Rh7  1  0.500000  0.809985  0.109587  1
  Rh  Rh8  1  0.500000  0.690015  0.609587  1
  Rh  Rh9  1  0.500000  0.309985  0.390413  1
  Rh  Rh10  1  0.000000  0.433999  0.746326  1
  Rh  Rh11  1  0.000000  0.566001  0.253674  1
  Rh  Rh12  1  0.000000  0.000000  0.500000  1
  Rh  Rh13  1  0.000000  0.500000  0.000000  1
  Rh  Rh14  1  0.000000  0.066001  0.246326  1
  Rh  Rh15  1  0.000000  0.933999  0.753674  1
