# generated using pymatgen
data_Ti10Sn3Sb4
_symmetry_space_group_name_H-M   'P 1'
_cell_length_a   5.56995803
_cell_length_b   8.22424788
_cell_length_c   8.22370004
_cell_angle_alpha   119.99810625
_cell_angle_beta   89.98869695
_cell_angle_gamma   90.00713448
_symmetry_Int_Tables_number   1
_chemical_formula_structural   Ti10Sn3Sb4
_chemical_formula_sum   'Ti10 Sn3 Sb4'
_cell_volume   326.25282837
_cell_formula_units_Z   1
loop_
 _symmetry_equiv_pos_site_id
 _symmetry_equiv_pos_as_xyz
  1  'x, y, z'
loop_
 _atom_site_type_symbol
 _atom_site_label
 _atom_site_symmetry_multiplicity
 _atom_site_fract_x
 _atom_site_fract_y
 _atom_site_fract_z
 _atom_site_occupancy
  Ti  Ti0  1  0.500173  0.333343  0.666681  1
  Ti  Ti1  1  0.500172  0.666651  0.333331  1
  Ti  Ti2  1  0.001847  0.666644  0.333326  1
  Ti  Ti3  1  0.001851  0.333350  0.666690  1
  Ti  Ti4  1  0.771208  0.268046  0.999998  1
  Ti  Ti5  1  0.771198  0.731963  0.731959  1
  Ti  Ti6  1  0.771210  0.999994  0.268043  1
  Ti  Ti7  1  0.228087  0.730229  0.999994  1
  Ti  Ti8  1  0.228085  0.269772  0.269756  1
  Ti  Ti9  1  0.228085  0.000004  0.730249  1
  Sn  Sn10  1  0.254067  0.385806  0.999999  1
  Sn  Sn11  1  0.254064  0.614191  0.614188  1
  Sn  Sn12  1  0.254076  0.000001  0.385824  1
  Sb  Sb13  1  0.746439  0.611445  0.999975  1
  Sb  Sb14  1  0.746443  0.388544  0.388511  1
  Sb  Sb15  1  0.746446  0.000004  0.611530  1
  Sb  Sb16  1  0.496548  0.000016  0.999945  1
