# generated using pymatgen
data_Er4HfTi(GaIr2)2
_symmetry_space_group_name_H-M   'P 1'
_cell_length_a   4.39246500
_cell_length_b   6.89230774
_cell_length_c   7.90311677
_cell_angle_alpha   91.14781781
_cell_angle_beta   90.00000000
_cell_angle_gamma   90.00000000
_symmetry_Int_Tables_number   1
_chemical_formula_structural   Er4HfTi(GaIr2)2
_chemical_formula_sum   'Er4 Hf1 Ti1 Ga2 Ir4'
_cell_volume   239.21269025
_cell_formula_units_Z   1
loop_
 _symmetry_equiv_pos_site_id
 _symmetry_equiv_pos_as_xyz
  1  'x, y, z'
loop_
 _atom_site_type_symbol
 _atom_site_label
 _atom_site_symmetry_multiplicity
 _atom_site_fract_x
 _atom_site_fract_y
 _atom_site_fract_z
 _atom_site_occupancy
  Er  Er0  1  0.250000  0.970868  0.301362  1
  Er  Er1  1  0.250000  0.480839  0.171338  1
  Er  Er2  1  0.750000  0.018413  0.696646  1
  Er  Er3  1  0.750000  0.529240  0.834437  1
  Hf  Hf4  1  0.250000  0.357381  0.574385  1
  Ti  Ti5  1  0.750000  0.636423  0.425924  1
  Ga  Ga6  1  0.250000  0.843662  0.926231  1
  Ga  Ga7  1  0.750000  0.156961  0.068748  1
  Ir  Ir8  1  0.250000  0.226224  0.887390  1
  Ir  Ir9  1  0.250000  0.732161  0.598660  1
  Ir  Ir10  1  0.750000  0.776736  0.122439  1
  Ir  Ir11  1  0.750000  0.271094  0.392439  1
