# generated using pymatgen
data_Li3Ca(LaPt)4
_symmetry_space_group_name_H-M   'P 1'
_cell_length_a   4.20419100
_cell_length_b   7.42484711
_cell_length_c   8.95657300
_cell_angle_alpha   90.90691176
_cell_angle_beta   90.00000000
_cell_angle_gamma   90.00000000
_symmetry_Int_Tables_number   1
_chemical_formula_structural   Li3Ca(LaPt)4
_chemical_formula_sum   'Li3 Ca1 La4 Pt4'
_cell_volume   279.54866069
_cell_formula_units_Z   1
loop_
 _symmetry_equiv_pos_site_id
 _symmetry_equiv_pos_as_xyz
  1  'x, y, z'
loop_
 _atom_site_type_symbol
 _atom_site_label
 _atom_site_symmetry_multiplicity
 _atom_site_fract_x
 _atom_site_fract_y
 _atom_site_fract_z
 _atom_site_occupancy
  Li  Li0  1  0.250000  0.128571  0.052232  1
  Li  Li1  1  0.250000  0.645749  0.436281  1
  Li  Li2  1  0.750000  0.876565  0.948797  1
  Ca  Ca3  1  0.750000  0.370508  0.560114  1
  La  La4  1  0.250000  0.019741  0.695249  1
  La  La5  1  0.250000  0.553411  0.833709  1
  La  La6  1  0.750000  0.954151  0.305730  1
  La  La7  1  0.750000  0.457380  0.177808  1
  Pt  Pt8  1  0.250000  0.234957  0.369943  1
  Pt  Pt9  1  0.250000  0.752473  0.116099  1
  Pt  Pt10  1  0.750000  0.753286  0.621428  1
  Pt  Pt11  1  0.750000  0.253207  0.882609  1
