# generated using pymatgen
data_AlBi2(SeCl2)2
_symmetry_space_group_name_H-M   'P 1'
_cell_length_a   9.58685267
_cell_length_b   11.69355523
_cell_length_c   12.50303581
_cell_angle_alpha   67.07572018
_cell_angle_beta   76.93517461
_cell_angle_gamma   71.95891263
_symmetry_Int_Tables_number   1
_chemical_formula_structural   AlBi2(SeCl2)2
_chemical_formula_sum   'Al4 Bi8 Se8 Cl16'
_cell_volume   1218.54789654
_cell_formula_units_Z   4
loop_
 _symmetry_equiv_pos_site_id
 _symmetry_equiv_pos_as_xyz
  1  'x, y, z'
loop_
 _atom_site_type_symbol
 _atom_site_label
 _atom_site_symmetry_multiplicity
 _atom_site_fract_x
 _atom_site_fract_y
 _atom_site_fract_z
 _atom_site_occupancy
  Al  Al0  1  0.804548  0.316633  0.541851  1
  Al  Al1  1  0.195452  0.683367  0.458149  1
  Al  Al2  1  0.886712  0.813637  0.024361  1
  Al  Al3  1  0.113288  0.186363  0.975639  1
  Bi  Bi4  1  0.340610  0.986679  0.434972  1
  Bi  Bi5  1  0.659390  0.013321  0.565028  1
  Bi  Bi6  1  0.561137  0.622728  0.673588  1
  Bi  Bi7  1  0.438863  0.377272  0.326412  1
  Bi  Bi8  1  0.560770  0.854666  0.825698  1
  Bi  Bi9  1  0.439230  0.145334  0.174302  1
  Bi  Bi10  1  0.711355  0.435611  0.004549  1
  Bi  Bi11  1  0.288645  0.564389  0.995451  1
  Se  Se12  1  0.624271  0.844203  0.471215  1
  Se  Se13  1  0.375729  0.155797  0.528785  1
  Se  Se14  1  0.342811  0.785091  0.768693  1
  Se  Se15  1  0.657189  0.214909  0.231307  1
  Se  Se16  1  0.765302  0.649328  0.780044  1
  Se  Se17  1  0.234698  0.350672  0.219956  1
  Se  Se18  1  0.511615  0.396149  0.905348  1
  Se  Se19  1  0.488385  0.603851  0.094652  1
  Cl  Cl20  1  0.724585  0.441562  0.376072  1
  Cl  Cl21  1  0.275415  0.558438  0.623928  1
  Cl  Cl22  1  0.623358  0.238049  0.656346  1
  Cl  Cl23  1  0.376642  0.761951  0.343654  1
  Cl  Cl24  1  0.862423  0.428289  0.620607  1
  Cl  Cl25  1  0.137577  0.571711  0.379393  1
  Cl  Cl26  1  0.984773  0.160568  0.520690  1
  Cl  Cl27  1  0.015227  0.839432  0.479310  1
  Cl  Cl28  1  0.895323  0.612601  0.070012  1
  Cl  Cl29  1  0.104677  0.387399  0.929988  1
  Cl  Cl30  1  0.862164  0.908297  0.839714  1
  Cl  Cl31  1  0.137836  0.091703  0.160286  1
  Cl  Cl32  1  0.099196  0.816155  0.054775  1
  Cl  Cl33  1  0.900804  0.183845  0.945225  1
  Cl  Cl34  1  0.703390  0.898564  0.127011  1
  Cl  Cl35  1  0.296610  0.101436  0.872989  1
