# generated using pymatgen
data_Hf5Ta(ReSi)6
_symmetry_space_group_name_H-M   'P 1'
_cell_length_a   7.73814192
_cell_length_b   7.73845625
_cell_length_c   7.73814302
_cell_angle_alpha   126.40505523
_cell_angle_beta   128.12801340
_cell_angle_gamma   77.82337573
_symmetry_Int_Tables_number   1
_chemical_formula_structural   Hf5Ta(ReSi)6
_chemical_formula_sum   'Hf5 Ta1 Re6 Si6'
_cell_volume   284.37935368
_cell_formula_units_Z   1
loop_
 _symmetry_equiv_pos_site_id
 _symmetry_equiv_pos_as_xyz
  1  'x, y, z'
loop_
 _atom_site_type_symbol
 _atom_site_label
 _atom_site_symmetry_multiplicity
 _atom_site_fract_x
 _atom_site_fract_y
 _atom_site_fract_z
 _atom_site_occupancy
  Hf  Hf0  1  0.549953  0.091058  0.041105  1
  Hf  Hf1  1  0.452434  0.499467  0.547034  1
  Hf  Hf2  1  0.950058  0.491140  0.041082  1
  Hf  Hf3  1  0.047566  0.094581  0.547016  1
  Hf  Hf4  1  0.750023  0.900840  0.650817  1
  Ta  Ta5  1  0.250049  0.902060  0.152011  1
  Re  Re6  1  0.496723  0.240400  0.737138  1
  Re  Re7  1  0.003262  0.240400  0.243677  1
  Re  Re8  1  0.127823  0.753206  0.626748  1
  Re  Re9  1  0.873436  0.498748  0.626613  1
  Re  Re10  1  0.626460  0.753206  0.125384  1
  Re  Re11  1  0.372135  0.498748  0.125312  1
  Si  Si12  1  0.750044  0.497071  0.247027  1
  Si  Si13  1  0.250024  0.499792  0.749768  1
  Si  Si14  1  0.330080  0.829507  0.491187  1
  Si  Si15  1  0.661697  0.161233  0.491317  1
  Si  Si16  1  0.838319  0.829507  0.999427  1
  Si  Si17  1  0.169916  0.161233  0.999537  1
