# generated using pymatgen
data_Er5Bi2Te
_symmetry_space_group_name_H-M   'P 1'
_cell_length_a   8.15367700
_cell_length_b   9.34695900
_cell_length_c   11.86970900
_cell_angle_alpha   90.00000000
_cell_angle_beta   90.00000000
_cell_angle_gamma   90.00000000
_symmetry_Int_Tables_number   1
_chemical_formula_structural   Er5Bi2Te
_chemical_formula_sum   'Er20 Bi8 Te4'
_cell_volume   904.61526670
_cell_formula_units_Z   4
loop_
 _symmetry_equiv_pos_site_id
 _symmetry_equiv_pos_as_xyz
  1  'x, y, z'
loop_
 _atom_site_type_symbol
 _atom_site_label
 _atom_site_symmetry_multiplicity
 _atom_site_fract_x
 _atom_site_fract_y
 _atom_site_fract_z
 _atom_site_occupancy
  Er  Er0  1  0.814020  0.561844  0.063355  1
  Er  Er1  1  0.685980  0.938156  0.563355  1
  Er  Er2  1  0.185980  0.061844  0.936645  1
  Er  Er3  1  0.314020  0.438156  0.436645  1
  Er  Er4  1  0.185980  0.438156  0.936645  1
  Er  Er5  1  0.314020  0.061844  0.436645  1
  Er  Er6  1  0.814020  0.938156  0.063355  1
  Er  Er7  1  0.685980  0.561844  0.563355  1
  Er  Er8  1  0.168572  0.750000  0.225198  1
  Er  Er9  1  0.331428  0.750000  0.725198  1
  Er  Er10  1  0.831428  0.250000  0.774802  1
  Er  Er11  1  0.668572  0.250000  0.274802  1
  Er  Er12  1  0.479509  0.750000  0.003933  1
  Er  Er13  1  0.020491  0.750000  0.503933  1
  Er  Er14  1  0.520491  0.250000  0.996067  1
  Er  Er15  1  0.979509  0.250000  0.496067  1
  Er  Er16  1  0.653274  0.750000  0.291015  1
  Er  Er17  1  0.846726  0.750000  0.791015  1
  Er  Er18  1  0.346726  0.250000  0.708985  1
  Er  Er19  1  0.153274  0.250000  0.208985  1
  Bi  Bi20  1  0.931306  0.507927  0.325737  1
  Bi  Bi21  1  0.568694  0.992073  0.825737  1
  Bi  Bi22  1  0.068694  0.007927  0.674263  1
  Bi  Bi23  1  0.431306  0.492073  0.174263  1
  Bi  Bi24  1  0.068694  0.492073  0.674263  1
  Bi  Bi25  1  0.431306  0.007927  0.174263  1
  Bi  Bi26  1  0.931306  0.992073  0.325737  1
  Bi  Bi27  1  0.568694  0.507927  0.825737  1
  Te  Te28  1  0.397652  0.750000  0.475414  1
  Te  Te29  1  0.102348  0.750000  0.975414  1
  Te  Te30  1  0.602348  0.250000  0.524586  1
  Te  Te31  1  0.897652  0.250000  0.024586  1
