# generated using pymatgen
data_Pr8Er12Si15Ge
_symmetry_space_group_name_H-M   'P 1'
_cell_length_a   7.48941862
_cell_length_b   7.78710015
_cell_length_c   14.79428363
_cell_angle_alpha   90.02493271
_cell_angle_beta   89.79472950
_cell_angle_gamma   90.03089621
_symmetry_Int_Tables_number   1
_chemical_formula_structural   Pr8Er12Si15Ge
_chemical_formula_sum   'Pr8 Er12 Si15 Ge1'
_cell_volume   862.80949507
_cell_formula_units_Z   1
loop_
 _symmetry_equiv_pos_site_id
 _symmetry_equiv_pos_as_xyz
  1  'x, y, z'
loop_
 _atom_site_type_symbol
 _atom_site_label
 _atom_site_symmetry_multiplicity
 _atom_site_fract_x
 _atom_site_fract_y
 _atom_site_fract_z
 _atom_site_occupancy
  Pr  Pr0  1  0.016435  0.176788  0.401593  1
  Pr  Pr1  1  0.517382  0.321876  0.401223  1
  Pr  Pr2  1  0.482421  0.677800  0.901962  1
  Pr  Pr3  1  0.485022  0.678583  0.598517  1
  Pr  Pr4  1  0.982263  0.822997  0.598094  1
  Pr  Pr5  1  0.982123  0.822749  0.902179  1
  Pr  Pr6  1  0.517682  0.322412  0.098153  1
  Pr  Pr7  1  0.017872  0.177698  0.097942  1
  Er  Er8  1  0.327979  0.175244  0.624543  1
  Er  Er9  1  0.673027  0.822948  0.376052  1
  Er  Er10  1  0.658987  0.990826  0.750316  1
  Er  Er11  1  0.172127  0.678357  0.376281  1
  Er  Er12  1  0.825407  0.322119  0.876693  1
  Er  Er13  1  0.825853  0.322702  0.623180  1
  Er  Er14  1  0.840665  0.490772  0.250000  1
  Er  Er15  1  0.341122  0.009234  0.249918  1
  Er  Er16  1  0.325355  0.177527  0.876651  1
  Er  Er17  1  0.174331  0.677846  0.123307  1
  Er  Er18  1  0.674317  0.822179  0.123194  1
  Er  Er19  1  0.159213  0.509415  0.751308  1
  Si  Si20  1  0.277908  0.878741  0.750390  1
  Si  Si21  1  0.466864  0.615753  0.249669  1
  Si  Si22  1  0.032023  0.115892  0.750117  1
  Si  Si23  1  0.532535  0.384380  0.750350  1
  Si  Si24  1  0.967567  0.884959  0.249484  1
  Si  Si25  1  0.721909  0.120649  0.249528  1
  Si  Si26  1  0.851582  0.532445  0.039381  1
  Si  Si27  1  0.351616  0.967460  0.039423  1
  Si  Si28  1  0.148293  0.467549  0.960735  1
  Si  Si29  1  0.649832  0.033246  0.539044  1
  Si  Si30  1  0.350257  0.967042  0.460776  1
  Si  Si31  1  0.845024  0.533997  0.459681  1
  Si  Si32  1  0.778797  0.620602  0.750075  1
  Si  Si33  1  0.221540  0.379640  0.249903  1
  Si  Si34  1  0.648055  0.032711  0.960759  1
  Ge  Ge35  1  0.156614  0.464862  0.539577  1
