# generated using pymatgen
data_La8Pr2Si5Sn
_symmetry_space_group_name_H-M   'P 1'
_cell_length_a   8.03087208
_cell_length_b   8.03467286
_cell_length_c   9.13791940
_cell_angle_alpha   116.09487129
_cell_angle_beta   116.08161822
_cell_angle_gamma   89.97064594
_symmetry_Int_Tables_number   1
_chemical_formula_structural   La8Pr2Si5Sn
_chemical_formula_sum   'La8 Pr2 Si5 Sn1'
_cell_volume   461.80690059
_cell_formula_units_Z   1
loop_
 _symmetry_equiv_pos_site_id
 _symmetry_equiv_pos_as_xyz
  1  'x, y, z'
loop_
 _atom_site_type_symbol
 _atom_site_label
 _atom_site_symmetry_multiplicity
 _atom_site_fract_x
 _atom_site_fract_y
 _atom_site_fract_z
 _atom_site_occupancy
  La  La0  1  0.503875  0.503875  0.007750  1
  La  La1  1  0.996209  0.996209  0.992417  1
  La  La2  1  0.974308  0.827045  0.288356  1
  La  La3  1  0.314049  0.461312  0.288356  1
  La  La4  1  0.826714  0.313370  0.285704  1
  La  La5  1  0.458990  0.972334  0.285704  1
  La  La6  1  0.040784  0.185126  0.712705  1
  La  La7  1  0.671921  0.527579  0.712705  1
  Pr  Pr8  1  0.187125  0.674813  0.714957  1
  Pr  Pr9  1  0.527831  0.040144  0.714957  1
  Si  Si10  1  0.250785  0.250785  0.501571  1
  Si  Si11  1  0.611395  0.886318  0.997845  1
  Si  Si12  1  0.386450  0.111528  0.997845  1
  Si  Si13  1  0.885586  0.385629  0.998761  1
  Si  Si14  1  0.113175  0.613132  0.998761  1
  Sn  Sn15  1  0.750802  0.750802  0.501605  1
