# generated using pymatgen
data_Tb9Yb(Pb3S)2
_symmetry_space_group_name_H-M   'P 1'
_cell_length_a   9.17657000
_cell_length_b   9.17657023
_cell_length_c   6.78602400
_cell_angle_alpha   90.00000000
_cell_angle_beta   90.00000000
_cell_angle_gamma   119.99999919
_symmetry_Int_Tables_number   1
_chemical_formula_structural   Tb9Yb(Pb3S)2
_chemical_formula_sum   'Tb9 Yb1 Pb6 S2'
_cell_volume   494.88786053
_cell_formula_units_Z   1
loop_
 _symmetry_equiv_pos_site_id
 _symmetry_equiv_pos_as_xyz
  1  'x, y, z'
loop_
 _atom_site_type_symbol
 _atom_site_label
 _atom_site_symmetry_multiplicity
 _atom_site_fract_x
 _atom_site_fract_y
 _atom_site_fract_z
 _atom_site_occupancy
  Tb  Tb0  1  0.243014  0.242748  0.749846  1
  Tb  Tb1  1  0.999734  0.756986  0.749846  1
  Tb  Tb2  1  0.243014  0.000266  0.250154  1
  Tb  Tb3  1  0.757252  0.000266  0.749846  1
  Tb  Tb4  1  0.666667  0.333333  0.500000  1
  Tb  Tb5  1  0.757252  0.756986  0.250154  1
  Tb  Tb6  1  0.999734  0.242748  0.250154  1
  Tb  Tb7  1  0.333333  0.666667  0.000000  1
  Tb  Tb8  1  0.666667  0.333333  0.000000  1
  Yb  Yb9  1  0.333333  0.666667  0.500000  1
  Pb  Pb10  1  0.601591  0.000001  0.249409  1
  Pb  Pb11  1  0.999999  0.601590  0.249409  1
  Pb  Pb12  1  0.601591  0.601590  0.750591  1
  Pb  Pb13  1  0.398410  0.398409  0.249409  1
  Pb  Pb14  1  0.999999  0.398409  0.750591  1
  Pb  Pb15  1  0.398410  0.000001  0.750591  1
  S  S16  1  0.000000  0.000000  0.000000  1
  S  S17  1  0.000000  0.000000  0.500000  1
