# generated using pymatgen
data_Dy12Os3Ru
_symmetry_space_group_name_H-M   'P 1'
_cell_length_a   6.31744157
_cell_length_b   7.35877666
_cell_length_c   9.10784600
_cell_angle_alpha   90.00000000
_cell_angle_beta   90.00000000
_cell_angle_gamma   90.04851828
_symmetry_Int_Tables_number   1
_chemical_formula_structural   Dy12Os3Ru
_chemical_formula_sum   'Dy12 Os3 Ru1'
_cell_volume   423.41123614
_cell_formula_units_Z   1
loop_
 _symmetry_equiv_pos_site_id
 _symmetry_equiv_pos_as_xyz
  1  'x, y, z'
loop_
 _atom_site_type_symbol
 _atom_site_label
 _atom_site_symmetry_multiplicity
 _atom_site_fract_x
 _atom_site_fract_y
 _atom_site_fract_z
 _atom_site_occupancy
  Dy  Dy0  1  0.331398  0.675088  0.062761  1
  Dy  Dy1  1  0.169294  0.175752  0.436687  1
  Dy  Dy2  1  0.669633  0.324511  0.563163  1
  Dy  Dy3  1  0.829657  0.824235  0.935788  1
  Dy  Dy4  1  0.669633  0.324511  0.936837  1
  Dy  Dy5  1  0.829657  0.824235  0.564212  1
  Dy  Dy6  1  0.331398  0.675088  0.437239  1
  Dy  Dy7  1  0.169294  0.175752  0.063313  1
  Dy  Dy8  1  0.868539  0.539502  0.250000  1
  Dy  Dy9  1  0.632581  0.038762  0.250000  1
  Dy  Dy10  1  0.131638  0.461462  0.750000  1
  Dy  Dy11  1  0.368402  0.961535  0.750000  1
  Os  Os12  1  0.460185  0.383577  0.250000  1
  Os  Os13  1  0.960362  0.115921  0.750000  1
  Os  Os14  1  0.539932  0.616359  0.750000  1
  Ru  Ru15  1  0.038396  0.883710  0.250000  1
