# generated using pymatgen
data_K3(H6Ir)2
_symmetry_space_group_name_H-M   'P 1'
_cell_length_a   5.91213124
_cell_length_b   6.36259278
_cell_length_c   7.11251106
_cell_angle_alpha   98.59137099
_cell_angle_beta   95.94602372
_cell_angle_gamma   116.02391175
_symmetry_Int_Tables_number   1
_chemical_formula_structural   K3(H6Ir)2
_chemical_formula_sum   'K3 H12 Ir2'
_cell_volume   233.37685434
_cell_formula_units_Z   1
loop_
 _symmetry_equiv_pos_site_id
 _symmetry_equiv_pos_as_xyz
  1  'x, y, z'
loop_
 _atom_site_type_symbol
 _atom_site_label
 _atom_site_symmetry_multiplicity
 _atom_site_fract_x
 _atom_site_fract_y
 _atom_site_fract_z
 _atom_site_occupancy
  K  K0  1  0.000014  0.999994  0.000004  1
  K  K1  1  0.634901  0.306318  0.320852  1
  K  K2  1  0.365099  0.693684  0.679147  1
  H  H3  1  0.086139  0.429456  0.918935  1
  H  H4  1  0.358600  0.855885  0.060773  1
  H  H5  1  0.458212  0.556578  0.085406  1
  H  H6  1  0.500559  0.748964  0.315797  1
  H  H7  1  0.197209  0.785149  0.340933  1
  H  H8  1  0.130646  0.387101  0.275983  1
  H  H9  1  0.802790  0.214853  0.659066  1
  H  H10  1  0.869351  0.612899  0.724018  1
  H  H11  1  0.499438  0.251036  0.684202  1
  H  H12  1  0.641400  0.144114  0.939228  1
  H  H13  1  0.541786  0.443424  0.914594  1
  H  H14  1  0.913857  0.570543  0.081065  1
  Ir  Ir15  1  0.235711  0.619757  0.160595  1
  Ir  Ir16  1  0.764283  0.380243  0.839405  1
