# generated using pymatgen
data_CaBiAuF12
_symmetry_space_group_name_H-M   'P 1'
_cell_length_a   11.61935977
_cell_length_b   5.80307283
_cell_length_c   5.78644300
_cell_angle_alpha   57.40078644
_cell_angle_beta   57.39384561
_cell_angle_gamma   57.41941475
_symmetry_Int_Tables_number   1
_chemical_formula_structural   CaBiAuF12
_chemical_formula_sum   'Ca1 Bi1 Au1 F12'
_cell_volume   259.41432164
_cell_formula_units_Z   1
loop_
 _symmetry_equiv_pos_site_id
 _symmetry_equiv_pos_as_xyz
  1  'x, y, z'
loop_
 _atom_site_type_symbol
 _atom_site_label
 _atom_site_symmetry_multiplicity
 _atom_site_fract_x
 _atom_site_fract_y
 _atom_site_fract_z
 _atom_site_occupancy
  Ca  Ca0  1  0.745822  0.508855  0.496636  1
  Bi  Bi1  1  0.023708  0.979102  0.988523  1
  Au  Au2  1  0.490012  0.008375  0.005709  1
  F  F3  1  0.193297  0.118085  0.745563  1
  F  F4  1  0.668562  0.113065  0.781351  1
  F  F5  1  0.055325  0.772065  0.373897  1
  F  F6  1  0.545096  0.782145  0.359244  1
  F  F7  1  0.120196  0.620772  0.885395  1
  F  F8  1  0.606093  0.652587  0.898565  1
  F  F9  1  0.441960  0.223781  0.656831  1
  F  F10  1  0.942309  0.232166  0.645544  1
  F  F11  1  0.320551  0.898435  0.224532  1
  F  F12  1  0.829006  0.886709  0.220784  1
  F  F13  1  0.382319  0.352543  0.108224  1
  F  F14  1  0.885742  0.351318  0.109199  1
