# generated using pymatgen
data_Ca2Si7(NiIr3)3
_symmetry_space_group_name_H-M   'P 1'
_cell_length_a   9.58114400
_cell_length_b   9.58114318
_cell_length_c   3.85831800
_cell_angle_alpha   90.00000000
_cell_angle_beta   90.00000000
_cell_angle_gamma   120.00001066
_symmetry_Int_Tables_number   1
_chemical_formula_structural   Ca2Si7(NiIr3)3
_chemical_formula_sum   'Ca2 Si7 Ni3 Ir9'
_cell_volume   306.73497729
_cell_formula_units_Z   1
loop_
 _symmetry_equiv_pos_site_id
 _symmetry_equiv_pos_as_xyz
  1  'x, y, z'
loop_
 _atom_site_type_symbol
 _atom_site_label
 _atom_site_symmetry_multiplicity
 _atom_site_fract_x
 _atom_site_fract_y
 _atom_site_fract_z
 _atom_site_occupancy
  Ca  Ca0  1  0.000000  0.000000  0.000000  1
  Ca  Ca1  1  0.666667  0.333333  0.500000  1
  Si  Si2  1  0.619994  0.555443  0.000000  1
  Si  Si3  1  0.935449  0.380006  0.000000  1
  Si  Si4  1  0.444557  0.064551  0.000000  1
  Si  Si5  1  0.736479  0.956513  0.500000  1
  Si  Si6  1  0.220033  0.263521  0.500000  1
  Si  Si7  1  0.043487  0.779967  0.500000  1
  Si  Si8  1  0.333333  0.666667  0.000000  1
  Ni  Ni9  1  0.608270  0.787348  0.000000  1
  Ni  Ni10  1  0.179077  0.391730  0.000000  1
  Ni  Ni11  1  0.212652  0.820923  0.000000  1
  Ir  Ir12  1  0.392448  0.292020  0.000000  1
  Ir  Ir13  1  0.899571  0.607552  0.000000  1
  Ir  Ir14  1  0.707980  0.100429  0.000000  1
  Ir  Ir15  1  0.765541  0.719752  0.500000  1
  Ir  Ir16  1  0.954212  0.234459  0.500000  1
  Ir  Ir17  1  0.280248  0.045788  0.500000  1
  Ir  Ir18  1  0.422881  0.545703  0.500000  1
  Ir  Ir19  1  0.122822  0.577119  0.500000  1
  Ir  Ir20  1  0.454297  0.877178  0.500000  1
