# generated using pymatgen
data_Zr24Si3AsSe4
_symmetry_space_group_name_H-M   'P 1'
_cell_length_a   11.01728267
_cell_length_b   11.03264574
_cell_length_c   5.47477011
_cell_angle_alpha   89.96021007
_cell_angle_beta   89.90745524
_cell_angle_gamma   90.01370377
_symmetry_Int_Tables_number   1
_chemical_formula_structural   Zr24Si3AsSe4
_chemical_formula_sum   'Zr24 Si3 As1 Se4'
_cell_volume   665.45603777
_cell_formula_units_Z   1
loop_
 _symmetry_equiv_pos_site_id
 _symmetry_equiv_pos_as_xyz
  1  'x, y, z'
loop_
 _atom_site_type_symbol
 _atom_site_label
 _atom_site_symmetry_multiplicity
 _atom_site_fract_x
 _atom_site_fract_y
 _atom_site_fract_z
 _atom_site_occupancy
  Zr  Zr0  1  0.917762  0.606966  0.540790  1
  Zr  Zr1  1  0.083775  0.393910  0.537609  1
  Zr  Zr2  1  0.895230  0.414967  0.033619  1
  Zr  Zr3  1  0.106313  0.583656  0.037670  1
  Zr  Zr4  1  0.583285  0.896130  0.962582  1
  Zr  Zr5  1  0.416630  0.103987  0.962698  1
  Zr  Zr6  1  0.604329  0.083476  0.462912  1
  Zr  Zr7  1  0.395853  0.916633  0.462748  1
  Zr  Zr8  1  0.863518  0.973321  0.719128  1
  Zr  Zr9  1  0.136378  0.026967  0.719630  1
  Zr  Zr10  1  0.526025  0.362222  0.217836  1
  Zr  Zr11  1  0.471241  0.637101  0.218890  1
  Zr  Zr12  1  0.639273  0.526279  0.783802  1
  Zr  Zr13  1  0.359874  0.473090  0.781426  1
  Zr  Zr14  1  0.972610  0.140652  0.281053  1
  Zr  Zr15  1  0.026541  0.859279  0.281779  1
  Zr  Zr16  1  0.819343  0.714929  0.008079  1
  Zr  Zr17  1  0.180821  0.286603  0.009776  1
  Zr  Zr18  1  0.786971  0.318798  0.512869  1
  Zr  Zr19  1  0.213475  0.680386  0.509692  1
  Zr  Zr20  1  0.682056  0.785153  0.488976  1
  Zr  Zr21  1  0.317858  0.216235  0.487885  1
  Zr  Zr22  1  0.716062  0.181722  0.987623  1
  Zr  Zr23  1  0.283395  0.818168  0.987698  1
  Si  Si24  1  0.294238  0.459144  0.287861  1
  Si  Si25  1  0.959535  0.205576  0.787986  1
  Si  Si26  1  0.041045  0.794341  0.788632  1
  As  As27  1  0.706868  0.540264  0.288496  1
  Se  Se28  1  0.793478  0.960239  0.212514  1
  Se  Se29  1  0.206551  0.039902  0.212858  1
  Se  Se30  1  0.539430  0.292988  0.712400  1
  Se  Se31  1  0.460236  0.706919  0.712481  1
