# generated using pymatgen
data_DyHo2In3HgPt2
_symmetry_space_group_name_H-M   'P 1'
_cell_length_a   7.71036201
_cell_length_b   7.71421593
_cell_length_c   3.99906400
_cell_angle_alpha   90.00000000
_cell_angle_beta   90.00000000
_cell_angle_gamma   119.98785389
_symmetry_Int_Tables_number   1
_chemical_formula_structural   DyHo2In3HgPt2
_chemical_formula_sum   'Dy1 Ho2 In3 Hg1 Pt2'
_cell_volume   206.01967024
_cell_formula_units_Z   1
loop_
 _symmetry_equiv_pos_site_id
 _symmetry_equiv_pos_as_xyz
  1  'x, y, z'
loop_
 _atom_site_type_symbol
 _atom_site_label
 _atom_site_symmetry_multiplicity
 _atom_site_fract_x
 _atom_site_fract_y
 _atom_site_fract_z
 _atom_site_occupancy
  Dy  Dy0  1  0.607914  0.019138  0.500000  1
  Ho  Ho1  1  0.411178  0.391920  0.500000  1
  Ho  Ho2  1  0.980676  0.588804  0.500000  1
  In  In3  1  0.747449  0.743487  0.000000  1
  In  In4  1  0.996382  0.252711  0.000000  1
  In  In5  1  0.256331  0.003833  0.000000  1
  Hg  Hg6  1  0.333137  0.666400  0.000000  1
  Pt  Pt7  1  0.666759  0.333718  0.000000  1
  Pt  Pt8  1  0.000172  0.999991  0.500000  1
