# generated using pymatgen
data_DyY(LuPt)2
_symmetry_space_group_name_H-M   'P 1'
_cell_length_a   4.74517400
_cell_length_b   7.10712600
_cell_length_c   8.65665300
_cell_angle_alpha   90.00000000
_cell_angle_beta   90.00000000
_cell_angle_gamma   90.00000000
_symmetry_Int_Tables_number   1
_chemical_formula_structural   DyY(LuPt)2
_chemical_formula_sum   'Dy2 Y2 Lu4 Pt4'
_cell_volume   291.94172269
_cell_formula_units_Z   2
loop_
 _symmetry_equiv_pos_site_id
 _symmetry_equiv_pos_as_xyz
  1  'x, y, z'
loop_
 _atom_site_type_symbol
 _atom_site_label
 _atom_site_symmetry_multiplicity
 _atom_site_fract_x
 _atom_site_fract_y
 _atom_site_fract_z
 _atom_site_occupancy
  Dy  Dy0  1  0.250000  0.989123  0.330243  1
  Dy  Dy1  1  0.250000  0.489123  0.169757  1
  Y  Y2  1  0.750000  0.010811  0.670928  1
  Y  Y3  1  0.750000  0.510811  0.829072  1
  Lu  Lu4  1  0.250000  0.857022  0.922082  1
  Lu  Lu5  1  0.250000  0.357022  0.577918  1
  Lu  Lu6  1  0.750000  0.142825  0.078234  1
  Lu  Lu7  1  0.750000  0.642825  0.421766  1
  Pt  Pt8  1  0.250000  0.252925  0.906813  1
  Pt  Pt9  1  0.250000  0.752925  0.593187  1
  Pt  Pt10  1  0.750000  0.747294  0.093774  1
  Pt  Pt11  1  0.750000  0.247294  0.406226  1
