# generated using pymatgen
data_Be(B6N)2
_symmetry_space_group_name_H-M   'P 1'
_cell_length_a   5.23498304
_cell_length_b   5.23498231
_cell_length_c   5.23498329
_cell_angle_alpha   63.15765734
_cell_angle_beta   116.84234017
_cell_angle_gamma   116.84233409
_symmetry_Int_Tables_number   1
_chemical_formula_structural   Be(B6N)2
_chemical_formula_sum   'Be1 B12 N2'
_cell_volume   108.54778622
_cell_formula_units_Z   1
loop_
 _symmetry_equiv_pos_site_id
 _symmetry_equiv_pos_as_xyz
  1  'x, y, z'
loop_
 _atom_site_type_symbol
 _atom_site_label
 _atom_site_symmetry_multiplicity
 _atom_site_fract_x
 _atom_site_fract_y
 _atom_site_fract_z
 _atom_site_occupancy
  Be  Be0  1  0.500001  0.500000  0.500001  1
  B  B1  1  0.669254  0.003666  0.003668  1
  B  B2  1  0.996333  0.330746  0.003668  1
  B  B3  1  0.323603  0.197056  0.197056  1
  B  B4  1  0.802944  0.676396  0.197056  1
  B  B5  1  0.197056  0.802945  0.323603  1
  B  B6  1  0.996334  0.003667  0.330747  1
  B  B7  1  0.003667  0.996334  0.669253  1
  B  B8  1  0.802945  0.197057  0.676396  1
  B  B9  1  0.197055  0.323603  0.802943  1
  B  B10  1  0.676396  0.802944  0.802943  1
  B  B11  1  0.003667  0.669253  0.996334  1
  B  B12  1  0.330746  0.996333  0.996334  1
  N  N13  1  0.623703  0.376299  0.376299  1
  N  N14  1  0.376299  0.623702  0.623702  1
