# generated using pymatgen
data_Ca5Lu(Si3Ru)8
_symmetry_space_group_name_H-M   'P 1'
_cell_length_a   10.16949495
_cell_length_b   10.16949555
_cell_length_c   8.16690911
_cell_angle_alpha   90.02966165
_cell_angle_beta   90.02966267
_cell_angle_gamma   132.64338716
_symmetry_Int_Tables_number   1
_chemical_formula_structural   Ca5Lu(Si3Ru)8
_chemical_formula_sum   'Ca5 Lu1 Si24 Ru8'
_cell_volume   621.28177770
_cell_formula_units_Z   1
loop_
 _symmetry_equiv_pos_site_id
 _symmetry_equiv_pos_as_xyz
  1  'x, y, z'
loop_
 _atom_site_type_symbol
 _atom_site_label
 _atom_site_symmetry_multiplicity
 _atom_site_fract_x
 _atom_site_fract_y
 _atom_site_fract_z
 _atom_site_occupancy
  Ca  Ca0  1  0.000000  0.000000  0.000000  1
  Ca  Ca1  1  0.501701  0.001913  0.750001  1
  Ca  Ca2  1  0.998087  0.498299  0.249999  1
  Ca  Ca3  1  0.498299  0.998087  0.249999  1
  Ca  Ca4  1  0.001913  0.501701  0.750001  1
  Lu  Lu5  1  0.500000  0.500000  0.500000  1
  Si  Si6  1  0.793676  0.206324  0.500000  1
  Si  Si7  1  0.294120  0.705880  0.000000  1
  Si  Si8  1  0.206324  0.793676  0.500000  1
  Si  Si9  1  0.705880  0.294120  0.000000  1
  Si  Si10  1  0.333133  0.333133  0.833408  1
  Si  Si11  1  0.666867  0.666867  0.166592  1
  Si  Si12  1  0.165361  0.165361  0.331691  1
  Si  Si13  1  0.834639  0.834639  0.668309  1
  Si  Si14  1  0.123513  0.890699  0.729383  1
  Si  Si15  1  0.109301  0.876487  0.270617  1
  Si  Si16  1  0.607832  0.375345  0.229080  1
  Si  Si17  1  0.624655  0.392168  0.770920  1
  Si  Si18  1  0.876487  0.109301  0.270617  1
  Si  Si19  1  0.890699  0.123513  0.729383  1
  Si  Si20  1  0.392168  0.624655  0.770920  1
  Si  Si21  1  0.375345  0.607832  0.229080  1
  Si  Si22  1  0.344656  0.111466  0.506139  1
  Si  Si23  1  0.888534  0.655344  0.493861  1
  Si  Si24  1  0.386280  0.153479  0.007264  1
  Si  Si25  1  0.846521  0.613720  0.992736  1
  Si  Si26  1  0.655344  0.888534  0.493861  1
  Si  Si27  1  0.111466  0.344656  0.506139  1
  Si  Si28  1  0.613720  0.846521  0.992736  1
  Si  Si29  1  0.153479  0.386280  0.007264  1
  Ru  Ru30  1  0.667203  0.332797  0.500000  1
  Ru  Ru31  1  0.169002  0.830998  0.000000  1
  Ru  Ru32  1  0.332797  0.667203  0.500000  1
  Ru  Ru33  1  0.830998  0.169002  0.000000  1
  Ru  Ru34  1  0.129499  0.129499  0.623272  1
  Ru  Ru35  1  0.870501  0.870501  0.376728  1
  Ru  Ru36  1  0.375131  0.375131  0.127588  1
  Ru  Ru37  1  0.624869  0.624869  0.872412  1
