# generated using pymatgen
data_Sm4YHo(AlC3)2
_symmetry_space_group_name_H-M   'P 1'
_cell_length_a   3.64930800
_cell_length_b   7.25646637
_cell_length_c   10.03694001
_cell_angle_alpha   89.54278453
_cell_angle_beta   90.00000000
_cell_angle_gamma   90.00000000
_symmetry_Int_Tables_number   1
_chemical_formula_structural   Sm4YHo(AlC3)2
_chemical_formula_sum   'Sm4 Y1 Ho1 Al2 C6'
_cell_volume   265.78055641
_cell_formula_units_Z   1
loop_
 _symmetry_equiv_pos_site_id
 _symmetry_equiv_pos_as_xyz
  1  'x, y, z'
loop_
 _atom_site_type_symbol
 _atom_site_label
 _atom_site_symmetry_multiplicity
 _atom_site_fract_x
 _atom_site_fract_y
 _atom_site_fract_z
 _atom_site_occupancy
  Sm  Sm0  1  0.500000  0.512416  0.194304  1
  Sm  Sm1  1  0.500000  0.487477  0.805820  1
  Sm  Sm2  1  0.000000  0.750512  0.460396  1
  Sm  Sm3  1  0.000000  0.249497  0.539749  1
  Y  Y4  1  0.500000  0.010996  0.799633  1
  Ho  Ho5  1  0.500000  0.986726  0.200900  1
  Al  Al6  1  0.000000  0.768517  0.006458  1
  Al  Al7  1  0.000000  0.231613  0.994033  1
  C  C8  1  0.500000  0.507602  0.565478  1
  C  C9  1  0.500000  0.492445  0.434441  1
  C  C10  1  0.500000  0.991946  0.564903  1
  C  C11  1  0.500000  0.008075  0.433579  1
  C  C12  1  0.000000  0.757483  0.207512  1
  C  C13  1  0.000000  0.244696  0.792794  1
