# generated using pymatgen
data_Tb2Pr3SmCoBr10
_symmetry_space_group_name_H-M   'P 1'
_cell_length_a   7.50821038
_cell_length_b   9.40710208
_cell_length_c   9.49533649
_cell_angle_alpha   108.83072203
_cell_angle_beta   95.76428879
_cell_angle_gamma   105.07174814
_symmetry_Int_Tables_number   1
_chemical_formula_structural   Tb2Pr3SmCoBr10
_chemical_formula_sum   'Tb2 Pr3 Sm1 Co1 Br10'
_cell_volume   600.32756933
_cell_formula_units_Z   1
loop_
 _symmetry_equiv_pos_site_id
 _symmetry_equiv_pos_as_xyz
  1  'x, y, z'
loop_
 _atom_site_type_symbol
 _atom_site_label
 _atom_site_symmetry_multiplicity
 _atom_site_fract_x
 _atom_site_fract_y
 _atom_site_fract_z
 _atom_site_occupancy
  Tb  Tb0  1  0.353068  0.128539  0.673555  1
  Tb  Tb1  1  0.646540  0.871814  0.327565  1
  Pr  Pr2  1  0.029787  0.711144  0.404733  1
  Pr  Pr3  1  0.969520  0.287829  0.590792  1
  Pr  Pr4  1  0.871981  0.953699  0.750770  1
  Sm  Sm5  1  0.127492  0.045888  0.255774  1
  Co  Co6  1  0.999629  0.999401  0.500225  1
  Br  Br7  1  0.450361  0.825229  0.579390  1
  Br  Br8  1  0.545589  0.173724  0.418693  1
  Br  Br9  1  0.913501  0.630815  0.671243  1
  Br  Br10  1  0.089303  0.363798  0.323137  1
  Br  Br11  1  0.257446  0.085494  0.951563  1
  Br  Br12  1  0.751563  0.917161  0.056450  1
  Br  Br13  1  0.357661  0.443328  0.768328  1
  Br  Br14  1  0.638688  0.556390  0.230499  1
  Br  Br15  1  0.764582  0.252562  0.843890  1
  Br  Br16  1  0.233290  0.753184  0.153394  1
