# generated using pymatgen
data_K2YIO6
_symmetry_space_group_name_H-M   'P 1'
_cell_length_a   5.88765400
_cell_length_b   5.88765395
_cell_length_c   5.88765400
_cell_angle_alpha   120.00000027
_cell_angle_beta   90.00000000
_cell_angle_gamma   120.00000027
_symmetry_Int_Tables_number   1
_chemical_formula_structural   K2YIO6
_chemical_formula_sum   'K2 Y1 I1 O6'
_cell_volume   144.31511994
_cell_formula_units_Z   1
loop_
 _symmetry_equiv_pos_site_id
 _symmetry_equiv_pos_as_xyz
  1  'x, y, z'
loop_
 _atom_site_type_symbol
 _atom_site_label
 _atom_site_symmetry_multiplicity
 _atom_site_fract_x
 _atom_site_fract_y
 _atom_site_fract_z
 _atom_site_occupancy
  K  K0  1  0.749997  0.499998  0.249999  1
  K  K1  1  0.249999  0.499998  0.750000  1
  Y  Y2  1  0.500000  0.000000  0.500000  1
  I  I3  1  0.000000  0.000000  0.000000  1
  O  O4  1  0.228659  0.457319  0.228659  1
  O  O5  1  0.771340  0.000000  0.228659  1
  O  O6  1  0.228660  0.000000  0.228660  1
  O  O7  1  0.771341  0.000000  0.771341  1
  O  O8  1  0.771340  0.542681  0.771340  1
  O  O9  1  0.228659  0.000000  0.771340  1
