# generated using pymatgen
data_Tm2Lu2B12MoRu
_symmetry_space_group_name_H-M   'P 1'
_cell_length_a   3.60254300
_cell_length_b   9.11276710
_cell_length_c   11.49499784
_cell_angle_alpha   89.77158870
_cell_angle_beta   90.00000000
_cell_angle_gamma   90.00000000
_symmetry_Int_Tables_number   1
_chemical_formula_structural   Tm2Lu2B12MoRu
_chemical_formula_sum   'Tm4 Lu4 B24 Mo2 Ru2'
_cell_volume   377.36784098
_cell_formula_units_Z   2
loop_
 _symmetry_equiv_pos_site_id
 _symmetry_equiv_pos_as_xyz
  1  'x, y, z'
loop_
 _atom_site_type_symbol
 _atom_site_label
 _atom_site_symmetry_multiplicity
 _atom_site_fract_x
 _atom_site_fract_y
 _atom_site_fract_z
 _atom_site_occupancy
  Tm  Tm0  1  0.000000  0.321744  0.414407  1
  Tm  Tm1  1  0.000000  0.678256  0.585593  1
  Tm  Tm2  1  0.000000  0.821569  0.085931  1
  Tm  Tm3  1  0.000000  0.178431  0.914069  1
  Lu  Lu4  1  0.000000  0.944847  0.371506  1
  Lu  Lu5  1  0.000000  0.055153  0.628494  1
  Lu  Lu6  1  0.000000  0.442188  0.128042  1
  Lu  Lu7  1  0.000000  0.557812  0.871958  1
  B  B8  1  0.500000  0.551719  0.434407  1
  B  B9  1  0.500000  0.448281  0.565593  1
  B  B10  1  0.500000  0.053834  0.066705  1
  B  B11  1  0.500000  0.946166  0.933295  1
  B  B12  1  0.500000  0.751628  0.421392  1
  B  B13  1  0.500000  0.248372  0.578608  1
  B  B14  1  0.500000  0.249350  0.080693  1
  B  B15  1  0.500000  0.750650  0.919307  1
  B  B16  1  0.500000  0.795926  0.264022  1
  B  B17  1  0.500000  0.204074  0.735978  1
  B  B18  1  0.500000  0.291278  0.234105  1
  B  B19  1  0.500000  0.708722  0.765895  1
  B  B20  1  0.500000  0.631327  0.181900  1
  B  B21  1  0.500000  0.368673  0.818100  1
  B  B22  1  0.500000  0.130333  0.314498  1
  B  B23  1  0.500000  0.869667  0.685502  1
  B  B24  1  0.500000  0.982778  0.212187  1
  B  B25  1  0.500000  0.017222  0.787813  1
  B  B26  1  0.500000  0.477659  0.286771  1
  B  B27  1  0.500000  0.522341  0.713229  1
  B  B28  1  0.500000  0.602262  0.027637  1
  B  B29  1  0.500000  0.397738  0.972363  1
  B  B30  1  0.500000  0.102021  0.470972  1
  B  B31  1  0.500000  0.897979  0.529028  1
  Mo  Mo32  1  0.000000  0.639344  0.318820  1
  Mo  Mo33  1  0.000000  0.360656  0.681180  1
  Ru  Ru34  1  0.000000  0.138423  0.178690  1
  Ru  Ru35  1  0.000000  0.861577  0.821310  1
