# generated using pymatgen
data_Yb(B6C)2
_symmetry_space_group_name_H-M   'P 1'
_cell_length_a   5.59178081
_cell_length_b   7.00328906
_cell_length_c   7.00328832
_cell_angle_alpha   91.29587405
_cell_angle_beta   113.52975209
_cell_angle_gamma   113.52976353
_symmetry_Int_Tables_number   1
_chemical_formula_structural   Yb(B6C)2
_chemical_formula_sum   'Yb2 B24 C4'
_cell_volume   225.07579028
_cell_formula_units_Z   2
loop_
 _symmetry_equiv_pos_site_id
 _symmetry_equiv_pos_as_xyz
  1  'x, y, z'
loop_
 _atom_site_type_symbol
 _atom_site_label
 _atom_site_symmetry_multiplicity
 _atom_site_fract_x
 _atom_site_fract_y
 _atom_site_fract_z
 _atom_site_occupancy
  Yb  Yb0  1  0.358722  0.608722  0.108722  1
  Yb  Yb1  1  0.641279  0.391279  0.891279  1
  B  B2  1  0.322645  0.218235  0.101133  1
  B  B3  1  0.996721  0.218235  0.101133  1
  B  B4  1  0.314123  0.967588  0.137478  1
  B  B5  1  0.790942  0.967588  0.137478  1
  B  B6  1  0.973980  0.807294  0.140667  1
  B  B7  1  0.177899  0.082504  0.273292  1
  B  B8  1  0.003278  0.398867  0.281765  1
  B  B9  1  0.677355  0.398867  0.281765  1
  B  B10  1  0.973980  0.640667  0.307294  1
  B  B11  1  0.822100  0.226708  0.417495  1
  B  B12  1  0.314123  0.637478  0.467588  1
  B  B13  1  0.790942  0.637478  0.467588  1
  B  B14  1  0.209058  0.362522  0.532411  1
  B  B15  1  0.685876  0.362522  0.532411  1
  B  B16  1  0.177900  0.773292  0.582505  1
  B  B17  1  0.026021  0.359334  0.692707  1
  B  B18  1  0.322645  0.601133  0.718234  1
  B  B19  1  0.996721  0.601133  0.718234  1
  B  B20  1  0.822101  0.917495  0.726708  1
  B  B21  1  0.026021  0.192707  0.859334  1
  B  B22  1  0.209058  0.032411  0.862522  1
  B  B23  1  0.685876  0.032411  0.862522  1
  B  B24  1  0.003280  0.781766  0.898868  1
  B  B25  1  0.677356  0.781766  0.898868  1
  C  C26  1  0.634690  0.972522  0.296860  1
  C  C27  1  0.634690  0.796860  0.472522  1
  C  C28  1  0.365309  0.203140  0.527478  1
  C  C29  1  0.365309  0.027478  0.703140  1
