# generated using pymatgen
data_Be8Cr2OsRu
_symmetry_space_group_name_H-M   'P 1'
_cell_length_a   4.27176600
_cell_length_b   4.27176747
_cell_length_c   6.97866400
_cell_angle_alpha   90.00000000
_cell_angle_beta   90.00000000
_cell_angle_gamma   120.00000407
_symmetry_Int_Tables_number   1
_chemical_formula_structural   Be8Cr2OsRu
_chemical_formula_sum   'Be8 Cr2 Os1 Ru1'
_cell_volume   110.28538465
_cell_formula_units_Z   1
loop_
 _symmetry_equiv_pos_site_id
 _symmetry_equiv_pos_as_xyz
  1  'x, y, z'
loop_
 _atom_site_type_symbol
 _atom_site_label
 _atom_site_symmetry_multiplicity
 _atom_site_fract_x
 _atom_site_fract_y
 _atom_site_fract_z
 _atom_site_occupancy
  Be  Be0  1  0.169253  0.338505  0.749885  1
  Be  Be1  1  0.169253  0.830747  0.749885  1
  Be  Be2  1  0.338846  0.169424  0.250113  1
  Be  Be3  1  0.830576  0.661154  0.250113  1
  Be  Be4  1  0.000000  0.000000  0.001634  1
  Be  Be5  1  0.661495  0.830747  0.749885  1
  Be  Be6  1  0.830576  0.169424  0.250113  1
  Be  Be7  1  0.000000  0.000000  0.500110  1
  Cr  Cr8  1  0.333333  0.666667  0.059037  1
  Cr  Cr9  1  0.666667  0.333333  0.562828  1
  Os  Os10  1  0.666667  0.333333  0.939232  1
  Ru  Ru11  1  0.333333  0.666667  0.437166  1
