# generated using pymatgen
data_Ce2DyHo7(SiB4)4
_symmetry_space_group_name_H-M   'P 1'
_cell_length_a   7.22890602
_cell_length_b   7.22890567
_cell_length_c   8.11922002
_cell_angle_alpha   90.00240519
_cell_angle_beta   90.00240470
_cell_angle_gamma   90.12243982
_symmetry_Int_Tables_number   1
_chemical_formula_structural   Ce2DyHo7(SiB4)4
_chemical_formula_sum   'Ce2 Dy1 Ho7 Si4 B16'
_cell_volume   424.28575840
_cell_formula_units_Z   1
loop_
 _symmetry_equiv_pos_site_id
 _symmetry_equiv_pos_as_xyz
  1  'x, y, z'
loop_
 _atom_site_type_symbol
 _atom_site_label
 _atom_site_symmetry_multiplicity
 _atom_site_fract_x
 _atom_site_fract_y
 _atom_site_fract_z
 _atom_site_occupancy
  Ce  Ce0  1  0.317725  0.817725  0.769332  1
  Ce  Ce1  1  0.317823  0.817823  0.230490  1
  Dy  Dy2  1  0.681357  0.181357  0.222531  1
  Ho  Ho3  1  0.819703  0.679845  0.221275  1
  Ho  Ho4  1  0.819580  0.679932  0.778617  1
  Ho  Ho5  1  0.681382  0.181382  0.778799  1
  Ho  Ho6  1  0.179932  0.319580  0.778617  1
  Ho  Ho7  1  0.179845  0.319703  0.221275  1
  Ho  Ho8  1  0.998503  0.002084  0.500138  1
  Ho  Ho9  1  0.502084  0.498503  0.500138  1
  Si  Si10  1  0.112923  0.612923  0.500072  1
  Si  Si11  1  0.883080  0.383080  0.500912  1
  Si  Si12  1  0.385868  0.116419  0.500787  1
  Si  Si13  1  0.616419  0.885868  0.500787  1
  B  B14  1  0.171915  0.039467  0.999694  1
  B  B15  1  0.826959  0.961451  0.999834  1
  B  B16  1  0.959454  0.172925  0.999863  1
  B  B17  1  0.328907  0.538695  0.999711  1
  B  B18  1  0.038695  0.828907  0.999711  1
  B  B19  1  0.672925  0.459454  0.999863  1
  B  B20  1  0.539467  0.671915  0.999694  1
  B  B21  1  0.461451  0.326959  0.999834  1
  B  B22  1  0.090933  0.590933  0.999666  1
  B  B23  1  0.909474  0.409474  0.999983  1
  B  B24  1  0.410524  0.090643  0.999672  1
  B  B25  1  0.590643  0.910524  0.999672  1
  B  B26  1  0.000517  0.000809  0.161845  1
  B  B27  1  0.000091  0.001015  0.837671  1
  B  B28  1  0.501015  0.500091  0.837671  1
  B  B29  1  0.500809  0.500517  0.161845  1
