# generated using pymatgen
data_K15Rb(VSe4)4
_symmetry_space_group_name_H-M   'P 1'
_cell_length_a   8.44820616
_cell_length_b   9.99855857
_cell_length_c   14.78822466
_cell_angle_alpha   90.30074511
_cell_angle_beta   90.36777590
_cell_angle_gamma   89.73910951
_symmetry_Int_Tables_number   1
_chemical_formula_structural   K15Rb(VSe4)4
_chemical_formula_sum   'K15 Rb1 V4 Se16'
_cell_volume   1249.10392131
_cell_formula_units_Z   1
loop_
 _symmetry_equiv_pos_site_id
 _symmetry_equiv_pos_as_xyz
  1  'x, y, z'
loop_
 _atom_site_type_symbol
 _atom_site_label
 _atom_site_symmetry_multiplicity
 _atom_site_fract_x
 _atom_site_fract_y
 _atom_site_fract_z
 _atom_site_occupancy
  K  K0  1  0.500000  0.000000  0.500000  1
  K  K1  1  0.000000  0.500000  0.000000  1
  K  K2  1  0.500000  0.500000  0.500000  1
  K  K3  1  0.985677  0.750145  0.426403  1
  K  K4  1  0.484748  0.250396  0.075040  1
  K  K5  1  0.014323  0.249855  0.573597  1
  K  K6  1  0.515252  0.749604  0.924960  1
  K  K7  1  0.842346  0.052276  0.276683  1
  K  K8  1  0.340250  0.947712  0.225808  1
  K  K9  1  0.157210  0.552805  0.723514  1
  K  K10  1  0.657673  0.448948  0.775463  1
  K  K11  1  0.157654  0.947724  0.723317  1
  K  K12  1  0.659750  0.052288  0.774192  1
  K  K13  1  0.842790  0.447195  0.276486  1
  K  K14  1  0.342327  0.551052  0.224537  1
  Rb  Rb15  1  0.000000  0.000000  0.000000  1
  V  V16  1  0.758342  0.749443  0.665855  1
  V  V17  1  0.241658  0.250557  0.334145  1
  V  V18  1  0.738353  0.748084  0.167894  1
  V  V19  1  0.261647  0.251916  0.832106  1
  Se  Se20  1  0.980545  0.251498  0.822575  1
  Se  Se21  1  0.523003  0.249991  0.324888  1
  Se  Se22  1  0.476997  0.750009  0.675112  1
  Se  Se23  1  0.019455  0.748502  0.177425  1
  Se  Se24  1  0.655239  0.554821  0.090039  1
  Se  Se25  1  0.155682  0.444491  0.410735  1
  Se  Se26  1  0.353264  0.059484  0.906823  1
  Se  Se27  1  0.844027  0.942982  0.590158  1
  Se  Se28  1  0.344761  0.445179  0.909961  1
  Se  Se29  1  0.844318  0.555509  0.589265  1
  Se  Se30  1  0.646736  0.940516  0.093177  1
  Se  Se31  1  0.155973  0.057018  0.409842  1
  Se  Se32  1  0.631831  0.748880  0.316418  1
  Se  Se33  1  0.131950  0.250110  0.184788  1
  Se  Se34  1  0.368169  0.251120  0.683582  1
  Se  Se35  1  0.868050  0.749890  0.815212  1
