# generated using pymatgen
data_ErTm15In4Ir3Ru
_symmetry_space_group_name_H-M   'P 1'
_cell_length_a   9.55205835
_cell_length_b   9.55133092
_cell_length_c   9.55205704
_cell_angle_alpha   59.90785533
_cell_angle_beta   59.90097712
_cell_angle_gamma   59.90784639
_symmetry_Int_Tables_number   1
_chemical_formula_structural   ErTm15In4Ir3Ru
_chemical_formula_sum   'Er1 Tm15 In4 Ir3 Ru1'
_cell_volume   614.90964258
_cell_formula_units_Z   1
loop_
 _symmetry_equiv_pos_site_id
 _symmetry_equiv_pos_as_xyz
  1  'x, y, z'
loop_
 _atom_site_type_symbol
 _atom_site_label
 _atom_site_symmetry_multiplicity
 _atom_site_fract_x
 _atom_site_fract_y
 _atom_site_fract_z
 _atom_site_occupancy
  Er  Er0  1  0.059198  0.441494  0.059198  1
  Tm  Tm1  1  0.058902  0.058623  0.441772  1
  Tm  Tm2  1  0.650855  0.046247  0.650855  1
  Tm  Tm3  1  0.191992  0.808649  0.191992  1
  Tm  Tm4  1  0.439765  0.060428  0.439765  1
  Tm  Tm5  1  0.192026  0.192019  0.808635  1
  Tm  Tm6  1  0.650972  0.651082  0.650972  1
  Tm  Tm7  1  0.046155  0.650887  0.650771  1
  Tm  Tm8  1  0.441772  0.058623  0.058902  1
  Tm  Tm9  1  0.650771  0.650887  0.046155  1
  Tm  Tm10  1  0.190783  0.809000  0.808812  1
  Tm  Tm11  1  0.808937  0.190678  0.808937  1
  Tm  Tm12  1  0.808635  0.192019  0.192026  1
  Tm  Tm13  1  0.808812  0.809000  0.190783  1
  Tm  Tm14  1  0.060322  0.439849  0.440095  1
  Tm  Tm15  1  0.440095  0.439849  0.060322  1
  In  In16  1  0.749871  0.416652  0.416911  1
  In  In17  1  0.416911  0.416652  0.749871  1
  In  In18  1  0.416674  0.750029  0.416674  1
  In  In19  1  0.416729  0.416875  0.416729  1
  Ir  Ir20  1  0.422404  0.858970  0.858850  1
  Ir  Ir21  1  0.858850  0.858970  0.422404  1
  Ir  Ir22  1  0.858722  0.422371  0.858722  1
  Ru  Ru23  1  0.859853  0.860153  0.859853  1
