# generated using pymatgen
data_Er4Al18RePt5
_symmetry_space_group_name_H-M   'P 1'
_cell_length_a   7.59813428
_cell_length_b   7.59813542
_cell_length_c   9.44128103
_cell_angle_alpha   89.76100889
_cell_angle_beta   89.76100330
_cell_angle_gamma   119.35544136
_symmetry_Int_Tables_number   1
_chemical_formula_structural   Er4Al18RePt5
_chemical_formula_sum   'Er4 Al18 Re1 Pt5'
_cell_volume   475.05619470
_cell_formula_units_Z   1
loop_
 _symmetry_equiv_pos_site_id
 _symmetry_equiv_pos_as_xyz
  1  'x, y, z'
loop_
 _atom_site_type_symbol
 _atom_site_label
 _atom_site_symmetry_multiplicity
 _atom_site_fract_x
 _atom_site_fract_y
 _atom_site_fract_z
 _atom_site_occupancy
  Er  Er0  1  0.995664  0.674878  0.247696  1
  Er  Er1  1  0.004336  0.325122  0.752304  1
  Er  Er2  1  0.674878  0.995664  0.247696  1
  Er  Er3  1  0.325122  0.004336  0.752304  1
  Al  Al4  1  0.131363  0.131363  0.247204  1
  Al  Al5  1  0.868637  0.868637  0.752796  1
  Al  Al6  1  0.999522  0.330878  0.075160  1
  Al  Al7  1  0.000478  0.669122  0.924840  1
  Al  Al8  1  0.999036  0.662667  0.578891  1
  Al  Al9  1  0.337333  0.000964  0.421109  1
  Al  Al10  1  0.000964  0.337333  0.421109  1
  Al  Al11  1  0.662667  0.999036  0.578891  1
  Al  Al12  1  0.669122  0.000478  0.924840  1
  Al  Al13  1  0.330878  0.999522  0.075160  1
  Al  Al14  1  0.333016  0.333016  0.557443  1
  Al  Al15  1  0.666984  0.666984  0.442557  1
  Al  Al16  1  0.670890  0.670890  0.053641  1
  Al  Al17  1  0.329110  0.329110  0.946359  1
  Al  Al18  1  0.341990  0.549408  0.249273  1
  Al  Al19  1  0.658010  0.450592  0.750727  1
  Al  Al20  1  0.549408  0.341990  0.249273  1
  Al  Al21  1  0.450592  0.658010  0.750727  1
  Re  Re22  1  0.000000  0.000000  0.000000  1
  Pt  Pt23  1  0.672113  0.327887  0.000000  1
  Pt  Pt24  1  0.327887  0.672113  0.000000  1
  Pt  Pt25  1  0.327779  0.672221  0.500000  1
  Pt  Pt26  1  0.672221  0.327779  0.500000  1
  Pt  Pt27  1  0.000000  0.000000  0.500000  1
