# generated using pymatgen
data_LiHf4Re2Ir
_symmetry_space_group_name_H-M   'P 1'
_cell_length_a   6.52494400
_cell_length_b   4.62589700
_cell_length_c   9.31139500
_cell_angle_alpha   90.00000000
_cell_angle_beta   90.00000000
_cell_angle_gamma   90.00000000
_symmetry_Int_Tables_number   1
_chemical_formula_structural   LiHf4Re2Ir
_chemical_formula_sum   'Li2 Hf8 Re4 Ir2'
_cell_volume   281.05252901
_cell_formula_units_Z   2
loop_
 _symmetry_equiv_pos_site_id
 _symmetry_equiv_pos_as_xyz
  1  'x, y, z'
loop_
 _atom_site_type_symbol
 _atom_site_label
 _atom_site_symmetry_multiplicity
 _atom_site_fract_x
 _atom_site_fract_y
 _atom_site_fract_z
 _atom_site_occupancy
  Li  Li0  1  0.249926  0.250000  0.124891  1
  Li  Li1  1  0.749927  0.750001  0.375108  1
  Hf  Hf2  1  0.999587  0.750001  0.124695  1
  Hf  Hf3  1  0.500235  0.750001  0.124710  1
  Hf  Hf4  1  0.000235  0.250000  0.375290  1
  Hf  Hf5  1  0.499588  0.250000  0.375306  1
  Hf  Hf6  1  0.500472  0.750001  0.624995  1
  Hf  Hf7  1  0.999705  0.750001  0.624999  1
  Hf  Hf8  1  0.499706  0.250000  0.875001  1
  Hf  Hf9  1  0.000472  0.250000  0.875005  1
  Re  Re10  1  0.749955  0.250000  0.125770  1
  Re  Re11  1  0.249956  0.750001  0.374231  1
  Re  Re12  1  0.750053  0.250000  0.623302  1
  Re  Re13  1  0.250052  0.750001  0.876698  1
  Ir  Ir14  1  0.250064  0.250000  0.626567  1
  Ir  Ir15  1  0.750064  0.750001  0.873433  1
