# generated using pymatgen
data_Dy3CrB7
_symmetry_space_group_name_H-M   'P 1'
_cell_length_a   8.10170969
_cell_length_b   8.10171027
_cell_length_c   9.36706400
_cell_angle_alpha   90.00000000
_cell_angle_beta   90.00000000
_cell_angle_gamma   155.46039751
_symmetry_Int_Tables_number   1
_chemical_formula_structural   Dy3CrB7
_chemical_formula_sum   'Dy6 Cr2 B14'
_cell_volume   255.35356017
_cell_formula_units_Z   2
loop_
 _symmetry_equiv_pos_site_id
 _symmetry_equiv_pos_as_xyz
  1  'x, y, z'
loop_
 _atom_site_type_symbol
 _atom_site_label
 _atom_site_symmetry_multiplicity
 _atom_site_fract_x
 _atom_site_fract_y
 _atom_site_fract_z
 _atom_site_occupancy
  Dy  Dy0  1  0.895318  0.104682  0.440201  1
  Dy  Dy1  1  0.104682  0.895318  0.559799  1
  Dy  Dy2  1  0.895318  0.104682  0.059799  1
  Dy  Dy3  1  0.104682  0.895318  0.940201  1
  Dy  Dy4  1  0.241156  0.758844  0.250000  1
  Dy  Dy5  1  0.758844  0.241156  0.750000  1
  Cr  Cr6  1  0.053101  0.946899  0.250000  1
  Cr  Cr7  1  0.946899  0.053101  0.750000  1
  B  B8  1  0.727182  0.272818  0.468519  1
  B  B9  1  0.272818  0.727182  0.531481  1
  B  B10  1  0.727182  0.272818  0.031481  1
  B  B11  1  0.272818  0.727182  0.968519  1
  B  B12  1  0.630921  0.369079  0.151725  1
  B  B13  1  0.369079  0.630921  0.848275  1
  B  B14  1  0.630921  0.369079  0.348275  1
  B  B15  1  0.369079  0.630921  0.651725  1
  B  B16  1  0.521444  0.478556  0.096802  1
  B  B17  1  0.478556  0.521444  0.903198  1
  B  B18  1  0.521444  0.478556  0.403198  1
  B  B19  1  0.478556  0.521444  0.596802  1
  B  B20  1  0.459556  0.540444  0.250000  1
  B  B21  1  0.540444  0.459556  0.750000  1
