# generated using pymatgen
data_Li3Sm2ErPt3
_symmetry_space_group_name_H-M   'P 1'
_cell_length_a   7.15708123
_cell_length_b   7.18752969
_cell_length_c   4.10246000
_cell_angle_alpha   90.00000000
_cell_angle_beta   90.00000000
_cell_angle_gamma   120.14081024
_symmetry_Int_Tables_number   1
_chemical_formula_structural   Li3Sm2ErPt3
_chemical_formula_sum   'Li3 Sm2 Er1 Pt3'
_cell_volume   182.50409568
_cell_formula_units_Z   1
loop_
 _symmetry_equiv_pos_site_id
 _symmetry_equiv_pos_as_xyz
  1  'x, y, z'
loop_
 _atom_site_type_symbol
 _atom_site_label
 _atom_site_symmetry_multiplicity
 _atom_site_fract_x
 _atom_site_fract_y
 _atom_site_fract_z
 _atom_site_occupancy
  Li  Li0  1  0.772512  0.768750  0.500000  1
  Li  Li1  1  0.227488  0.996239  0.500000  1
  Li  Li2  1  0.000000  0.231167  0.500000  1
  Sm  Sm3  1  0.412021  0.412522  0.000000  1
  Sm  Sm4  1  0.587979  0.000501  0.000000  1
  Er  Er5  1  0.000000  0.592955  0.000000  1
  Pt  Pt6  1  0.000000  0.992606  0.000000  1
  Pt  Pt7  1  0.677837  0.341548  0.500000  1
  Pt  Pt8  1  0.322163  0.663711  0.500000  1
