# generated using pymatgen
data_Sr2Zr6CBr17
_symmetry_space_group_name_H-M   'P 1'
_cell_length_a   10.27492442
_cell_length_b   10.27490732
_cell_length_c   10.27486398
_cell_angle_alpha   104.35990627
_cell_angle_beta   104.35796426
_cell_angle_gamma   120.26634177
_symmetry_Int_Tables_number   1
_chemical_formula_structural   Sr2Zr6CBr17
_chemical_formula_sum   'Sr2 Zr6 C1 Br17'
_cell_volume   812.45614824
_cell_formula_units_Z   1
loop_
 _symmetry_equiv_pos_site_id
 _symmetry_equiv_pos_as_xyz
  1  'x, y, z'
loop_
 _atom_site_type_symbol
 _atom_site_label
 _atom_site_symmetry_multiplicity
 _atom_site_fract_x
 _atom_site_fract_y
 _atom_site_fract_z
 _atom_site_occupancy
  Sr  Sr0  1  0.250001  0.750000  0.500002  1
  Sr  Sr1  1  0.749999  0.250000  0.499998  1
  Zr  Zr2  1  0.225210  0.225211  0.999998  1
  Zr  Zr3  1  0.774790  0.774789  0.000002  1
  Zr  Zr4  1  0.174911  0.047975  0.222881  1
  Zr  Zr5  1  0.952040  0.174927  0.126966  1
  Zr  Zr6  1  0.825089  0.952025  0.777119  1
  Zr  Zr7  1  0.047960  0.825073  0.873034  1
  C  C8  1  0.000000  0.000000  0.000000  1
  Br  Br9  1  0.851899  0.738548  0.590464  1
  Br  Br10  1  0.261436  0.851899  0.113332  1
  Br  Br11  1  0.107962  0.598770  0.706732  1
  Br  Br12  1  0.532403  0.682109  0.735695  1
  Br  Br13  1  0.892038  0.401230  0.293268  1
  Br  Br14  1  0.467597  0.317891  0.264305  1
  Br  Br15  1  0.796704  0.532393  0.850290  1
  Br  Br16  1  0.401228  0.107963  0.509190  1
  Br  Br17  1  0.598772  0.892037  0.490810  1
  Br  Br18  1  0.148101  0.261452  0.409536  1
  Br  Br19  1  0.317895  0.053586  0.850291  1
  Br  Br20  1  0.946406  0.796703  0.264298  1
  Br  Br21  1  0.738564  0.148101  0.886668  1
  Br  Br22  1  0.500000  0.500000  0.000000  1
  Br  Br23  1  0.203296  0.467607  0.149710  1
  Br  Br24  1  0.053594  0.203297  0.735702  1
  Br  Br25  1  0.682105  0.946414  0.149709  1
