# generated using pymatgen
data_Mg2Ga2CoRu
_symmetry_space_group_name_H-M   'P 1'
_cell_length_a   5.12516168
_cell_length_b   5.23519520
_cell_length_c   8.28979600
_cell_angle_alpha   90.00000000
_cell_angle_beta   90.00000000
_cell_angle_gamma   121.58087389
_symmetry_Int_Tables_number   1
_chemical_formula_structural   Mg2Ga2CoRu
_chemical_formula_sum   'Mg4 Ga4 Co2 Ru2'
_cell_volume   189.48456090
_cell_formula_units_Z   2
loop_
 _symmetry_equiv_pos_site_id
 _symmetry_equiv_pos_as_xyz
  1  'x, y, z'
loop_
 _atom_site_type_symbol
 _atom_site_label
 _atom_site_symmetry_multiplicity
 _atom_site_fract_x
 _atom_site_fract_y
 _atom_site_fract_z
 _atom_site_occupancy
  Mg  Mg0  1  0.679031  0.332811  0.069649  1
  Mg  Mg1  1  0.320969  0.667189  0.930351  1
  Mg  Mg2  1  0.320969  0.667189  0.569649  1
  Mg  Mg3  1  0.679031  0.332811  0.430351  1
  Ga  Ga4  1  0.373687  0.190565  0.750000  1
  Ga  Ga5  1  0.626313  0.809435  0.250000  1
  Ga  Ga6  1  0.000000  0.000000  0.500000  1
  Ga  Ga7  1  0.000000  0.000000  0.000000  1
  Co  Co8  1  0.852435  0.669337  0.750000  1
  Co  Co9  1  0.147565  0.330663  0.250000  1
  Ru  Ru10  1  0.850118  0.173330  0.750000  1
  Ru  Ru11  1  0.149882  0.826670  0.250000  1
