# generated using pymatgen
data_HoEr5Al18
_symmetry_space_group_name_H-M   'P 1'
_cell_length_a   14.49788287
_cell_length_b   14.49788315
_cell_length_c   14.49788421
_cell_angle_alpha   24.46014016
_cell_angle_beta   24.46013648
_cell_angle_gamma   24.46014067
_symmetry_Int_Tables_number   1
_chemical_formula_structural   HoEr5Al18
_chemical_formula_sum   'Ho1 Er5 Al18'
_cell_volume   459.31793753
_cell_formula_units_Z   1
loop_
 _symmetry_equiv_pos_site_id
 _symmetry_equiv_pos_as_xyz
  1  'x, y, z'
loop_
 _atom_site_type_symbol
 _atom_site_label
 _atom_site_symmetry_multiplicity
 _atom_site_fract_x
 _atom_site_fract_y
 _atom_site_fract_z
 _atom_site_occupancy
  Ho  Ho0  1  0.109141  0.109141  0.109141  1
  Er  Er1  1  0.890941  0.890941  0.890941  1
  Er  Er2  1  0.390745  0.390745  0.390745  1
  Er  Er3  1  0.999818  0.999818  0.999818  1
  Er  Er4  1  0.500108  0.500108  0.500108  1
  Er  Er5  1  0.609222  0.609222  0.609222  1
  Al  Al6  1  0.921908  0.372017  0.372017  1
  Al  Al7  1  0.422450  0.870867  0.870867  1
  Al  Al8  1  0.372017  0.372017  0.921908  1
  Al  Al9  1  0.870867  0.870867  0.422450  1
  Al  Al10  1  0.372017  0.921908  0.372017  1
  Al  Al11  1  0.870867  0.422450  0.870867  1
  Al  Al12  1  0.577927  0.128432  0.128432  1
  Al  Al13  1  0.077493  0.628666  0.628666  1
  Al  Al14  1  0.128432  0.128432  0.577927  1
  Al  Al15  1  0.628666  0.628666  0.077493  1
  Al  Al16  1  0.128432  0.577927  0.128432  1
  Al  Al17  1  0.628666  0.077493  0.628666  1
  Al  Al18  1  0.499415  0.499415  0.000537  1
  Al  Al19  1  0.000529  0.000529  0.499859  1
  Al  Al20  1  0.499415  0.000537  0.499415  1
  Al  Al21  1  0.000529  0.499859  0.000529  1
  Al  Al22  1  0.000537  0.499415  0.499415  1
  Al  Al23  1  0.499859  0.000529  0.000529  1
