# generated using pymatgen
data_Ce4LuPb3
_symmetry_space_group_name_H-M   'P 1'
_cell_length_a   9.23058098
_cell_length_b   9.23058162
_cell_length_c   9.23058260
_cell_angle_alpha   96.78436237
_cell_angle_beta   96.78436045
_cell_angle_gamma   139.79452496
_symmetry_Int_Tables_number   1
_chemical_formula_structural   Ce4LuPb3
_chemical_formula_sum   'Ce8 Lu2 Pb6'
_cell_volume   476.76638930
_cell_formula_units_Z   2
loop_
 _symmetry_equiv_pos_site_id
 _symmetry_equiv_pos_as_xyz
  1  'x, y, z'
loop_
 _atom_site_type_symbol
 _atom_site_label
 _atom_site_symmetry_multiplicity
 _atom_site_fract_x
 _atom_site_fract_y
 _atom_site_fract_z
 _atom_site_occupancy
  Ce  Ce0  1  0.098207  0.236413  0.334617  1
  Ce  Ce1  1  0.901793  0.763587  0.665383  1
  Ce  Ce2  1  0.763587  0.098207  0.861794  1
  Ce  Ce3  1  0.401793  0.736413  0.138206  1
  Ce  Ce4  1  0.236413  0.901793  0.138206  1
  Ce  Ce5  1  0.598207  0.263587  0.861794  1
  Ce  Ce6  1  0.736413  0.598207  0.334617  1
  Ce  Ce7  1  0.263587  0.401793  0.665383  1
  Lu  Lu8  1  0.250000  0.750000  0.500000  1
  Lu  Lu9  1  0.750000  0.250000  0.500000  1
  Pb  Pb10  1  0.152849  0.652849  0.805698  1
  Pb  Pb11  1  0.847151  0.347151  0.194302  1
  Pb  Pb12  1  0.347151  0.152849  0.500000  1
  Pb  Pb13  1  0.652849  0.847151  0.500000  1
  Pb  Pb14  1  0.250000  0.250000  0.000000  1
  Pb  Pb15  1  0.750000  0.750000  0.000000  1
