# generated using pymatgen
data_Dy4Re(SiB4)2
_symmetry_space_group_name_H-M   'P 1'
_cell_length_a   7.10194100
_cell_length_b   7.10194100
_cell_length_c   7.60128600
_cell_angle_alpha   90.00000000
_cell_angle_beta   90.00000000
_cell_angle_gamma   90.00000000
_symmetry_Int_Tables_number   1
_chemical_formula_structural   Dy4Re(SiB4)2
_chemical_formula_sum   'Dy8 Re2 Si4 B16'
_cell_volume   383.39036406
_cell_formula_units_Z   2
loop_
 _symmetry_equiv_pos_site_id
 _symmetry_equiv_pos_as_xyz
  1  'x, y, z'
loop_
 _atom_site_type_symbol
 _atom_site_label
 _atom_site_symmetry_multiplicity
 _atom_site_fract_x
 _atom_site_fract_y
 _atom_site_fract_z
 _atom_site_occupancy
  Dy  Dy0  1  0.679053  0.179053  0.238379  1
  Dy  Dy1  1  0.320947  0.820947  0.761621  1
  Dy  Dy2  1  0.320947  0.820947  0.238379  1
  Dy  Dy3  1  0.820947  0.679053  0.238379  1
  Dy  Dy4  1  0.820947  0.679053  0.761621  1
  Dy  Dy5  1  0.679053  0.179053  0.761621  1
  Dy  Dy6  1  0.179053  0.320947  0.761621  1
  Dy  Dy7  1  0.179053  0.320947  0.238379  1
  Re  Re8  1  0.000000  0.000000  0.500000  1
  Re  Re9  1  0.500000  0.500000  0.500000  1
  Si  Si10  1  0.123767  0.623767  0.500000  1
  Si  Si11  1  0.876233  0.376233  0.500000  1
  Si  Si12  1  0.376233  0.123767  0.500000  1
  Si  Si13  1  0.623767  0.876233  0.500000  1
  B  B14  1  0.171715  0.039757  0.000000  1
  B  B15  1  0.828285  0.960243  0.000000  1
  B  B16  1  0.960243  0.171715  0.000000  1
  B  B17  1  0.328285  0.539757  0.000000  1
  B  B18  1  0.039757  0.828285  0.000000  1
  B  B19  1  0.671715  0.460243  0.000000  1
  B  B20  1  0.539757  0.671715  0.000000  1
  B  B21  1  0.460243  0.328285  0.000000  1
  B  B22  1  0.090218  0.590218  0.000000  1
  B  B23  1  0.909782  0.409782  0.000000  1
  B  B24  1  0.409782  0.090218  0.000000  1
  B  B25  1  0.590218  0.909782  0.000000  1
  B  B26  1  0.000000  0.000000  0.176741  1
  B  B27  1  0.000000  0.000000  0.823259  1
  B  B28  1  0.500000  0.500000  0.823259  1
  B  B29  1  0.500000  0.500000  0.176741  1
