# generated using pymatgen
data_Tm4GaNi13
_symmetry_space_group_name_H-M   'P 1'
_cell_length_a   4.88729573
_cell_length_b   4.91227149
_cell_length_c   12.37828702
_cell_angle_alpha   78.55525401
_cell_angle_beta   78.55145391
_cell_angle_gamma   59.83080392
_symmetry_Int_Tables_number   1
_chemical_formula_structural   Tm4GaNi13
_chemical_formula_sum   'Tm4 Ga1 Ni13'
_cell_volume   250.09577499
_cell_formula_units_Z   1
loop_
 _symmetry_equiv_pos_site_id
 _symmetry_equiv_pos_as_xyz
  1  'x, y, z'
loop_
 _atom_site_type_symbol
 _atom_site_label
 _atom_site_symmetry_multiplicity
 _atom_site_fract_x
 _atom_site_fract_y
 _atom_site_fract_z
 _atom_site_occupancy
  Tm  Tm0  1  0.947126  0.946632  0.159608  1
  Tm  Tm1  1  0.052874  0.053368  0.840392  1
  Tm  Tm2  1  0.852865  0.852068  0.443001  1
  Tm  Tm3  1  0.147135  0.147932  0.556999  1
  Ga  Ga4  1  0.000000  0.500000  0.000000  1
  Ni  Ni5  1  0.500000  0.500000  0.500000  1
  Ni  Ni6  1  0.717689  0.724711  0.832886  1
  Ni  Ni7  1  0.282311  0.275289  0.167114  1
  Ni  Ni8  1  0.607734  0.612637  0.166993  1
  Ni  Ni9  1  0.392266  0.387363  0.833007  1
  Ni  Ni10  1  0.500000  0.000000  0.000000  1
  Ni  Ni11  1  0.500000  0.500000  0.000000  1
  Ni  Ni12  1  0.389835  0.388175  0.331399  1
  Ni  Ni13  1  0.891061  0.388672  0.331595  1
  Ni  Ni14  1  0.389835  0.890592  0.331399  1
  Ni  Ni15  1  0.610165  0.611825  0.668601  1
  Ni  Ni16  1  0.108939  0.611328  0.668405  1
  Ni  Ni17  1  0.610165  0.109408  0.668601  1
