# generated using pymatgen
data_Ho5Fe9Co7(P4Os)3
_symmetry_space_group_name_H-M   'P 1'
_cell_length_a   11.97269800
_cell_length_b   11.97269883
_cell_length_c   3.72244500
_cell_angle_alpha   90.00000000
_cell_angle_beta   90.00000000
_cell_angle_gamma   120.00000323
_symmetry_Int_Tables_number   1
_chemical_formula_structural   Ho5Fe9Co7(P4Os)3
_chemical_formula_sum   'Ho5 Fe9 Co7 P12 Os3'
_cell_volume   462.10747453
_cell_formula_units_Z   1
loop_
 _symmetry_equiv_pos_site_id
 _symmetry_equiv_pos_as_xyz
  1  'x, y, z'
loop_
 _atom_site_type_symbol
 _atom_site_label
 _atom_site_symmetry_multiplicity
 _atom_site_fract_x
 _atom_site_fract_y
 _atom_site_fract_z
 _atom_site_occupancy
  Ho  Ho0  1  0.666667  0.333333  0.000000  1
  Ho  Ho1  1  0.333333  0.666667  0.000000  1
  Ho  Ho2  1  0.815647  0.815647  0.500000  1
  Ho  Ho3  1  0.184353  0.000000  0.500000  1
  Ho  Ho4  1  0.000000  0.184353  0.500000  1
  Fe  Fe5  1  0.875362  0.357557  0.500000  1
  Fe  Fe6  1  0.642443  0.517805  0.500000  1
  Fe  Fe7  1  0.482195  0.124638  0.500000  1
  Fe  Fe8  1  0.357557  0.875362  0.500000  1
  Fe  Fe9  1  0.517805  0.642443  0.500000  1
  Fe  Fe10  1  0.124638  0.482195  0.500000  1
  Fe  Fe11  1  0.282535  0.282535  0.500000  1
  Fe  Fe12  1  0.717465  0.000000  0.500000  1
  Fe  Fe13  1  0.000000  0.717465  0.500000  1
  Co  Co14  1  0.803751  0.178977  0.000000  1
  Co  Co15  1  0.821023  0.624773  0.000000  1
  Co  Co16  1  0.375227  0.196249  0.000000  1
  Co  Co17  1  0.178977  0.803751  0.000000  1
  Co  Co18  1  0.624773  0.821023  0.000000  1
  Co  Co19  1  0.196249  0.375227  0.000000  1
  Co  Co20  1  0.000000  0.000000  0.000000  1
  P  P21  1  0.686381  0.166203  0.500000  1
  P  P22  1  0.833797  0.520178  0.500000  1
  P  P23  1  0.479822  0.313619  0.500000  1
  P  P24  1  0.166203  0.686381  0.500000  1
  P  P25  1  0.520178  0.833797  0.500000  1
  P  P26  1  0.313619  0.479822  0.500000  1
  P  P27  1  0.180956  0.180956  0.000000  1
  P  P28  1  0.819044  0.000000  0.000000  1
  P  P29  1  0.000000  0.819044  0.000000  1
  P  P30  1  0.635234  0.635234  0.000000  1
  P  P31  1  0.364766  0.000000  0.000000  1
  P  P32  1  0.000000  0.364766  0.000000  1
  Os  Os33  1  0.444794  0.444794  0.000000  1
  Os  Os34  1  0.555206  0.000000  0.000000  1
  Os  Os35  1  0.000000  0.555206  0.000000  1
