# generated using pymatgen
data_Y3Be2(BRh2)4
_symmetry_space_group_name_H-M   'P 1'
_cell_length_a   10.10046022
_cell_length_b   9.31039382
_cell_length_c   5.54620529
_cell_angle_alpha   81.41048567
_cell_angle_beta   65.70514593
_cell_angle_gamma   32.88435756
_symmetry_Int_Tables_number   1
_chemical_formula_structural   Y3Be2(BRh2)4
_chemical_formula_sum   'Y3 Be2 B4 Rh8'
_cell_volume   236.95885451
_cell_formula_units_Z   1
loop_
 _symmetry_equiv_pos_site_id
 _symmetry_equiv_pos_as_xyz
  1  'x, y, z'
loop_
 _atom_site_type_symbol
 _atom_site_label
 _atom_site_symmetry_multiplicity
 _atom_site_fract_x
 _atom_site_fract_y
 _atom_site_fract_z
 _atom_site_occupancy
  Y  Y0  1  0.317294  0.317294  0.682706  1
  Y  Y1  1  0.675807  0.675807  0.324193  1
  Y  Y2  1  0.498661  0.498661  0.501339  1
  Be  Be3  1  0.685290  0.967064  0.032936  1
  Be  Be4  1  0.967064  0.685290  0.314710  1
  B  B5  1  0.329835  0.014706  0.985294  1
  B  B6  1  0.014706  0.329835  0.670165  1
  B  B7  1  0.172139  0.827599  0.172401  1
  B  B8  1  0.827599  0.172139  0.827861  1
  Rh  Rh9  1  0.585148  0.585148  0.914852  1
  Rh  Rh10  1  0.926438  0.926438  0.073562  1
  Rh  Rh11  1  0.417468  0.417468  0.082532  1
  Rh  Rh12  1  0.085148  0.085148  0.414852  1
  Rh  Rh13  1  0.917468  0.917468  0.582532  1
  Rh  Rh14  1  0.245410  0.245410  0.254590  1
  Rh  Rh15  1  0.089117  0.089117  0.910883  1
  Rh  Rh16  1  0.745410  0.745410  0.754590  1
