# generated using pymatgen
data_Eu2Ga3Au
_symmetry_space_group_name_H-M   'P 1'
_cell_length_a   5.80690510
_cell_length_b   5.97143465
_cell_length_c   5.97143471
_cell_angle_alpha   134.42315201
_cell_angle_beta   101.08183252
_cell_angle_gamma   96.68085051
_symmetry_Int_Tables_number   1
_chemical_formula_structural   Eu2Ga3Au
_chemical_formula_sum   'Eu2 Ga3 Au1'
_cell_volume   135.50887771
_cell_formula_units_Z   1
loop_
 _symmetry_equiv_pos_site_id
 _symmetry_equiv_pos_as_xyz
  1  'x, y, z'
loop_
 _atom_site_type_symbol
 _atom_site_label
 _atom_site_symmetry_multiplicity
 _atom_site_fract_x
 _atom_site_fract_y
 _atom_site_fract_z
 _atom_site_occupancy
  Eu  Eu0  1  0.706986  0.953852  0.753134  1
  Eu  Eu1  1  0.290691  0.045220  0.245471  1
  Ga  Ga2  1  0.895924  0.335433  0.560491  1
  Ga  Ga3  1  0.719817  0.663223  0.056594  1
  Ga  Ga4  1  0.270482  0.337260  0.933223  1
  Au  Au5  1  0.116100  0.665013  0.451087  1
