# generated using pymatgen
data_Hf3NbFe3CoP4
_symmetry_space_group_name_H-M   'P 1'
_cell_length_a   3.67908300
_cell_length_b   6.23926586
_cell_length_c   7.03809399
_cell_angle_alpha   90.15115505
_cell_angle_beta   90.00000000
_cell_angle_gamma   90.00000000
_symmetry_Int_Tables_number   1
_chemical_formula_structural   Hf3NbFe3CoP4
_chemical_formula_sum   'Hf3 Nb1 Fe3 Co1 P4'
_cell_volume   161.55731571
_cell_formula_units_Z   1
loop_
 _symmetry_equiv_pos_site_id
 _symmetry_equiv_pos_as_xyz
  1  'x, y, z'
loop_
 _atom_site_type_symbol
 _atom_site_label
 _atom_site_symmetry_multiplicity
 _atom_site_fract_x
 _atom_site_fract_y
 _atom_site_fract_z
 _atom_site_occupancy
  Hf  Hf0  1  0.750000  0.481961  0.319121  1
  Hf  Hf1  1  0.250000  0.016259  0.815808  1
  Hf  Hf2  1  0.750000  0.978199  0.182202  1
  Nb  Nb3  1  0.250000  0.518471  0.680242  1
  Fe  Fe4  1  0.750000  0.860348  0.561980  1
  Fe  Fe5  1  0.750000  0.356810  0.938883  1
  Fe  Fe6  1  0.250000  0.645325  0.060248  1
  Co  Co7  1  0.250000  0.146418  0.437102  1
  P  P8  1  0.250000  0.277545  0.111785  1
  P  P9  1  0.750000  0.716650  0.881753  1
  P  P10  1  0.250000  0.776718  0.390284  1
  P  P11  1  0.750000  0.225297  0.620592  1
