# generated using pymatgen
data_Lu4Al17SiIr6
_symmetry_space_group_name_H-M   'P 1'
_cell_length_a   7.52307397
_cell_length_b   7.52307355
_cell_length_c   9.35060600
_cell_angle_alpha   90.00000000
_cell_angle_beta   90.00000000
_cell_angle_gamma   119.76492354
_symmetry_Int_Tables_number   1
_chemical_formula_structural   Lu4Al17SiIr6
_chemical_formula_sum   'Lu4 Al17 Si1 Ir6'
_cell_volume   459.39357197
_cell_formula_units_Z   1
loop_
 _symmetry_equiv_pos_site_id
 _symmetry_equiv_pos_as_xyz
  1  'x, y, z'
loop_
 _atom_site_type_symbol
 _atom_site_label
 _atom_site_symmetry_multiplicity
 _atom_site_fract_x
 _atom_site_fract_y
 _atom_site_fract_z
 _atom_site_occupancy
  Lu  Lu0  1  0.995783  0.674241  0.250000  1
  Lu  Lu1  1  0.004281  0.329853  0.750000  1
  Lu  Lu2  1  0.674241  0.995783  0.250000  1
  Lu  Lu3  1  0.329853  0.004281  0.750000  1
  Al  Al4  1  0.874878  0.874878  0.750000  1
  Al  Al5  1  0.000065  0.336241  0.077379  1
  Al  Al6  1  0.999407  0.665390  0.924395  1
  Al  Al7  1  0.999407  0.665390  0.575605  1
  Al  Al8  1  0.336241  0.000065  0.422621  1
  Al  Al9  1  0.000065  0.336241  0.422621  1
  Al  Al10  1  0.665390  0.999407  0.575605  1
  Al  Al11  1  0.665390  0.999407  0.924395  1
  Al  Al12  1  0.336241  0.000065  0.077379  1
  Al  Al13  1  0.333092  0.333092  0.558165  1
  Al  Al14  1  0.664931  0.664931  0.444578  1
  Al  Al15  1  0.664931  0.664931  0.055422  1
  Al  Al16  1  0.333092  0.333092  0.941835  1
  Al  Al17  1  0.336180  0.548648  0.250000  1
  Al  Al18  1  0.661324  0.451251  0.750000  1
  Al  Al19  1  0.548648  0.336180  0.250000  1
  Al  Al20  1  0.451251  0.661324  0.750000  1
  Si  Si21  1  0.129174  0.129174  0.250000  1
  Ir  Ir22  1  0.670769  0.326490  0.000610  1
  Ir  Ir23  1  0.326490  0.670769  0.000610  1
  Ir  Ir24  1  0.326490  0.670769  0.499390  1
  Ir  Ir25  1  0.670769  0.326490  0.499390  1
  Ir  Ir26  1  0.000810  0.000810  0.006899  1
  Ir  Ir27  1  0.000810  0.000810  0.493101  1
