# generated using pymatgen
data_Pr2AlRe16C3
_symmetry_space_group_name_H-M   'P 1'
_cell_length_a   7.02514395
_cell_length_b   7.02514397
_cell_length_c   7.08503765
_cell_angle_alpha   82.71135262
_cell_angle_beta   82.71135215
_cell_angle_gamma   82.95032038
_symmetry_Int_Tables_number   1
_chemical_formula_structural   Pr2AlRe16C3
_chemical_formula_sum   'Pr2 Al1 Re16 C3'
_cell_volume   342.01083132
_cell_formula_units_Z   1
loop_
 _symmetry_equiv_pos_site_id
 _symmetry_equiv_pos_as_xyz
  1  'x, y, z'
loop_
 _atom_site_type_symbol
 _atom_site_label
 _atom_site_symmetry_multiplicity
 _atom_site_fract_x
 _atom_site_fract_y
 _atom_site_fract_z
 _atom_site_occupancy
  Pr  Pr0  1  0.651704  0.651704  0.652337  1
  Pr  Pr1  1  0.348296  0.348296  0.347663  1
  Al  Al2  1  0.000000  0.000000  0.500000  1
  Re  Re3  1  0.500000  0.000000  0.000000  1
  Re  Re4  1  0.000000  0.500000  0.000000  1
  Re  Re5  1  0.722276  0.277724  0.000000  1
  Re  Re6  1  0.997866  0.723709  0.279574  1
  Re  Re7  1  0.276291  0.002134  0.720426  1
  Re  Re8  1  0.002134  0.276291  0.720426  1
  Re  Re9  1  0.723709  0.997866  0.279574  1
  Re  Re10  1  0.277724  0.722276  0.000000  1
  Re  Re11  1  0.352390  0.352390  0.856816  1
  Re  Re12  1  0.856857  0.348102  0.348879  1
  Re  Re13  1  0.348102  0.856857  0.348879  1
  Re  Re14  1  0.647610  0.647610  0.143184  1
  Re  Re15  1  0.143143  0.651898  0.651121  1
  Re  Re16  1  0.651898  0.143143  0.651121  1
  Re  Re17  1  0.900377  0.900377  0.907590  1
  Re  Re18  1  0.099623  0.099623  0.092410  1
  C  C19  1  0.500000  0.500000  0.000000  1
  C  C20  1  0.000000  0.500000  0.500000  1
  C  C21  1  0.500000  0.000000  0.500000  1
