# generated using pymatgen
data_Er2Tm3Si7Pt9
_symmetry_space_group_name_H-M   'P 1'
_cell_length_a   10.15707000
_cell_length_b   10.15707030
_cell_length_c   4.03745200
_cell_angle_alpha   90.00000000
_cell_angle_beta   90.00000000
_cell_angle_gamma   119.99999901
_symmetry_Int_Tables_number   1
_chemical_formula_structural   Er2Tm3Si7Pt9
_chemical_formula_sum   'Er2 Tm3 Si7 Pt9'
_cell_volume   360.72389546
_cell_formula_units_Z   1
loop_
 _symmetry_equiv_pos_site_id
 _symmetry_equiv_pos_as_xyz
  1  'x, y, z'
loop_
 _atom_site_type_symbol
 _atom_site_label
 _atom_site_symmetry_multiplicity
 _atom_site_fract_x
 _atom_site_fract_y
 _atom_site_fract_z
 _atom_site_occupancy
  Er  Er0  1  0.000000  0.000000  0.000000  1
  Er  Er1  1  0.333333  0.666667  0.500000  1
  Tm  Tm2  1  0.899590  0.459019  0.500000  1
  Tm  Tm3  1  0.559428  0.100410  0.500000  1
  Tm  Tm4  1  0.540981  0.440572  0.500000  1
  Si  Si5  1  0.238830  0.184953  0.500000  1
  Si  Si6  1  0.815047  0.053877  0.500000  1
  Si  Si7  1  0.946123  0.761170  0.500000  1
  Si  Si8  1  0.558306  0.653667  0.000000  1
  Si  Si9  1  0.346333  0.904638  0.000000  1
  Si  Si10  1  0.095362  0.441694  0.000000  1
  Si  Si11  1  0.666667  0.333333  0.000000  1
  Pt  Pt12  1  0.214348  0.931659  0.500000  1
  Pt  Pt13  1  0.068341  0.282690  0.500000  1
  Pt  Pt14  1  0.717310  0.785652  0.500000  1
  Pt  Pt15  1  0.317352  0.418345  0.000000  1
  Pt  Pt16  1  0.581655  0.899008  0.000000  1
  Pt  Pt17  1  0.100992  0.682648  0.000000  1
  Pt  Pt18  1  0.376059  0.168317  0.000000  1
  Pt  Pt19  1  0.831683  0.207743  0.000000  1
  Pt  Pt20  1  0.792257  0.623941  0.000000  1
