# generated using pymatgen
data_Lu12Ni5Sb
_symmetry_space_group_name_H-M   'P 1'
_cell_length_a   8.12448871
_cell_length_b   8.12448803
_cell_length_c   8.12448800
_cell_angle_alpha   106.87558673
_cell_angle_beta   110.05568223
_cell_angle_gamma   111.51669891
_symmetry_Int_Tables_number   1
_chemical_formula_structural   Lu12Ni5Sb
_chemical_formula_sum   'Lu12 Ni5 Sb1'
_cell_volume   412.12296604
_cell_formula_units_Z   1
loop_
 _symmetry_equiv_pos_site_id
 _symmetry_equiv_pos_as_xyz
  1  'x, y, z'
loop_
 _atom_site_type_symbol
 _atom_site_label
 _atom_site_symmetry_multiplicity
 _atom_site_fract_x
 _atom_site_fract_y
 _atom_site_fract_z
 _atom_site_occupancy
  Lu  Lu0  1  0.470657  0.289711  0.180946  1
  Lu  Lu1  1  0.108765  0.289711  0.819054  1
  Lu  Lu2  1  0.891235  0.710289  0.180946  1
  Lu  Lu3  1  0.529343  0.710289  0.819054  1
  Lu  Lu4  1  0.306314  0.627704  0.321390  1
  Lu  Lu5  1  0.306314  0.984925  0.678610  1
  Lu  Lu6  1  0.693686  0.372296  0.678610  1
  Lu  Lu7  1  0.693686  0.015075  0.321390  1
  Lu  Lu8  1  0.193389  0.213633  0.407022  1
  Lu  Lu9  1  0.806611  0.786367  0.592978  1
  Lu  Lu10  1  0.193389  0.786367  0.979754  1
  Lu  Lu11  1  0.806611  0.213633  0.020246  1
  Ni  Ni12  1  0.500000  0.624085  0.124085  1
  Ni  Ni13  1  0.500000  0.375915  0.875915  1
  Ni  Ni14  1  0.361838  0.000000  0.361838  1
  Ni  Ni15  1  0.638162  0.000000  0.638162  1
  Ni  Ni16  1  0.000000  0.000000  0.000000  1
  Sb  Sb17  1  0.000000  0.500000  0.500000  1
