# generated using pymatgen
data_SmEu3(Si5Pt3)2
_symmetry_space_group_name_H-M   'P 1'
_cell_length_a   8.27462471
_cell_length_b   8.27924822
_cell_length_c   8.27924841
_cell_angle_alpha   137.06500895
_cell_angle_beta   104.81690352
_cell_angle_gamma   90.70427590
_symmetry_Int_Tables_number   1
_chemical_formula_structural   SmEu3(Si5Pt3)2
_chemical_formula_sum   'Sm1 Eu3 Si10 Pt6'
_cell_volume   355.94990875
_cell_formula_units_Z   1
loop_
 _symmetry_equiv_pos_site_id
 _symmetry_equiv_pos_as_xyz
  1  'x, y, z'
loop_
 _atom_site_type_symbol
 _atom_site_label
 _atom_site_symmetry_multiplicity
 _atom_site_fract_x
 _atom_site_fract_y
 _atom_site_fract_z
 _atom_site_occupancy
  Sm  Sm0  1  0.897578  0.129201  0.768377  1
  Eu  Eu1  1  0.637987  0.370247  0.267740  1
  Eu  Eu2  1  0.361674  0.629325  0.732349  1
  Eu  Eu3  1  0.103517  0.870991  0.232526  1
  Si  Si4  1  0.271367  0.521951  0.250582  1
  Si  Si5  1  0.727698  0.478175  0.748955  1
  Si  Si6  1  0.727698  0.978743  0.249524  1
  Si  Si7  1  0.271367  0.020785  0.749416  1
  Si  Si8  1  0.459463  0.111228  0.348235  1
  Si  Si9  1  0.540884  0.889336  0.651548  1
  Si  Si10  1  0.761105  0.610814  0.150290  1
  Si  Si11  1  0.238469  0.388987  0.849482  1
  Si  Si12  1  0.000324  0.251749  0.252078  1
  Si  Si13  1  0.000324  0.748246  0.748575  1
  Pt  Pt14  1  0.246230  0.136007  0.110222  1
  Pt  Pt15  1  0.752954  0.864478  0.888476  1
  Pt  Pt16  1  0.023420  0.636528  0.386892  1
  Pt  Pt17  1  0.974746  0.362440  0.612307  1
  Pt  Pt18  1  0.501597  0.249186  0.750013  1
  Pt  Pt19  1  0.501597  0.751584  0.252411  1
