# generated using pymatgen
data_ErTm3(Si4Tc3)2
_symmetry_space_group_name_H-M   'P 1'
_cell_length_a   6.76441011
_cell_length_b   6.72327873
_cell_length_c   6.75905324
_cell_angle_alpha   69.96017417
_cell_angle_beta   90.02081947
_cell_angle_gamma   90.00703711
_symmetry_Int_Tables_number   1
_chemical_formula_structural   ErTm3(Si4Tc3)2
_chemical_formula_sum   'Er1 Tm3 Si8 Tc6'
_cell_volume   288.78372208
_cell_formula_units_Z   1
loop_
 _symmetry_equiv_pos_site_id
 _symmetry_equiv_pos_as_xyz
  1  'x, y, z'
loop_
 _atom_site_type_symbol
 _atom_site_label
 _atom_site_symmetry_multiplicity
 _atom_site_fract_x
 _atom_site_fract_y
 _atom_site_fract_z
 _atom_site_occupancy
  Er  Er0  1  0.332092  0.557672  0.808313  1
  Tm  Tm1  1  0.831978  0.942368  0.191889  1
  Tm  Tm2  1  0.668065  0.442381  0.191916  1
  Tm  Tm3  1  0.167979  0.057619  0.808103  1
  Si  Si4  1  0.550560  0.877028  0.898028  1
  Si  Si5  1  0.050353  0.623156  0.102127  1
  Si  Si6  1  0.449581  0.122975  0.102112  1
  Si  Si7  1  0.949310  0.376768  0.898024  1
  Si  Si8  1  0.141482  0.868064  0.487503  1
  Si  Si9  1  0.641801  0.632155  0.512188  1
  Si  Si10  1  0.858385  0.132141  0.512295  1
  Si  Si11  1  0.358385  0.367773  0.487493  1
  Tc  Tc12  1  0.500065  0.000174  0.499914  1
  Tc  Tc13  1  0.999889  0.499959  0.499917  1
  Tc  Tc14  1  0.850400  0.757750  0.762647  1
  Tc  Tc15  1  0.350394  0.742309  0.237495  1
  Tc  Tc16  1  0.149508  0.242180  0.237477  1
  Tc  Tc17  1  0.649774  0.257528  0.762557  1
