# generated using pymatgen
data_Sr12Mn4ZnCo7(TeO6)8
_symmetry_space_group_name_H-M   'P 1'
_cell_length_a   11.34562971
_cell_length_b   11.34339483
_cell_length_c   11.34509900
_cell_angle_alpha   109.49927126
_cell_angle_beta   109.50786999
_cell_angle_gamma   109.40466717
_symmetry_Int_Tables_number   1
_chemical_formula_structural   Sr12Mn4ZnCo7(TeO6)8
_chemical_formula_sum   'Sr12 Mn4 Zn1 Co7 Te8 O48'
_cell_volume   1124.00349542
_cell_formula_units_Z   1
loop_
 _symmetry_equiv_pos_site_id
 _symmetry_equiv_pos_as_xyz
  1  'x, y, z'
loop_
 _atom_site_type_symbol
 _atom_site_label
 _atom_site_symmetry_multiplicity
 _atom_site_fract_x
 _atom_site_fract_y
 _atom_site_fract_z
 _atom_site_occupancy
  Sr  Sr0  1  0.375514  0.749864  0.125536  1
  Sr  Sr1  1  0.250019  0.375663  0.125573  1
  Sr  Sr2  1  0.874658  0.624645  0.249257  1
  Sr  Sr3  1  0.375006  0.125070  0.250103  1
  Sr  Sr4  1  0.126440  0.250502  0.377041  1
  Sr  Sr5  1  0.750633  0.126562  0.377072  1
  Sr  Sr6  1  0.875275  0.750105  0.624975  1
  Sr  Sr7  1  0.249731  0.874859  0.624942  1
  Sr  Sr8  1  0.125649  0.375625  0.751282  1
  Sr  Sr9  1  0.624668  0.874687  0.749404  1
  Sr  Sr10  1  0.622539  0.248986  0.872276  1
  Sr  Sr11  1  0.749725  0.623253  0.872299  1
  Mn  Mn12  1  0.750845  0.875507  0.124736  1
  Mn  Mn13  1  0.874027  0.249289  0.124722  1
  Mn  Mn14  1  0.624889  0.375734  0.250954  1
  Mn  Mn15  1  0.125866  0.875370  0.250995  1
  Zn  Zn16  1  0.250369  0.125744  0.874744  1
  Co  Co17  1  0.624814  0.749258  0.375150  1
  Co  Co18  1  0.250405  0.625925  0.375175  1
  Co  Co19  1  0.374393  0.248777  0.624307  1
  Co  Co20  1  0.749853  0.375445  0.624284  1
  Co  Co21  1  0.875343  0.125855  0.750613  1
  Co  Co22  1  0.375300  0.624747  0.750603  1
  Co  Co23  1  0.124330  0.748950  0.874657  1
  Te  Te24  1  0.002312  0.001125  0.997737  1
  Te  Te25  1  0.495422  0.996645  0.997773  1
  Te  Te26  1  0.998229  0.499267  0.997815  1
  Te  Te27  1  0.499642  0.498563  0.997834  1
  Te  Te28  1  0.000658  0.001501  0.503872  1
  Te  Te29  1  0.498070  0.500134  0.500647  1
  Te  Te30  1  0.502543  0.000474  0.500602  1
  Te  Te31  1  0.003234  0.502382  0.503836  1
  O  O32  1  0.327128  0.903268  0.015880  1
  O  O33  1  0.189203  0.112772  0.016721  1
  O  O34  1  0.686112  0.664753  0.071498  1
  O  O35  1  0.885421  0.406729  0.071461  1
  O  O36  1  0.978753  0.666385  0.090133  1
  O  O37  1  0.611364  0.423776  0.090119  1
  O  O38  1  0.590193  0.924276  0.111145  1
  O  O39  1  0.020829  0.186804  0.111065  1
  O  O40  1  0.184449  0.574584  0.169008  1
  O  O41  1  0.484640  0.594377  0.169032  1
  O  O42  1  0.571745  0.164703  0.184625  1
  O  O43  1  0.112800  0.019893  0.184640  1
  O  O44  1  0.336468  0.926856  0.313939  1
  O  O45  1  0.477409  0.387086  0.313973  1
  O  O46  1  0.909326  0.021424  0.336499  1
  O  O47  1  0.927219  0.315098  0.336493  1
  O  O48  1  0.577655  0.905617  0.389648  1
  O  O49  1  0.311981  0.484021  0.389667  1
  O  O50  1  0.836423  0.521725  0.409084  1
  O  O51  1  0.072719  0.887445  0.409137  1
  O  O52  1  0.829884  0.814859  0.426578  1
  O  O53  1  0.096668  0.611753  0.426527  1
  O  O54  1  0.596940  0.170350  0.484058  1
  O  O55  1  0.387154  0.313722  0.484091  1
  O  O56  1  0.611021  0.685516  0.516627  1
  O  O57  1  0.405618  0.831115  0.516655  1
  O  O58  1  0.170914  0.186509  0.577316  1
  O  O59  1  0.906383  0.390789  0.577361  1
  O  O60  1  0.926488  0.114130  0.597525  1
  O  O61  1  0.171097  0.483377  0.597609  1
  O  O62  1  0.684877  0.516056  0.609960  1
  O  O63  1  0.425109  0.093884  0.609952  1
  O  O64  1  0.093762  0.982452  0.671566  1
  O  O65  1  0.077519  0.688753  0.671853  1
  O  O66  1  0.517549  0.612951  0.687823  1
  O  O67  1  0.670293  0.074870  0.687815  1
  O  O68  1  0.889184  0.983900  0.811862  1
  O  O69  1  0.422597  0.827898  0.811833  1
  O  O70  1  0.515016  0.403677  0.827375  1
  O  O71  1  0.812294  0.423733  0.827326  1
  O  O72  1  0.984145  0.813827  0.887098  1
  O  O73  1  0.403518  0.073558  0.886899  1
  O  O74  1  0.016826  0.330589  0.905432  1
  O  O75  1  0.388662  0.574813  0.905403  1
  O  O76  1  0.112130  0.594784  0.925610  1
  O  O77  1  0.313134  0.331083  0.925322  1
  O  O78  1  0.662839  0.090000  0.979056  1
  O  O79  1  0.816135  0.888945  0.978883  1
