# generated using pymatgen
data_K6LuCrF12
_symmetry_space_group_name_H-M   'P 1'
_cell_length_a   6.48386297
_cell_length_b   6.24442159
_cell_length_c   10.90878746
_cell_angle_alpha   55.23497687
_cell_angle_beta   89.59959242
_cell_angle_gamma   90.07812460
_symmetry_Int_Tables_number   1
_chemical_formula_structural   K6LuCrF12
_chemical_formula_sum   'K6 Lu1 Cr1 F12'
_cell_volume   362.81809377
_cell_formula_units_Z   1
loop_
 _symmetry_equiv_pos_site_id
 _symmetry_equiv_pos_as_xyz
  1  'x, y, z'
loop_
 _atom_site_type_symbol
 _atom_site_label
 _atom_site_symmetry_multiplicity
 _atom_site_fract_x
 _atom_site_fract_y
 _atom_site_fract_z
 _atom_site_occupancy
  K  K0  1  0.500000  0.500000  0.000000  1
  K  K1  1  0.000000  0.500000  0.500000  1
  K  K2  1  0.052930  0.744680  0.740959  1
  K  K3  1  0.947070  0.255320  0.259041  1
  K  K4  1  0.548606  0.279190  0.734685  1
  K  K5  1  0.451394  0.720810  0.265315  1
  Lu  Lu6  1  0.000000  0.000000  0.000000  1
  Cr  Cr7  1  0.500000  0.000000  0.500000  1
  F  F8  1  0.747891  0.779890  0.556445  1
  F  F9  1  0.252109  0.220110  0.443555  1
  F  F10  1  0.271929  0.234864  0.927969  1
  F  F11  1  0.728071  0.765136  0.072031  1
  F  F12  1  0.456282  0.887197  0.707029  1
  F  F13  1  0.543718  0.112803  0.292971  1
  F  F14  1  0.948193  0.116127  0.777245  1
  F  F15  1  0.051807  0.883873  0.222755  1
  F  F16  1  0.327721  0.706618  0.539408  1
  F  F17  1  0.672279  0.293382  0.460592  1
  F  F18  1  0.828402  0.328804  0.950419  1
  F  F19  1  0.171598  0.671196  0.049581  1
