# generated using pymatgen
data_Li2Nd3ZnIr2Pd
_symmetry_space_group_name_H-M   'P 1'
_cell_length_a   7.32053831
_cell_length_b   7.33863671
_cell_length_c   4.04240700
_cell_angle_alpha   90.00000000
_cell_angle_beta   90.00000000
_cell_angle_gamma   120.08182227
_symmetry_Int_Tables_number   1
_chemical_formula_structural   Li2Nd3ZnIr2Pd
_chemical_formula_sum   'Li2 Nd3 Zn1 Ir2 Pd1'
_cell_volume   187.91887802
_cell_formula_units_Z   1
loop_
 _symmetry_equiv_pos_site_id
 _symmetry_equiv_pos_as_xyz
  1  'x, y, z'
loop_
 _atom_site_type_symbol
 _atom_site_label
 _atom_site_symmetry_multiplicity
 _atom_site_fract_x
 _atom_site_fract_y
 _atom_site_fract_z
 _atom_site_occupancy
  Li  Li0  1  0.763708  0.762618  0.500000  1
  Li  Li1  1  0.236292  0.998912  0.500000  1
  Nd  Nd2  1  0.415912  0.417773  0.000000  1
  Nd  Nd3  1  0.584088  0.001861  0.000000  1
  Nd  Nd4  1  0.000000  0.577494  0.000000  1
  Zn  Zn5  1  0.000000  0.242760  0.500000  1
  Ir  Ir6  1  0.670353  0.330730  0.500000  1
  Ir  Ir7  1  0.329647  0.660378  0.500000  1
  Pd  Pd8  1  0.000000  0.007475  0.000000  1
