# generated using pymatgen
data_Ho11TmCo4BiPd
_symmetry_space_group_name_H-M   'P 1'
_cell_length_a   8.27322565
_cell_length_b   8.27653878
_cell_length_c   8.27322600
_cell_angle_alpha   110.72620527
_cell_angle_beta   111.12294058
_cell_angle_gamma   106.58699119
_symmetry_Int_Tables_number   1
_chemical_formula_structural   Ho11TmCo4BiPd
_chemical_formula_sum   'Ho11 Tm1 Co4 Bi1 Pd1'
_cell_volume   435.34821315
_cell_formula_units_Z   1
loop_
 _symmetry_equiv_pos_site_id
 _symmetry_equiv_pos_as_xyz
  1  'x, y, z'
loop_
 _atom_site_type_symbol
 _atom_site_label
 _atom_site_symmetry_multiplicity
 _atom_site_fract_x
 _atom_site_fract_y
 _atom_site_fract_z
 _atom_site_occupancy
  Ho  Ho0  1  0.287925  0.184202  0.472635  1
  Ho  Ho1  1  0.711324  0.815497  0.526276  1
  Ho  Ho2  1  0.289222  0.815497  0.104171  1
  Ho  Ho3  1  0.711565  0.184202  0.896277  1
  Ho  Ho4  1  0.620477  0.311182  0.308168  1
  Ho  Ho5  1  0.380261  0.688823  0.692106  1
  Ho  Ho6  1  0.003016  0.311182  0.690704  1
  Ho  Ho7  1  0.996717  0.688823  0.308562  1
  Ho  Ho8  1  0.213975  0.414957  0.200982  1
  Ho  Ho9  1  0.785932  0.585402  0.799469  1
  Ho  Ho10  1  0.213969  0.013361  0.799391  1
  Tm  Tm11  1  0.786052  0.986992  0.200940  1
  Co  Co12  1  0.999700  0.376116  0.376417  1
  Co  Co13  1  0.000345  0.623214  0.622869  1
  Co  Co14  1  0.388330  0.888392  0.500062  1
  Co  Co15  1  0.611971  0.111521  0.499550  1
  Bi  Bi16  1  0.500259  0.500590  0.000332  1
  Pd  Pd17  1  0.998958  0.000048  0.001090  1
