# generated using pymatgen
data_BaSr19Au16
_symmetry_space_group_name_H-M   'P 1'
_cell_length_a   8.34363478
_cell_length_b   8.49194706
_cell_length_c   16.38441317
_cell_angle_alpha   90.15071140
_cell_angle_beta   89.39032603
_cell_angle_gamma   89.74023189
_symmetry_Int_Tables_number   1
_chemical_formula_structural   BaSr19Au16
_chemical_formula_sum   'Ba1 Sr19 Au16'
_cell_volume   1160.81455779
_cell_formula_units_Z   1
loop_
 _symmetry_equiv_pos_site_id
 _symmetry_equiv_pos_as_xyz
  1  'x, y, z'
loop_
 _atom_site_type_symbol
 _atom_site_label
 _atom_site_symmetry_multiplicity
 _atom_site_fract_x
 _atom_site_fract_y
 _atom_site_fract_z
 _atom_site_occupancy
  Ba  Ba0  1  0.009566  0.177672  0.404505  1
  Sr  Sr1  1  0.854363  0.664986  0.380190  1
  Sr  Sr2  1  0.517598  0.323735  0.098812  1
  Sr  Sr3  1  0.147714  0.337008  0.621352  1
  Sr  Sr4  1  0.355844  0.834302  0.378462  1
  Sr  Sr5  1  0.140963  0.336336  0.881377  1
  Sr  Sr6  1  0.360444  0.836200  0.117936  1
  Sr  Sr7  1  0.193271  0.491428  0.248812  1
  Sr  Sr8  1  0.511568  0.324204  0.400326  1
  Sr  Sr9  1  0.806901  0.508761  0.750758  1
  Sr  Sr10  1  0.982966  0.824198  0.900125  1
  Sr  Sr11  1  0.987785  0.819335  0.601341  1
  Sr  Sr12  1  0.489474  0.678621  0.598744  1
  Sr  Sr13  1  0.644798  0.165283  0.620805  1
  Sr  Sr14  1  0.306366  0.991379  0.750688  1
  Sr  Sr15  1  0.641048  0.162986  0.880883  1
  Sr  Sr16  1  0.692702  0.008496  0.248874  1
  Sr  Sr17  1  0.859406  0.663459  0.117604  1
  Sr  Sr18  1  0.482480  0.676530  0.899950  1
  Sr  Sr19  1  0.017723  0.176464  0.099612  1
  Au  Au20  1  0.810292  0.373040  0.247760  1
  Au  Au21  1  0.438030  0.386885  0.750648  1
  Au  Au22  1  0.688944  0.870751  0.749972  1
  Au  Au23  1  0.806274  0.475244  0.547224  1
  Au  Au24  1  0.702960  0.978608  0.047359  1
  Au  Au25  1  0.797514  0.478110  0.951529  1
  Au  Au26  1  0.197222  0.530605  0.454800  1
  Au  Au27  1  0.202008  0.522217  0.047150  1
  Au  Au28  1  0.187937  0.629525  0.750841  1
  Au  Au29  1  0.313436  0.128899  0.248131  1
  Au  Au30  1  0.562061  0.614321  0.249046  1
  Au  Au31  1  0.062492  0.884370  0.247915  1
  Au  Au32  1  0.299118  0.022489  0.952054  1
  Au  Au33  1  0.938358  0.114754  0.750051  1
  Au  Au34  1  0.681913  0.969093  0.456034  1
  Au  Au35  1  0.308460  0.019707  0.548329  1
