# generated using pymatgen
data_Sm8Re13B12
_symmetry_space_group_name_H-M   'P 1'
_cell_length_a   7.86824235
_cell_length_b   7.86824180
_cell_length_c   7.86824158
_cell_angle_alpha   85.81696084
_cell_angle_beta   85.81695620
_cell_angle_gamma   85.81695926
_symmetry_Int_Tables_number   1
_chemical_formula_structural   Sm8Re13B12
_chemical_formula_sum   'Sm8 Re13 B12'
_cell_volume   483.40401768
_cell_formula_units_Z   1
loop_
 _symmetry_equiv_pos_site_id
 _symmetry_equiv_pos_as_xyz
  1  'x, y, z'
loop_
 _atom_site_type_symbol
 _atom_site_label
 _atom_site_symmetry_multiplicity
 _atom_site_fract_x
 _atom_site_fract_y
 _atom_site_fract_z
 _atom_site_occupancy
  Sm  Sm0  1  0.641957  0.641957  0.641957  1
  Sm  Sm1  1  0.358043  0.358043  0.358043  1
  Sm  Sm2  1  0.187751  0.187751  0.687154  1
  Sm  Sm3  1  0.687154  0.187751  0.187751  1
  Sm  Sm4  1  0.187751  0.687154  0.187751  1
  Sm  Sm5  1  0.812249  0.812249  0.312846  1
  Sm  Sm6  1  0.312846  0.812249  0.812249  1
  Sm  Sm7  1  0.812249  0.312846  0.812249  1
  Re  Re8  1  0.000000  0.000000  0.000000  1
  Re  Re9  1  0.596261  0.064482  0.596261  1
  Re  Re10  1  0.596261  0.596261  0.064482  1
  Re  Re11  1  0.064482  0.596261  0.596261  1
  Re  Re12  1  0.403739  0.935518  0.403739  1
  Re  Re13  1  0.403739  0.403739  0.935518  1
  Re  Re14  1  0.935518  0.403739  0.403739  1
  Re  Re15  1  0.922241  0.922241  0.671222  1
  Re  Re16  1  0.671222  0.922241  0.922241  1
  Re  Re17  1  0.922241  0.671222  0.922241  1
  Re  Re18  1  0.077759  0.077759  0.328778  1
  Re  Re19  1  0.328778  0.077759  0.077759  1
  Re  Re20  1  0.077759  0.328778  0.077759  1
  B  B21  1  0.151840  0.848160  0.500000  1
  B  B22  1  0.500000  0.151840  0.848160  1
  B  B23  1  0.848160  0.500000  0.151840  1
  B  B24  1  0.500000  0.848160  0.151840  1
  B  B25  1  0.151840  0.500000  0.848160  1
  B  B26  1  0.848160  0.151840  0.500000  1
  B  B27  1  0.672450  0.500000  0.327550  1
  B  B28  1  0.327550  0.672450  0.500000  1
  B  B29  1  0.500000  0.327550  0.672450  1
  B  B30  1  0.327550  0.500000  0.672450  1
  B  B31  1  0.672450  0.327550  0.500000  1
  B  B32  1  0.500000  0.672450  0.327550  1
