# generated using pymatgen
data_La6YNi3
_symmetry_space_group_name_H-M   'P 1'
_cell_length_a   10.05954100
_cell_length_b   10.05954257
_cell_length_c   6.40085400
_cell_angle_alpha   90.00000000
_cell_angle_beta   90.00000000
_cell_angle_gamma   120.00000471
_symmetry_Int_Tables_number   1
_chemical_formula_structural   La6YNi3
_chemical_formula_sum   'La12 Y2 Ni6'
_cell_volume   560.95100457
_cell_formula_units_Z   2
loop_
 _symmetry_equiv_pos_site_id
 _symmetry_equiv_pos_as_xyz
  1  'x, y, z'
loop_
 _atom_site_type_symbol
 _atom_site_label
 _atom_site_symmetry_multiplicity
 _atom_site_fract_x
 _atom_site_fract_y
 _atom_site_fract_z
 _atom_site_occupancy
  La  La0  1  0.871957  0.743912  0.772762  1
  La  La1  1  0.256088  0.128043  0.772762  1
  La  La2  1  0.871957  0.128043  0.772762  1
  La  La3  1  0.128043  0.256088  0.272762  1
  La  La4  1  0.743912  0.871957  0.272762  1
  La  La5  1  0.128043  0.871957  0.272762  1
  La  La6  1  0.459587  0.919176  0.596441  1
  La  La7  1  0.080824  0.540413  0.596441  1
  La  La8  1  0.459587  0.540413  0.596441  1
  La  La9  1  0.540413  0.080824  0.096441  1
  La  La10  1  0.919176  0.459587  0.096441  1
  La  La11  1  0.540413  0.459587  0.096441  1
  Y  Y12  1  0.666667  0.333333  0.569728  1
  Y  Y13  1  0.333333  0.666667  0.069728  1
  Ni  Ni14  1  0.189003  0.378005  0.843396  1
  Ni  Ni15  1  0.621995  0.810997  0.843396  1
  Ni  Ni16  1  0.189003  0.810997  0.843396  1
  Ni  Ni17  1  0.810997  0.621995  0.343396  1
  Ni  Ni18  1  0.378005  0.189003  0.343396  1
  Ni  Ni19  1  0.810997  0.189003  0.343396  1
