# generated using pymatgen
data_Pr8Cu(Si4Pt)3
_symmetry_space_group_name_H-M   'P 1'
_cell_length_a   8.23490900
_cell_length_b   8.23491028
_cell_length_c   8.67281400
_cell_angle_alpha   90.00000000
_cell_angle_beta   90.00000000
_cell_angle_gamma   120.00000692
_symmetry_Int_Tables_number   1
_chemical_formula_structural   Pr8Cu(Si4Pt)3
_chemical_formula_sum   'Pr8 Cu1 Si12 Pt3'
_cell_volume   509.34061682
_cell_formula_units_Z   1
loop_
 _symmetry_equiv_pos_site_id
 _symmetry_equiv_pos_as_xyz
  1  'x, y, z'
loop_
 _atom_site_type_symbol
 _atom_site_label
 _atom_site_symmetry_multiplicity
 _atom_site_fract_x
 _atom_site_fract_y
 _atom_site_fract_z
 _atom_site_occupancy
  Pr  Pr0  1  0.499391  0.500609  0.749826  1
  Pr  Pr1  1  0.500155  0.499845  0.250263  1
  Pr  Pr2  1  0.001218  0.500609  0.749826  1
  Pr  Pr3  1  0.999690  0.499845  0.250263  1
  Pr  Pr4  1  0.499391  0.998782  0.749826  1
  Pr  Pr5  1  0.500155  0.000310  0.250263  1
  Pr  Pr6  1  0.000000  0.000000  0.750621  1
  Pr  Pr7  1  0.000000  0.000000  0.249441  1
  Cu  Cu8  1  0.666667  0.333333  0.997887  1
  Si  Si9  1  0.831362  0.168638  0.999993  1
  Si  Si10  1  0.166129  0.833871  0.999931  1
  Si  Si11  1  0.337275  0.168638  0.999993  1
  Si  Si12  1  0.166195  0.833805  0.500023  1
  Si  Si13  1  0.667742  0.833871  0.999931  1
  Si  Si14  1  0.834200  0.165800  0.500139  1
  Si  Si15  1  0.831362  0.662725  0.999993  1
  Si  Si16  1  0.667609  0.833805  0.500023  1
  Si  Si17  1  0.166129  0.332258  0.999931  1
  Si  Si18  1  0.331599  0.165800  0.500139  1
  Si  Si19  1  0.166195  0.332391  0.500023  1
  Si  Si20  1  0.834200  0.668401  0.500139  1
  Pt  Pt21  1  0.333333  0.666667  0.001481  1
  Pt  Pt22  1  0.333333  0.666667  0.498637  1
  Pt  Pt23  1  0.666667  0.333333  0.501406  1
