# generated using pymatgen
data_Y5Tm3(ZnCo)2
_symmetry_space_group_name_H-M   'P 1'
_cell_length_a   9.31094961
_cell_length_b   9.31959025
_cell_length_c   9.31982841
_cell_angle_alpha   59.93395550
_cell_angle_beta   60.03226755
_cell_angle_gamma   60.03097586
_symmetry_Int_Tables_number   1
_chemical_formula_structural   Y5Tm3(ZnCo)2
_chemical_formula_sum   'Y10 Tm6 Zn4 Co4'
_cell_volume   571.83887867
_cell_formula_units_Z   2
loop_
 _symmetry_equiv_pos_site_id
 _symmetry_equiv_pos_as_xyz
  1  'x, y, z'
loop_
 _atom_site_type_symbol
 _atom_site_label
 _atom_site_symmetry_multiplicity
 _atom_site_fract_x
 _atom_site_fract_y
 _atom_site_fract_z
 _atom_site_occupancy
  Y  Y0  1  0.440641  0.059406  0.440634  1
  Y  Y1  1  0.059358  0.440655  0.059345  1
  Y  Y2  1  0.440627  0.440648  0.059402  1
  Y  Y3  1  0.059350  0.059348  0.440650  1
  Y  Y4  1  0.189005  0.811052  0.810919  1
  Y  Y5  1  0.811057  0.188876  0.188938  1
  Y  Y6  1  0.810911  0.189047  0.810946  1
  Y  Y7  1  0.189212  0.810817  0.189243  1
  Y  Y8  1  0.810745  0.810911  0.189176  1
  Y  Y9  1  0.189140  0.189111  0.810854  1
  Tm  Tm10  1  0.600334  0.598768  0.598793  1
  Tm  Tm11  1  0.598814  0.600228  0.202131  1
  Tm  Tm12  1  0.598752  0.202302  0.600192  1
  Tm  Tm13  1  0.202071  0.598772  0.598793  1
  Tm  Tm14  1  0.058758  0.441290  0.441267  1
  Tm  Tm15  1  0.441273  0.058698  0.058736  1
  Zn  Zn16  1  0.826319  0.826876  0.826837  1
  Zn  Zn17  1  0.826826  0.826365  0.519973  1
  Zn  Zn18  1  0.826854  0.519926  0.826355  1
  Zn  Zn19  1  0.519982  0.826870  0.826829  1
  Co  Co20  1  0.391180  0.393831  0.393823  1
  Co  Co21  1  0.393819  0.391185  0.821161  1
  Co  Co22  1  0.393798  0.821201  0.391183  1
  Co  Co23  1  0.821172  0.393820  0.393818  1
