# generated using pymatgen
data_Yb5InCu2
_symmetry_space_group_name_H-M   'P 1'
_cell_length_a   9.01696010
_cell_length_b   9.01695969
_cell_length_c   9.01695989
_cell_angle_alpha   128.90287001
_cell_angle_beta   128.90286962
_cell_angle_gamma   75.16690913
_symmetry_Int_Tables_number   1
_chemical_formula_structural   Yb5InCu2
_chemical_formula_sum   'Yb10 In2 Cu4'
_cell_volume   432.24651593
_cell_formula_units_Z   2
loop_
 _symmetry_equiv_pos_site_id
 _symmetry_equiv_pos_as_xyz
  1  'x, y, z'
loop_
 _atom_site_type_symbol
 _atom_site_label
 _atom_site_symmetry_multiplicity
 _atom_site_fract_x
 _atom_site_fract_y
 _atom_site_fract_z
 _atom_site_occupancy
  Yb  Yb0  1  0.500000  0.500000  0.000000  1
  Yb  Yb1  1  0.000000  0.000000  0.000000  1
  Yb  Yb2  1  0.530521  0.030521  0.835174  1
  Yb  Yb3  1  0.195347  0.695347  0.164826  1
  Yb  Yb4  1  0.030521  0.195347  0.500000  1
  Yb  Yb5  1  0.695347  0.530521  0.500000  1
  Yb  Yb6  1  0.469479  0.969479  0.164826  1
  Yb  Yb7  1  0.804653  0.304653  0.835174  1
  Yb  Yb8  1  0.969479  0.804653  0.500000  1
  Yb  Yb9  1  0.304653  0.469479  0.500000  1
  In  In10  1  0.250000  0.250000  0.000000  1
  In  In11  1  0.750000  0.750000  0.000000  1
  Cu  Cu12  1  0.117935  0.617935  0.735871  1
  Cu  Cu13  1  0.882065  0.382065  0.264129  1
  Cu  Cu14  1  0.617935  0.882065  0.500000  1
  Cu  Cu15  1  0.382065  0.117935  0.500000  1
