# generated using pymatgen
data_Er2LuGa5
_symmetry_space_group_name_H-M   'P 1'
_cell_length_a   11.44342000
_cell_length_b   9.55443000
_cell_length_c   6.03425300
_cell_angle_alpha   90.00000000
_cell_angle_beta   90.00000000
_cell_angle_gamma   90.00000000
_symmetry_Int_Tables_number   1
_chemical_formula_structural   Er2LuGa5
_chemical_formula_sum   'Er8 Lu4 Ga20'
_cell_volume   659.75719603
_cell_formula_units_Z   4
loop_
 _symmetry_equiv_pos_site_id
 _symmetry_equiv_pos_as_xyz
  1  'x, y, z'
loop_
 _atom_site_type_symbol
 _atom_site_label
 _atom_site_symmetry_multiplicity
 _atom_site_fract_x
 _atom_site_fract_y
 _atom_site_fract_z
 _atom_site_occupancy
  Er  Er0  1  0.351990  0.009098  0.109251  1
  Er  Er1  1  0.148010  0.990900  0.609251  1
  Er  Er2  1  0.851990  0.490902  0.390748  1
  Er  Er3  1  0.648010  0.509098  0.890748  1
  Er  Er4  1  0.648010  0.990900  0.890748  1
  Er  Er5  1  0.851990  0.009098  0.390748  1
  Er  Er6  1  0.148010  0.509098  0.609251  1
  Er  Er7  1  0.351990  0.490902  0.109251  1
  Lu  Lu8  1  0.427172  0.749999  0.652222  1
  Lu  Lu9  1  0.072828  0.249999  0.152224  1
  Lu  Lu10  1  0.572828  0.249999  0.347778  1
  Lu  Lu11  1  0.927172  0.749999  0.847778  1
  Ga  Ga12  1  0.297857  0.249999  0.394934  1
  Ga  Ga13  1  0.202144  0.749999  0.894932  1
  Ga  Ga14  1  0.797857  0.249999  0.105067  1
  Ga  Ga15  1  0.702143  0.749999  0.605067  1
  Ga  Ga16  1  0.004745  0.249999  0.626561  1
  Ga  Ga17  1  0.495255  0.749999  0.126559  1
  Ga  Ga18  1  0.504745  0.249999  0.873440  1
  Ga  Ga19  1  0.995255  0.749999  0.373440  1
  Ga  Ga20  1  0.251390  0.249999  0.830645  1
  Ga  Ga21  1  0.248610  0.749999  0.330643  1
  Ga  Ga22  1  0.751390  0.249999  0.669356  1
  Ga  Ga23  1  0.748610  0.749999  0.169355  1
  Ga  Ga24  1  0.090742  0.551827  0.124225  1
  Ga  Ga25  1  0.409258  0.448174  0.624227  1
  Ga  Ga26  1  0.590742  0.948174  0.375774  1
  Ga  Ga27  1  0.909259  0.051827  0.875774  1
  Ga  Ga28  1  0.909259  0.448174  0.875774  1
  Ga  Ga29  1  0.590742  0.551827  0.375774  1
  Ga  Ga30  1  0.409258  0.051827  0.624227  1
  Ga  Ga31  1  0.090742  0.948174  0.124225  1
