# generated using pymatgen
data_ErIn3Tc4F28
_symmetry_space_group_name_H-M   'P 1'
_cell_length_a   5.49263850
_cell_length_b   8.68700760
_cell_length_c   11.82289894
_cell_angle_alpha   63.25028537
_cell_angle_beta   90.20810797
_cell_angle_gamma   89.96337152
_symmetry_Int_Tables_number   1
_chemical_formula_structural   ErIn3Tc4F28
_chemical_formula_sum   'Er1 In3 Tc4 F28'
_cell_volume   503.74787960
_cell_formula_units_Z   1
loop_
 _symmetry_equiv_pos_site_id
 _symmetry_equiv_pos_as_xyz
  1  'x, y, z'
loop_
 _atom_site_type_symbol
 _atom_site_label
 _atom_site_symmetry_multiplicity
 _atom_site_fract_x
 _atom_site_fract_y
 _atom_site_fract_z
 _atom_site_occupancy
  Er  Er0  1  0.741242  0.815721  0.265088  1
  In  In1  1  0.761282  0.816365  0.763979  1
  In  In2  1  0.261288  0.184173  0.735860  1
  In  In3  1  0.236397  0.188711  0.235330  1
  Tc  Tc4  1  0.761871  0.274419  0.954676  1
  Tc  Tc5  1  0.259588  0.726036  0.546881  1
  Tc  Tc6  1  0.241029  0.725874  0.041600  1
  Tc  Tc7  1  0.738286  0.270438  0.456955  1
  F  F8  1  0.444175  0.701781  0.916195  1
  F  F9  1  0.942517  0.295971  0.581961  1
  F  F10  1  0.560164  0.299997  0.079565  1
  F  F11  1  0.054865  0.705815  0.418743  1
  F  F12  1  0.437177  0.273714  0.547384  1
  F  F13  1  0.936682  0.724329  0.951621  1
  F  F14  1  0.556617  0.724000  0.454891  1
  F  F15  1  0.064178  0.277120  0.044842  1
  F  F16  1  0.779513  0.526717  0.855266  1
  F  F17  1  0.277384  0.472052  0.644009  1
  F  F18  1  0.221533  0.472600  0.142968  1
  F  F19  1  0.720340  0.522156  0.358686  1
  F  F20  1  0.756628  0.024054  0.052324  1
  F  F21  1  0.255852  0.975211  0.453005  1
  F  F22  1  0.245008  0.975611  0.948609  1
  F  F23  1  0.743345  0.020287  0.551437  1
  F  F24  1  0.969561  0.725040  0.644390  1
  F  F25  1  0.471226  0.273186  0.856919  1
  F  F26  1  0.029025  0.274486  0.358678  1
  F  F27  1  0.527638  0.726200  0.140435  1
  F  F28  1  0.044437  0.745230  0.174280  1
  F  F29  1  0.539802  0.252403  0.322109  1
  F  F30  1  0.960156  0.252895  0.821487  1
  F  F31  1  0.459314  0.744357  0.680254  1
  F  F32  1  0.413868  0.977441  0.231301  1
  F  F33  1  0.920136  0.035414  0.268162  1
  F  F34  1  0.583887  0.028727  0.769236  1
  F  F35  1  0.083989  0.971468  0.730874  1
