# generated using pymatgen
data_TbPa(SiRu)2
_symmetry_space_group_name_H-M   'P 1'
_cell_length_a   4.32291800
_cell_length_b   7.18292525
_cell_length_c   6.93688690
_cell_angle_alpha   89.69172710
_cell_angle_beta   90.00000000
_cell_angle_gamma   90.00000000
_symmetry_Int_Tables_number   1
_chemical_formula_structural   TbPa(SiRu)2
_chemical_formula_sum   'Tb2 Pa2 Si4 Ru4'
_cell_volume   215.39552289
_cell_formula_units_Z   2
loop_
 _symmetry_equiv_pos_site_id
 _symmetry_equiv_pos_as_xyz
  1  'x, y, z'
loop_
 _atom_site_type_symbol
 _atom_site_label
 _atom_site_symmetry_multiplicity
 _atom_site_fract_x
 _atom_site_fract_y
 _atom_site_fract_z
 _atom_site_occupancy
  Tb  Tb0  1  0.250000  0.484263  0.678047  1
  Tb  Tb1  1  0.750000  0.515737  0.321953  1
  Pa  Pa2  1  0.250000  0.982232  0.829395  1
  Pa  Pa3  1  0.750000  0.017768  0.170605  1
  Si  Si4  1  0.250000  0.307925  0.110994  1
  Si  Si5  1  0.750000  0.692075  0.889006  1
  Si  Si6  1  0.250000  0.796945  0.389622  1
  Si  Si7  1  0.750000  0.203055  0.610378  1
  Ru  Ru8  1  0.750000  0.864895  0.570750  1
  Ru  Ru9  1  0.250000  0.135105  0.429250  1
  Ru  Ru10  1  0.750000  0.347027  0.937143  1
  Ru  Ru11  1  0.250000  0.652973  0.062857  1
