# generated using pymatgen
data_TmUSi5Ru3
_symmetry_space_group_name_H-M   'P 1'
_cell_length_a   8.12081304
_cell_length_b   8.12081325
_cell_length_c   5.69342517
_cell_angle_alpha   70.64031666
_cell_angle_beta   70.64031936
_cell_angle_gamma   93.86250006
_symmetry_Int_Tables_number   1
_chemical_formula_structural   TmUSi5Ru3
_chemical_formula_sum   'Tm2 U2 Si10 Ru6'
_cell_volume   327.51388496
_cell_formula_units_Z   2
loop_
 _symmetry_equiv_pos_site_id
 _symmetry_equiv_pos_as_xyz
  1  'x, y, z'
loop_
 _atom_site_type_symbol
 _atom_site_label
 _atom_site_symmetry_multiplicity
 _atom_site_fract_x
 _atom_site_fract_y
 _atom_site_fract_z
 _atom_site_occupancy
  Tm  Tm0  1  0.867119  0.599161  0.759481  1
  Tm  Tm1  1  0.400839  0.132881  0.740519  1
  U  U2  1  0.132874  0.406579  0.235495  1
  U  U3  1  0.593421  0.867126  0.264505  1
  Si  Si4  1  0.065400  0.261083  0.835291  1
  Si  Si5  1  0.738917  0.934600  0.664709  1
  Si  Si6  1  0.933953  0.736315  0.164808  1
  Si  Si7  1  0.263685  0.066047  0.335192  1
  Si  Si8  1  0.205549  0.794451  0.750000  1
  Si  Si9  1  0.794067  0.205933  0.250000  1
  Si  Si10  1  0.513308  0.486692  0.750000  1
  Si  Si11  1  0.490371  0.509629  0.250000  1
  Si  Si12  1  0.777892  0.222108  0.750000  1
  Si  Si13  1  0.219820  0.780180  0.250000  1
  Ru  Ru14  1  0.255779  0.543602  0.631046  1
  Ru  Ru15  1  0.456398  0.744221  0.868954  1
  Ru  Ru16  1  0.744535  0.454648  0.369759  1
  Ru  Ru17  1  0.545352  0.255465  0.130241  1
  Ru  Ru18  1  0.001475  0.998525  0.750000  1
  Ru  Ru19  1  0.999245  0.000755  0.250000  1
