# generated using pymatgen
data_LuPa7(Pd2Pb)4
_symmetry_space_group_name_H-M   'P 1'
_cell_length_a   7.75888800
_cell_length_b   7.75888771
_cell_length_c   7.40427700
_cell_angle_alpha   90.00000000
_cell_angle_beta   90.00000000
_cell_angle_gamma   89.97540950
_symmetry_Int_Tables_number   1
_chemical_formula_structural   LuPa7(Pd2Pb)4
_chemical_formula_sum   'Lu1 Pa7 Pd8 Pb4'
_cell_volume   445.73995759
_cell_formula_units_Z   1
loop_
 _symmetry_equiv_pos_site_id
 _symmetry_equiv_pos_as_xyz
  1  'x, y, z'
loop_
 _atom_site_type_symbol
 _atom_site_label
 _atom_site_symmetry_multiplicity
 _atom_site_fract_x
 _atom_site_fract_y
 _atom_site_fract_z
 _atom_site_occupancy
  Lu  Lu0  1  0.314868  0.314868  0.000000  1
  Pa  Pa1  1  0.635158  0.635158  0.500000  1
  Pa  Pa2  1  0.810431  0.185481  0.500000  1
  Pa  Pa3  1  0.684376  0.684376  0.000000  1
  Pa  Pa4  1  0.864651  0.136525  0.000000  1
  Pa  Pa5  1  0.185481  0.810431  0.500000  1
  Pa  Pa6  1  0.136525  0.864651  0.000000  1
  Pa  Pa7  1  0.363569  0.363569  0.500000  1
  Pd  Pd8  1  0.635288  0.367817  0.204426  1
  Pd  Pd9  1  0.367817  0.635288  0.795574  1
  Pd  Pd10  1  0.865405  0.865405  0.703571  1
  Pd  Pd11  1  0.635288  0.367817  0.795574  1
  Pd  Pd12  1  0.367817  0.635288  0.204426  1
  Pd  Pd13  1  0.132026  0.132026  0.299631  1
  Pd  Pd14  1  0.865405  0.865405  0.296429  1
  Pd  Pd15  1  0.132026  0.132026  0.700369  1
  Pb  Pb16  1  0.004349  0.497584  0.244897  1
  Pb  Pb17  1  0.497584  0.004349  0.755103  1
  Pb  Pb18  1  0.497584  0.004349  0.244897  1
  Pb  Pb19  1  0.004349  0.497584  0.755103  1
