# generated using pymatgen
data_Er4B16OsRu3
_symmetry_space_group_name_H-M   'P 1'
_cell_length_a   3.54374800
_cell_length_b   5.93310503
_cell_length_c   11.48835406
_cell_angle_alpha   89.98841558
_cell_angle_beta   90.00000000
_cell_angle_gamma   90.00000000
_symmetry_Int_Tables_number   1
_chemical_formula_structural   Er4B16OsRu3
_chemical_formula_sum   'Er4 B16 Os1 Ru3'
_cell_volume   241.54756863
_cell_formula_units_Z   1
loop_
 _symmetry_equiv_pos_site_id
 _symmetry_equiv_pos_as_xyz
  1  'x, y, z'
loop_
 _atom_site_type_symbol
 _atom_site_label
 _atom_site_symmetry_multiplicity
 _atom_site_fract_x
 _atom_site_fract_y
 _atom_site_fract_z
 _atom_site_occupancy
  Er  Er0  1  0.000000  0.628968  0.350389  1
  Er  Er1  1  0.000000  0.371030  0.649610  1
  Er  Er2  1  0.000000  0.129341  0.150428  1
  Er  Er3  1  0.000000  0.870496  0.849677  1
  B  B4  1  0.500000  0.790515  0.186087  1
  B  B5  1  0.500000  0.209687  0.814014  1
  B  B6  1  0.500000  0.290320  0.314317  1
  B  B7  1  0.500000  0.709532  0.685598  1
  B  B8  1  0.500000  0.864190  0.029601  1
  B  B9  1  0.500000  0.135696  0.970020  1
  B  B10  1  0.500000  0.364467  0.470032  1
  B  B11  1  0.500000  0.635452  0.530128  1
  B  B12  1  0.500000  0.887657  0.453222  1
  B  B13  1  0.500000  0.112441  0.546927  1
  B  B14  1  0.500000  0.387283  0.047005  1
  B  B15  1  0.500000  0.612620  0.952902  1
  B  B16  1  0.500000  0.977188  0.307805  1
  B  B17  1  0.500000  0.023245  0.692312  1
  B  B18  1  0.500000  0.476150  0.192325  1
  B  B19  1  0.500000  0.523340  0.807593  1
  Os  Os20  1  0.000000  0.642048  0.093180  1
  Ru  Ru21  1  0.000000  0.358091  0.906884  1
  Ru  Ru22  1  0.000000  0.141055  0.407027  1
  Ru  Ru23  1  0.000000  0.859189  0.592917  1
