# generated using pymatgen
data_Pa4Ga5Os7Pd
_symmetry_space_group_name_H-M   'P 1'
_cell_length_a   7.30561646
_cell_length_b   7.30269967
_cell_length_c   7.30471824
_cell_angle_alpha   110.61033165
_cell_angle_beta   110.62591049
_cell_angle_gamma   107.23876311
_symmetry_Int_Tables_number   1
_chemical_formula_structural   Pa4Ga5Os7Pd
_chemical_formula_sum   'Pa4 Ga5 Os7 Pd1'
_cell_volume   299.51485902
_cell_formula_units_Z   1
loop_
 _symmetry_equiv_pos_site_id
 _symmetry_equiv_pos_as_xyz
  1  'x, y, z'
loop_
 _atom_site_type_symbol
 _atom_site_label
 _atom_site_symmetry_multiplicity
 _atom_site_fract_x
 _atom_site_fract_y
 _atom_site_fract_z
 _atom_site_occupancy
  Pa  Pa0  1  0.988184  0.988179  0.486886  1
  Pa  Pa1  1  0.988172  0.501362  0.000051  1
  Pa  Pa2  1  0.501172  0.988234  0.000045  1
  Pa  Pa3  1  0.501205  0.501262  0.513031  1
  Ga  Ga4  1  0.312825  0.998469  0.314414  1
  Ga  Ga5  1  0.998504  0.312749  0.314241  1
  Ga  Ga6  1  0.312287  0.312338  0.999878  1
  Ga  Ga7  1  0.684415  0.998623  0.685806  1
  Ga  Ga8  1  0.998485  0.684157  0.685582  1
  Os  Os9  1  0.747117  0.247128  0.499999  1
  Os  Os10  1  0.744313  0.495046  0.249197  1
  Os  Os11  1  0.495112  0.245847  0.750785  1
  Os  Os12  1  0.245790  0.495037  0.750699  1
  Os  Os13  1  0.247150  0.747150  0.500050  1
  Os  Os14  1  0.495136  0.744368  0.249310  1
  Os  Os15  1  0.720225  0.720350  0.000039  1
  Pd  Pd16  1  0.019909  0.019701  0.999989  1
