# generated using pymatgen
data_HfNp(TlCl3)4
_symmetry_space_group_name_H-M   'P 1'
_cell_length_a   7.21569500
_cell_length_b   7.21569500
_cell_length_c   10.59758100
_cell_angle_alpha   90.00000000
_cell_angle_beta   90.00000000
_cell_angle_gamma   90.00000000
_symmetry_Int_Tables_number   1
_chemical_formula_structural   HfNp(TlCl3)4
_chemical_formula_sum   'Hf1 Np1 Tl4 Cl12'
_cell_volume   551.77634766
_cell_formula_units_Z   1
loop_
 _symmetry_equiv_pos_site_id
 _symmetry_equiv_pos_as_xyz
  1  'x, y, z'
loop_
 _atom_site_type_symbol
 _atom_site_label
 _atom_site_symmetry_multiplicity
 _atom_site_fract_x
 _atom_site_fract_y
 _atom_site_fract_z
 _atom_site_occupancy
  Hf  Hf0  1  0.000000  0.000000  0.500000  1
  Np  Np1  1  0.500000  0.500000  0.000000  1
  Tl  Tl2  1  0.000000  0.500000  0.253111  1
  Tl  Tl3  1  0.000000  0.500000  0.746889  1
  Tl  Tl4  1  0.500000  0.000000  0.746889  1
  Tl  Tl5  1  0.500000  0.000000  0.253111  1
  Cl  Cl6  1  0.826197  0.706846  0.500000  1
  Cl  Cl7  1  0.188642  0.317807  0.000000  1
  Cl  Cl8  1  0.500000  0.500000  0.753248  1
  Cl  Cl9  1  0.293154  0.826197  0.500000  1
  Cl  Cl10  1  0.000000  0.000000  0.267859  1
  Cl  Cl11  1  0.811358  0.682193  0.000000  1
  Cl  Cl12  1  0.682193  0.188642  0.000000  1
  Cl  Cl13  1  0.317807  0.811358  0.000000  1
  Cl  Cl14  1  0.000000  0.000000  0.732141  1
  Cl  Cl15  1  0.173803  0.293154  0.500000  1
  Cl  Cl16  1  0.500000  0.500000  0.246752  1
  Cl  Cl17  1  0.706846  0.173803  0.500000  1
