# generated using pymatgen
data_Y6Lu10MgIn3Pt4
_symmetry_space_group_name_H-M   'P 1'
_cell_length_a   9.64812803
_cell_length_b   9.58273687
_cell_length_c   9.58273700
_cell_angle_alpha   60.00000300
_cell_angle_beta   60.22395210
_cell_angle_gamma   60.22394406
_symmetry_Int_Tables_number   1
_chemical_formula_structural   Y6Lu10MgIn3Pt4
_chemical_formula_sum   'Y6 Lu10 Mg1 In3 Pt4'
_cell_volume   628.59223786
_cell_formula_units_Z   1
loop_
 _symmetry_equiv_pos_site_id
 _symmetry_equiv_pos_as_xyz
  1  'x, y, z'
loop_
 _atom_site_type_symbol
 _atom_site_label
 _atom_site_symmetry_multiplicity
 _atom_site_fract_x
 _atom_site_fract_y
 _atom_site_fract_z
 _atom_site_occupancy
  Y  Y0  1  0.187392  0.812108  0.812108  1
  Y  Y1  1  0.811890  0.189036  0.189036  1
  Y  Y2  1  0.811890  0.189036  0.810038  1
  Y  Y3  1  0.187392  0.812108  0.188393  1
  Y  Y4  1  0.811890  0.810038  0.189036  1
  Y  Y5  1  0.187392  0.188393  0.812108  1
  Lu  Lu6  1  0.600220  0.599041  0.599041  1
  Lu  Lu7  1  0.600220  0.599041  0.201699  1
  Lu  Lu8  1  0.600220  0.201699  0.599041  1
  Lu  Lu9  1  0.197926  0.600691  0.600691  1
  Lu  Lu10  1  0.060459  0.438457  0.438457  1
  Lu  Lu11  1  0.434647  0.064402  0.064402  1
  Lu  Lu12  1  0.434647  0.064402  0.436548  1
  Lu  Lu13  1  0.060459  0.438457  0.062628  1
  Lu  Lu14  1  0.434647  0.436548  0.064402  1
  Lu  Lu15  1  0.060459  0.062628  0.438457  1
  Mg  Mg16  1  0.519602  0.826799  0.826799  1
  In  In17  1  0.833685  0.832565  0.832565  1
  In  In18  1  0.833685  0.832565  0.501184  1
  In  In19  1  0.833685  0.501184  0.832565  1
  Pt  Pt20  1  0.391654  0.393352  0.393352  1
  Pt  Pt21  1  0.391654  0.393352  0.821643  1
  Pt  Pt22  1  0.391654  0.821643  0.393352  1
  Pt  Pt23  1  0.822634  0.392456  0.392456  1
