# generated using pymatgen
data_Hf18Ti2Fe2Mo5Au
_symmetry_space_group_name_H-M   'P 1'
_cell_length_a   8.45373600
_cell_length_b   8.65036586
_cell_length_c   8.70372380
_cell_angle_alpha   119.80342786
_cell_angle_beta   90.00000000
_cell_angle_gamma   90.00000000
_symmetry_Int_Tables_number   1
_chemical_formula_structural   Hf18Ti2Fe2Mo5Au
_chemical_formula_sum   'Hf18 Ti2 Fe2 Mo5 Au1'
_cell_volume   552.30087718
_cell_formula_units_Z   1
loop_
 _symmetry_equiv_pos_site_id
 _symmetry_equiv_pos_as_xyz
  1  'x, y, z'
loop_
 _atom_site_type_symbol
 _atom_site_label
 _atom_site_symmetry_multiplicity
 _atom_site_fract_x
 _atom_site_fract_y
 _atom_site_fract_z
 _atom_site_occupancy
  Hf  Hf0  1  0.558873  0.797366  0.594737  1
  Hf  Hf1  1  0.557565  0.794094  0.201428  1
  Hf  Hf2  1  0.557570  0.407310  0.201426  1
  Hf  Hf3  1  0.433915  0.204615  0.409228  1
  Hf  Hf4  1  0.441631  0.201455  0.798018  1
  Hf  Hf5  1  0.441658  0.596590  0.798022  1
  Hf  Hf6  1  0.066085  0.204615  0.409228  1
  Hf  Hf7  1  0.058369  0.201455  0.798018  1
  Hf  Hf8  1  0.058342  0.596590  0.798022  1
  Hf  Hf9  1  0.941127  0.797366  0.594737  1
  Hf  Hf10  1  0.942435  0.794094  0.201428  1
  Hf  Hf11  1  0.942430  0.407310  0.201426  1
  Hf  Hf12  1  0.750000  0.459353  0.918676  1
  Hf  Hf13  1  0.750000  0.463273  0.548091  1
  Hf  Hf14  1  0.750000  0.084852  0.548099  1
  Hf  Hf15  1  0.250000  0.540437  0.080928  1
  Hf  Hf16  1  0.250000  0.541224  0.456611  1
  Hf  Hf17  1  0.250000  0.915340  0.456583  1
  Ti  Ti18  1  0.495975  0.999436  0.998864  1
  Ti  Ti19  1  0.004025  0.999436  0.998864  1
  Fe  Fe20  1  0.750000  0.665589  0.331186  1
  Fe  Fe21  1  0.250000  0.333825  0.667599  1
  Mo  Mo22  1  0.750000  0.111302  0.880928  1
  Mo  Mo23  1  0.750000  0.769646  0.880955  1
  Mo  Mo24  1  0.250000  0.884897  0.769845  1
  Mo  Mo25  1  0.250000  0.887529  0.116142  1
  Mo  Mo26  1  0.250000  0.228612  0.116145  1
  Au  Au27  1  0.750000  0.112387  0.224765  1
