# generated using pymatgen
data_Tm8CrTc3C8
_symmetry_space_group_name_H-M   'P 1'
_cell_length_a   5.00821400
_cell_length_b   6.48296583
_cell_length_c   9.71915637
_cell_angle_alpha   90.21759079
_cell_angle_beta   90.00000000
_cell_angle_gamma   90.00000000
_symmetry_Int_Tables_number   1
_chemical_formula_structural   Tm8CrTc3C8
_chemical_formula_sum   'Tm8 Cr1 Tc3 C8'
_cell_volume   315.56007321
_cell_formula_units_Z   1
loop_
 _symmetry_equiv_pos_site_id
 _symmetry_equiv_pos_as_xyz
  1  'x, y, z'
loop_
 _atom_site_type_symbol
 _atom_site_label
 _atom_site_symmetry_multiplicity
 _atom_site_fract_x
 _atom_site_fract_y
 _atom_site_fract_z
 _atom_site_occupancy
  Tm  Tm0  1  0.250000  0.824100  0.942573  1
  Tm  Tm1  1  0.250000  0.321205  0.556062  1
  Tm  Tm2  1  0.750000  0.179240  0.060052  1
  Tm  Tm3  1  0.750000  0.672957  0.441947  1
  Tm  Tm4  1  0.250000  0.466739  0.218297  1
  Tm  Tm5  1  0.250000  0.964877  0.280985  1
  Tm  Tm6  1  0.750000  0.535740  0.782689  1
  Tm  Tm7  1  0.750000  0.035649  0.716554  1
  Cr  Cr8  1  0.750000  0.220098  0.364724  1
  Tc  Tc9  1  0.250000  0.283861  0.868637  1
  Tc  Tc10  1  0.250000  0.782676  0.632146  1
  Tc  Tc11  1  0.750000  0.719743  0.134704  1
  C  C12  1  0.250000  0.051720  0.740634  1
  C  C13  1  0.250000  0.550468  0.758923  1
  C  C14  1  0.750000  0.956992  0.264230  1
  C  C15  1  0.750000  0.444576  0.243860  1
  C  C16  1  0.250000  0.675060  0.447336  1
  C  C17  1  0.250000  0.176020  0.053586  1
  C  C18  1  0.750000  0.314611  0.542734  1
  C  C19  1  0.750000  0.823668  0.949324  1
