# generated using pymatgen
data_BaSrHgAs2
_symmetry_space_group_name_H-M   'P 1'
_cell_length_a   9.17899272
_cell_length_b   9.17899190
_cell_length_c   7.62480800
_cell_angle_alpha   90.00000000
_cell_angle_beta   90.00000000
_cell_angle_gamma   150.88088347
_symmetry_Int_Tables_number   1
_chemical_formula_structural   BaSrHgAs2
_chemical_formula_sum   'Ba2 Sr2 Hg2 As4'
_cell_volume   312.61875012
_cell_formula_units_Z   2
loop_
 _symmetry_equiv_pos_site_id
 _symmetry_equiv_pos_as_xyz
  1  'x, y, z'
loop_
 _atom_site_type_symbol
 _atom_site_label
 _atom_site_symmetry_multiplicity
 _atom_site_fract_x
 _atom_site_fract_y
 _atom_site_fract_z
 _atom_site_occupancy
  Ba  Ba0  1  0.297575  0.702425  0.933312  1
  Ba  Ba1  1  0.702425  0.297575  0.433312  1
  Sr  Sr2  1  0.471615  0.528385  0.269850  1
  Sr  Sr3  1  0.528385  0.471615  0.769850  1
  Hg  Hg4  1  0.096111  0.903889  0.109296  1
  Hg  Hg5  1  0.903889  0.096111  0.609296  1
  As  As6  1  0.060525  0.939475  0.478966  1
  As  As7  1  0.939475  0.060525  0.978966  1
  As  As8  1  0.328832  0.671168  0.504126  1
  As  As9  1  0.671168  0.328832  0.004126  1
