# generated using pymatgen
data_Ac8Tm12Si15Se
_symmetry_space_group_name_H-M   'P 1'
_cell_length_a   7.78255581
_cell_length_b   7.95536566
_cell_length_c   15.16463500
_cell_angle_alpha   89.68368693
_cell_angle_beta   86.44961922
_cell_angle_gamma   89.85082780
_symmetry_Int_Tables_number   1
_chemical_formula_structural   Ac8Tm12Si15Se
_chemical_formula_sum   'Ac8 Tm12 Si15 Se1'
_cell_volume   937.07055148
_cell_formula_units_Z   1
loop_
 _symmetry_equiv_pos_site_id
 _symmetry_equiv_pos_as_xyz
  1  'x, y, z'
loop_
 _atom_site_type_symbol
 _atom_site_label
 _atom_site_symmetry_multiplicity
 _atom_site_fract_x
 _atom_site_fract_y
 _atom_site_fract_z
 _atom_site_occupancy
  Ac  Ac0  1  0.013834  0.174888  0.099386  1
  Ac  Ac1  1  0.986565  0.829339  0.899806  1
  Ac  Ac2  1  0.488830  0.673797  0.900550  1
  Ac  Ac3  1  0.008285  0.827165  0.599364  1
  Ac  Ac4  1  0.513974  0.326377  0.099848  1
  Ac  Ac5  1  0.990320  0.173182  0.398699  1
  Ac  Ac6  1  0.495286  0.315497  0.399091  1
  Ac  Ac7  1  0.512876  0.682418  0.599989  1
  Tm  Tm8  1  0.170805  0.497780  0.754778  1
  Tm  Tm9  1  0.828210  0.504039  0.254710  1
  Tm  Tm10  1  0.328380  0.993839  0.253431  1
  Tm  Tm11  1  0.673787  0.005217  0.746365  1
  Tm  Tm12  1  0.355735  0.157083  0.625208  1
  Tm  Tm13  1  0.645726  0.835232  0.377104  1
  Tm  Tm14  1  0.143541  0.665871  0.374732  1
  Tm  Tm15  1  0.670482  0.824878  0.124749  1
  Tm  Tm16  1  0.845399  0.338853  0.621816  1
  Tm  Tm17  1  0.328843  0.173617  0.873927  1
  Tm  Tm18  1  0.828291  0.326774  0.873840  1
  Tm  Tm19  1  0.169874  0.674148  0.124996  1
  Si  Si20  1  0.042769  0.137786  0.748759  1
  Si  Si21  1  0.954679  0.867214  0.248281  1
  Si  Si22  1  0.454578  0.631554  0.249294  1
  Si  Si23  1  0.541317  0.366737  0.749594  1
  Si  Si24  1  0.304478  0.878870  0.751894  1
  Si  Si25  1  0.698696  0.115249  0.247436  1
  Si  Si26  1  0.198769  0.382267  0.248270  1
  Si  Si27  1  0.806763  0.622055  0.750790  1
  Si  Si28  1  0.804281  0.542385  0.452405  1
  Si  Si29  1  0.306644  0.952849  0.454647  1
  Si  Si30  1  0.856938  0.534444  0.038975  1
  Si  Si31  1  0.691678  0.045598  0.547224  1
  Si  Si32  1  0.142860  0.468361  0.959179  1
  Si  Si33  1  0.641845  0.034414  0.959809  1
  Si  Si34  1  0.356946  0.966688  0.039539  1
  Se  Se35  1  0.197717  0.453534  0.551512  1
