# generated using pymatgen
data_Dy4Ru3PtF28
_symmetry_space_group_name_H-M   'P 1'
_cell_length_a   5.57712368
_cell_length_b   8.92007382
_cell_length_c   11.95529908
_cell_angle_alpha   63.14451446
_cell_angle_beta   89.84228339
_cell_angle_gamma   90.03728540
_symmetry_Int_Tables_number   1
_chemical_formula_structural   Dy4Ru3PtF28
_chemical_formula_sum   'Dy4 Ru3 Pt1 F28'
_cell_volume   530.60803813
_cell_formula_units_Z   1
loop_
 _symmetry_equiv_pos_site_id
 _symmetry_equiv_pos_as_xyz
  1  'x, y, z'
loop_
 _atom_site_type_symbol
 _atom_site_label
 _atom_site_symmetry_multiplicity
 _atom_site_fract_x
 _atom_site_fract_y
 _atom_site_fract_z
 _atom_site_occupancy
  Dy  Dy0  1  0.758243  0.814035  0.766334  1
  Dy  Dy1  1  0.258973  0.188683  0.732712  1
  Dy  Dy2  1  0.240969  0.187169  0.231138  1
  Dy  Dy3  1  0.742053  0.807180  0.270702  1
  Ru  Ru4  1  0.754018  0.273829  0.955527  1
  Ru  Ru5  1  0.255108  0.725726  0.545897  1
  Ru  Ru6  1  0.245681  0.727664  0.044092  1
  Pt  Pt7  1  0.743269  0.271090  0.455809  1
  F  F8  1  0.453401  0.706901  0.918889  1
  F  F9  1  0.941067  0.299865  0.580856  1
  F  F10  1  0.544457  0.294634  0.080571  1
  F  F11  1  0.051478  0.704452  0.419894  1
  F  F12  1  0.446135  0.283503  0.541474  1
  F  F13  1  0.956977  0.717040  0.951854  1
  F  F14  1  0.547063  0.716332  0.455213  1
  F  F15  1  0.042645  0.285096  0.048012  1
  F  F16  1  0.763788  0.512787  0.859662  1
  F  F17  1  0.266168  0.485452  0.640465  1
  F  F18  1  0.236042  0.488237  0.142002  1
  F  F19  1  0.732203  0.517181  0.354725  1
  F  F20  1  0.755474  0.036077  0.048466  1
  F  F21  1  0.255874  0.963866  0.453090  1
  F  F22  1  0.244244  0.966369  0.949962  1
  F  F23  1  0.744242  0.024912  0.550025  1
  F  F24  1  0.971047  0.727782  0.642925  1
  F  F25  1  0.471970  0.268287  0.858650  1
  F  F26  1  0.034592  0.267914  0.363196  1
  F  F27  1  0.528119  0.735495  0.139346  1
  F  F28  1  0.042483  0.751800  0.170394  1
  F  F29  1  0.549822  0.248614  0.326253  1
  F  F30  1  0.959797  0.252020  0.828485  1
  F  F31  1  0.455442  0.745967  0.674377  1
  F  F32  1  0.426409  0.972858  0.234453  1
  F  F33  1  0.926187  0.024972  0.267503  1
  F  F34  1  0.577416  0.030568  0.765347  1
  F  F35  1  0.077146  0.975642  0.731697  1
