# generated using pymatgen
data_Ho4Ga24Pd5Pt4
_symmetry_space_group_name_H-M   'P 1'
_cell_length_a   7.50099277
_cell_length_b   7.57569857
_cell_length_c   13.39697183
_cell_angle_alpha   84.78523910
_cell_angle_beta   79.59924511
_cell_angle_gamma   60.10742361
_symmetry_Int_Tables_number   1
_chemical_formula_structural   Ho4Ga24Pd5Pt4
_chemical_formula_sum   'Ho4 Ga24 Pd5 Pt4'
_cell_volume   649.16100721
_cell_formula_units_Z   1
loop_
 _symmetry_equiv_pos_site_id
 _symmetry_equiv_pos_as_xyz
  1  'x, y, z'
loop_
 _atom_site_type_symbol
 _atom_site_label
 _atom_site_symmetry_multiplicity
 _atom_site_fract_x
 _atom_site_fract_y
 _atom_site_fract_z
 _atom_site_occupancy
  Ho  Ho0  1  0.393217  0.169076  0.810514  1
  Ho  Ho1  1  0.606783  0.830924  0.189486  1
  Ho  Ho2  1  0.732564  0.497876  0.810614  1
  Ho  Ho3  1  0.267436  0.502124  0.189386  1
  Ga  Ga4  1  0.685493  0.834027  0.938584  1
  Ga  Ga5  1  0.314507  0.165973  0.061416  1
  Ga  Ga6  1  0.146127  0.832460  0.559602  1
  Ga  Ga7  1  0.853873  0.167540  0.440398  1
  Ga  Ga8  1  0.478410  0.167193  0.556563  1
  Ga  Ga9  1  0.521590  0.832807  0.443437  1
  Ga  Ga10  1  0.218923  0.166265  0.324556  1
  Ga  Ga11  1  0.781077  0.833735  0.675444  1
  Ga  Ga12  1  0.436107  0.504237  0.674786  1
  Ga  Ga13  1  0.563893  0.495763  0.325214  1
  Ga  Ga14  1  0.106970  0.163506  0.674386  1
  Ga  Ga15  1  0.893030  0.836494  0.325614  1
  Ga  Ga16  1  0.357917  0.497704  0.938716  1
  Ga  Ga17  1  0.642083  0.502296  0.061284  1
  Ga  Ga18  1  0.019670  0.169658  0.943852  1
  Ga  Ga19  1  0.980330  0.830342  0.056148  1
  Ga  Ga20  1  0.185920  0.499358  0.443319  1
  Ga  Ga21  1  0.814080  0.500642  0.556681  1
  Ga  Ga22  1  0.734811  0.163402  0.181888  1
  Ga  Ga23  1  0.265189  0.836598  0.818112  1
  Ga  Ga24  1  0.060837  0.630544  0.816932  1
  Ga  Ga25  1  0.939163  0.369456  0.183068  1
  Ga  Ga26  1  0.855697  0.040367  0.817300  1
  Ga  Ga27  1  0.144303  0.959633  0.182700  1
  Pd  Pd28  1  0.117995  0.495086  0.639078  1
  Pd  Pd29  1  0.882005  0.504914  0.360922  1
  Pd  Pd30  1  0.660271  0.169801  0.999427  1
  Pd  Pd31  1  0.339729  0.830199  0.000573  1
  Pd  Pd32  1  0.000000  0.500000  0.000000  1
  Pt  Pt33  1  0.540195  0.167126  0.360391  1
  Pt  Pt34  1  0.459805  0.832874  0.639609  1
  Pt  Pt35  1  0.778860  0.172524  0.637305  1
  Pt  Pt36  1  0.221140  0.827476  0.362695  1
