# generated using pymatgen
data_SrTb4Ho2CoI12
_symmetry_space_group_name_H-M   'P 1'
_cell_length_a   9.74222604
_cell_length_b   9.80031573
_cell_length_c   9.80618108
_cell_angle_alpha   106.24608292
_cell_angle_beta   106.29495663
_cell_angle_gamma   106.01516883
_symmetry_Int_Tables_number   1
_chemical_formula_structural   SrTb4Ho2CoI12
_chemical_formula_sum   'Sr1 Tb4 Ho2 Co1 I12'
_cell_volume   796.41684174
_cell_formula_units_Z   1
loop_
 _symmetry_equiv_pos_site_id
 _symmetry_equiv_pos_as_xyz
  1  'x, y, z'
loop_
 _atom_site_type_symbol
 _atom_site_label
 _atom_site_symmetry_multiplicity
 _atom_site_fract_x
 _atom_site_fract_y
 _atom_site_fract_z
 _atom_site_occupancy
  Sr  Sr0  1  0.499822  0.500221  0.499968  1
  Tb  Tb1  1  0.278282  0.018531  0.088212  1
  Tb  Tb2  1  0.981017  0.907045  0.705865  1
  Tb  Tb3  1  0.907478  0.706213  0.980085  1
  Tb  Tb4  1  0.721860  0.981666  0.912659  1
  Ho  Ho5  1  0.019290  0.093140  0.291017  1
  Ho  Ho6  1  0.091524  0.290378  0.019844  1
  Co  Co7  1  0.000052  0.999676  0.999868  1
  I  I8  1  0.132750  0.447357  0.366284  1
  I  I9  1  0.445686  0.366187  0.133793  1
  I  I10  1  0.365908  0.134462  0.446539  1
  I  I11  1  0.866150  0.550692  0.631803  1
  I  I12  1  0.551984  0.633892  0.865368  1
  I  I13  1  0.632058  0.865886  0.553738  1
  I  I14  1  0.680801  0.074248  0.224356  1
  I  I15  1  0.073818  0.225454  0.677374  1
  I  I16  1  0.225233  0.677662  0.074822  1
  I  I17  1  0.322223  0.926859  0.777918  1
  I  I18  1  0.927283  0.778758  0.324558  1
  I  I19  1  0.776779  0.321673  0.925927  1
