# generated using pymatgen
data_Ca3Ho(Sn5Pt3)2
_symmetry_space_group_name_H-M   'P 1'
_cell_length_a   13.66998200
_cell_length_b   13.66998172
_cell_length_c   7.52441100
_cell_angle_alpha   90.25558144
_cell_angle_beta   89.74441856
_cell_angle_gamma   160.90768856
_symmetry_Int_Tables_number   1
_chemical_formula_structural   Ca3Ho(Sn5Pt3)2
_chemical_formula_sum   'Ca3 Ho1 Sn10 Pt6'
_cell_volume   459.90979687
_cell_formula_units_Z   1
loop_
 _symmetry_equiv_pos_site_id
 _symmetry_equiv_pos_as_xyz
  1  'x, y, z'
loop_
 _atom_site_type_symbol
 _atom_site_label
 _atom_site_symmetry_multiplicity
 _atom_site_fract_x
 _atom_site_fract_y
 _atom_site_fract_z
 _atom_site_occupancy
  Ca  Ca0  1  0.172791  0.827209  0.745316  1
  Ca  Ca1  1  0.827197  0.172803  0.245933  1
  Ca  Ca2  1  0.477308  0.522692  0.763099  1
  Ho  Ho3  1  0.522834  0.477166  0.261976  1
  Sn  Sn4  1  0.881014  0.118986  0.768148  1
  Sn  Sn5  1  0.119362  0.880638  0.271390  1
  Sn  Sn6  1  0.702422  0.297578  0.449856  1
  Sn  Sn7  1  0.297321  0.702679  0.948251  1
  Sn  Sn8  1  0.598374  0.401626  0.887636  1
  Sn  Sn9  1  0.402366  0.597634  0.389515  1
  Sn  Sn10  1  0.953342  0.046658  0.102957  1
  Sn  Sn11  1  0.046289  0.953711  0.606238  1
  Sn  Sn12  1  0.289888  0.710112  0.521057  1
  Sn  Sn13  1  0.709866  0.290134  0.019919  1
  Pt  Pt14  1  0.051044  0.948956  0.989543  1
  Pt  Pt15  1  0.950952  0.049048  0.475222  1
  Pt  Pt16  1  0.776650  0.223350  0.728905  1
  Pt  Pt17  1  0.223023  0.776977  0.227960  1
  Pt  Pt18  1  0.395836  0.604164  0.025516  1
  Pt  Pt19  1  0.602119  0.397881  0.515562  1
