# generated using pymatgen
data_Ho2ZrSn3Rh10
_symmetry_space_group_name_H-M   'P 1'
_cell_length_a   5.66944787
_cell_length_b   5.66944760
_cell_length_c   8.49555000
_cell_angle_alpha   89.99637665
_cell_angle_beta   89.99638051
_cell_angle_gamma   98.02961110
_symmetry_Int_Tables_number   1
_chemical_formula_structural   Ho2ZrSn3Rh10
_chemical_formula_sum   'Ho2 Zr1 Sn3 Rh10'
_cell_volume   270.39221427
_cell_formula_units_Z   1
loop_
 _symmetry_equiv_pos_site_id
 _symmetry_equiv_pos_as_xyz
  1  'x, y, z'
loop_
 _atom_site_type_symbol
 _atom_site_label
 _atom_site_symmetry_multiplicity
 _atom_site_fract_x
 _atom_site_fract_y
 _atom_site_fract_z
 _atom_site_occupancy
  Ho  Ho0  1  0.782212  0.217788  0.500000  1
  Ho  Ho1  1  0.218419  0.781581  0.000000  1
  Zr  Zr2  1  0.784259  0.215741  0.000000  1
  Sn  Sn3  1  0.506760  0.491033  0.751372  1
  Sn  Sn4  1  0.508967  0.493240  0.248628  1
  Sn  Sn5  1  0.207662  0.792338  0.500000  1
  Rh  Rh6  1  0.722974  0.725912  0.999555  1
  Rh  Rh7  1  0.720372  0.721917  0.500433  1
  Rh  Rh8  1  0.274088  0.277026  0.000445  1
  Rh  Rh9  1  0.278083  0.279628  0.499567  1
  Rh  Rh10  1  0.495591  0.989719  0.748879  1
  Rh  Rh11  1  0.495523  0.990409  0.251011  1
  Rh  Rh12  1  0.992485  0.007266  0.244512  1
  Rh  Rh13  1  0.992734  0.007515  0.755488  1
  Rh  Rh14  1  0.009591  0.504477  0.748989  1
  Rh  Rh15  1  0.010281  0.504409  0.251121  1
