# generated using pymatgen
data_Er6Ti4Al12Os7
_symmetry_space_group_name_H-M   'P 1'
_cell_length_a   8.97936098
_cell_length_b   8.97936133
_cell_length_c   8.97936300
_cell_angle_alpha   60.00000490
_cell_angle_beta   60.00000361
_cell_angle_gamma   59.99999945
_symmetry_Int_Tables_number   1
_chemical_formula_structural   Er6Ti4Al12Os7
_chemical_formula_sum   'Er6 Ti4 Al12 Os7'
_cell_volume   511.94279590
_cell_formula_units_Z   1
loop_
 _symmetry_equiv_pos_site_id
 _symmetry_equiv_pos_as_xyz
  1  'x, y, z'
loop_
 _atom_site_type_symbol
 _atom_site_label
 _atom_site_symmetry_multiplicity
 _atom_site_fract_x
 _atom_site_fract_y
 _atom_site_fract_z
 _atom_site_occupancy
  Er  Er0  1  0.708330  0.708330  0.291670  1
  Er  Er1  1  0.291670  0.708330  0.291670  1
  Er  Er2  1  0.708330  0.291670  0.291670  1
  Er  Er3  1  0.291670  0.291670  0.708330  1
  Er  Er4  1  0.708330  0.291670  0.708330  1
  Er  Er5  1  0.291670  0.708330  0.708330  1
  Ti  Ti6  1  0.880086  0.880086  0.359740  1
  Ti  Ti7  1  0.880086  0.359740  0.880086  1
  Ti  Ti8  1  0.359740  0.880086  0.880086  1
  Ti  Ti9  1  0.880086  0.880086  0.880086  1
  Al  Al10  1  0.119108  0.119108  0.642676  1
  Al  Al11  1  0.119108  0.642676  0.119108  1
  Al  Al12  1  0.642676  0.119108  0.119108  1
  Al  Al13  1  0.119108  0.119108  0.119108  1
  Al  Al14  1  0.669310  0.669310  0.992069  1
  Al  Al15  1  0.669310  0.992069  0.669310  1
  Al  Al16  1  0.992069  0.669310  0.669310  1
  Al  Al17  1  0.669310  0.669310  0.669310  1
  Al  Al18  1  0.331181  0.331181  0.006457  1
  Al  Al19  1  0.331181  0.006457  0.331181  1
  Al  Al20  1  0.006457  0.331181  0.331181  1
  Al  Al21  1  0.331181  0.331181  0.331181  1
  Os  Os22  1  0.000000  0.000000  0.000000  1
  Os  Os23  1  0.998818  0.998818  0.501182  1
  Os  Os24  1  0.501182  0.998818  0.501182  1
  Os  Os25  1  0.998818  0.501182  0.501182  1
  Os  Os26  1  0.501182  0.501182  0.998818  1
  Os  Os27  1  0.998818  0.501182  0.998818  1
  Os  Os28  1  0.501182  0.998818  0.998818  1
