# generated using pymatgen
data_TbEu3MgRu
_symmetry_space_group_name_H-M   'P 1'
_cell_length_a   10.12766424
_cell_length_b   10.12766425
_cell_length_c   10.12766400
_cell_angle_alpha   59.99999430
_cell_angle_beta   59.99999424
_cell_angle_gamma   59.99999999
_symmetry_Int_Tables_number   1
_chemical_formula_structural   TbEu3MgRu
_chemical_formula_sum   'Tb4 Eu12 Mg4 Ru4'
_cell_volume   734.53558323
_cell_formula_units_Z   4
loop_
 _symmetry_equiv_pos_site_id
 _symmetry_equiv_pos_as_xyz
  1  'x, y, z'
loop_
 _atom_site_type_symbol
 _atom_site_label
 _atom_site_symmetry_multiplicity
 _atom_site_fract_x
 _atom_site_fract_y
 _atom_site_fract_z
 _atom_site_occupancy
  Tb  Tb0  1  0.337898  0.337898  0.337898  1
  Tb  Tb1  1  0.337898  0.337898  0.986307  1
  Tb  Tb2  1  0.337898  0.986307  0.337898  1
  Tb  Tb3  1  0.986307  0.337898  0.337898  1
  Eu  Eu4  1  0.947628  0.552372  0.552372  1
  Eu  Eu5  1  0.552372  0.947628  0.947628  1
  Eu  Eu6  1  0.552372  0.947628  0.552372  1
  Eu  Eu7  1  0.947628  0.552372  0.947628  1
  Eu  Eu8  1  0.552372  0.552372  0.947628  1
  Eu  Eu9  1  0.947628  0.947628  0.552372  1
  Eu  Eu10  1  0.808937  0.191063  0.191063  1
  Eu  Eu11  1  0.191063  0.808937  0.808937  1
  Eu  Eu12  1  0.191063  0.808937  0.191063  1
  Eu  Eu13  1  0.808937  0.191063  0.808937  1
  Eu  Eu14  1  0.191063  0.191063  0.808937  1
  Eu  Eu15  1  0.808937  0.808937  0.191063  1
  Mg  Mg16  1  0.576858  0.576858  0.576858  1
  Mg  Mg17  1  0.576858  0.576858  0.269427  1
  Mg  Mg18  1  0.576858  0.269427  0.576858  1
  Mg  Mg19  1  0.269427  0.576858  0.576858  1
  Ru  Ru20  1  0.140397  0.140397  0.140397  1
  Ru  Ru21  1  0.140397  0.140397  0.578807  1
  Ru  Ru22  1  0.140397  0.578807  0.140397  1
  Ru  Ru23  1  0.578807  0.140397  0.140397  1
