# generated using pymatgen
data_NpCu2Ir3S8
_symmetry_space_group_name_H-M   'P 1'
_cell_length_a   7.28674587
_cell_length_b   7.28674573
_cell_length_c   6.97954859
_cell_angle_alpha   58.53303234
_cell_angle_beta   58.53303416
_cell_angle_gamma   60.00000159
_symmetry_Int_Tables_number   1
_chemical_formula_structural   NpCu2Ir3S8
_chemical_formula_sum   'Np1 Cu2 Ir3 S8'
_cell_volume   256.08566483
_cell_formula_units_Z   1
loop_
 _symmetry_equiv_pos_site_id
 _symmetry_equiv_pos_as_xyz
  1  'x, y, z'
loop_
 _atom_site_type_symbol
 _atom_site_label
 _atom_site_symmetry_multiplicity
 _atom_site_fract_x
 _atom_site_fract_y
 _atom_site_fract_z
 _atom_site_occupancy
  Np  Np0  1  0.625000  0.625000  0.125000  1
  Cu  Cu1  1  0.002119  0.002119  0.993644  1
  Cu  Cu2  1  0.247881  0.247881  0.256356  1
  Ir  Ir3  1  0.625000  0.625000  0.625000  1
  Ir  Ir4  1  0.125000  0.625000  0.625000  1
  Ir  Ir5  1  0.625000  0.125000  0.625000  1
  S  S6  1  0.386856  0.386856  0.839434  1
  S  S7  1  0.366779  0.366779  0.408359  1
  S  S8  1  0.883221  0.883221  0.841641  1
  S  S9  1  0.863144  0.863144  0.410566  1
  S  S10  1  0.366779  0.858083  0.408359  1
  S  S11  1  0.858083  0.366779  0.408359  1
  S  S12  1  0.391917  0.883221  0.841641  1
  S  S13  1  0.883221  0.391917  0.841641  1
