# generated using pymatgen
data_Sc5ReOsC7
_symmetry_space_group_name_H-M   'P 1'
_cell_length_a   7.82775724
_cell_length_b   7.82775812
_cell_length_c   3.26690700
_cell_angle_alpha   90.00000000
_cell_angle_beta   90.00000000
_cell_angle_gamma   120.42090381
_symmetry_Int_Tables_number   1
_chemical_formula_structural   Sc5ReOsC7
_chemical_formula_sum   'Sc5 Re1 Os1 C7'
_cell_volume   172.61737348
_cell_formula_units_Z   1
loop_
 _symmetry_equiv_pos_site_id
 _symmetry_equiv_pos_as_xyz
  1  'x, y, z'
loop_
 _atom_site_type_symbol
 _atom_site_label
 _atom_site_symmetry_multiplicity
 _atom_site_fract_x
 _atom_site_fract_y
 _atom_site_fract_z
 _atom_site_occupancy
  Sc  Sc0  1  0.083526  0.340635  0.500000  1
  Sc  Sc1  1  0.341720  0.084632  0.500000  1
  Sc  Sc2  1  0.500845  0.499155  0.000000  1
  Sc  Sc3  1  0.915368  0.658280  0.500000  1
  Sc  Sc4  1  0.659365  0.916474  0.500000  1
  Re  Re5  1  0.284852  0.715148  0.000000  1
  Os  Os6  1  0.713306  0.286694  0.000000  1
  C  C7  1  0.999568  0.000432  0.000000  1
  C  C8  1  0.999042  0.501175  0.000000  1
  C  C9  1  0.498825  0.000958  0.000000  1
  C  C10  1  0.173959  0.174413  0.000000  1
  C  C11  1  0.825587  0.826041  0.000000  1
  C  C12  1  0.622642  0.377358  0.500000  1
  C  C13  1  0.381395  0.618605  0.500000  1
