# generated using pymatgen
data_Ba2PaFeO6
_symmetry_space_group_name_H-M   'P 1'
_cell_length_a   6.01214959
_cell_length_b   6.01172700
_cell_length_c   10.41369603
_cell_angle_alpha   106.77391887
_cell_angle_beta   73.23245550
_cell_angle_gamma   119.99675093
_symmetry_Int_Tables_number   1
_chemical_formula_structural   Ba2PaFeO6
_chemical_formula_sum   'Ba4 Pa2 Fe2 O12'
_cell_volume   307.34525606
_cell_formula_units_Z   2
loop_
 _symmetry_equiv_pos_site_id
 _symmetry_equiv_pos_as_xyz
  1  'x, y, z'
loop_
 _atom_site_type_symbol
 _atom_site_label
 _atom_site_symmetry_multiplicity
 _atom_site_fract_x
 _atom_site_fract_y
 _atom_site_fract_z
 _atom_site_occupancy
  Ba  Ba0  1  0.625078  0.375054  0.124920  1
  Ba  Ba1  1  0.124989  0.874937  0.624966  1
  Ba  Ba2  1  0.875010  0.125062  0.375036  1
  Ba  Ba3  1  0.374927  0.624947  0.875075  1
  Pa  Pa4  1  0.250141  0.749984  0.249673  1
  Pa  Pa5  1  0.749857  0.250015  0.750327  1
  Fe  Fe6  1  0.499991  0.499995  0.500000  1
  Fe  Fe7  1  0.999996  0.000000  0.000003  1
  O  O8  1  0.121806  0.365461  0.121712  1
  O  O9  1  0.621465  0.865241  0.622040  1
  O  O10  1  0.378528  0.621962  0.377987  1
  O  O11  1  0.878235  0.121937  0.878400  1
  O  O12  1  0.634426  0.877980  0.121612  1
  O  O13  1  0.134424  0.378047  0.622007  1
  O  O14  1  0.378533  0.134758  0.377962  1
  O  O15  1  0.878199  0.634539  0.878289  1
  O  O16  1  0.121770  0.878065  0.121599  1
  O  O17  1  0.621473  0.378039  0.622014  1
  O  O18  1  0.865576  0.621953  0.377993  1
  O  O19  1  0.365575  0.122021  0.878388  1
