# generated using pymatgen
data_Ti4MnTc2Rh
_symmetry_space_group_name_H-M   'P 1'
_cell_length_a   6.15709600
_cell_length_b   4.33765000
_cell_length_c   8.74323800
_cell_angle_alpha   90.00000000
_cell_angle_beta   90.00023893
_cell_angle_gamma   90.00000000
_symmetry_Int_Tables_number   1
_chemical_formula_structural   Ti4MnTc2Rh
_chemical_formula_sum   'Ti8 Mn2 Tc4 Rh2'
_cell_volume   233.50852036
_cell_formula_units_Z   2
loop_
 _symmetry_equiv_pos_site_id
 _symmetry_equiv_pos_as_xyz
  1  'x, y, z'
loop_
 _atom_site_type_symbol
 _atom_site_label
 _atom_site_symmetry_multiplicity
 _atom_site_fract_x
 _atom_site_fract_y
 _atom_site_fract_z
 _atom_site_occupancy
  Ti  Ti0  1  0.003712  0.750000  0.128534  1
  Ti  Ti1  1  0.496364  0.750000  0.128541  1
  Ti  Ti2  1  0.996344  0.249999  0.371476  1
  Ti  Ti3  1  0.503719  0.249999  0.371487  1
  Ti  Ti4  1  0.503763  0.750000  0.620853  1
  Ti  Ti5  1  0.996168  0.750000  0.620845  1
  Ti  Ti6  1  0.496168  0.249999  0.879147  1
  Ti  Ti7  1  0.003758  0.249999  0.879141  1
  Mn  Mn8  1  0.250040  0.249999  0.124093  1
  Mn  Mn9  1  0.750026  0.750000  0.375886  1
  Tc  Tc10  1  0.750021  0.249999  0.126834  1
  Tc  Tc11  1  0.250022  0.750000  0.373169  1
  Tc  Tc12  1  0.749965  0.249999  0.623873  1
  Tc  Tc13  1  0.249982  0.750000  0.876131  1
  Rh  Rh14  1  0.249943  0.249999  0.625414  1
  Rh  Rh15  1  0.750001  0.750000  0.874572  1
