# generated using pymatgen
data_Er3In3Ir2Au
_symmetry_space_group_name_H-M   'P 1'
_cell_length_a   7.68123100
_cell_length_b   7.68123023
_cell_length_c   3.85242100
_cell_angle_alpha   90.00000000
_cell_angle_beta   90.00000000
_cell_angle_gamma   120.00000762
_symmetry_Int_Tables_number   1
_chemical_formula_structural   Er3In3Ir2Au
_chemical_formula_sum   'Er3 In3 Ir2 Au1'
_cell_volume   196.84570727
_cell_formula_units_Z   1
loop_
 _symmetry_equiv_pos_site_id
 _symmetry_equiv_pos_as_xyz
  1  'x, y, z'
loop_
 _atom_site_type_symbol
 _atom_site_label
 _atom_site_symmetry_multiplicity
 _atom_site_fract_x
 _atom_site_fract_y
 _atom_site_fract_z
 _atom_site_occupancy
  Er  Er0  1  0.610942  0.022988  0.500000  1
  Er  Er1  1  0.412046  0.389058  0.500000  1
  Er  Er2  1  0.977012  0.587954  0.500000  1
  In  In3  1  0.998244  0.257462  0.000000  1
  In  In4  1  0.742538  0.740782  0.000000  1
  In  In5  1  0.259218  0.001756  0.000000  1
  Ir  Ir6  1  0.666667  0.333333  0.000000  1
  Ir  Ir7  1  0.000000  0.000000  0.500000  1
  Au  Au8  1  0.333333  0.666667  0.000000  1
