# generated using pymatgen
data_Ce3ScTa2(B2Ru5)2
_symmetry_space_group_name_H-M   'P 1'
_cell_length_a   9.70534049
_cell_length_b   9.70534049
_cell_length_c   3.11394900
_cell_angle_alpha   90.00000000
_cell_angle_beta   90.00000000
_cell_angle_gamma   89.57583032
_symmetry_Int_Tables_number   1
_chemical_formula_structural   Ce3ScTa2(B2Ru5)2
_chemical_formula_sum   'Ce3 Sc1 Ta2 B4 Ru10'
_cell_volume   293.30613470
_cell_formula_units_Z   1
loop_
 _symmetry_equiv_pos_site_id
 _symmetry_equiv_pos_as_xyz
  1  'x, y, z'
loop_
 _atom_site_type_symbol
 _atom_site_label
 _atom_site_symmetry_multiplicity
 _atom_site_fract_x
 _atom_site_fract_y
 _atom_site_fract_z
 _atom_site_occupancy
  Ce  Ce0  1  0.173022  0.326978  0.000000  1
  Ce  Ce1  1  0.324017  0.823120  0.000000  1
  Ce  Ce2  1  0.676880  0.175983  0.000000  1
  Sc  Sc3  1  0.823673  0.676327  0.000000  1
  Ta  Ta4  1  0.505104  0.502726  0.000000  1
  Ta  Ta5  1  0.997274  0.994896  0.000000  1
  B  B6  1  0.626038  0.873962  0.000000  1
  B  B7  1  0.379597  0.120403  0.000000  1
  B  B8  1  0.116323  0.621277  0.000000  1
  B  B9  1  0.878723  0.383677  0.000000  1
  Ru  Ru10  1  0.574513  0.717209  0.500000  1
  Ru  Ru11  1  0.429254  0.281674  0.500000  1
  Ru  Ru12  1  0.067227  0.779803  0.500000  1
  Ru  Ru13  1  0.929918  0.219296  0.500000  1
  Ru  Ru14  1  0.280704  0.570082  0.500000  1
  Ru  Ru15  1  0.720197  0.432773  0.500000  1
  Ru  Ru16  1  0.218326  0.070746  0.500000  1
  Ru  Ru17  1  0.782791  0.925487  0.500000  1
  Ru  Ru18  1  0.500935  0.999065  0.500000  1
  Ru  Ru19  1  0.995485  0.504515  0.500000  1
