# generated using pymatgen
data_Ho9Tm3Co4BiOs
_symmetry_space_group_name_H-M   'P 1'
_cell_length_a   8.25347102
_cell_length_b   8.25985765
_cell_length_c   8.25346995
_cell_angle_alpha   110.57944881
_cell_angle_beta   111.26100228
_cell_angle_gamma   106.58182296
_symmetry_Int_Tables_number   1
_chemical_formula_structural   Ho9Tm3Co4BiOs
_chemical_formula_sum   'Ho9 Tm3 Co4 Bi1 Os1'
_cell_volume   432.46424372
_cell_formula_units_Z   1
loop_
 _symmetry_equiv_pos_site_id
 _symmetry_equiv_pos_as_xyz
  1  'x, y, z'
loop_
 _atom_site_type_symbol
 _atom_site_label
 _atom_site_symmetry_multiplicity
 _atom_site_fract_x
 _atom_site_fract_y
 _atom_site_fract_z
 _atom_site_occupancy
  Ho  Ho0  1  0.279871  0.180963  0.461368  1
  Ho  Ho1  1  0.720814  0.819164  0.539630  1
  Ho  Ho2  1  0.279535  0.819164  0.098348  1
  Ho  Ho3  1  0.719594  0.180963  0.901093  1
  Ho  Ho4  1  0.620630  0.311372  0.308656  1
  Ho  Ho5  1  0.380087  0.689000  0.692041  1
  Ho  Ho6  1  0.002716  0.311372  0.690741  1
  Ho  Ho7  1  0.996959  0.689000  0.308913  1
  Ho  Ho8  1  0.215460  0.411879  0.196421  1
  Tm  Tm9  1  0.784878  0.588397  0.803517  1
  Tm  Tm10  1  0.215096  0.018324  0.803228  1
  Tm  Tm11  1  0.784649  0.980900  0.196251  1
  Co  Co12  1  0.999616  0.373797  0.374182  1
  Co  Co13  1  0.000266  0.626458  0.626192  1
  Co  Co14  1  0.389039  0.889690  0.500650  1
  Co  Co15  1  0.611208  0.111112  0.499904  1
  Bi  Bi16  1  0.500311  0.499882  0.999571  1
  Os  Os17  1  0.999271  0.998564  0.999293  1
