# generated using pymatgen
data_Dy8AlZnPd23
_symmetry_space_group_name_H-M   'P 1'
_cell_length_a   8.26808200
_cell_length_b   8.39723600
_cell_length_c   8.39723600
_cell_angle_alpha   90.00000000
_cell_angle_beta   90.00000000
_cell_angle_gamma   90.00000000
_symmetry_Int_Tables_number   1
_chemical_formula_structural   Dy8AlZnPd23
_chemical_formula_sum   'Dy8 Al1 Zn1 Pd23'
_cell_volume   583.01199904
_cell_formula_units_Z   1
loop_
 _symmetry_equiv_pos_site_id
 _symmetry_equiv_pos_as_xyz
  1  'x, y, z'
loop_
 _atom_site_type_symbol
 _atom_site_label
 _atom_site_symmetry_multiplicity
 _atom_site_fract_x
 _atom_site_fract_y
 _atom_site_fract_z
 _atom_site_occupancy
  Dy  Dy0  1  0.251826  0.244899  0.244899  1
  Dy  Dy1  1  0.747131  0.746514  0.746514  1
  Dy  Dy2  1  0.747131  0.746514  0.253486  1
  Dy  Dy3  1  0.747131  0.253486  0.746514  1
  Dy  Dy4  1  0.251826  0.244899  0.755101  1
  Dy  Dy5  1  0.251826  0.755101  0.244899  1
  Dy  Dy6  1  0.251826  0.755101  0.755101  1
  Dy  Dy7  1  0.747131  0.253486  0.253486  1
  Al  Al8  1  0.000021  0.000000  0.000000  1
  Zn  Zn9  1  0.256561  0.500000  0.500000  1
  Pd  Pd10  1  0.258310  0.500000  0.000000  1
  Pd  Pd11  1  0.739882  0.500000  0.000000  1
  Pd  Pd12  1  0.008590  0.261710  0.500000  1
  Pd  Pd13  1  0.501334  0.262381  0.000000  1
  Pd  Pd14  1  0.008590  0.738290  0.500000  1
  Pd  Pd15  1  0.501334  0.737619  0.000000  1
  Pd  Pd16  1  0.501334  0.000000  0.262381  1
  Pd  Pd17  1  0.258310  0.000000  0.500000  1
  Pd  Pd18  1  0.501334  0.000000  0.737619  1
  Pd  Pd19  1  0.739882  0.000000  0.500000  1
  Pd  Pd20  1  0.008590  0.500000  0.261710  1
  Pd  Pd21  1  0.008590  0.500000  0.738290  1
  Pd  Pd22  1  0.747962  0.500000  0.500000  1
  Pd  Pd23  1  0.492328  0.256427  0.500000  1
  Pd  Pd24  1  0.492328  0.743573  0.500000  1
  Pd  Pd25  1  0.492328  0.500000  0.256427  1
  Pd  Pd26  1  0.492328  0.500000  0.743573  1
  Pd  Pd27  1  0.292952  0.000000  0.000000  1
  Pd  Pd28  1  0.709587  0.000000  0.000000  1
  Pd  Pd29  1  0.997924  0.288668  0.000000  1
  Pd  Pd30  1  0.997924  0.711332  0.000000  1
  Pd  Pd31  1  0.997924  0.000000  0.288668  1
  Pd  Pd32  1  0.997924  0.000000  0.711332  1
