# generated using pymatgen
data_TbTh2Zn3CuPd2
_symmetry_space_group_name_H-M   'P 1'
_cell_length_a   7.35773100
_cell_length_b   7.35600400
_cell_length_c   3.97172400
_cell_angle_alpha   90.00000000
_cell_angle_beta   90.00000000
_cell_angle_gamma   120.00776209
_symmetry_Int_Tables_number   1
_chemical_formula_structural   TbTh2Zn3CuPd2
_chemical_formula_sum   'Tb1 Th2 Zn3 Cu1 Pd2'
_cell_volume   186.14937453
_cell_formula_units_Z   1
loop_
 _symmetry_equiv_pos_site_id
 _symmetry_equiv_pos_as_xyz
  1  'x, y, z'
loop_
 _atom_site_type_symbol
 _atom_site_label
 _atom_site_symmetry_multiplicity
 _atom_site_fract_x
 _atom_site_fract_y
 _atom_site_fract_z
 _atom_site_occupancy
  Tb  Tb0  1  0.406692  0.000000  0.000000  1
  Th  Th1  1  0.999842  0.410731  0.000000  1
  Th  Th2  1  0.589112  0.589269  0.000000  1
  Zn  Zn3  1  0.007026  0.770507  0.500000  1
  Zn  Zn4  1  0.236519  0.229493  0.500000  1
  Zn  Zn5  1  0.757882  0.000000  0.500000  1
  Cu  Cu6  1  0.999213  0.000000  0.000000  1
  Pd  Pd7  1  0.333052  0.662390  0.500000  1
  Pd  Pd8  1  0.670662  0.337610  0.500000  1
