# generated using pymatgen
data_Ta2HRh6
_symmetry_space_group_name_H-M   'P 1'
_cell_length_a   5.55670552
_cell_length_b   5.55670510
_cell_length_c   5.55670500
_cell_angle_alpha   59.99999463
_cell_angle_beta   59.99999713
_cell_angle_gamma   60.00001277
_symmetry_Int_Tables_number   1
_chemical_formula_structural   Ta2HRh6
_chemical_formula_sum   'Ta2 H1 Rh6'
_cell_volume   121.32130927
_cell_formula_units_Z   1
loop_
 _symmetry_equiv_pos_site_id
 _symmetry_equiv_pos_as_xyz
  1  'x, y, z'
loop_
 _atom_site_type_symbol
 _atom_site_label
 _atom_site_symmetry_multiplicity
 _atom_site_fract_x
 _atom_site_fract_y
 _atom_site_fract_z
 _atom_site_occupancy
  Ta  Ta0  1  0.249999  0.249999  0.249999  1
  Ta  Ta1  1  0.750000  0.750000  0.750000  1
  H  H2  1  0.000000  0.000000  0.000000  1
  Rh  Rh3  1  0.747858  0.252142  0.252142  1
  Rh  Rh4  1  0.747858  0.747858  0.252142  1
  Rh  Rh5  1  0.252142  0.747858  0.252142  1
  Rh  Rh6  1  0.252142  0.747858  0.747858  1
  Rh  Rh7  1  0.252142  0.252142  0.747858  1
  Rh  Rh8  1  0.747858  0.252142  0.747858  1
