# generated using pymatgen
data_Tb9Y7(CoHg)4
_symmetry_space_group_name_H-M   'P 1'
_cell_length_a   9.49055080
_cell_length_b   9.49055133
_cell_length_c   9.48405900
_cell_angle_alpha   60.02262322
_cell_angle_beta   60.02262139
_cell_angle_gamma   60.19053834
_symmetry_Int_Tables_number   1
_chemical_formula_structural   Tb9Y7(CoHg)4
_chemical_formula_sum   'Tb9 Y7 Co4 Hg4'
_cell_volume   605.10736071
_cell_formula_units_Z   1
loop_
 _symmetry_equiv_pos_site_id
 _symmetry_equiv_pos_as_xyz
  1  'x, y, z'
loop_
 _atom_site_type_symbol
 _atom_site_label
 _atom_site_symmetry_multiplicity
 _atom_site_fract_x
 _atom_site_fract_y
 _atom_site_fract_z
 _atom_site_occupancy
  Tb  Tb0  1  0.597399  0.597399  0.597262  1
  Tb  Tb1  1  0.597399  0.597399  0.207942  1
  Tb  Tb2  1  0.599407  0.206075  0.597258  1
  Tb  Tb3  1  0.206075  0.599407  0.597258  1
  Tb  Tb4  1  0.060165  0.438151  0.440340  1
  Tb  Tb5  1  0.438151  0.060165  0.061343  1
  Tb  Tb6  1  0.438151  0.060165  0.440340  1
  Tb  Tb7  1  0.060165  0.438151  0.061343  1
  Tb  Tb8  1  0.438988  0.438988  0.061012  1
  Y  Y9  1  0.060062  0.060062  0.439938  1
  Y  Y10  1  0.189135  0.810887  0.812053  1
  Y  Y11  1  0.810887  0.189135  0.187924  1
  Y  Y12  1  0.810887  0.189135  0.812053  1
  Y  Y13  1  0.189135  0.810887  0.187924  1
  Y  Y14  1  0.811242  0.811242  0.188758  1
  Y  Y15  1  0.189366  0.189366  0.810634  1
  Co  Co16  1  0.391389  0.391389  0.390030  1
  Co  Co17  1  0.391389  0.391389  0.827193  1
  Co  Co18  1  0.394173  0.827152  0.389338  1
  Co  Co19  1  0.827152  0.394173  0.389338  1
  Hg  Hg20  1  0.834030  0.834030  0.833458  1
  Hg  Hg21  1  0.834030  0.834030  0.498480  1
  Hg  Hg22  1  0.834435  0.496785  0.834389  1
  Hg  Hg23  1  0.496785  0.834435  0.834389  1
