# generated using pymatgen
data_La4Sn8Pt3Rh
_symmetry_space_group_name_H-M   'P 1'
_cell_length_a   9.10349839
_cell_length_b   9.10349842
_cell_length_c   9.69894100
_cell_angle_alpha   90.22531304
_cell_angle_beta   89.77468696
_cell_angle_gamma   149.94464758
_symmetry_Int_Tables_number   1
_chemical_formula_structural   La4Sn8Pt3Rh
_chemical_formula_sum   'La4 Sn8 Pt3 Rh1'
_cell_volume   402.56244686
_cell_formula_units_Z   1
loop_
 _symmetry_equiv_pos_site_id
 _symmetry_equiv_pos_as_xyz
  1  'x, y, z'
loop_
 _atom_site_type_symbol
 _atom_site_label
 _atom_site_symmetry_multiplicity
 _atom_site_fract_x
 _atom_site_fract_y
 _atom_site_fract_z
 _atom_site_occupancy
  La  La0  1  0.500030  0.499970  0.499267  1
  La  La1  1  0.499534  0.500466  0.999373  1
  La  La2  1  0.296563  0.703437  0.248448  1
  La  La3  1  0.703734  0.296266  0.749607  1
  Sn  Sn4  1  0.911267  0.088733  0.746101  1
  Sn  Sn5  1  0.925433  0.074567  0.255460  1
  Sn  Sn6  1  0.086493  0.913507  0.249897  1
  Sn  Sn7  1  0.072237  0.927763  0.750706  1
  Sn  Sn8  1  0.700554  0.299446  0.409776  1
  Sn  Sn9  1  0.303933  0.696067  0.589693  1
  Sn  Sn10  1  0.302350  0.697650  0.906012  1
  Sn  Sn11  1  0.698575  0.301425  0.092568  1
  Pt  Pt12  1  0.147473  0.852527  0.506558  1
  Pt  Pt13  1  0.853801  0.146199  0.007156  1
  Pt  Pt14  1  0.147863  0.852137  0.993136  1
  Rh  Rh15  1  0.850158  0.149842  0.496244  1
