# generated using pymatgen
data_TbYb3DyRu2
_symmetry_space_group_name_H-M   'P 1'
_cell_length_a   8.48561221
_cell_length_b   8.48561269
_cell_length_c   7.42689306
_cell_angle_alpha   83.24705140
_cell_angle_beta   83.24704655
_cell_angle_gamma   43.80652168
_symmetry_Int_Tables_number   1
_chemical_formula_structural   TbYb3DyRu2
_chemical_formula_sum   'Tb2 Yb6 Dy2 Ru4'
_cell_volume   367.20183579
_cell_formula_units_Z   2
loop_
 _symmetry_equiv_pos_site_id
 _symmetry_equiv_pos_as_xyz
  1  'x, y, z'
loop_
 _atom_site_type_symbol
 _atom_site_label
 _atom_site_symmetry_multiplicity
 _atom_site_fract_x
 _atom_site_fract_y
 _atom_site_fract_z
 _atom_site_occupancy
  Tb  Tb0  1  0.969153  0.200623  0.080957  1
  Tb  Tb1  1  0.799377  0.030847  0.419043  1
  Yb  Yb2  1  0.202356  0.974614  0.583458  1
  Yb  Yb3  1  0.025386  0.797644  0.916542  1
  Yb  Yb4  1  0.202075  0.365610  0.317017  1
  Yb  Yb5  1  0.634390  0.797925  0.182983  1
  Yb  Yb6  1  0.804194  0.628575  0.678563  1
  Yb  Yb7  1  0.371425  0.195806  0.821437  1
  Dy  Dy8  1  0.565104  0.434896  0.750000  1
  Dy  Dy9  1  0.416337  0.583663  0.250000  1
  Ru  Ru10  1  0.178008  0.603384  0.573063  1
  Ru  Ru11  1  0.396616  0.821992  0.926937  1
  Ru  Ru12  1  0.816879  0.381302  0.418359  1
  Ru  Ru13  1  0.618698  0.183121  0.081641  1
