# generated using pymatgen
data_CaHoGa9Ru5
_symmetry_space_group_name_H-M   'P 1'
_cell_length_a   8.04149835
_cell_length_b   8.04149896
_cell_length_c   8.04149931
_cell_angle_alpha   134.81512185
_cell_angle_beta   134.67226296
_cell_angle_gamma   65.92877900
_symmetry_Int_Tables_number   1
_chemical_formula_structural   CaHoGa9Ru5
_chemical_formula_sum   'Ca1 Ho1 Ga9 Ru5'
_cell_volume   258.33976475
_cell_formula_units_Z   1
loop_
 _symmetry_equiv_pos_site_id
 _symmetry_equiv_pos_as_xyz
  1  'x, y, z'
loop_
 _atom_site_type_symbol
 _atom_site_label
 _atom_site_symmetry_multiplicity
 _atom_site_fract_x
 _atom_site_fract_y
 _atom_site_fract_z
 _atom_site_occupancy
  Ca  Ca0  1  0.500000  0.000000  0.500000  1
  Ho  Ho1  1  0.000000  0.500000  0.500000  1
  Ga  Ga2  1  0.437709  0.858604  0.000653  1
  Ga  Ga3  1  0.142050  0.141396  0.579105  1
  Ga  Ga4  1  0.857950  0.437055  0.999347  1
  Ga  Ga5  1  0.857950  0.858604  0.420895  1
  Ga  Ga6  1  0.562291  0.141396  0.999347  1
  Ga  Ga7  1  0.142050  0.562945  0.000653  1
  Ga  Ga8  1  0.562291  0.562945  0.420895  1
  Ga  Ga9  1  0.000000  0.000000  0.000000  1
  Ga  Ga10  1  0.437709  0.437055  0.579105  1
  Ru  Ru11  1  0.181418  0.181418  0.000000  1
  Ru  Ru12  1  0.818582  0.818582  0.000000  1
  Ru  Ru13  1  0.249720  0.749720  0.500000  1
  Ru  Ru14  1  0.750280  0.250280  0.500000  1
  Ru  Ru15  1  0.500000  0.500000  0.000000  1
