# generated using pymatgen
data_Zn3CoNi4(Mo3N)4
_symmetry_space_group_name_H-M   'P 1'
_cell_length_a   6.73478853
_cell_length_b   6.72024789
_cell_length_c   6.72498891
_cell_angle_alpha   90.17813471
_cell_angle_beta   90.00757964
_cell_angle_gamma   89.90912917
_symmetry_Int_Tables_number   1
_chemical_formula_structural   Zn3CoNi4(Mo3N)4
_chemical_formula_sum   'Zn3 Co1 Ni4 Mo12 N4'
_cell_volume   304.36743236
_cell_formula_units_Z   1
loop_
 _symmetry_equiv_pos_site_id
 _symmetry_equiv_pos_as_xyz
  1  'x, y, z'
loop_
 _atom_site_type_symbol
 _atom_site_label
 _atom_site_symmetry_multiplicity
 _atom_site_fract_x
 _atom_site_fract_y
 _atom_site_fract_z
 _atom_site_occupancy
  Zn  Zn0  1  0.069802  0.064483  0.070818  1
  Zn  Zn1  1  0.321862  0.184056  0.820100  1
  Zn  Zn2  1  0.816314  0.320648  0.181066  1
  Co  Co3  1  0.685436  0.682954  0.682433  1
  Ni  Ni4  1  0.185036  0.818311  0.319329  1
  Ni  Ni5  1  0.434667  0.934168  0.568252  1
  Ni  Ni6  1  0.569579  0.433893  0.931835  1
  Ni  Ni7  1  0.934963  0.567764  0.432447  1
  Mo  Mo8  1  0.128930  0.200425  0.458203  1
  Mo  Mo9  1  0.383378  0.786577  0.947243  1
  Mo  Mo10  1  0.874421  0.701260  0.044517  1
  Mo  Mo11  1  0.202425  0.463214  0.129027  1
  Mo  Mo12  1  0.790879  0.943538  0.381547  1
  Mo  Mo13  1  0.042016  0.870707  0.694881  1
  Mo  Mo14  1  0.452404  0.121320  0.209475  1
  Mo  Mo15  1  0.300034  0.552745  0.624064  1
  Mo  Mo16  1  0.945528  0.383572  0.787323  1
  Mo  Mo17  1  0.542045  0.629081  0.303190  1
  Mo  Mo18  1  0.699757  0.037831  0.871122  1
  Mo  Mo19  1  0.628160  0.305124  0.545937  1
  N  N20  1  0.373247  0.375136  0.376104  1
  N  N21  1  0.624057  0.872264  0.125267  1
  N  N22  1  0.123500  0.626229  0.872247  1
  N  N23  1  0.871557  0.124702  0.623573  1
