# generated using pymatgen
data_Li3Nd2ThAgSn4
_symmetry_space_group_name_H-M   'P 1'
_cell_length_a   8.83808063
_cell_length_b   8.85262803
_cell_length_c   8.85262651
_cell_angle_alpha   149.22810967
_cell_angle_beta   131.17834039
_cell_angle_gamma   58.84304645
_symmetry_Int_Tables_number   1
_chemical_formula_structural   Li3Nd2ThAgSn4
_chemical_formula_sum   'Li3 Nd2 Th1 Ag1 Sn4'
_cell_volume   264.60932213
_cell_formula_units_Z   1
loop_
 _symmetry_equiv_pos_site_id
 _symmetry_equiv_pos_as_xyz
  1  'x, y, z'
loop_
 _atom_site_type_symbol
 _atom_site_label
 _atom_site_symmetry_multiplicity
 _atom_site_fract_x
 _atom_site_fract_y
 _atom_site_fract_z
 _atom_site_occupancy
  Li  Li0  1  0.481923  0.671677  0.810247  1
  Li  Li1  1  0.858899  0.671761  0.187138  1
  Li  Li2  1  0.143074  0.329637  0.813436  1
  Nd  Nd3  1  0.499117  0.998660  0.500456  1
  Nd  Nd4  1  0.130573  0.127851  0.002722  1
  Th  Th5  1  0.872447  0.872128  0.000319  1
  Ag  Ag6  1  0.517240  0.327840  0.189398  1
  Sn  Sn7  1  0.273856  0.784389  0.489466  1
  Sn  Sn8  1  0.720762  0.215442  0.505320  1
  Sn  Sn9  1  0.805925  0.502301  0.303625  1
  Sn  Sn10  1  0.196187  0.498315  0.697871  1
