# generated using pymatgen
data_SmAl4ZnSiPd
_symmetry_space_group_name_H-M   'P 1'
_cell_length_a   4.21860500
_cell_length_b   4.21860500
_cell_length_c   8.16560100
_cell_angle_alpha   90.00000000
_cell_angle_beta   90.00000000
_cell_angle_gamma   90.00000000
_symmetry_Int_Tables_number   1
_chemical_formula_structural   SmAl4ZnSiPd
_chemical_formula_sum   'Sm1 Al4 Zn1 Si1 Pd1'
_cell_volume   145.32016459
_cell_formula_units_Z   1
loop_
 _symmetry_equiv_pos_site_id
 _symmetry_equiv_pos_as_xyz
  1  'x, y, z'
loop_
 _atom_site_type_symbol
 _atom_site_label
 _atom_site_symmetry_multiplicity
 _atom_site_fract_x
 _atom_site_fract_y
 _atom_site_fract_z
 _atom_site_occupancy
  Sm  Sm0  1  0.000000  0.000000  0.499303  1
  Al  Al1  1  0.000000  0.500000  0.176398  1
  Al  Al2  1  0.000000  0.500000  0.827442  1
  Al  Al3  1  0.500000  0.000000  0.176398  1
  Al  Al4  1  0.500000  0.000000  0.827442  1
  Zn  Zn5  1  0.500000  0.500000  0.354015  1
  Si  Si6  1  0.500000  0.500000  0.642237  1
  Pd  Pd7  1  0.000000  0.000000  0.996765  1
