# generated using pymatgen
data_YHoCo2(Re2C)2
_symmetry_space_group_name_H-M   'P 1'
_cell_length_a   5.66515527
_cell_length_b   5.66515615
_cell_length_c   7.47362200
_cell_angle_alpha   90.00000000
_cell_angle_beta   90.00000000
_cell_angle_gamma   140.34553904
_symmetry_Int_Tables_number   1
_chemical_formula_structural   YHoCo2(Re2C)2
_chemical_formula_sum   'Y1 Ho1 Co2 Re4 C2'
_cell_volume   153.06706354
_cell_formula_units_Z   1
loop_
 _symmetry_equiv_pos_site_id
 _symmetry_equiv_pos_as_xyz
  1  'x, y, z'
loop_
 _atom_site_type_symbol
 _atom_site_label
 _atom_site_symmetry_multiplicity
 _atom_site_fract_x
 _atom_site_fract_y
 _atom_site_fract_z
 _atom_site_occupancy
  Y  Y0  1  0.465589  0.534411  0.750000  1
  Ho  Ho1  1  0.534274  0.465726  0.250000  1
  Co  Co2  1  0.259534  0.740466  0.250000  1
  Co  Co3  1  0.740439  0.259561  0.750000  1
  Re  Re4  1  0.822399  0.177601  0.065810  1
  Re  Re5  1  0.177608  0.822392  0.934668  1
  Re  Re6  1  0.177608  0.822392  0.565332  1
  Re  Re7  1  0.822399  0.177601  0.434190  1
  C  C8  1  0.000075  0.999925  0.000472  1
  C  C9  1  0.000075  0.999925  0.499528  1
