# generated using pymatgen
data_CaHfPa2Sb5
_symmetry_space_group_name_H-M   'P 1'
_cell_length_a   9.23450800
_cell_length_b   9.33273275
_cell_length_c   6.28761500
_cell_angle_alpha   90.00000000
_cell_angle_beta   90.00000000
_cell_angle_gamma   119.65244321
_symmetry_Int_Tables_number   1
_chemical_formula_structural   CaHfPa2Sb5
_chemical_formula_sum   'Ca2 Hf2 Pa4 Sb10'
_cell_volume   470.92259366
_cell_formula_units_Z   2
loop_
 _symmetry_equiv_pos_site_id
 _symmetry_equiv_pos_as_xyz
  1  'x, y, z'
loop_
 _atom_site_type_symbol
 _atom_site_label
 _atom_site_symmetry_multiplicity
 _atom_site_fract_x
 _atom_site_fract_y
 _atom_site_fract_z
 _atom_site_occupancy
  Ca  Ca0  1  0.613826  0.000000  0.250000  1
  Ca  Ca1  1  0.386174  0.000000  0.750000  1
  Hf  Hf2  1  0.000000  0.000000  0.000000  1
  Hf  Hf3  1  0.000000  0.000000  0.500000  1
  Pa  Pa4  1  0.008966  0.617955  0.250000  1
  Pa  Pa5  1  0.991034  0.382045  0.750000  1
  Pa  Pa6  1  0.391010  0.382045  0.250000  1
  Pa  Pa7  1  0.608990  0.617955  0.750000  1
  Sb  Sb8  1  0.265599  0.000000  0.250000  1
  Sb  Sb9  1  0.734401  0.000000  0.750000  1
  Sb  Sb10  1  0.003108  0.269787  0.250000  1
  Sb  Sb11  1  0.996892  0.730213  0.750000  1
  Sb  Sb12  1  0.733321  0.730213  0.250000  1
  Sb  Sb13  1  0.266679  0.269787  0.750000  1
  Sb  Sb14  1  0.326633  0.653266  0.000000  1
  Sb  Sb15  1  0.673367  0.346734  0.000000  1
  Sb  Sb16  1  0.673367  0.346734  0.500000  1
  Sb  Sb17  1  0.326633  0.653266  0.500000  1
