# generated using pymatgen
data_Tm4BeB4Ir9
_symmetry_space_group_name_H-M   'P 1'
_cell_length_a   10.65005646
_cell_length_b   10.65005647
_cell_length_c   10.65005749
_cell_angle_alpha   29.74863952
_cell_angle_beta   29.74864211
_cell_angle_gamma   29.74864691
_symmetry_Int_Tables_number   1
_chemical_formula_structural   Tm4BeB4Ir9
_chemical_formula_sum   'Tm4 Be1 B4 Ir9'
_cell_volume   263.34666742
_cell_formula_units_Z   1
loop_
 _symmetry_equiv_pos_site_id
 _symmetry_equiv_pos_as_xyz
  1  'x, y, z'
loop_
 _atom_site_type_symbol
 _atom_site_label
 _atom_site_symmetry_multiplicity
 _atom_site_fract_x
 _atom_site_fract_y
 _atom_site_fract_z
 _atom_site_occupancy
  Tm  Tm0  1  0.150815  0.150815  0.150815  1
  Tm  Tm1  1  0.949515  0.949515  0.949515  1
  Tm  Tm2  1  0.849185  0.849185  0.849185  1
  Tm  Tm3  1  0.050485  0.050485  0.050485  1
  Be  Be4  1  0.500000  0.500000  0.500000  1
  B  B5  1  0.614935  0.614935  0.614935  1
  B  B6  1  0.719018  0.719018  0.719018  1
  B  B7  1  0.385065  0.385065  0.385065  1
  B  B8  1  0.280982  0.280982  0.280982  1
  Ir  Ir9  1  0.400080  0.898278  0.400080  1
  Ir  Ir10  1  0.898278  0.400080  0.400080  1
  Ir  Ir11  1  0.500000  0.500000  0.000000  1
  Ir  Ir12  1  0.500000  0.000000  0.500000  1
  Ir  Ir13  1  0.000000  0.500000  0.500000  1
  Ir  Ir14  1  0.599920  0.101722  0.599920  1
  Ir  Ir15  1  0.599920  0.599920  0.101722  1
  Ir  Ir16  1  0.101722  0.599920  0.599920  1
  Ir  Ir17  1  0.400080  0.400080  0.898278  1
