# generated using pymatgen
data_Tb6Al24ZnFe3Ru4
_symmetry_space_group_name_H-M   'P 1'
_cell_length_a   8.79939084
_cell_length_b   8.79939045
_cell_length_c   9.46197264
_cell_angle_alpha   90.07932637
_cell_angle_beta   89.92067960
_cell_angle_gamma   119.99112355
_symmetry_Int_Tables_number   1
_chemical_formula_structural   Tb6Al24ZnFe3Ru4
_chemical_formula_sum   'Tb6 Al24 Zn1 Fe3 Ru4'
_cell_volume   634.53531811
_cell_formula_units_Z   1
loop_
 _symmetry_equiv_pos_site_id
 _symmetry_equiv_pos_as_xyz
  1  'x, y, z'
loop_
 _atom_site_type_symbol
 _atom_site_label
 _atom_site_symmetry_multiplicity
 _atom_site_fract_x
 _atom_site_fract_y
 _atom_site_fract_z
 _atom_site_occupancy
  Tb  Tb0  1  0.384716  0.191976  0.254921  1
  Tb  Tb1  1  0.806321  0.193679  0.248481  1
  Tb  Tb2  1  0.808024  0.615284  0.254921  1
  Tb  Tb3  1  0.615284  0.808024  0.745079  1
  Tb  Tb4  1  0.193679  0.806321  0.751519  1
  Tb  Tb5  1  0.191976  0.384716  0.745079  1
  Al  Al6  1  0.439369  0.880863  0.255678  1
  Al  Al7  1  0.119137  0.560631  0.255678  1
  Al  Al8  1  0.435717  0.564283  0.245503  1
  Al  Al9  1  0.560631  0.119137  0.744322  1
  Al  Al10  1  0.880863  0.439369  0.744322  1
  Al  Al11  1  0.564283  0.435717  0.754497  1
  Al  Al12  1  0.163526  0.836474  0.424023  1
  Al  Al13  1  0.149473  0.324040  0.420315  1
  Al  Al14  1  0.675960  0.850527  0.420315  1
  Al  Al15  1  0.836474  0.163526  0.575977  1
  Al  Al16  1  0.850527  0.675960  0.579685  1
  Al  Al17  1  0.324040  0.149473  0.579685  1
  Al  Al18  1  0.840485  0.159515  0.923143  1
  Al  Al19  1  0.840679  0.681051  0.925461  1
  Al  Al20  1  0.318949  0.159321  0.925461  1
  Al  Al21  1  0.159515  0.840485  0.076857  1
  Al  Al22  1  0.159321  0.318949  0.074539  1
  Al  Al23  1  0.681051  0.840679  0.074539  1
  Al  Al24  1  0.326238  0.673762  0.518353  1
  Al  Al25  1  0.673762  0.326238  0.481647  1
  Al  Al26  1  0.666288  0.333712  0.013740  1
  Al  Al27  1  0.333712  0.666288  0.986260  1
  Al  Al28  1  0.000535  0.999465  0.243565  1
  Al  Al29  1  0.999465  0.000535  0.756435  1
  Zn  Zn30  1  0.500000  0.500000  0.500000  1
  Fe  Fe31  1  0.000000  0.000000  0.000000  1
  Fe  Fe32  1  0.500000  0.000000  0.500000  1
  Fe  Fe33  1  0.000000  0.500000  0.500000  1
  Ru  Ru34  1  0.000000  0.000000  0.500000  1
  Ru  Ru35  1  0.500000  0.000000  0.000000  1
  Ru  Ru36  1  0.000000  0.500000  0.000000  1
  Ru  Ru37  1  0.500000  0.500000  0.000000  1
