# generated using pymatgen
data_Hf4Ti2Al2PdW3
_symmetry_space_group_name_H-M   'P 1'
_cell_length_a   5.33578610
_cell_length_b   5.33578527
_cell_length_c   8.74152500
_cell_angle_alpha   90.00000000
_cell_angle_beta   90.00000000
_cell_angle_gamma   118.93669587
_symmetry_Int_Tables_number   1
_chemical_formula_structural   Hf4Ti2Al2PdW3
_chemical_formula_sum   'Hf4 Ti2 Al2 Pd1 W3'
_cell_volume   217.80550360
_cell_formula_units_Z   1
loop_
 _symmetry_equiv_pos_site_id
 _symmetry_equiv_pos_as_xyz
  1  'x, y, z'
loop_
 _atom_site_type_symbol
 _atom_site_label
 _atom_site_symmetry_multiplicity
 _atom_site_fract_x
 _atom_site_fract_y
 _atom_site_fract_z
 _atom_site_occupancy
  Hf  Hf0  1  0.667714  0.332286  0.305144  1
  Hf  Hf1  1  0.336924  0.663076  0.182036  1
  Hf  Hf2  1  0.336924  0.663076  0.817964  1
  Hf  Hf3  1  0.667714  0.332286  0.694856  1
  Ti  Ti4  1  0.003899  0.996101  0.256312  1
  Ti  Ti5  1  0.003899  0.996101  0.743688  1
  Al  Al6  1  0.643928  0.835871  0.500000  1
  Al  Al7  1  0.164129  0.356072  0.500000  1
  Pd  Pd8  1  0.163685  0.836315  0.500000  1
  W  W9  1  0.341209  0.164730  0.000000  1
  W  W10  1  0.835270  0.658791  0.000000  1
  W  W11  1  0.834863  0.165137  0.000000  1
