# generated using pymatgen
data_Ho20Bi7Ir4Pb
_symmetry_space_group_name_H-M   'P 1'
_cell_length_a   7.96516927
_cell_length_b   8.99810065
_cell_length_c   12.45675221
_cell_angle_alpha   90.04221204
_cell_angle_beta   90.02755397
_cell_angle_gamma   90.01132565
_symmetry_Int_Tables_number   1
_chemical_formula_structural   Ho20Bi7Ir4Pb
_chemical_formula_sum   'Ho20 Bi7 Ir4 Pb1'
_cell_volume   892.79244239
_cell_formula_units_Z   1
loop_
 _symmetry_equiv_pos_site_id
 _symmetry_equiv_pos_as_xyz
  1  'x, y, z'
loop_
 _atom_site_type_symbol
 _atom_site_label
 _atom_site_symmetry_multiplicity
 _atom_site_fract_x
 _atom_site_fract_y
 _atom_site_fract_z
 _atom_site_occupancy
  Ho  Ho0  1  0.836764  0.748245  0.792498  1
  Ho  Ho1  1  0.161223  0.250121  0.206721  1
  Ho  Ho2  1  0.340599  0.251927  0.707728  1
  Ho  Ho3  1  0.660585  0.750189  0.293253  1
  Ho  Ho4  1  0.377760  0.748155  0.693127  1
  Ho  Ho5  1  0.624566  0.250130  0.307679  1
  Ho  Ho6  1  0.872496  0.251524  0.807647  1
  Ho  Ho7  1  0.124750  0.749825  0.192667  1
  Ho  Ho8  1  0.946871  0.750302  0.501648  1
  Ho  Ho9  1  0.053855  0.249830  0.498372  1
  Ho  Ho10  1  0.447943  0.252224  0.996761  1
  Ho  Ho11  1  0.553827  0.747932  0.000567  1
  Ho  Ho12  1  0.676259  0.042962  0.566365  1
  Ho  Ho13  1  0.324271  0.957379  0.433852  1
  Ho  Ho14  1  0.175266  0.957496  0.933550  1
  Ho  Ho15  1  0.324384  0.542077  0.433688  1
  Ho  Ho16  1  0.824105  0.042192  0.066318  1
  Ho  Ho17  1  0.674431  0.457791  0.568666  1
  Ho  Ho18  1  0.823615  0.457620  0.064933  1
  Ho  Ho19  1  0.177879  0.541485  0.933438  1
  Bi  Bi20  1  0.432912  0.508842  0.173629  1
  Bi  Bi21  1  0.067034  0.508800  0.672554  1
  Bi  Bi22  1  0.433072  0.991441  0.172671  1
  Bi  Bi23  1  0.933418  0.491437  0.327237  1
  Bi  Bi24  1  0.566380  0.008285  0.827125  1
  Bi  Bi25  1  0.933342  0.008659  0.326864  1
  Bi  Bi26  1  0.066349  0.991510  0.673333  1
  Ir  Ir27  1  0.572232  0.750048  0.509005  1
  Ir  Ir28  1  0.427701  0.249732  0.490733  1
  Ir  Ir29  1  0.071195  0.249656  0.990849  1
  Ir  Ir30  1  0.928269  0.749985  0.009173  1
  Pb  Pb31  1  0.566644  0.492200  0.827350  1
