# generated using pymatgen
data_Nd5Y5(SiHg)4
_symmetry_space_group_name_H-M   'P 1'
_cell_length_a   9.25733118
_cell_length_b   8.75612657
_cell_length_c   7.66813108
_cell_angle_alpha   90.03292769
_cell_angle_beta   90.01755788
_cell_angle_gamma   129.66245222
_symmetry_Int_Tables_number   1
_chemical_formula_structural   Nd5Y5(SiHg)4
_chemical_formula_sum   'Nd5 Y5 Si4 Hg4'
_cell_volume   478.49255006
_cell_formula_units_Z   1
loop_
 _symmetry_equiv_pos_site_id
 _symmetry_equiv_pos_as_xyz
  1  'x, y, z'
loop_
 _atom_site_type_symbol
 _atom_site_label
 _atom_site_symmetry_multiplicity
 _atom_site_fract_x
 _atom_site_fract_y
 _atom_site_fract_z
 _atom_site_occupancy
  Nd  Nd0  1  0.067267  0.337296  0.321765  1
  Nd  Nd1  1  0.932631  0.664392  0.678537  1
  Nd  Nd2  1  0.431528  0.165621  0.820055  1
  Nd  Nd3  1  0.787158  0.537995  0.180837  1
  Nd  Nd4  1  0.567354  0.837915  0.180515  1
  Y  Y5  1  0.219811  0.461886  0.823030  1
  Y  Y6  1  0.716720  0.957104  0.676862  1
  Y  Y7  1  0.279073  0.038572  0.323599  1
  Y  Y8  1  0.999714  0.999652  0.000433  1
  Y  Y9  1  0.499745  0.499417  0.500079  1
  Si  Si10  1  0.379029  0.383329  0.120237  1
  Si  Si11  1  0.618330  0.616583  0.881009  1
  Si  Si12  1  0.118524  0.118345  0.619970  1
  Si  Si13  1  0.881064  0.886724  0.381960  1
  Hg  Hg14  1  0.819872  0.255277  0.966305  1
  Hg  Hg15  1  0.190397  0.749478  0.018948  1
  Hg  Hg16  1  0.675078  0.232622  0.479326  1
  Hg  Hg17  1  0.316703  0.757791  0.526535  1
