# generated using pymatgen
data_Sr3Nd(SbPt)4
_symmetry_space_group_name_H-M   'P 1'
_cell_length_a   4.73700600
_cell_length_b   7.74257750
_cell_length_c   8.04968617
_cell_angle_alpha   90.05685625
_cell_angle_beta   90.00000000
_cell_angle_gamma   90.00000000
_symmetry_Int_Tables_number   1
_chemical_formula_structural   Sr3Nd(SbPt)4
_chemical_formula_sum   'Sr3 Nd1 Sb4 Pt4'
_cell_volume   295.23526485
_cell_formula_units_Z   1
loop_
 _symmetry_equiv_pos_site_id
 _symmetry_equiv_pos_as_xyz
  1  'x, y, z'
loop_
 _atom_site_type_symbol
 _atom_site_label
 _atom_site_symmetry_multiplicity
 _atom_site_fract_x
 _atom_site_fract_y
 _atom_site_fract_z
 _atom_site_occupancy
  Sr  Sr0  1  0.250000  0.006559  0.304232  1
  Sr  Sr1  1  0.750000  0.490381  0.801556  1
  Sr  Sr2  1  0.250000  0.508933  0.199368  1
  Nd  Nd3  1  0.750000  0.990500  0.697261  1
  Sb  Sb4  1  0.750000  0.310380  0.410597  1
  Sb  Sb5  1  0.250000  0.181552  0.909325  1
  Sb  Sb6  1  0.250000  0.683077  0.591273  1
  Sb  Sb7  1  0.750000  0.815513  0.087055  1
  Pt  Pt8  1  0.250000  0.819459  0.907909  1
  Pt  Pt9  1  0.250000  0.295573  0.586871  1
  Pt  Pt10  1  0.750000  0.709123  0.424645  1
  Pt  Pt11  1  0.750000  0.188950  0.079908  1
