# generated using pymatgen
data_Ta(Pt3Rh)2
_symmetry_space_group_name_H-M   'P 1'
_cell_length_a   6.30640229
_cell_length_b   6.30640097
_cell_length_c   6.21199352
_cell_angle_alpha   95.73916462
_cell_angle_beta   95.73916687
_cell_angle_gamma   143.41697216
_symmetry_Int_Tables_number   1
_chemical_formula_structural   Ta(Pt3Rh)2
_chemical_formula_sum   'Ta1 Pt6 Rh2'
_cell_volume   139.56784143
_cell_formula_units_Z   1
loop_
 _symmetry_equiv_pos_site_id
 _symmetry_equiv_pos_as_xyz
  1  'x, y, z'
loop_
 _atom_site_type_symbol
 _atom_site_label
 _atom_site_symmetry_multiplicity
 _atom_site_fract_x
 _atom_site_fract_y
 _atom_site_fract_z
 _atom_site_occupancy
  Ta  Ta0  1  0.000000  0.000000  0.000000  1
  Pt  Pt1  1  0.661584  0.338416  0.000000  1
  Pt  Pt2  1  0.338416  0.661584  0.000000  1
  Pt  Pt3  1  0.003251  0.328578  0.331829  1
  Pt  Pt4  1  0.996749  0.671422  0.668171  1
  Pt  Pt5  1  0.671422  0.996749  0.668171  1
  Pt  Pt6  1  0.328578  0.003251  0.331829  1
  Rh  Rh7  1  0.338148  0.338148  0.676298  1
  Rh  Rh8  1  0.661852  0.661852  0.323702  1
