# generated using pymatgen
data_Ac2MnN3
_symmetry_space_group_name_H-M   'P 1'
_cell_length_a   6.41689223
_cell_length_b   6.41689192
_cell_length_c   12.36329900
_cell_angle_alpha   90.00000000
_cell_angle_beta   90.00000000
_cell_angle_gamma   128.08469329
_symmetry_Int_Tables_number   1
_chemical_formula_structural   Ac2MnN3
_chemical_formula_sum   'Ac8 Mn4 N12'
_cell_volume   400.69476194
_cell_formula_units_Z   4
loop_
 _symmetry_equiv_pos_site_id
 _symmetry_equiv_pos_as_xyz
  1  'x, y, z'
loop_
 _atom_site_type_symbol
 _atom_site_label
 _atom_site_symmetry_multiplicity
 _atom_site_fract_x
 _atom_site_fract_y
 _atom_site_fract_z
 _atom_site_occupancy
  Ac  Ac0  1  0.437921  0.562079  0.354779  1
  Ac  Ac1  1  0.562079  0.437921  0.645221  1
  Ac  Ac2  1  0.062079  0.937921  0.854779  1
  Ac  Ac3  1  0.937921  0.062079  0.145221  1
  Ac  Ac4  1  0.142516  0.857484  0.425689  1
  Ac  Ac5  1  0.857484  0.142516  0.574311  1
  Ac  Ac6  1  0.357484  0.642516  0.925689  1
  Ac  Ac7  1  0.642516  0.357484  0.074311  1
  Mn  Mn8  1  0.258343  0.741657  0.164190  1
  Mn  Mn9  1  0.741657  0.258343  0.835810  1
  Mn  Mn10  1  0.241657  0.758343  0.664190  1
  Mn  Mn11  1  0.758343  0.241657  0.335810  1
  N  N12  1  0.155584  0.844416  0.044877  1
  N  N13  1  0.844416  0.155584  0.955123  1
  N  N14  1  0.344416  0.655584  0.544877  1
  N  N15  1  0.655584  0.344416  0.455123  1
  N  N16  1  0.427978  0.572022  0.132039  1
  N  N17  1  0.572022  0.427978  0.867961  1
  N  N18  1  0.072022  0.927978  0.632039  1
  N  N19  1  0.927978  0.072022  0.367961  1
  N  N20  1  0.996731  0.503269  0.250000  1
  N  N21  1  0.503269  0.996731  0.750000  1
  N  N22  1  0.003269  0.496731  0.750000  1
  N  N23  1  0.496731  0.003269  0.250000  1
