# generated using pymatgen
data_CeDyY2(B4Os)4
_symmetry_space_group_name_H-M   'P 1'
_cell_length_a   3.58464300
_cell_length_b   5.98971535
_cell_length_c   11.59787901
_cell_angle_alpha   89.90074660
_cell_angle_beta   90.00000000
_cell_angle_gamma   90.00000000
_symmetry_Int_Tables_number   1
_chemical_formula_structural   CeDyY2(B4Os)4
_chemical_formula_sum   'Ce1 Dy1 Y2 B16 Os4'
_cell_volume   249.01758430
_cell_formula_units_Z   1
loop_
 _symmetry_equiv_pos_site_id
 _symmetry_equiv_pos_as_xyz
  1  'x, y, z'
loop_
 _atom_site_type_symbol
 _atom_site_label
 _atom_site_symmetry_multiplicity
 _atom_site_fract_x
 _atom_site_fract_y
 _atom_site_fract_z
 _atom_site_occupancy
  Ce  Ce0  1  0.000000  0.628486  0.349937  1
  Dy  Dy1  1  0.000000  0.871864  0.850178  1
  Y  Y2  1  0.000000  0.371818  0.651234  1
  Y  Y3  1  0.000000  0.127956  0.148504  1
  B  B4  1  0.500000  0.788413  0.185209  1
  B  B5  1  0.500000  0.211178  0.814278  1
  B  B6  1  0.500000  0.286597  0.313695  1
  B  B7  1  0.500000  0.712608  0.686863  1
  B  B8  1  0.500000  0.863086  0.029955  1
  B  B9  1  0.500000  0.136308  0.969034  1
  B  B10  1  0.500000  0.363442  0.470376  1
  B  B11  1  0.500000  0.637086  0.531378  1
  B  B12  1  0.500000  0.889315  0.454573  1
  B  B13  1  0.500000  0.112831  0.547914  1
  B  B14  1  0.500000  0.386685  0.045533  1
  B  B15  1  0.500000  0.612454  0.952974  1
  B  B16  1  0.500000  0.975534  0.308697  1
  B  B17  1  0.500000  0.025278  0.692114  1
  B  B18  1  0.500000  0.473450  0.190011  1
  B  B19  1  0.500000  0.525613  0.808644  1
  Os  Os20  1  0.000000  0.640672  0.093071  1
  Os  Os21  1  0.000000  0.359674  0.906376  1
  Os  Os22  1  0.000000  0.140680  0.405943  1
  Os  Os23  1  0.000000  0.858974  0.593509  1
