# generated using pymatgen
data_Ho4UP12Rh19
_symmetry_space_group_name_H-M   'P 1'
_cell_length_a   12.72251100
_cell_length_b   12.69209590
_cell_length_c   3.93211800
_cell_angle_alpha   90.00000000
_cell_angle_beta   90.00000000
_cell_angle_gamma   119.92094541
_symmetry_Int_Tables_number   1
_chemical_formula_structural   Ho4UP12Rh19
_chemical_formula_sum   'Ho4 U1 P12 Rh19'
_cell_volume   550.31172329
_cell_formula_units_Z   1
loop_
 _symmetry_equiv_pos_site_id
 _symmetry_equiv_pos_as_xyz
  1  'x, y, z'
loop_
 _atom_site_type_symbol
 _atom_site_label
 _atom_site_symmetry_multiplicity
 _atom_site_fract_x
 _atom_site_fract_y
 _atom_site_fract_z
 _atom_site_occupancy
  Ho  Ho0  1  0.813325  0.813660  0.500000  1
  Ho  Ho1  1  0.186675  0.000334  0.500000  1
  Ho  Ho2  1  0.668177  0.333593  0.000000  1
  Ho  Ho3  1  0.331823  0.665417  0.000000  1
  U  U4  1  0.000000  0.180963  0.500000  1
  P  P5  1  0.000000  0.823586  0.000000  1
  P  P6  1  0.182018  0.180477  0.000000  1
  P  P7  1  0.817982  0.998459  0.000000  1
  P  P8  1  0.683795  0.168059  0.500000  1
  P  P9  1  0.832993  0.517403  0.500000  1
  P  P10  1  0.484488  0.315126  0.500000  1
  P  P11  1  0.167007  0.684410  0.500000  1
  P  P12  1  0.515512  0.830638  0.500000  1
  P  P13  1  0.316205  0.484265  0.500000  1
  P  P14  1  0.000000  0.361926  0.000000  1
  P  P15  1  0.637255  0.636762  0.000000  1
  P  P16  1  0.362745  0.999508  0.000000  1
  Rh  Rh17  1  0.000000  0.544445  0.000000  1
  Rh  Rh18  1  0.454872  0.456080  0.000000  1
  Rh  Rh19  1  0.545128  0.001208  0.000000  1
  Rh  Rh20  1  0.000000  0.717693  0.500000  1
  Rh  Rh21  1  0.283936  0.284723  0.500000  1
  Rh  Rh22  1  0.716064  0.000788  0.500000  1
  Rh  Rh23  1  0.806036  0.179547  0.000000  1
  Rh  Rh24  1  0.820845  0.626547  0.000000  1
  Rh  Rh25  1  0.375671  0.195221  0.000000  1
  Rh  Rh26  1  0.179155  0.805701  0.000000  1
  Rh  Rh27  1  0.624329  0.819550  0.000000  1
  Rh  Rh28  1  0.193964  0.373511  0.000000  1
  Rh  Rh29  1  0.867650  0.356125  0.500000  1
  Rh  Rh30  1  0.642861  0.510154  0.500000  1
  Rh  Rh31  1  0.489055  0.131378  0.500000  1
  Rh  Rh32  1  0.357139  0.867293  0.500000  1
  Rh  Rh33  1  0.510945  0.642323  0.500000  1
  Rh  Rh34  1  0.132350  0.488476  0.500000  1
  Rh  Rh35  1  0.000000  0.004650  0.000000  1
