# generated using pymatgen
data_CeDy3Er4(B6Os)4
_symmetry_space_group_name_H-M   'P 1'
_cell_length_a   3.65711900
_cell_length_b   9.14392390
_cell_length_c   11.52107113
_cell_angle_alpha   89.94918496
_cell_angle_beta   90.00000000
_cell_angle_gamma   90.00000000
_symmetry_Int_Tables_number   1
_chemical_formula_structural   CeDy3Er4(B6Os)4
_chemical_formula_sum   'Ce1 Dy3 Er4 B24 Os4'
_cell_volume   385.26928096
_cell_formula_units_Z   1
loop_
 _symmetry_equiv_pos_site_id
 _symmetry_equiv_pos_as_xyz
  1  'x, y, z'
loop_
 _atom_site_type_symbol
 _atom_site_label
 _atom_site_symmetry_multiplicity
 _atom_site_fract_x
 _atom_site_fract_y
 _atom_site_fract_z
 _atom_site_occupancy
  Ce  Ce0  1  0.000000  0.177576  0.913663  1
  Dy  Dy1  1  0.000000  0.321649  0.413788  1
  Dy  Dy2  1  0.000000  0.678671  0.585427  1
  Dy  Dy3  1  0.000000  0.820437  0.086899  1
  Er  Er4  1  0.000000  0.943692  0.373985  1
  Er  Er5  1  0.000000  0.055651  0.625776  1
  Er  Er6  1  0.000000  0.445271  0.127027  1
  Er  Er7  1  0.000000  0.556363  0.873600  1
  B  B8  1  0.500000  0.554256  0.432921  1
  B  B9  1  0.500000  0.446043  0.567026  1
  B  B10  1  0.500000  0.053922  0.068196  1
  B  B11  1  0.500000  0.945023  0.932172  1
  B  B12  1  0.500000  0.748546  0.419899  1
  B  B13  1  0.500000  0.251495  0.579536  1
  B  B14  1  0.500000  0.248878  0.081349  1
  B  B15  1  0.500000  0.750631  0.919660  1
  B  B16  1  0.500000  0.791365  0.266757  1
  B  B17  1  0.500000  0.209067  0.732528  1
  B  B18  1  0.500000  0.291632  0.234733  1
  B  B19  1  0.500000  0.708362  0.766041  1
  B  B20  1  0.500000  0.631774  0.185226  1
  B  B21  1  0.500000  0.369135  0.814404  1
  B  B22  1  0.500000  0.131596  0.315520  1
  B  B23  1  0.500000  0.867859  0.684155  1
  B  B24  1  0.500000  0.983100  0.214310  1
  B  B25  1  0.500000  0.015502  0.785765  1
  B  B26  1  0.500000  0.483360  0.286819  1
  B  B27  1  0.500000  0.517660  0.712873  1
  B  B28  1  0.500000  0.607733  0.029575  1
  B  B29  1  0.500000  0.394499  0.970955  1
  B  B30  1  0.500000  0.107916  0.470152  1
  B  B31  1  0.500000  0.891967  0.529516  1
  Os  Os32  1  0.000000  0.637933  0.320958  1
  Os  Os33  1  0.000000  0.361703  0.679485  1
  Os  Os34  1  0.000000  0.138081  0.178623  1
  Os  Os35  1  0.000000  0.861647  0.820685  1
