# generated using pymatgen
data_V6TcMo3Os2
_symmetry_space_group_name_H-M   'P 1'
_cell_length_a   4.29248800
_cell_length_b   6.09276500
_cell_length_c   12.99258600
_cell_angle_alpha   90.00000000
_cell_angle_beta   90.00029676
_cell_angle_gamma   90.00000000
_symmetry_Int_Tables_number   1
_chemical_formula_structural   V6TcMo3Os2
_chemical_formula_sum   'V12 Tc2 Mo6 Os4'
_cell_volume   339.79666920
_cell_formula_units_Z   2
loop_
 _symmetry_equiv_pos_site_id
 _symmetry_equiv_pos_as_xyz
  1  'x, y, z'
loop_
 _atom_site_type_symbol
 _atom_site_label
 _atom_site_symmetry_multiplicity
 _atom_site_fract_x
 _atom_site_fract_y
 _atom_site_fract_z
 _atom_site_occupancy
  V  V0  1  0.499999  0.250854  0.000339  1
  V  V1  1  0.499999  0.749146  0.000339  1
  V  V2  1  0.000108  0.249129  0.166327  1
  V  V3  1  0.000108  0.750871  0.166327  1
  V  V4  1  0.500108  0.249750  0.332713  1
  V  V5  1  0.500108  0.750249  0.332713  1
  V  V6  1  0.000000  0.249627  0.499735  1
  V  V7  1  0.000000  0.750374  0.499735  1
  V  V8  1  0.499890  0.250380  0.666944  1
  V  V9  1  0.499890  0.749619  0.666944  1
  V  V10  1  0.999891  0.250253  0.833936  1
  V  V11  1  0.999891  0.749747  0.833936  1
  Tc  Tc12  1  0.999999  0.500000  0.999740  1
  Tc  Tc13  1  0.500099  0.000000  0.166966  1
  Mo  Mo14  1  0.999999  0.000000  0.999071  1
  Mo  Mo15  1  0.500093  0.500000  0.167651  1
  Mo  Mo16  1  0.000094  0.000000  0.334297  1
  Mo  Mo17  1  0.500001  0.500000  0.500023  1
  Mo  Mo18  1  0.999912  0.000000  0.666639  1
  Mo  Mo19  1  0.499907  0.500000  0.832311  1
  Os  Os20  1  0.000092  0.500000  0.333866  1
  Os  Os21  1  0.500002  0.000000  0.500336  1
  Os  Os22  1  0.999907  0.500000  0.666335  1
  Os  Os23  1  0.499909  0.000000  0.832773  1
