# generated using pymatgen
data_Er20InBi7Ir4
_symmetry_space_group_name_H-M   'P 1'
_cell_length_a   7.90143415
_cell_length_b   9.00306298
_cell_length_c   12.38510801
_cell_angle_alpha   90.13043107
_cell_angle_beta   90.22410087
_cell_angle_gamma   90.06051293
_symmetry_Int_Tables_number   1
_chemical_formula_structural   Er20InBi7Ir4
_chemical_formula_sum   'Er20 In1 Bi7 Ir4'
_cell_volume   881.03125929
_cell_formula_units_Z   1
loop_
 _symmetry_equiv_pos_site_id
 _symmetry_equiv_pos_as_xyz
  1  'x, y, z'
loop_
 _atom_site_type_symbol
 _atom_site_label
 _atom_site_symmetry_multiplicity
 _atom_site_fract_x
 _atom_site_fract_y
 _atom_site_fract_z
 _atom_site_occupancy
  Er  Er0  1  0.665963  0.752534  0.710295  1
  Er  Er1  1  0.339171  0.248750  0.293502  1
  Er  Er2  1  0.156493  0.245445  0.790727  1
  Er  Er3  1  0.840274  0.748833  0.207582  1
  Er  Er4  1  0.118337  0.753764  0.806041  1
  Er  Er5  1  0.875752  0.250736  0.191069  1
  Er  Er6  1  0.630751  0.247439  0.691590  1
  Er  Er7  1  0.376974  0.751389  0.308092  1
  Er  Er8  1  0.553256  0.748881  0.998440  1
  Er  Er9  1  0.443819  0.250949  0.001935  1
  Er  Er10  1  0.053607  0.246279  0.504677  1
  Er  Er11  1  0.945373  0.753430  0.500198  1
  Er  Er12  1  0.823670  0.456060  0.932777  1
  Er  Er13  1  0.174709  0.543834  0.066081  1
  Er  Er14  1  0.326715  0.543608  0.567875  1
  Er  Er15  1  0.174131  0.957716  0.066731  1
  Er  Er16  1  0.676402  0.458652  0.434208  1
  Er  Er17  1  0.826872  0.040693  0.927706  1
  Er  Er18  1  0.675615  0.042695  0.434640  1
  Er  Er19  1  0.321980  0.959268  0.568114  1
  In  In20  1  0.931536  0.006225  0.669016  1
  Bi  Bi21  1  0.067018  0.991484  0.326129  1
  Bi  Bi22  1  0.432030  0.991377  0.828686  1
  Bi  Bi23  1  0.069267  0.508555  0.329141  1
  Bi  Bi24  1  0.567244  0.008677  0.171770  1
  Bi  Bi25  1  0.933735  0.491572  0.671561  1
  Bi  Bi26  1  0.566246  0.491202  0.173485  1
  Bi  Bi27  1  0.432402  0.507780  0.826755  1
  Ir  Ir28  1  0.925620  0.749840  0.991080  1
  Ir  Ir29  1  0.072893  0.250203  0.008505  1
  Ir  Ir30  1  0.429202  0.251295  0.509057  1
  Ir  Ir31  1  0.572944  0.750839  0.492536  1
