# generated using pymatgen
data_LiYb2ZnPt2
_symmetry_space_group_name_H-M   'P 1'
_cell_length_a   4.13827400
_cell_length_b   6.98853900
_cell_length_c   8.09862900
_cell_angle_alpha   90.00000000
_cell_angle_beta   90.00000000
_cell_angle_gamma   90.00000000
_symmetry_Int_Tables_number   1
_chemical_formula_structural   LiYb2ZnPt2
_chemical_formula_sum   'Li2 Yb4 Zn2 Pt4'
_cell_volume   234.21631287
_cell_formula_units_Z   2
loop_
 _symmetry_equiv_pos_site_id
 _symmetry_equiv_pos_as_xyz
  1  'x, y, z'
loop_
 _atom_site_type_symbol
 _atom_site_label
 _atom_site_symmetry_multiplicity
 _atom_site_fract_x
 _atom_site_fract_y
 _atom_site_fract_z
 _atom_site_occupancy
  Li  Li0  1  0.250000  0.635197  0.560799  1
  Li  Li1  1  0.250000  0.135197  0.939201  1
  Yb  Yb2  1  0.750000  0.467763  0.817689  1
  Yb  Yb3  1  0.250000  0.033455  0.316249  1
  Yb  Yb4  1  0.750000  0.967763  0.682311  1
  Yb  Yb5  1  0.250000  0.533455  0.183751  1
  Zn  Zn6  1  0.750000  0.363716  0.438435  1
  Zn  Zn7  1  0.750000  0.863716  0.061565  1
  Pt  Pt8  1  0.250000  0.762088  0.881284  1
  Pt  Pt9  1  0.250000  0.262088  0.618716  1
  Pt  Pt10  1  0.750000  0.737781  0.371201  1
  Pt  Pt11  1  0.750000  0.237781  0.128799  1
