# generated using pymatgen
data_Zr8Hg4Pd5Pt3
_symmetry_space_group_name_H-M   'P 1'
_cell_length_a   7.60223894
_cell_length_b   7.60384954
_cell_length_c   6.79489551
_cell_angle_alpha   90.21472423
_cell_angle_beta   89.90281570
_cell_angle_gamma   89.99730369
_symmetry_Int_Tables_number   1
_chemical_formula_structural   Zr8Hg4Pd5Pt3
_chemical_formula_sum   'Zr8 Hg4 Pd5 Pt3'
_cell_volume   392.78431609
_cell_formula_units_Z   1
loop_
 _symmetry_equiv_pos_site_id
 _symmetry_equiv_pos_as_xyz
  1  'x, y, z'
loop_
 _atom_site_type_symbol
 _atom_site_label
 _atom_site_symmetry_multiplicity
 _atom_site_fract_x
 _atom_site_fract_y
 _atom_site_fract_z
 _atom_site_occupancy
  Zr  Zr0  1  0.656062  0.656246  0.502698  1
  Zr  Zr1  1  0.812883  0.185218  0.500063  1
  Zr  Zr2  1  0.685739  0.685910  0.998811  1
  Zr  Zr3  1  0.842307  0.152628  0.002261  1
  Zr  Zr4  1  0.185083  0.812684  0.502099  1
  Zr  Zr5  1  0.316478  0.316221  0.999992  1
  Zr  Zr6  1  0.152392  0.842347  0.994832  1
  Zr  Zr7  1  0.346995  0.347173  0.498883  1
  Hg  Hg8  1  0.003118  0.500202  0.250220  1
  Hg  Hg9  1  0.497078  0.004198  0.749149  1
  Hg  Hg10  1  0.498152  0.996540  0.250348  1
  Hg  Hg11  1  0.997583  0.494712  0.748918  1
  Pd  Pd12  1  0.631169  0.369838  0.786032  1
  Pd  Pd13  1  0.369322  0.630958  0.213963  1
  Pd  Pd14  1  0.128060  0.128312  0.280179  1
  Pd  Pd15  1  0.871986  0.872287  0.283943  1
  Pd  Pd16  1  0.130975  0.130393  0.716353  1
  Pt  Pt17  1  0.626167  0.373922  0.223111  1
  Pt  Pt18  1  0.374293  0.626202  0.777187  1
  Pt  Pt19  1  0.874160  0.874011  0.720959  1
