# generated using pymatgen
data_TaAg2P8WO26
_symmetry_space_group_name_H-M   'P 1'
_cell_length_a   7.19957900
_cell_length_b   8.39978208
_cell_length_c   18.07645416
_cell_angle_alpha   89.98462632
_cell_angle_beta   90.00000000
_cell_angle_gamma   90.00000000
_symmetry_Int_Tables_number   1
_chemical_formula_structural   TaAg2P8WO26
_chemical_formula_sum   'Ta2 Ag4 P16 W2 O52'
_cell_volume   1093.17162153
_cell_formula_units_Z   2
loop_
 _symmetry_equiv_pos_site_id
 _symmetry_equiv_pos_as_xyz
  1  'x, y, z'
loop_
 _atom_site_type_symbol
 _atom_site_label
 _atom_site_symmetry_multiplicity
 _atom_site_fract_x
 _atom_site_fract_y
 _atom_site_fract_z
 _atom_site_occupancy
  Ta  Ta0  1  0.761800  0.773341  0.790019  1
  Ta  Ta1  1  0.261800  0.726659  0.209981  1
  Ag  Ag2  1  0.205191  0.723267  0.484727  1
  Ag  Ag3  1  0.705191  0.776733  0.515273  1
  Ag  Ag4  1  0.795531  0.224273  0.014852  1
  Ag  Ag5  1  0.295531  0.275727  0.985148  1
  P  P6  1  0.403489  0.653744  0.671999  1
  P  P7  1  0.903489  0.846256  0.328001  1
  P  P8  1  0.596745  0.153736  0.828423  1
  P  P9  1  0.096745  0.346264  0.171577  1
  P  P10  1  0.097019  0.895219  0.666843  1
  P  P11  1  0.597019  0.604781  0.333157  1
  P  P12  1  0.903838  0.394194  0.833354  1
  P  P13  1  0.403838  0.105806  0.166646  1
  P  P14  1  0.073287  0.318527  0.425482  1
  P  P15  1  0.573287  0.181473  0.574518  1
  P  P16  1  0.926876  0.818452  0.075004  1
  P  P17  1  0.426876  0.681548  0.924996  1
  P  P18  1  0.920293  0.390551  0.573368  1
  P  P19  1  0.420293  0.109449  0.426632  1
  P  P20  1  0.079184  0.889062  0.927165  1
  P  P21  1  0.579184  0.610938  0.072835  1
  W  W22  1  0.237795  0.274340  0.710358  1
  W  W23  1  0.737795  0.225660  0.289642  1
  O  O24  1  0.431626  0.652917  0.590885  1
  O  O25  1  0.931626  0.847083  0.409115  1
  O  O26  1  0.571390  0.154817  0.909882  1
  O  O27  1  0.071390  0.345183  0.090118  1
  O  O28  1  0.333189  0.491561  0.705147  1
  O  O29  1  0.833189  0.008439  0.294853  1
  O  O30  1  0.663888  0.991239  0.795755  1
  O  O31  1  0.163888  0.508761  0.204245  1
  O  O32  1  0.574423  0.700136  0.719190  1
  O  O33  1  0.074423  0.799864  0.280810  1
  O  O34  1  0.423893  0.201004  0.782989  1
  O  O35  1  0.923893  0.298996  0.217011  1
  O  O36  1  0.094189  0.901957  0.585426  1
  O  O37  1  0.594189  0.598043  0.414574  1
  O  O38  1  0.902394  0.401363  0.914939  1
  O  O39  1  0.402394  0.098637  0.085061  1
  O  O40  1  0.919391  0.834799  0.706482  1
  O  O41  1  0.419391  0.665201  0.293518  1
  O  O42  1  0.252238  0.778496  0.701556  1
  O  O43  1  0.086397  0.332531  0.797626  1
  O  O44  1  0.143796  0.057229  0.706280  1
  O  O45  1  0.643796  0.442771  0.293720  1
  O  O46  1  0.859371  0.555745  0.793957  1
  O  O47  1  0.359371  0.944255  0.206043  1
  O  O48  1  0.465020  0.668469  0.139617  1
  O  O49  1  0.965020  0.831531  0.860383  1
  O  O50  1  0.526956  0.162907  0.357675  1
  O  O51  1  0.026956  0.337093  0.642325  1
  O  O52  1  0.787578  0.671150  0.087017  1
  O  O53  1  0.287578  0.828850  0.912983  1
  O  O54  1  0.211222  0.170157  0.414081  1
  O  O55  1  0.711222  0.329843  0.585919  1
  O  O56  1  0.506623  0.722191  0.006329  1
  O  O57  1  0.006623  0.777809  0.993671  1
  O  O58  1  0.498063  0.220760  0.492040  1
  O  O59  1  0.998063  0.279240  0.507960  1
  O  O60  1  0.576964  0.438546  0.057590  1
  O  O61  1  0.076964  0.061454  0.942410  1
  O  O62  1  0.421402  0.937088  0.443169  1
  O  O63  1  0.921402  0.562912  0.556831  1
  O  O64  1  0.590228  0.721620  0.873567  1
  O  O65  1  0.090228  0.778380  0.126433  1
  O  O66  1  0.407692  0.220609  0.624259  1
  O  O67  1  0.907692  0.279391  0.375741  1
  O  O68  1  0.339307  0.524048  0.917587  1
  O  O69  1  0.839307  0.975952  0.082413  1
  O  O70  1  0.662462  0.024249  0.582236  1
  O  O71  1  0.162462  0.475751  0.417764  1
  O  O72  1  0.249251  0.222770  0.201897  1
  O  O73  1  0.749251  0.277230  0.798103  1
  O  O74  1  0.752238  0.721504  0.298444  1
  O  O75  1  0.586397  0.167469  0.202374  1
