# generated using pymatgen
data_Ca7CeP6
_symmetry_space_group_name_H-M   'P 1'
_cell_length_a   7.50598880
_cell_length_b   7.58815512
_cell_length_c   7.58815510
_cell_angle_alpha   109.68953251
_cell_angle_beta   109.25200515
_cell_angle_gamma   109.25202052
_symmetry_Int_Tables_number   1
_chemical_formula_structural   Ca7CeP6
_chemical_formula_sum   'Ca7 Ce1 P6'
_cell_volume   333.60012094
_cell_formula_units_Z   1
loop_
 _symmetry_equiv_pos_site_id
 _symmetry_equiv_pos_as_xyz
  1  'x, y, z'
loop_
 _atom_site_type_symbol
 _atom_site_label
 _atom_site_symmetry_multiplicity
 _atom_site_fract_x
 _atom_site_fract_y
 _atom_site_fract_z
 _atom_site_occupancy
  Ca  Ca0  1  0.136310  0.136027  0.135003  1
  Ca  Ca1  1  0.500285  0.998977  0.363974  1
  Ca  Ca2  1  0.363188  0.500001  0.000000  1
  Ca  Ca3  1  0.001307  0.364998  0.501024  1
  Ca  Ca4  1  0.629320  0.632093  0.623381  1
  Ca  Ca5  1  0.497227  0.991288  0.867907  1
  Ca  Ca6  1  0.005941  0.876619  0.508711  1
  Ce  Ce7  1  0.857699  0.499999  0.000000  1
  P  P8  1  0.238586  0.621376  0.364894  1
  P  P9  1  0.755258  0.864867  0.121664  1
  P  P10  1  0.390389  0.256798  0.635132  1
  P  P11  1  0.633591  0.378334  0.243202  1
  P  P12  1  0.117208  0.743520  0.878623  1
  P  P13  1  0.873691  0.135104  0.756482  1
