# generated using pymatgen
data_PrY5CoCl10
_symmetry_space_group_name_H-M   'P 1'
_cell_length_a   7.14688676
_cell_length_b   8.87550594
_cell_length_c   8.93332904
_cell_angle_alpha   108.76636057
_cell_angle_beta   96.58355557
_cell_angle_gamma   104.56817357
_symmetry_Int_Tables_number   1
_chemical_formula_structural   PrY5CoCl10
_chemical_formula_sum   'Pr1 Y5 Co1 Cl10'
_cell_volume   507.32276832
_cell_formula_units_Z   1
loop_
 _symmetry_equiv_pos_site_id
 _symmetry_equiv_pos_as_xyz
  1  'x, y, z'
loop_
 _atom_site_type_symbol
 _atom_site_label
 _atom_site_symmetry_multiplicity
 _atom_site_fract_x
 _atom_site_fract_y
 _atom_site_fract_z
 _atom_site_occupancy
  Pr  Pr0  1  0.036601  0.700924  0.403125  1
  Y  Y1  1  0.962872  0.287557  0.592627  1
  Y  Y2  1  0.868868  0.946577  0.748096  1
  Y  Y3  1  0.134445  0.052237  0.252752  1
  Y  Y4  1  0.361110  0.138704  0.688104  1
  Y  Y5  1  0.639917  0.867124  0.313575  1
  Co  Co6  1  0.001679  0.997369  0.499712  1
  Cl  Cl7  1  0.462289  0.833848  0.583271  1
  Cl  Cl8  1  0.548133  0.175137  0.423481  1
  Cl  Cl9  1  0.909829  0.628531  0.674054  1
  Cl  Cl10  1  0.083847  0.359420  0.333668  1
  Cl  Cl11  1  0.238367  0.082258  0.953502  1
  Cl  Cl12  1  0.764303  0.923261  0.047923  1
  Cl  Cl13  1  0.333380  0.444108  0.769361  1
  Cl  Cl14  1  0.643181  0.555737  0.225307  1
  Cl  Cl15  1  0.778467  0.245499  0.840582  1
  Cl  Cl16  1  0.232715  0.761709  0.150860  1
