# generated using pymatgen
data_V3GaCu6(SeO3)12
_symmetry_space_group_name_H-M   'P 1'
_cell_length_a   7.75909822
_cell_length_b   8.37828511
_cell_length_c   12.61229201
_cell_angle_alpha   90.01744963
_cell_angle_beta   96.19540084
_cell_angle_gamma   89.99084898
_symmetry_Int_Tables_number   1
_chemical_formula_structural   V3GaCu6(SeO3)12
_chemical_formula_sum   'V3 Ga1 Cu6 Se12 O36'
_cell_volume   815.11052772
_cell_formula_units_Z   1
loop_
 _symmetry_equiv_pos_site_id
 _symmetry_equiv_pos_as_xyz
  1  'x, y, z'
loop_
 _atom_site_type_symbol
 _atom_site_label
 _atom_site_symmetry_multiplicity
 _atom_site_fract_x
 _atom_site_fract_y
 _atom_site_fract_z
 _atom_site_occupancy
  V  V0  1  0.631844  0.992851  0.822171  1
  V  V1  1  0.869691  0.493191  0.177934  1
  V  V2  1  0.367957  0.006664  0.177011  1
  Ga  Ga3  1  0.133295  0.506724  0.824488  1
  Cu  Cu4  1  0.499747  0.499864  0.500389  1
  Cu  Cu5  1  0.000360  0.999241  0.501074  1
  Cu  Cu6  1  0.364332  0.129106  0.618968  1
  Cu  Cu7  1  0.134364  0.628409  0.382830  1
  Cu  Cu8  1  0.634729  0.871738  0.381177  1
  Cu  Cu9  1  0.867753  0.376113  0.620190  1
  Se  Se10  1  0.551188  0.403389  0.783450  1
  Se  Se11  1  0.943646  0.902318  0.216951  1
  Se  Se12  1  0.443609  0.597573  0.217119  1
  Se  Se13  1  0.055941  0.100039  0.783409  1
  Se  Se14  1  0.308377  0.191476  0.393765  1
  Se  Se15  1  0.191385  0.688752  0.609436  1
  Se  Se16  1  0.690936  0.808225  0.606292  1
  Se  Se17  1  0.809224  0.308994  0.394936  1
  Se  Se18  1  0.637996  0.199865  0.042956  1
  Se  Se19  1  0.866668  0.696434  0.955143  1
  Se  Se20  1  0.361970  0.797679  0.955909  1
  Se  Se21  1  0.137192  0.302832  0.040114  1
  O  O22  1  0.350393  0.488137  0.746815  1
  O  O23  1  0.140959  0.990592  0.251337  1
  O  O24  1  0.641407  0.510084  0.251531  1
  O  O25  1  0.858396  0.012981  0.747760  1
  O  O26  1  0.652109  0.469063  0.676429  1
  O  O27  1  0.842649  0.968533  0.324082  1
  O  O28  1  0.342531  0.532215  0.324538  1
  O  O29  1  0.157411  0.033783  0.676430  1
  O  O30  1  0.508934  0.200364  0.747485  1
  O  O31  1  0.989040  0.699670  0.254239  1
  O  O32  1  0.488544  0.800650  0.253399  1
  O  O33  1  0.012560  0.303303  0.746908  1
  O  O34  1  0.450892  0.268414  0.502301  1
  O  O35  1  0.049489  0.767225  0.500645  1
  O  O36  1  0.549247  0.731129  0.497419  1
  O  O37  1  0.950317  0.231094  0.503473  1
  O  O38  1  0.459606  0.094974  0.327052  1
  O  O39  1  0.038193  0.594602  0.676352  1
  O  O40  1  0.539546  0.906092  0.672104  1
  O  O41  1  0.960835  0.405737  0.328531  1
  O  O42  1  0.248784  0.042253  0.483724  1
  O  O43  1  0.250512  0.541608  0.517487  1
  O  O44  1  0.751410  0.956806  0.516224  1
  O  O45  1  0.749659  0.458463  0.484944  1
  O  O46  1  0.751406  0.111074  0.946082  1
  O  O47  1  0.752400  0.608051  0.052159  1
  O  O48  1  0.249241  0.886249  0.053600  1
  O  O49  1  0.254462  0.388954  0.943302  1
  O  O50  1  0.591044  0.029756  0.112712  1
  O  O51  1  0.910381  0.526233  0.883602  1
  O  O52  1  0.410362  0.969005  0.888050  1
  O  O53  1  0.091900  0.472441  0.110784  1
  O  O54  1  0.812811  0.269624  0.127207  1
  O  O55  1  0.691949  0.768635  0.872090  1
  O  O56  1  0.188488  0.730987  0.869155  1
  O  O57  1  0.309925  0.229739  0.124335  1
