# generated using pymatgen
data_Ho10(In3Co)3
_symmetry_space_group_name_H-M   'P 1'
_cell_length_a   3.53350500
_cell_length_b   8.10855447
_cell_length_c   18.44619700
_cell_angle_alpha   90.45034072
_cell_angle_beta   90.00000000
_cell_angle_gamma   90.00000000
_symmetry_Int_Tables_number   1
_chemical_formula_structural   Ho10(In3Co)3
_chemical_formula_sum   'Ho10 In9 Co3'
_cell_volume   528.49706005
_cell_formula_units_Z   1
loop_
 _symmetry_equiv_pos_site_id
 _symmetry_equiv_pos_as_xyz
  1  'x, y, z'
loop_
 _atom_site_type_symbol
 _atom_site_label
 _atom_site_symmetry_multiplicity
 _atom_site_fract_x
 _atom_site_fract_y
 _atom_site_fract_z
 _atom_site_occupancy
  Ho  Ho0  1  0.500000  0.497219  0.503491  1
  Ho  Ho1  1  0.500000  0.000004  0.996457  1
  Ho  Ho2  1  0.500000  0.869553  0.431234  1
  Ho  Ho3  1  0.500000  0.116199  0.595389  1
  Ho  Ho4  1  0.500000  0.620433  0.906295  1
  Ho  Ho5  1  0.500000  0.379756  0.083517  1
  Ho  Ho6  1  0.500000  0.290218  0.272105  1
  Ho  Ho7  1  0.500000  0.753624  0.725428  1
  Ho  Ho8  1  0.500000  0.256057  0.778063  1
  Ho  Ho9  1  0.500000  0.717216  0.209818  1
  In  In10  1  0.000000  0.202572  0.436819  1
  In  In11  1  0.000000  0.791655  0.577995  1
  In  In12  1  0.000000  0.299141  0.928867  1
  In  In13  1  0.000000  0.699962  0.061753  1
  In  In14  1  0.000000  0.574054  0.351605  1
  In  In15  1  0.000000  0.435277  0.653678  1
  In  In16  1  0.000000  0.939465  0.847738  1
  In  In17  1  0.000000  0.075016  0.145289  1
  In  In18  1  0.000000  0.966964  0.301801  1
  Co  Co19  1  0.000000  0.023448  0.698604  1
  Co  Co20  1  0.000000  0.523859  0.803506  1
  Co  Co21  1  0.000000  0.468306  0.190547  1
