# generated using pymatgen
data_Ce4Dy5Lu(Sn3Au)2
_symmetry_space_group_name_H-M   'P 1'
_cell_length_a   9.41742602
_cell_length_b   9.41742676
_cell_length_c   6.46003600
_cell_angle_alpha   90.00000000
_cell_angle_beta   90.00000000
_cell_angle_gamma   120.00780328
_symmetry_Int_Tables_number   1
_chemical_formula_structural   Ce4Dy5Lu(Sn3Au)2
_chemical_formula_sum   'Ce4 Dy5 Lu1 Sn6 Au2'
_cell_volume   496.13045170
_cell_formula_units_Z   1
loop_
 _symmetry_equiv_pos_site_id
 _symmetry_equiv_pos_as_xyz
  1  'x, y, z'
loop_
 _atom_site_type_symbol
 _atom_site_label
 _atom_site_symmetry_multiplicity
 _atom_site_fract_x
 _atom_site_fract_y
 _atom_site_fract_z
 _atom_site_occupancy
  Ce  Ce0  1  0.333208  0.666118  0.499807  1
  Ce  Ce1  1  0.666118  0.333208  0.499807  1
  Ce  Ce2  1  0.666118  0.333208  0.000193  1
  Ce  Ce3  1  0.333208  0.666118  0.000193  1
  Dy  Dy4  1  0.271036  0.000027  0.750000  1
  Dy  Dy5  1  0.728060  0.999254  0.250000  1
  Dy  Dy6  1  0.000027  0.271036  0.750000  1
  Dy  Dy7  1  0.999254  0.728060  0.250000  1
  Dy  Dy8  1  0.729504  0.729504  0.750000  1
  Lu  Lu9  1  0.270123  0.270123  0.250000  1
  Sn  Sn10  1  0.620888  0.999898  0.750000  1
  Sn  Sn11  1  0.378175  0.001027  0.250000  1
  Sn  Sn12  1  0.999898  0.620888  0.750000  1
  Sn  Sn13  1  0.001027  0.378175  0.250000  1
  Sn  Sn14  1  0.379073  0.379073  0.750000  1
  Sn  Sn15  1  0.619116  0.619116  0.250000  1
  Au  Au16  1  0.002584  0.002584  0.497720  1
  Au  Au17  1  0.002584  0.002584  0.002280  1
