# generated using pymatgen
data_Tb3Ho5(Sc3Si4)4
_symmetry_space_group_name_H-M   'P 1'
_cell_length_a   7.09503820
_cell_length_b   7.39044621
_cell_length_c   14.01191141
_cell_angle_alpha   90.01974636
_cell_angle_beta   90.01929438
_cell_angle_gamma   90.01896854
_symmetry_Int_Tables_number   1
_chemical_formula_structural   Tb3Ho5(Sc3Si4)4
_chemical_formula_sum   'Tb3 Ho5 Sc12 Si16'
_cell_volume   734.72142928
_cell_formula_units_Z   1
loop_
 _symmetry_equiv_pos_site_id
 _symmetry_equiv_pos_as_xyz
  1  'x, y, z'
loop_
 _atom_site_type_symbol
 _atom_site_label
 _atom_site_symmetry_multiplicity
 _atom_site_fract_x
 _atom_site_fract_y
 _atom_site_fract_z
 _atom_site_occupancy
  Tb  Tb0  1  0.011848  0.175480  0.097069  1
  Tb  Tb1  1  0.988025  0.824739  0.903086  1
  Tb  Tb2  1  0.488346  0.675160  0.903177  1
  Ho  Ho3  1  0.987923  0.824019  0.596946  1
  Ho  Ho4  1  0.511812  0.324323  0.097344  1
  Ho  Ho5  1  0.012009  0.176006  0.402899  1
  Ho  Ho6  1  0.512011  0.324114  0.403251  1
  Ho  Ho7  1  0.488008  0.675889  0.596911  1
  Sc  Sc8  1  0.160501  0.502471  0.749669  1
  Sc  Sc9  1  0.839371  0.497273  0.250187  1
  Sc  Sc10  1  0.339448  0.002710  0.250159  1
  Sc  Sc11  1  0.660644  0.997409  0.749707  1
  Sc  Sc12  1  0.330871  0.176607  0.625079  1
  Sc  Sc13  1  0.669215  0.823363  0.374815  1
  Sc  Sc14  1  0.169352  0.676624  0.374811  1
  Sc  Sc15  1  0.669236  0.823387  0.125575  1
  Sc  Sc16  1  0.830717  0.323385  0.625067  1
  Sc  Sc17  1  0.330858  0.176708  0.874433  1
  Sc  Sc18  1  0.830484  0.323613  0.874490  1
  Sc  Sc19  1  0.169577  0.676157  0.125485  1
  Si  Si20  1  0.032994  0.117017  0.749650  1
  Si  Si21  1  0.966979  0.883033  0.250328  1
  Si  Si22  1  0.467134  0.616212  0.250235  1
  Si  Si23  1  0.532955  0.383131  0.749600  1
  Si  Si24  1  0.285497  0.873707  0.749145  1
  Si  Si25  1  0.714141  0.126802  0.250501  1
  Si  Si26  1  0.215270  0.373427  0.250452  1
  Si  Si27  1  0.785457  0.626419  0.749173  1
  Si  Si28  1  0.158027  0.464787  0.539364  1
  Si  Si29  1  0.842147  0.535202  0.460607  1
  Si  Si30  1  0.341852  0.964842  0.460654  1
  Si  Si31  1  0.841763  0.535171  0.039487  1
  Si  Si32  1  0.658029  0.035068  0.539382  1
  Si  Si33  1  0.157360  0.464205  0.960771  1
  Si  Si34  1  0.656820  0.036387  0.960964  1
  Si  Si35  1  0.343316  0.965151  0.039527  1
