# generated using pymatgen
data_Mg4Ni(GeIr)6
_symmetry_space_group_name_H-M   'P 1'
_cell_length_a   7.04095445
_cell_length_b   7.04094541
_cell_length_c   7.04095486
_cell_angle_alpha   109.23907902
_cell_angle_beta   109.23939471
_cell_angle_gamma   109.93622123
_symmetry_Int_Tables_number   1
_chemical_formula_structural   Mg4Ni(GeIr)6
_chemical_formula_sum   'Mg4 Ni1 Ge6 Ir6'
_cell_volume   268.68940816
_cell_formula_units_Z   1
loop_
 _symmetry_equiv_pos_site_id
 _symmetry_equiv_pos_as_xyz
  1  'x, y, z'
loop_
 _atom_site_type_symbol
 _atom_site_label
 _atom_site_symmetry_multiplicity
 _atom_site_fract_x
 _atom_site_fract_y
 _atom_site_fract_z
 _atom_site_occupancy
  Mg  Mg0  1  0.001370  0.998631  0.500000  1
  Mg  Mg1  1  0.001369  0.501369  0.002739  1
  Mg  Mg2  1  0.498631  0.998631  0.997262  1
  Mg  Mg3  1  0.498629  0.501369  0.500000  1
  Ni  Ni4  1  0.749999  0.249999  0.500000  1
  Ge  Ge5  1  0.688758  0.688758  0.000000  1
  Ge  Ge6  1  0.316222  0.004856  0.311366  1
  Ge  Ge7  1  0.995144  0.306512  0.311368  1
  Ge  Ge8  1  0.311243  0.311243  0.000000  1
  Ge  Ge9  1  0.693490  0.004856  0.688634  1
  Ge  Ge10  1  0.995143  0.683775  0.688632  1
  Ir  Ir11  1  0.745814  0.492637  0.253178  1
  Ir  Ir12  1  0.507364  0.254185  0.746821  1
  Ir  Ir13  1  0.239458  0.492637  0.746822  1
  Ir  Ir14  1  0.250000  0.750000  0.500000  1
  Ir  Ir15  1  0.507364  0.760543  0.253179  1
  Ir  Ir16  1  0.000001  0.000001  0.000000  1
