# generated using pymatgen
data_Tb4Ga20Ni11
_symmetry_space_group_name_H-M   'P 1'
_cell_length_a   4.07379075
_cell_length_b   10.55703266
_cell_length_c   12.94081824
_cell_angle_alpha   80.50441929
_cell_angle_beta   80.82793172
_cell_angle_gamma   78.69517888
_symmetry_Int_Tables_number   1
_chemical_formula_structural   Tb4Ga20Ni11
_chemical_formula_sum   'Tb4 Ga20 Ni11'
_cell_volume   533.60655442
_cell_formula_units_Z   1
loop_
 _symmetry_equiv_pos_site_id
 _symmetry_equiv_pos_as_xyz
  1  'x, y, z'
loop_
 _atom_site_type_symbol
 _atom_site_label
 _atom_site_symmetry_multiplicity
 _atom_site_fract_x
 _atom_site_fract_y
 _atom_site_fract_z
 _atom_site_occupancy
  Tb  Tb0  1  0.121123  0.095148  0.665718  1
  Tb  Tb1  1  0.230031  0.366435  0.177857  1
  Tb  Tb2  1  0.774898  0.633529  0.821419  1
  Tb  Tb3  1  0.884312  0.904390  0.333861  1
  Ga  Ga4  1  0.069095  0.666390  0.202832  1
  Ga  Ga5  1  0.300184  0.902406  0.502190  1
  Ga  Ga6  1  0.608003  0.793251  0.003039  1
  Ga  Ga7  1  0.251911  0.796001  0.703652  1
  Ga  Ga8  1  0.890840  0.670721  0.548412  1
  Ga  Ga9  1  0.752688  0.203715  0.295744  1
  Ga  Ga10  1  0.633233  0.940227  0.802752  1
  Ga  Ga11  1  0.703888  0.097513  0.497241  1
  Ga  Ga12  1  0.398890  0.207266  0.996295  1
  Ga  Ga13  1  0.935434  0.334234  0.795844  1
  Ga  Ga14  1  0.462770  0.703582  0.377431  1
  Ga  Ga15  1  0.997008  0.921599  0.089930  1
  Ga  Ga16  1  0.803157  0.397697  0.002825  1
  Ga  Ga17  1  0.542513  0.295900  0.621704  1
  Ga  Ga18  1  0.008529  0.079382  0.909227  1
  Ga  Ga19  1  0.201886  0.602594  0.996427  1
  Ga  Ga20  1  0.110340  0.329345  0.450482  1
  Ga  Ga21  1  0.373282  0.060006  0.197148  1
  Ga  Ga22  1  0.613371  0.471540  0.307173  1
  Ga  Ga23  1  0.391705  0.528460  0.691396  1
  Ni  Ni24  1  0.138514  0.840227  0.894780  1
  Ni  Ni25  1  0.503247  0.183293  0.811759  1
  Ni  Ni26  1  0.868863  0.160164  0.104536  1
  Ni  Ni27  1  0.976221  0.436999  0.611942  1
  Ni  Ni28  1  0.503343  0.499217  0.499162  1
  Ni  Ni29  1  0.655628  0.579674  0.113666  1
  Ni  Ni30  1  0.029441  0.563093  0.386732  1
  Ni  Ni31  1  0.348938  0.420780  0.885395  1
  Ni  Ni32  1  0.249012  0.119693  0.386499  1
  Ni  Ni33  1  0.501345  0.817282  0.187488  1
  Ni  Ni34  1  0.755164  0.880170  0.613082  1
