# generated using pymatgen
data_Cs3KTl2(TcH9)3
_symmetry_space_group_name_H-M   'P 1'
_cell_length_a   9.93947700
_cell_length_b   9.97346921
_cell_length_c   6.05611100
_cell_angle_alpha   90.00000000
_cell_angle_beta   90.00000000
_cell_angle_gamma   119.88730950
_symmetry_Int_Tables_number   1
_chemical_formula_structural   Cs3KTl2(TcH9)3
_chemical_formula_sum   'Cs3 K1 Tl2 Tc3 H27'
_cell_volume   520.50665205
_cell_formula_units_Z   1
loop_
 _symmetry_equiv_pos_site_id
 _symmetry_equiv_pos_as_xyz
  1  'x, y, z'
loop_
 _atom_site_type_symbol
 _atom_site_label
 _atom_site_symmetry_multiplicity
 _atom_site_fract_x
 _atom_site_fract_y
 _atom_site_fract_z
 _atom_site_occupancy
  Cs  Cs0  1  0.590358  0.000000  0.000000  1
  Cs  Cs1  1  0.999415  0.587587  0.000000  1
  Cs  Cs2  1  0.411828  0.412413  0.000000  1
  K  K3  1  0.258021  0.000000  0.500000  1
  Tl  Tl4  1  0.999508  0.262471  0.500000  1
  Tl  Tl5  1  0.737037  0.737529  0.500000  1
  Tc  Tc6  1  0.001287  0.000000  0.000000  1
  Tc  Tc7  1  0.333374  0.666318  0.500000  1
  Tc  Tc8  1  0.667057  0.333682  0.500000  1
  H  H9  1  0.880357  0.000000  0.197270  1
  H  H10  1  0.000213  0.879871  0.199638  1
  H  H11  1  0.880357  0.000000  0.802730  1
  H  H12  1  0.000213  0.879871  0.800362  1
  H  H13  1  0.120343  0.120129  0.199638  1
  H  H14  1  0.120343  0.120129  0.800362  1
  H  H15  1  0.169621  0.000000  0.000000  1
  H  H16  1  0.999702  0.166559  0.000000  1
  H  H17  1  0.833144  0.833441  0.000000  1
  H  H18  1  0.229814  0.536647  0.298967  1
  H  H19  1  0.463405  0.692859  0.298863  1
  H  H20  1  0.229814  0.536647  0.701033  1
  H  H21  1  0.536432  0.229091  0.698705  1
  H  H22  1  0.307340  0.770909  0.301295  1
  H  H23  1  0.463405  0.692859  0.701137  1
  H  H24  1  0.693168  0.463353  0.701033  1
  H  H25  1  0.536432  0.229091  0.301295  1
  H  H26  1  0.307340  0.770909  0.698705  1
  H  H27  1  0.693168  0.463353  0.298967  1
  H  H28  1  0.770546  0.307141  0.701137  1
  H  H29  1  0.770546  0.307141  0.298863  1
  H  H30  1  0.368936  0.519521  0.500000  1
  H  H31  1  0.478102  0.848645  0.500000  1
  H  H32  1  0.518777  0.367059  0.500000  1
  H  H33  1  0.151717  0.632941  0.500000  1
  H  H34  1  0.849416  0.480479  0.500000  1
  H  H35  1  0.629458  0.151355  0.500000  1
