# generated using pymatgen
data_La5SnBi2As
_symmetry_space_group_name_H-M   'P 1'
_cell_length_a   9.77568800
_cell_length_b   9.72625083
_cell_length_c   7.10447300
_cell_angle_alpha   90.00000000
_cell_angle_beta   90.00000000
_cell_angle_gamma   120.16828938
_symmetry_Int_Tables_number   1
_chemical_formula_structural   La5SnBi2As
_chemical_formula_sum   'La10 Sn2 Bi4 As2'
_cell_volume   584.00467305
_cell_formula_units_Z   2
loop_
 _symmetry_equiv_pos_site_id
 _symmetry_equiv_pos_as_xyz
  1  'x, y, z'
loop_
 _atom_site_type_symbol
 _atom_site_label
 _atom_site_symmetry_multiplicity
 _atom_site_fract_x
 _atom_site_fract_y
 _atom_site_fract_z
 _atom_site_occupancy
  La  La0  1  0.754095  0.000000  0.750000  1
  La  La1  1  0.996878  0.242762  0.250000  1
  La  La2  1  0.754116  0.757238  0.250000  1
  La  La3  1  0.337383  0.674768  0.500000  1
  La  La4  1  0.337383  0.674768  0.000000  1
  La  La5  1  0.662617  0.325232  0.500000  1
  La  La6  1  0.662617  0.325232  0.000000  1
  La  La7  1  0.245905  0.000000  0.250000  1
  La  La8  1  0.245884  0.242762  0.750000  1
  La  La9  1  0.003122  0.757238  0.750000  1
  Sn  Sn10  1  0.396575  0.000000  0.750000  1
  Sn  Sn11  1  0.603425  0.000000  0.250000  1
  Bi  Bi12  1  0.998786  0.604724  0.250000  1
  Bi  Bi13  1  0.605938  0.604724  0.750000  1
  Bi  Bi14  1  0.001214  0.395276  0.750000  1
  Bi  Bi15  1  0.394062  0.395276  0.250000  1
  As  As16  1  0.000000  0.000000  0.500000  1
  As  As17  1  0.000000  0.000000  0.000000  1
