# generated using pymatgen
data_ThSiIr2Au
_symmetry_space_group_name_H-M   'P 1'
_cell_length_a   4.07150900
_cell_length_b   4.07150900
_cell_length_c   11.32448100
_cell_angle_alpha   90.00000000
_cell_angle_beta   90.00000000
_cell_angle_gamma   90.00000000
_symmetry_Int_Tables_number   1
_chemical_formula_structural   ThSiIr2Au
_chemical_formula_sum   'Th2 Si2 Ir4 Au2'
_cell_volume   187.72802265
_cell_formula_units_Z   2
loop_
 _symmetry_equiv_pos_site_id
 _symmetry_equiv_pos_as_xyz
  1  'x, y, z'
loop_
 _atom_site_type_symbol
 _atom_site_label
 _atom_site_symmetry_multiplicity
 _atom_site_fract_x
 _atom_site_fract_y
 _atom_site_fract_z
 _atom_site_occupancy
  Th  Th0  1  0.000000  0.500000  0.248713  1
  Th  Th1  1  0.500000  0.000000  0.751287  1
  Si  Si2  1  0.000000  0.500000  0.886617  1
  Si  Si3  1  0.500000  0.000000  0.113383  1
  Ir  Ir4  1  0.000000  0.000000  0.000000  1
  Ir  Ir5  1  0.500000  0.500000  0.000000  1
  Ir  Ir6  1  0.000000  0.500000  0.680947  1
  Ir  Ir7  1  0.500000  0.000000  0.319053  1
  Au  Au8  1  0.000000  0.000000  0.500000  1
  Au  Au9  1  0.500000  0.500000  0.500000  1
