# generated using pymatgen
data_Na4TmPtO6
_symmetry_space_group_name_H-M   'P 1'
_cell_length_a   5.64263585
_cell_length_b   5.64264124
_cell_length_c   5.81984163
_cell_angle_alpha   99.41844706
_cell_angle_beta   99.41777308
_cell_angle_gamma   119.99826132
_symmetry_Int_Tables_number   1
_chemical_formula_structural   Na4TmPtO6
_chemical_formula_sum   'Na4 Tm1 Pt1 O6'
_cell_volume   151.64021327
_cell_formula_units_Z   1
loop_
 _symmetry_equiv_pos_site_id
 _symmetry_equiv_pos_as_xyz
  1  'x, y, z'
loop_
 _atom_site_type_symbol
 _atom_site_label
 _atom_site_symmetry_multiplicity
 _atom_site_fract_x
 _atom_site_fract_y
 _atom_site_fract_z
 _atom_site_occupancy
  Na  Na0  1  0.500819  0.499181  0.000000  1
  Na  Na1  1  0.990894  0.009107  0.500000  1
  Na  Na2  1  0.662695  0.337312  0.500001  1
  Na  Na3  1  0.342853  0.657147  0.500000  1
  Tm  Tm4  1  0.166381  0.833618  0.000000  1
  Pt  Pt5  1  0.833339  0.166663  0.999999  1
  O  O6  1  0.597137  0.947499  0.209953  1
  O  O7  1  0.924042  0.546789  0.215587  1
  O  O8  1  0.196940  0.220810  0.215790  1
  O  O9  1  0.779189  0.803060  0.784208  1
  O  O10  1  0.453214  0.075960  0.784415  1
  O  O11  1  0.052502  0.402863  0.790048  1
