# generated using pymatgen
data_CaPr2Sm4FeI12
_symmetry_space_group_name_H-M   'P 1'
_cell_length_a   9.98226041
_cell_length_b   9.96068898
_cell_length_c   9.92849381
_cell_angle_alpha   106.85533514
_cell_angle_beta   106.75775517
_cell_angle_gamma   107.29658456
_symmetry_Int_Tables_number   1
_chemical_formula_structural   CaPr2Sm4FeI12
_chemical_formula_sum   'Ca1 Pr2 Sm4 Fe1 I12'
_cell_volume   822.80127660
_cell_formula_units_Z   1
loop_
 _symmetry_equiv_pos_site_id
 _symmetry_equiv_pos_as_xyz
  1  'x, y, z'
loop_
 _atom_site_type_symbol
 _atom_site_label
 _atom_site_symmetry_multiplicity
 _atom_site_fract_x
 _atom_site_fract_y
 _atom_site_fract_z
 _atom_site_occupancy
  Ca  Ca0  1  0.000000  0.000000  0.000000  1
  Pr  Pr1  1  0.596037  0.794037  0.525049  1
  Pr  Pr2  1  0.403963  0.205963  0.474951  1
  Sm  Sm3  1  0.806021  0.527668  0.600200  1
  Sm  Sm4  1  0.525290  0.594308  0.788680  1
  Sm  Sm5  1  0.193979  0.472332  0.399800  1
  Sm  Sm6  1  0.474710  0.405692  0.211320  1
  Fe  Fe7  1  0.500000  0.500000  0.500000  1
  I  I8  1  0.730947  0.187258  0.576370  1
  I  I9  1  0.963208  0.881381  0.656317  1
  I  I10  1  0.572288  0.721687  0.178446  1
  I  I11  1  0.121469  0.346302  0.042170  1
  I  I12  1  0.655341  0.958102  0.884982  1
  I  I13  1  0.878531  0.653698  0.957830  1
  I  I14  1  0.036792  0.118619  0.343683  1
  I  I15  1  0.815077  0.426433  0.274463  1
  I  I16  1  0.344659  0.041898  0.115018  1
  I  I17  1  0.269053  0.812742  0.423630  1
  I  I18  1  0.184923  0.573567  0.725537  1
  I  I19  1  0.427712  0.278313  0.821554  1
