# generated using pymatgen
data_BaBiBF10
_symmetry_space_group_name_H-M   'P 1'
_cell_length_a   10.92362200
_cell_length_b   10.92362237
_cell_length_c   6.69835500
_cell_angle_alpha   90.00000000
_cell_angle_beta   90.00000000
_cell_angle_gamma   120.00000494
_symmetry_Int_Tables_number   1
_chemical_formula_structural   BaBiBF10
_chemical_formula_sum   'Ba3 Bi3 B3 F30'
_cell_volume   692.20082430
_cell_formula_units_Z   3
loop_
 _symmetry_equiv_pos_site_id
 _symmetry_equiv_pos_as_xyz
  1  'x, y, z'
loop_
 _atom_site_type_symbol
 _atom_site_label
 _atom_site_symmetry_multiplicity
 _atom_site_fract_x
 _atom_site_fract_y
 _atom_site_fract_z
 _atom_site_occupancy
  Ba  Ba0  1  0.000000  0.000000  0.500000  1
  Ba  Ba1  1  0.666667  0.333333  0.000000  1
  Ba  Ba2  1  0.333333  0.666667  0.000000  1
  Bi  Bi3  1  0.437144  0.000000  0.500000  1
  Bi  Bi4  1  0.000000  0.437144  0.500000  1
  Bi  Bi5  1  0.562856  0.562856  0.500000  1
  B  B6  1  0.753487  0.000000  0.000000  1
  B  B7  1  0.000000  0.753487  0.000000  1
  B  B8  1  0.246513  0.246513  0.000000  1
  F  F9  1  0.621844  0.000000  0.500000  1
  F  F10  1  0.000000  0.621844  0.500000  1
  F  F11  1  0.378156  0.378156  0.500000  1
  F  F12  1  0.249943  0.000000  0.500000  1
  F  F13  1  0.000000  0.249943  0.500000  1
  F  F14  1  0.750057  0.750057  0.500000  1
  F  F15  1  0.509277  0.153117  0.715340  1
  F  F16  1  0.846883  0.356161  0.715340  1
  F  F17  1  0.643839  0.490723  0.715340  1
  F  F18  1  0.509277  0.153117  0.284660  1
  F  F19  1  0.846883  0.356161  0.284660  1
  F  F20  1  0.643839  0.490723  0.284660  1
  F  F21  1  0.356161  0.846883  0.715340  1
  F  F22  1  0.490723  0.643839  0.715340  1
  F  F23  1  0.153117  0.509277  0.715340  1
  F  F24  1  0.356161  0.846883  0.284660  1
  F  F25  1  0.490723  0.643839  0.284660  1
  F  F26  1  0.153117  0.509277  0.284660  1
  F  F27  1  0.827764  0.000000  0.826434  1
  F  F28  1  0.000000  0.827764  0.826434  1
  F  F29  1  0.172236  0.172236  0.826434  1
  F  F30  1  0.827764  0.000000  0.173566  1
  F  F31  1  0.000000  0.827764  0.173566  1
  F  F32  1  0.172236  0.172236  0.173566  1
  F  F33  1  0.384494  0.262791  0.000000  1
  F  F34  1  0.737209  0.121703  0.000000  1
  F  F35  1  0.878297  0.615506  0.000000  1
  F  F36  1  0.121703  0.737209  0.000000  1
  F  F37  1  0.615506  0.878297  0.000000  1
  F  F38  1  0.262791  0.384494  0.000000  1
