# generated using pymatgen
data_Lu4Ga2SiGe
_symmetry_space_group_name_H-M   'P 1'
_cell_length_a   3.90627800
_cell_length_b   4.22890600
_cell_length_c   10.51607000
_cell_angle_alpha   90.00000000
_cell_angle_beta   90.00000000
_cell_angle_gamma   90.00000000
_symmetry_Int_Tables_number   1
_chemical_formula_structural   Lu4Ga2SiGe
_chemical_formula_sum   'Lu4 Ga2 Si1 Ge1'
_cell_volume   173.71793082
_cell_formula_units_Z   1
loop_
 _symmetry_equiv_pos_site_id
 _symmetry_equiv_pos_as_xyz
  1  'x, y, z'
loop_
 _atom_site_type_symbol
 _atom_site_label
 _atom_site_symmetry_multiplicity
 _atom_site_fract_x
 _atom_site_fract_y
 _atom_site_fract_z
 _atom_site_occupancy
  Lu  Lu0  1  0.000000  0.000000  0.136448  1
  Lu  Lu1  1  0.000000  0.500000  0.642415  1
  Lu  Lu2  1  0.500000  0.500000  0.360776  1
  Lu  Lu3  1  0.500000  0.000000  0.860553  1
  Ga  Ga4  1  0.500000  0.500000  0.079004  1
  Ga  Ga5  1  0.500000  0.000000  0.581750  1
  Si  Si6  1  0.000000  0.500000  0.921585  1
  Ge  Ge7  1  0.000000  0.000000  0.417471  1
