# generated using pymatgen
data_Dy7Lu3Si5Pb
_symmetry_space_group_name_H-M   'P 1'
_cell_length_a   8.48218520
_cell_length_b   8.50848565
_cell_length_c   6.32979029
_cell_angle_alpha   90.02560772
_cell_angle_beta   90.00743667
_cell_angle_gamma   119.87390705
_symmetry_Int_Tables_number   1
_chemical_formula_structural   Dy7Lu3Si5Pb
_chemical_formula_sum   'Dy7 Lu3 Si5 Pb1'
_cell_volume   396.12322622
_cell_formula_units_Z   1
loop_
 _symmetry_equiv_pos_site_id
 _symmetry_equiv_pos_as_xyz
  1  'x, y, z'
loop_
 _atom_site_type_symbol
 _atom_site_label
 _atom_site_symmetry_multiplicity
 _atom_site_fract_x
 _atom_site_fract_y
 _atom_site_fract_z
 _atom_site_occupancy
  Dy  Dy0  1  0.987956  0.746691  0.750762  1
  Dy  Dy1  1  0.998630  0.243498  0.249459  1
  Dy  Dy2  1  0.754767  0.756852  0.249308  1
  Dy  Dy3  1  0.766330  0.999671  0.750517  1
  Dy  Dy4  1  0.240993  0.253467  0.750414  1
  Dy  Dy5  1  0.240797  0.999667  0.249584  1
  Dy  Dy6  1  0.674978  0.343797  0.496240  1
  Lu  Lu7  1  0.675230  0.344160  0.003789  1
  Lu  Lu8  1  0.331005  0.655770  0.496247  1
  Lu  Lu9  1  0.331221  0.655986  0.003841  1
  Si  Si10  1  0.393821  0.393906  0.248243  1
  Si  Si11  1  0.003479  0.607681  0.247844  1
  Si  Si12  1  0.999908  0.396278  0.752039  1
  Si  Si13  1  0.601851  0.605318  0.751974  1
  Si  Si14  1  0.603897  0.998462  0.248435  1
  Pb  Pb15  1  0.395138  0.998796  0.751305  1
