# generated using pymatgen
data_Th3Al12Ru3Rh
_symmetry_space_group_name_H-M   'P 1'
_cell_length_a   8.98853301
_cell_length_b   8.98853173
_cell_length_c   9.56137988
_cell_angle_alpha   89.84784689
_cell_angle_beta   89.84783696
_cell_angle_gamma   120.12772081
_symmetry_Int_Tables_number   1
_chemical_formula_structural   Th3Al12Ru3Rh
_chemical_formula_sum   'Th6 Al24 Ru6 Rh2'
_cell_volume   668.13196820
_cell_formula_units_Z   2
loop_
 _symmetry_equiv_pos_site_id
 _symmetry_equiv_pos_as_xyz
  1  'x, y, z'
loop_
 _atom_site_type_symbol
 _atom_site_label
 _atom_site_symmetry_multiplicity
 _atom_site_fract_x
 _atom_site_fract_y
 _atom_site_fract_z
 _atom_site_occupancy
  Th  Th0  1  0.804661  0.612837  0.749408  1
  Th  Th1  1  0.193239  0.806761  0.250000  1
  Th  Th2  1  0.612837  0.804661  0.249408  1
  Th  Th3  1  0.387163  0.195339  0.750592  1
  Th  Th4  1  0.806761  0.193239  0.750000  1
  Th  Th5  1  0.195339  0.387163  0.250592  1
  Al  Al6  1  0.332512  0.665149  0.487373  1
  Al  Al7  1  0.665149  0.332512  0.987373  1
  Al  Al8  1  0.667488  0.334851  0.512627  1
  Al  Al9  1  0.334851  0.667488  0.012627  1
  Al  Al10  1  0.162622  0.325484  0.578007  1
  Al  Al11  1  0.675100  0.836683  0.577274  1
  Al  Al12  1  0.161014  0.836663  0.577485  1
  Al  Al13  1  0.836663  0.161014  0.077485  1
  Al  Al14  1  0.838986  0.163337  0.422515  1
  Al  Al15  1  0.836683  0.675100  0.077274  1
  Al  Al16  1  0.325484  0.162622  0.078007  1
  Al  Al17  1  0.674516  0.837378  0.921993  1
  Al  Al18  1  0.163317  0.324900  0.922726  1
  Al  Al19  1  0.837378  0.674516  0.421993  1
  Al  Al20  1  0.000272  0.999728  0.250000  1
  Al  Al21  1  0.999728  0.000272  0.750000  1
  Al  Al22  1  0.564045  0.127172  0.248851  1
  Al  Al23  1  0.435760  0.564240  0.750000  1
  Al  Al24  1  0.127172  0.564045  0.748851  1
  Al  Al25  1  0.872828  0.435955  0.251149  1
  Al  Al26  1  0.564240  0.435760  0.250000  1
  Al  Al27  1  0.435955  0.872828  0.751149  1
  Al  Al28  1  0.163337  0.838986  0.922515  1
  Al  Al29  1  0.324900  0.163317  0.422726  1
  Ru  Ru30  1  0.000000  0.000000  0.500000  1
  Ru  Ru31  1  0.000000  0.000000  0.000000  1
  Ru  Ru32  1  0.500000  0.500000  0.000000  1
  Ru  Ru33  1  0.000000  0.500000  0.500000  1
  Ru  Ru34  1  0.500000  0.500000  0.500000  1
  Ru  Ru35  1  0.500000  0.000000  0.000000  1
  Rh  Rh36  1  0.500000  0.000000  0.500000  1
  Rh  Rh37  1  0.000000  0.500000  0.000000  1
