# generated using pymatgen
data_Tm10OsRuRh2
_symmetry_space_group_name_H-M   'P 1'
_cell_length_a   6.29882706
_cell_length_b   7.22770387
_cell_length_c   8.36077868
_cell_angle_alpha   96.79104703
_cell_angle_beta   112.07762501
_cell_angle_gamma   90.02685938
_symmetry_Int_Tables_number   1
_chemical_formula_structural   Tm10OsRuRh2
_chemical_formula_sum   'Tm10 Os1 Ru1 Rh2'
_cell_volume   349.83134839
_cell_formula_units_Z   1
loop_
 _symmetry_equiv_pos_site_id
 _symmetry_equiv_pos_as_xyz
  1  'x, y, z'
loop_
 _atom_site_type_symbol
 _atom_site_label
 _atom_site_symmetry_multiplicity
 _atom_site_fract_x
 _atom_site_fract_y
 _atom_site_fract_z
 _atom_site_occupancy
  Tm  Tm0  1  0.792504  0.082329  0.812604  1
  Tm  Tm1  1  0.978767  0.417712  0.187677  1
  Tm  Tm2  1  0.209171  0.915359  0.184556  1
  Tm  Tm3  1  0.026319  0.585418  0.816996  1
  Tm  Tm4  1  0.207136  0.183255  0.564683  1
  Tm  Tm5  1  0.643321  0.317004  0.435552  1
  Tm  Tm6  1  0.791220  0.812935  0.437205  1
  Tm  Tm7  1  0.355204  0.686005  0.561437  1
  Tm  Tm8  1  0.419079  0.250302  0.000039  1
  Tm  Tm9  1  0.577814  0.749471  0.000553  1
  Os  Os10  1  0.396490  0.575588  0.218845  1
  Ru  Ru11  1  0.175776  0.925073  0.779426  1
  Rh  Rh12  1  0.603187  0.423053  0.779360  1
  Rh  Rh13  1  0.824008  0.076497  0.221067  1
