# generated using pymatgen
data_Dy3Er(Lu3Pt4)2
_symmetry_space_group_name_H-M   'P 1'
_cell_length_a   7.39856500
_cell_length_b   7.47684306
_cell_length_c   14.51601612
_cell_angle_alpha   89.98542633
_cell_angle_beta   90.00000000
_cell_angle_gamma   90.00000000
_symmetry_Int_Tables_number   1
_chemical_formula_structural   Dy3Er(Lu3Pt4)2
_chemical_formula_sum   'Dy6 Er2 Lu12 Pt16'
_cell_volume   802.99563813
_cell_formula_units_Z   2
loop_
 _symmetry_equiv_pos_site_id
 _symmetry_equiv_pos_as_xyz
  1  'x, y, z'
loop_
 _atom_site_type_symbol
 _atom_site_label
 _atom_site_symmetry_multiplicity
 _atom_site_fract_x
 _atom_site_fract_y
 _atom_site_fract_z
 _atom_site_occupancy
  Dy  Dy0  1  0.500277  0.679172  0.592476  1
  Dy  Dy1  1  0.000277  0.820828  0.907524  1
  Dy  Dy2  1  0.499667  0.321258  0.092365  1
  Dy  Dy3  1  0.999667  0.178742  0.407635  1
  Dy  Dy4  1  0.499644  0.320942  0.407511  1
  Dy  Dy5  1  0.999644  0.179058  0.092489  1
  Er  Er6  1  0.500676  0.679389  0.907289  1
  Er  Er7  1  0.000676  0.820611  0.592711  1
  Lu  Lu8  1  0.656876  0.167187  0.622948  1
  Lu  Lu9  1  0.156876  0.332813  0.877052  1
  Lu  Lu10  1  0.343661  0.832466  0.122799  1
  Lu  Lu11  1  0.843661  0.667534  0.377201  1
  Lu  Lu12  1  0.343246  0.832768  0.377062  1
  Lu  Lu13  1  0.843246  0.667232  0.122938  1
  Lu  Lu14  1  0.656569  0.167250  0.877004  1
  Lu  Lu15  1  0.156569  0.332750  0.622996  1
  Lu  Lu16  1  0.819360  0.509526  0.750017  1
  Lu  Lu17  1  0.319360  0.990474  0.749983  1
  Lu  Lu18  1  0.180513  0.490720  0.249979  1
  Lu  Lu19  1  0.680513  0.009280  0.250021  1
  Pt  Pt20  1  0.683275  0.965310  0.458578  1
  Pt  Pt21  1  0.183275  0.534690  0.041422  1
  Pt  Pt22  1  0.316913  0.034012  0.958297  1
  Pt  Pt23  1  0.816913  0.465988  0.541703  1
  Pt  Pt24  1  0.316309  0.034061  0.541668  1
  Pt  Pt25  1  0.816309  0.465939  0.958332  1
  Pt  Pt26  1  0.683117  0.965280  0.041464  1
  Pt  Pt27  1  0.183117  0.534720  0.458536  1
  Pt  Pt28  1  0.454970  0.385423  0.750119  1
  Pt  Pt29  1  0.954970  0.114577  0.749881  1
  Pt  Pt30  1  0.545051  0.614942  0.250012  1
  Pt  Pt31  1  0.045051  0.885058  0.249988  1
  Pt  Pt32  1  0.682158  0.856290  0.750126  1
  Pt  Pt33  1  0.182158  0.643710  0.749874  1
  Pt  Pt34  1  0.317717  0.143413  0.249980  1
  Pt  Pt35  1  0.817717  0.356587  0.250020  1
