# generated using pymatgen
data_EuIn2CuIr8
_symmetry_space_group_name_H-M   'P 1'
_cell_length_a   8.80921400
_cell_length_b   8.80921400
_cell_length_c   5.26911900
_cell_angle_alpha   90.00000000
_cell_angle_beta   90.00000000
_cell_angle_gamma   90.00000000
_symmetry_Int_Tables_number   1
_chemical_formula_structural   EuIn2CuIr8
_chemical_formula_sum   'Eu2 In4 Cu2 Ir16'
_cell_volume   408.89549676
_cell_formula_units_Z   2
loop_
 _symmetry_equiv_pos_site_id
 _symmetry_equiv_pos_as_xyz
  1  'x, y, z'
loop_
 _atom_site_type_symbol
 _atom_site_label
 _atom_site_symmetry_multiplicity
 _atom_site_fract_x
 _atom_site_fract_y
 _atom_site_fract_z
 _atom_site_occupancy
  Eu  Eu0  1  0.000000  0.000000  0.000000  1
  Eu  Eu1  1  0.500000  0.500000  0.000000  1
  In  In2  1  0.122744  0.622744  0.000000  1
  In  In3  1  0.877256  0.377256  0.000000  1
  In  In4  1  0.622744  0.877256  0.000000  1
  In  In5  1  0.377256  0.122744  0.000000  1
  Cu  Cu6  1  0.500000  0.000000  0.500000  1
  Cu  Cu7  1  0.000000  0.500000  0.500000  1
  Ir  Ir8  1  0.205722  0.064438  0.500000  1
  Ir  Ir9  1  0.794278  0.935562  0.500000  1
  Ir  Ir10  1  0.064438  0.794278  0.500000  1
  Ir  Ir11  1  0.705722  0.435562  0.500000  1
  Ir  Ir12  1  0.935562  0.205722  0.500000  1
  Ir  Ir13  1  0.294278  0.564438  0.500000  1
  Ir  Ir14  1  0.564438  0.705722  0.500000  1
  Ir  Ir15  1  0.435562  0.294278  0.500000  1
  Ir  Ir16  1  0.676722  0.176722  0.239702  1
  Ir  Ir17  1  0.323278  0.823278  0.760298  1
  Ir  Ir18  1  0.323278  0.823278  0.239702  1
  Ir  Ir19  1  0.176722  0.323278  0.239702  1
  Ir  Ir20  1  0.176722  0.323278  0.760298  1
  Ir  Ir21  1  0.676722  0.176722  0.760298  1
  Ir  Ir22  1  0.823278  0.676722  0.760298  1
  Ir  Ir23  1  0.823278  0.676722  0.239702  1
