# generated using pymatgen
data_YTi2AlAu3
_symmetry_space_group_name_H-M   'P 1'
_cell_length_a   5.67678382
_cell_length_b   5.67678498
_cell_length_c   5.65237088
_cell_angle_alpha   101.48459283
_cell_angle_beta   101.48459444
_cell_angle_gamma   127.12124486
_symmetry_Int_Tables_number   1
_chemical_formula_structural   YTi2AlAu3
_chemical_formula_sum   'Y1 Ti2 Al1 Au3'
_cell_volume   129.91062275
_cell_formula_units_Z   1
loop_
 _symmetry_equiv_pos_site_id
 _symmetry_equiv_pos_as_xyz
  1  'x, y, z'
loop_
 _atom_site_type_symbol
 _atom_site_label
 _atom_site_symmetry_multiplicity
 _atom_site_fract_x
 _atom_site_fract_y
 _atom_site_fract_z
 _atom_site_occupancy
  Y  Y0  1  0.004660  0.995340  0.000000  1
  Ti  Ti1  1  0.246301  0.753699  0.500000  1
  Ti  Ti2  1  0.746301  0.253699  0.500000  1
  Al  Al3  1  0.307112  0.692888  0.000000  1
  Au  Au4  1  0.309240  0.321310  0.630551  1
  Au  Au5  1  0.678690  0.690760  0.369449  1
  Au  Au6  1  0.707697  0.292303  0.000000  1
