# generated using pymatgen
data_HoPu3(AlB4)4
_symmetry_space_group_name_H-M   'P 1'
_cell_length_a   3.58035200
_cell_length_b   5.94490000
_cell_length_c   11.52423601
_cell_angle_alpha   89.99625591
_cell_angle_beta   90.00000000
_cell_angle_gamma   90.00000000
_symmetry_Int_Tables_number   1
_chemical_formula_structural   HoPu3(AlB4)4
_chemical_formula_sum   'Ho1 Pu3 Al4 B16'
_cell_volume   245.29145694
_cell_formula_units_Z   1
loop_
 _symmetry_equiv_pos_site_id
 _symmetry_equiv_pos_as_xyz
  1  'x, y, z'
loop_
 _atom_site_type_symbol
 _atom_site_label
 _atom_site_symmetry_multiplicity
 _atom_site_fract_x
 _atom_site_fract_y
 _atom_site_fract_z
 _atom_site_occupancy
  Ho  Ho0  1  0.500000  0.872302  0.349714  1
  Pu  Pu1  1  0.500000  0.370524  0.150258  1
  Pu  Pu2  1  0.500000  0.629141  0.850141  1
  Pu  Pu3  1  0.500000  0.129241  0.649271  1
  Al  Al4  1  0.500000  0.362167  0.409782  1
  Al  Al5  1  0.500000  0.637548  0.591356  1
  Al  Al6  1  0.500000  0.138273  0.909271  1
  Al  Al7  1  0.500000  0.861379  0.089893  1
  B  B8  1  0.000000  0.113802  0.047045  1
  B  B9  1  0.000000  0.885803  0.953142  1
  B  B10  1  0.000000  0.386207  0.546231  1
  B  B11  1  0.000000  0.615162  0.453083  1
  B  B12  1  0.000000  0.132964  0.468871  1
  B  B13  1  0.000000  0.866587  0.531265  1
  B  B14  1  0.000000  0.366731  0.969047  1
  B  B15  1  0.000000  0.633035  0.032052  1
  B  B16  1  0.000000  0.028001  0.192831  1
  B  B17  1  0.000000  0.972355  0.807175  1
  B  B18  1  0.000000  0.471204  0.692881  1
  B  B19  1  0.000000  0.526720  0.307302  1
  B  B20  1  0.000000  0.212092  0.311926  1
  B  B21  1  0.000000  0.789458  0.687611  1
  B  B22  1  0.000000  0.288747  0.812152  1
  B  B23  1  0.000000  0.710554  0.187701  1
