# generated using pymatgen
data_PrNd4W2C7
_symmetry_space_group_name_H-M   'P 1'
_cell_length_a   8.79101646
_cell_length_b   8.79101623
_cell_length_c   3.55079200
_cell_angle_alpha   90.00000000
_cell_angle_beta   90.00000000
_cell_angle_gamma   124.78846243
_symmetry_Int_Tables_number   1
_chemical_formula_structural   PrNd4W2C7
_chemical_formula_sum   'Pr1 Nd4 W2 C7'
_cell_volume   225.36488898
_cell_formula_units_Z   1
loop_
 _symmetry_equiv_pos_site_id
 _symmetry_equiv_pos_as_xyz
  1  'x, y, z'
loop_
 _atom_site_type_symbol
 _atom_site_label
 _atom_site_symmetry_multiplicity
 _atom_site_fract_x
 _atom_site_fract_y
 _atom_site_fract_z
 _atom_site_occupancy
  Pr  Pr0  1  0.500000  0.500000  0.000000  1
  Nd  Nd1  1  0.067300  0.325996  0.500000  1
  Nd  Nd2  1  0.932700  0.674004  0.500000  1
  Nd  Nd3  1  0.674004  0.932700  0.500000  1
  Nd  Nd4  1  0.325996  0.067300  0.500000  1
  W  W5  1  0.713078  0.286922  0.000000  1
  W  W6  1  0.286922  0.713078  0.000000  1
  C  C7  1  0.634238  0.365762  0.500000  1
  C  C8  1  0.365762  0.634238  0.500000  1
  C  C9  1  0.000000  0.000000  0.000000  1
  C  C10  1  0.166149  0.166149  0.000000  1
  C  C11  1  0.833851  0.833851  0.000000  1
  C  C12  1  0.000000  0.500000  0.000000  1
  C  C13  1  0.500000  0.000000  0.000000  1
