# generated using pymatgen
data_Tb3Ho6ThSn8
_symmetry_space_group_name_H-M   'P 1'
_cell_length_a   8.06347600
_cell_length_b   8.20232366
_cell_length_c   15.47230792
_cell_angle_alpha   90.10835268
_cell_angle_beta   90.00000000
_cell_angle_gamma   90.00000000
_symmetry_Int_Tables_number   1
_chemical_formula_structural   Tb3Ho6ThSn8
_chemical_formula_sum   'Tb6 Ho12 Th2 Sn16'
_cell_volume   1023.32485728
_cell_formula_units_Z   2
loop_
 _symmetry_equiv_pos_site_id
 _symmetry_equiv_pos_as_xyz
  1  'x, y, z'
loop_
 _atom_site_type_symbol
 _atom_site_label
 _atom_site_symmetry_multiplicity
 _atom_site_fract_x
 _atom_site_fract_y
 _atom_site_fract_z
 _atom_site_occupancy
  Tb  Tb0  1  0.519992  0.321090  0.902713  1
  Tb  Tb1  1  0.019992  0.178910  0.597287  1
  Tb  Tb2  1  0.481559  0.678877  0.402752  1
  Tb  Tb3  1  0.981559  0.821123  0.097248  1
  Tb  Tb4  1  0.481755  0.679175  0.097183  1
  Tb  Tb5  1  0.981755  0.820825  0.402817  1
  Ho  Ho6  1  0.363967  0.835713  0.877184  1
  Ho  Ho7  1  0.863967  0.664287  0.622816  1
  Ho  Ho8  1  0.635959  0.163255  0.376653  1
  Ho  Ho9  1  0.135959  0.336745  0.123347  1
  Ho  Ho10  1  0.636765  0.163187  0.123145  1
  Ho  Ho11  1  0.136765  0.336813  0.376855  1
  Ho  Ho12  1  0.363752  0.836630  0.622921  1
  Ho  Ho13  1  0.863752  0.663370  0.877079  1
  Ho  Ho14  1  0.193329  0.500217  0.750158  1
  Ho  Ho15  1  0.693329  0.999783  0.749842  1
  Ho  Ho16  1  0.805705  0.500007  0.250272  1
  Ho  Ho17  1  0.305705  0.999993  0.249728  1
  Th  Th18  1  0.517570  0.321032  0.595682  1
  Th  Th19  1  0.017570  0.178968  0.904318  1
  Sn  Sn20  1  0.297017  0.036925  0.042226  1
  Sn  Sn21  1  0.797017  0.463075  0.457774  1
  Sn  Sn22  1  0.705542  0.962855  0.541988  1
  Sn  Sn23  1  0.205542  0.537145  0.958012  1
  Sn  Sn24  1  0.701935  0.960734  0.958545  1
  Sn  Sn25  1  0.201935  0.539266  0.541455  1
  Sn  Sn26  1  0.296190  0.038104  0.458702  1
  Sn  Sn27  1  0.796190  0.461896  0.041298  1
  Sn  Sn28  1  0.559689  0.621631  0.749327  1
  Sn  Sn29  1  0.059689  0.878369  0.750673  1
  Sn  Sn30  1  0.439580  0.379849  0.249818  1
  Sn  Sn31  1  0.939580  0.120151  0.250182  1
  Sn  Sn32  1  0.326180  0.144664  0.751128  1
  Sn  Sn33  1  0.826180  0.355336  0.748872  1
  Sn  Sn34  1  0.673515  0.853520  0.249940  1
  Sn  Sn35  1  0.173515  0.646480  0.250060  1
