# generated using pymatgen
data_NbRuF10
_symmetry_space_group_name_H-M   'P 1'
_cell_length_a   5.77107967
_cell_length_b   7.55123414
_cell_length_c   9.90487412
_cell_angle_alpha   88.06755197
_cell_angle_beta   106.20869343
_cell_angle_gamma   99.23817224
_symmetry_Int_Tables_number   1
_chemical_formula_structural   NbRuF10
_chemical_formula_sum   'Nb2 Ru2 F20'
_cell_volume   409.08098965
_cell_formula_units_Z   2
loop_
 _symmetry_equiv_pos_site_id
 _symmetry_equiv_pos_as_xyz
  1  'x, y, z'
loop_
 _atom_site_type_symbol
 _atom_site_label
 _atom_site_symmetry_multiplicity
 _atom_site_fract_x
 _atom_site_fract_y
 _atom_site_fract_z
 _atom_site_occupancy
  Nb  Nb0  1  0.338654  0.382087  0.220805  1
  Nb  Nb1  1  0.661346  0.617913  0.779195  1
  Ru  Ru2  1  0.963885  0.760524  0.314054  1
  Ru  Ru3  1  0.036115  0.239476  0.685946  1
  F  F4  1  0.026781  0.248812  0.167769  1
  F  F5  1  0.973219  0.751188  0.832231  1
  F  F6  1  0.495116  0.219504  0.157278  1
  F  F7  1  0.504884  0.780496  0.842722  1
  F  F8  1  0.113455  0.219143  0.882323  1
  F  F9  1  0.886545  0.780857  0.117677  1
  F  F10  1  0.960330  0.279734  0.492060  1
  F  F11  1  0.039670  0.720266  0.507940  1
  F  F12  1  0.771297  0.057894  0.662895  1
  F  F13  1  0.228703  0.942106  0.337105  1
  F  F14  1  0.247481  0.084761  0.674860  1
  F  F15  1  0.752519  0.915239  0.325140  1
  F  F16  1  0.310993  0.446187  0.711134  1
  F  F17  1  0.689007  0.553813  0.288866  1
  F  F18  1  0.821577  0.418893  0.698618  1
  F  F19  1  0.178423  0.581107  0.301382  1
  F  F20  1  0.692799  0.452154  0.927918  1
  F  F21  1  0.307201  0.547846  0.072082  1
  F  F22  1  0.572848  0.671657  0.586469  1
  F  F23  1  0.427152  0.328343  0.413531  1
