# generated using pymatgen
data_Dy8Ti12Si15P
_symmetry_space_group_name_H-M   'P 1'
_cell_length_a   7.03238169
_cell_length_b   7.03853720
_cell_length_c   12.93076662
_cell_angle_alpha   90.00673323
_cell_angle_beta   89.90330243
_cell_angle_gamma   90.02648664
_symmetry_Int_Tables_number   1
_chemical_formula_structural   Dy8Ti12Si15P
_chemical_formula_sum   'Dy8 Ti12 Si15 P1'
_cell_volume   640.04196617
_cell_formula_units_Z   1
loop_
 _symmetry_equiv_pos_site_id
 _symmetry_equiv_pos_as_xyz
  1  'x, y, z'
loop_
 _atom_site_type_symbol
 _atom_site_label
 _atom_site_symmetry_multiplicity
 _atom_site_fract_x
 _atom_site_fract_y
 _atom_site_fract_z
 _atom_site_occupancy
  Dy  Dy0  1  0.997078  0.659675  0.033584  1
  Dy  Dy1  1  0.003392  0.344646  0.532207  1
  Dy  Dy2  1  0.659732  0.997168  0.966611  1
  Dy  Dy3  1  0.159643  0.503206  0.782676  1
  Dy  Dy4  1  0.842331  0.498655  0.284745  1
  Dy  Dy5  1  0.502842  0.159991  0.217061  1
  Dy  Dy6  1  0.497073  0.840865  0.716466  1
  Dy  Dy7  1  0.338501  0.000272  0.466970  1
  Ti  Ti8  1  0.343583  0.510837  0.374849  1
  Ti  Ti9  1  0.850209  0.987881  0.377340  1
  Ti  Ti10  1  0.008191  0.152302  0.123983  1
  Ti  Ti11  1  0.992952  0.845692  0.620753  1
  Ti  Ti12  1  0.508681  0.346695  0.625758  1
  Ti  Ti13  1  0.151913  0.008030  0.876294  1
  Ti  Ti14  1  0.674492  0.673673  0.499469  1
  Ti  Ti15  1  0.826869  0.173226  0.749662  1
  Ti  Ti16  1  0.172136  0.825714  0.251804  1
  Ti  Ti17  1  0.326829  0.326692  0.000033  1
  Ti  Ti18  1  0.491625  0.652264  0.126610  1
  Ti  Ti19  1  0.652421  0.491612  0.873674  1
  Si  Si20  1  0.952912  0.291054  0.935124  1
  Si  Si21  1  0.709448  0.047555  0.564760  1
  Si  Si22  1  0.209018  0.452614  0.185227  1
  Si  Si23  1  0.791059  0.547053  0.685233  1
  Si  Si24  1  0.452790  0.209113  0.814698  1
  Si  Si25  1  0.546868  0.791062  0.314714  1
  Si  Si26  1  0.290996  0.952782  0.065111  1
  Si  Si27  1  0.797088  0.870569  0.184657  1
  Si  Si28  1  0.301574  0.628934  0.567265  1
  Si  Si29  1  0.702592  0.369922  0.065596  1
  Si  Si30  1  0.629219  0.297532  0.434178  1
  Si  Si31  1  0.370080  0.702639  0.934487  1
  Si  Si32  1  0.130203  0.202289  0.315517  1
  Si  Si33  1  0.201246  0.130272  0.684028  1
  Si  Si34  1  0.870217  0.797555  0.814754  1
  P  P35  1  0.044194  0.709959  0.434100  1
