# generated using pymatgen
data_PrLu3Tl2(TeO6)3
_symmetry_space_group_name_H-M   'P 1'
_cell_length_a   9.17350280
_cell_length_b   9.15266391
_cell_length_c   5.19708206
_cell_angle_alpha   89.83681428
_cell_angle_beta   89.86511790
_cell_angle_gamma   120.24942484
_symmetry_Int_Tables_number   1
_chemical_formula_structural   PrLu3Tl2(TeO6)3
_chemical_formula_sum   'Pr1 Lu3 Tl2 Te3 O18'
_cell_volume   376.93801622
_cell_formula_units_Z   1
loop_
 _symmetry_equiv_pos_site_id
 _symmetry_equiv_pos_as_xyz
  1  'x, y, z'
loop_
 _atom_site_type_symbol
 _atom_site_label
 _atom_site_symmetry_multiplicity
 _atom_site_fract_x
 _atom_site_fract_y
 _atom_site_fract_z
 _atom_site_occupancy
  Pr  Pr0  1  0.610757  0.998493  0.002631  1
  Lu  Lu1  1  0.380317  0.376071  0.999121  1
  Lu  Lu2  1  0.283411  0.999773  0.497375  1
  Lu  Lu3  1  0.715623  0.717339  0.503658  1
  Tl  Tl4  1  0.001460  0.625158  0.002207  1
  Tl  Tl5  1  0.000220  0.283735  0.498398  1
  Te  Te6  1  0.331860  0.661100  0.500648  1
  Te  Te7  1  0.005084  0.000021  0.003160  1
  Te  Te8  1  0.663614  0.338382  0.496401  1
  O  O9  1  0.087490  0.883345  0.788060  1
  O  O10  1  0.235670  0.767232  0.275542  1
  O  O11  1  0.128083  0.537288  0.712570  1
  O  O12  1  0.399488  0.863959  0.699129  1
  O  O13  1  0.244946  0.461227  0.282329  1
  O  O14  1  0.126808  0.204450  0.791365  1
  O  O15  1  0.210815  0.121035  0.203298  1
  O  O16  1  0.539675  0.769433  0.300414  1
  O  O17  1  0.455969  0.589089  0.726827  1
  O  O18  1  0.803316  0.912358  0.795640  1
  O  O19  1  0.461933  0.237499  0.721160  1
  O  O20  1  0.585693  0.463433  0.287954  1
  O  O21  1  0.530944  0.137601  0.292734  1
  O  O22  1  0.773140  0.541792  0.707732  1
  O  O23  1  0.924165  0.803477  0.228654  1
  O  O24  1  0.758652  0.227345  0.700017  1
  O  O25  1  0.858476  0.402650  0.263843  1
  O  O26  1  0.882394  0.076714  0.219134  1
