# generated using pymatgen
data_K2LuVF7
_symmetry_space_group_name_H-M   'P 1'
_cell_length_a   8.03878708
_cell_length_b   8.03878690
_cell_length_c   8.03878599
_cell_angle_alpha   120.85590463
_cell_angle_beta   117.54399570
_cell_angle_gamma   91.41475786
_symmetry_Int_Tables_number   1
_chemical_formula_structural   K2LuVF7
_chemical_formula_sum   'K4 Lu2 V2 F14'
_cell_volume   371.27290366
_cell_formula_units_Z   2
loop_
 _symmetry_equiv_pos_site_id
 _symmetry_equiv_pos_as_xyz
  1  'x, y, z'
loop_
 _atom_site_type_symbol
 _atom_site_label
 _atom_site_symmetry_multiplicity
 _atom_site_fract_x
 _atom_site_fract_y
 _atom_site_fract_z
 _atom_site_occupancy
  K  K0  1  0.500000  0.000000  0.000000  1
  K  K1  1  0.500000  0.500000  0.500000  1
  K  K2  1  0.000000  0.000000  0.000000  1
  K  K3  1  0.500000  0.500000  0.000000  1
  Lu  Lu4  1  0.500000  0.000000  0.500000  1
  Lu  Lu5  1  0.000000  0.500000  0.500000  1
  V  V6  1  0.000000  0.000000  0.500000  1
  V  V7  1  0.000000  0.500000  0.000000  1
  F  F8  1  0.088547  0.250000  0.838547  1
  F  F9  1  0.911453  0.750000  0.161453  1
  F  F10  1  0.685731  0.406371  0.279360  1
  F  F11  1  0.314269  0.593629  0.720640  1
  F  F12  1  0.627011  0.906371  0.720640  1
  F  F13  1  0.372989  0.093629  0.279360  1
  F  F14  1  0.955511  0.186078  0.376850  1
  F  F15  1  0.044489  0.421339  0.230567  1
  F  F16  1  0.309228  0.686078  0.230567  1
  F  F17  1  0.690772  0.921339  0.376850  1
  F  F18  1  0.044489  0.813922  0.623150  1
  F  F19  1  0.955511  0.578661  0.769433  1
  F  F20  1  0.690772  0.313922  0.769433  1
  F  F21  1  0.309228  0.078661  0.623150  1
