# generated using pymatgen
data_Zr6Zn2CN
_symmetry_space_group_name_H-M   'P 1'
_cell_length_a   5.96126405
_cell_length_b   5.96126217
_cell_length_c   9.05728800
_cell_angle_alpha   90.35129706
_cell_angle_beta   89.64870305
_cell_angle_gamma   146.98893696
_symmetry_Int_Tables_number   1
_chemical_formula_structural   Zr6Zn2CN
_chemical_formula_sum   'Zr6 Zn2 C1 N1'
_cell_volume   175.34918178
_cell_formula_units_Z   1
loop_
 _symmetry_equiv_pos_site_id
 _symmetry_equiv_pos_as_xyz
  1  'x, y, z'
loop_
 _atom_site_type_symbol
 _atom_site_label
 _atom_site_symmetry_multiplicity
 _atom_site_fract_x
 _atom_site_fract_y
 _atom_site_fract_z
 _atom_site_occupancy
  Zr  Zr0  1  0.629062  0.370938  0.451662  1
  Zr  Zr1  1  0.370938  0.629062  0.548338  1
  Zr  Zr2  1  0.625863  0.374137  0.046039  1
  Zr  Zr3  1  0.374137  0.625863  0.953961  1
  Zr  Zr4  1  0.951713  0.048287  0.251354  1
  Zr  Zr5  1  0.048287  0.951713  0.748646  1
  Zn  Zn6  1  0.252386  0.747614  0.246356  1
  Zn  Zn7  1  0.747614  0.252386  0.753644  1
  C  C8  1  0.000000  0.000000  0.500000  1
  N  N9  1  0.000000  0.000000  0.000000  1
