# generated using pymatgen
data_Er12ZnInCo4
_symmetry_space_group_name_H-M   'P 1'
_cell_length_a   8.24565903
_cell_length_b   8.24565967
_cell_length_c   8.24565930
_cell_angle_alpha   111.50986724
_cell_angle_beta   110.33689383
_cell_angle_gamma   106.60662234
_symmetry_Int_Tables_number   1
_chemical_formula_structural   Er12ZnInCo4
_chemical_formula_sum   'Er12 Zn1 In1 Co4'
_cell_volume   430.72137139
_cell_formula_units_Z   1
loop_
 _symmetry_equiv_pos_site_id
 _symmetry_equiv_pos_as_xyz
  1  'x, y, z'
loop_
 _atom_site_type_symbol
 _atom_site_label
 _atom_site_symmetry_multiplicity
 _atom_site_fract_x
 _atom_site_fract_y
 _atom_site_fract_z
 _atom_site_occupancy
  Er  Er0  1  0.186143  0.289101  0.475245  1
  Er  Er1  1  0.813857  0.710899  0.524755  1
  Er  Er2  1  0.186143  0.710899  0.897042  1
  Er  Er3  1  0.813857  0.289101  0.102958  1
  Er  Er4  1  0.315226  0.618841  0.303616  1
  Er  Er5  1  0.684774  0.381159  0.696384  1
  Er  Er6  1  0.315226  0.011610  0.696384  1
  Er  Er7  1  0.684774  0.988390  0.303616  1
  Er  Er8  1  0.427004  0.223010  0.203995  1
  Er  Er9  1  0.572996  0.776990  0.796005  1
  Er  Er10  1  0.019015  0.223010  0.796005  1
  Er  Er11  1  0.980985  0.776990  0.203995  1
  Zn  Zn12  1  0.000000  0.000000  0.000000  1
  In  In13  1  0.500000  0.500000  0.000000  1
  Co  Co14  1  0.113146  0.613146  0.500000  1
  Co  Co15  1  0.886854  0.386854  0.500000  1
  Co  Co16  1  0.376891  0.000000  0.376891  1
  Co  Co17  1  0.623109  0.000000  0.623109  1
