# generated using pymatgen
data_Dy4TmBi3C
_symmetry_space_group_name_H-M   'P 1'
_cell_length_a   9.15839903
_cell_length_b   9.12964345
_cell_length_c   6.47131400
_cell_angle_alpha   90.00000000
_cell_angle_beta   90.00000000
_cell_angle_gamma   119.89620086
_symmetry_Int_Tables_number   1
_chemical_formula_structural   Dy4TmBi3C
_chemical_formula_sum   'Dy8 Tm2 Bi6 C2'
_cell_volume   469.08309703
_cell_formula_units_Z   2
loop_
 _symmetry_equiv_pos_site_id
 _symmetry_equiv_pos_as_xyz
  1  'x, y, z'
loop_
 _atom_site_type_symbol
 _atom_site_label
 _atom_site_symmetry_multiplicity
 _atom_site_fract_x
 _atom_site_fract_y
 _atom_site_fract_z
 _atom_site_occupancy
  Dy  Dy0  1  0.667022  0.333371  0.000229  1
  Dy  Dy1  1  0.332978  0.666350  0.000229  1
  Dy  Dy2  1  0.332978  0.666350  0.499771  1
  Dy  Dy3  1  0.667022  0.333371  0.499771  1
  Dy  Dy4  1  0.000000  0.208541  0.750000  1
  Dy  Dy5  1  0.207837  0.207036  0.250000  1
  Dy  Dy6  1  0.792163  0.999199  0.250000  1
  Dy  Dy7  1  0.000000  0.791777  0.250000  1
  Tm  Tm8  1  0.797169  0.797441  0.750000  1
  Tm  Tm9  1  0.202831  0.000272  0.750000  1
  Bi  Bi10  1  0.399986  0.399356  0.750000  1
  Bi  Bi11  1  0.600014  0.999370  0.750000  1
  Bi  Bi12  1  0.000000  0.601493  0.750000  1
  Bi  Bi13  1  0.600059  0.599604  0.250000  1
  Bi  Bi14  1  0.399941  0.999545  0.250000  1
  Bi  Bi15  1  0.000000  0.399673  0.250000  1
  C  C16  1  0.000000  0.998625  0.998435  1
  C  C17  1  0.000000  0.998625  0.501565  1
