# generated using pymatgen
data_Zr6Zn20Co3Se
_symmetry_space_group_name_H-M   'P 1'
_cell_length_a   8.69141977
_cell_length_b   8.69139296
_cell_length_c   8.73090100
_cell_angle_alpha   59.84947487
_cell_angle_beta   59.84921921
_cell_angle_gamma   60.30061651
_symmetry_Int_Tables_number   1
_chemical_formula_structural   Zr6Zn20Co3Se
_chemical_formula_sum   'Zr6 Zn20 Co3 Se1'
_cell_volume   466.34132105
_cell_formula_units_Z   1
loop_
 _symmetry_equiv_pos_site_id
 _symmetry_equiv_pos_as_xyz
  1  'x, y, z'
loop_
 _atom_site_type_symbol
 _atom_site_label
 _atom_site_symmetry_multiplicity
 _atom_site_fract_x
 _atom_site_fract_y
 _atom_site_fract_z
 _atom_site_occupancy
  Zr  Zr0  1  0.712295  0.287697  0.287698  1
  Zr  Zr1  1  0.287691  0.712301  0.712312  1
  Zr  Zr2  1  0.287692  0.712301  0.287692  1
  Zr  Zr3  1  0.712309  0.287683  0.712322  1
  Zr  Zr4  1  0.283691  0.283694  0.716301  1
  Zr  Zr5  1  0.716315  0.716319  0.283677  1
  Zn  Zn6  1  0.114536  0.114539  0.127744  1
  Zn  Zn7  1  0.885467  0.885460  0.872256  1
  Zn  Zn8  1  0.114546  0.114539  0.643181  1
  Zn  Zn9  1  0.127923  0.643132  0.114473  1
  Zn  Zn10  1  0.885466  0.885469  0.356820  1
  Zn  Zn11  1  0.872089  0.356869  0.885528  1
  Zn  Zn12  1  0.643132  0.127923  0.114480  1
  Zn  Zn13  1  0.356869  0.872087  0.885523  1
  Zn  Zn14  1  0.499995  0.999996  0.000003  1
  Zn  Zn15  1  0.000007  0.500001  0.499998  1
  Zn  Zn16  1  0.999997  0.499997  0.000001  1
  Zn  Zn17  1  0.500000  0.000006  0.499999  1
  Zn  Zn18  1  0.337885  0.337889  0.324999  1
  Zn  Zn19  1  0.662119  0.662117  0.675001  1
  Zn  Zn20  1  0.337882  0.337881  0.999230  1
  Zn  Zn21  1  0.325216  0.999159  0.337810  1
  Zn  Zn22  1  0.662108  0.662111  0.000767  1
  Zn  Zn23  1  0.674774  0.000846  0.662190  1
  Zn  Zn24  1  0.999159  0.325217  0.337812  1
  Zn  Zn25  1  0.000849  0.674774  0.662187  1
  Co  Co26  1  0.000000  0.999999  0.500000  1
  Co  Co27  1  0.499999  0.500000  0.999998  1
  Co  Co28  1  0.000005  0.000003  0.000003  1
  Se  Se29  1  0.499987  0.499993  0.499996  1
