# generated using pymatgen
data_Ca7Tb2PrPt4
_symmetry_space_group_name_H-M   'P 1'
_cell_length_a   6.79582614
_cell_length_b   7.64814538
_cell_length_c   8.96150900
_cell_angle_alpha   97.06072948
_cell_angle_beta   112.95572453
_cell_angle_gamma   90.30350663
_symmetry_Int_Tables_number   1
_chemical_formula_structural   Ca7Tb2PrPt4
_chemical_formula_sum   'Ca7 Tb2 Pr1 Pt4'
_cell_volume   424.91648254
_cell_formula_units_Z   1
loop_
 _symmetry_equiv_pos_site_id
 _symmetry_equiv_pos_as_xyz
  1  'x, y, z'
loop_
 _atom_site_type_symbol
 _atom_site_label
 _atom_site_symmetry_multiplicity
 _atom_site_fract_x
 _atom_site_fract_y
 _atom_site_fract_z
 _atom_site_occupancy
  Ca  Ca0  1  0.801804  0.577509  0.818648  1
  Ca  Ca1  1  0.017791  0.081512  0.817296  1
  Ca  Ca2  1  0.193129  0.418182  0.176836  1
  Ca  Ca3  1  0.640319  0.819619  0.431650  1
  Ca  Ca4  1  0.206113  0.683921  0.566375  1
  Ca  Ca5  1  0.361518  0.177663  0.567825  1
  Ca  Ca6  1  0.799138  0.316226  0.432460  1
  Tb  Tb7  1  0.428649  0.748709  0.000967  1
  Tb  Tb8  1  0.564275  0.251077  0.001328  1
  Pr  Pr9  1  0.978132  0.919358  0.171650  1
  Pt  Pt10  1  0.803592  0.579427  0.205396  1
  Pt  Pt11  1  0.609811  0.926144  0.812683  1
  Pt  Pt12  1  0.199292  0.425493  0.792999  1
  Pt  Pt13  1  0.396438  0.075160  0.203887  1
