# generated using pymatgen
data_K3RbBa(NbSe4)2
_symmetry_space_group_name_H-M   'P 1'
_cell_length_a   12.32969824
_cell_length_b   12.32969763
_cell_length_c   12.32972622
_cell_angle_alpha   133.78476235
_cell_angle_beta   128.72263539
_cell_angle_gamma   71.48788490
_symmetry_Int_Tables_number   1
_chemical_formula_structural   K3RbBa(NbSe4)2
_chemical_formula_sum   'K6 Rb2 Ba2 Nb4 Se16'
_cell_volume   1033.36943302
_cell_formula_units_Z   2
loop_
 _symmetry_equiv_pos_site_id
 _symmetry_equiv_pos_as_xyz
  1  'x, y, z'
loop_
 _atom_site_type_symbol
 _atom_site_label
 _atom_site_symmetry_multiplicity
 _atom_site_fract_x
 _atom_site_fract_y
 _atom_site_fract_z
 _atom_site_occupancy
  K  K0  1  0.576912  0.700738  0.123800  1
  K  K1  1  0.423061  0.299266  0.876180  1
  K  K2  1  0.500215  0.750215  0.750000  1
  K  K3  1  0.076938  0.453113  0.376200  1
  K  K4  1  0.923086  0.546881  0.623820  1
  K  K5  1  0.999785  0.249785  0.750000  1
  Rb  Rb6  1  0.499894  0.249894  0.250000  1
  Rb  Rb7  1  0.000107  0.750107  0.250000  1
  Ba  Ba8  1  0.250000  0.000000  0.250000  1
  Ba  Ba9  1  0.750001  0.000001  0.750000  1
  Nb  Nb10  1  0.132322  0.925909  0.793036  1
  Nb  Nb11  1  0.867129  0.074094  0.206423  1
  Nb  Nb12  1  0.367670  0.660706  0.293577  1
  Nb  Nb13  1  0.632875  0.339287  0.706964  1
  Se  Se14  1  0.599802  0.603141  0.373099  1
  Se  Se15  1  0.745910  0.976205  0.227144  1
  Se  Se16  1  0.896548  0.860401  0.963330  1
  Se  Se17  1  0.769956  0.396857  0.996656  1
  Se  Se18  1  0.730041  0.226703  0.126901  1
  Se  Se19  1  0.754092  0.481234  0.730296  1
  Se  Se20  1  0.250940  0.023796  0.769704  1
  Se  Se21  1  0.229671  0.602660  0.003160  1
  Se  Se22  1  0.249060  0.518766  0.272856  1
  Se  Se23  1  0.270331  0.773491  0.872988  1
  Se  Se24  1  0.102928  0.139599  0.036149  1
  Se  Se25  1  0.900201  0.773300  0.503344  1
  Se  Se26  1  0.099499  0.226510  0.496840  1
  Se  Se27  1  0.603451  0.066780  0.463851  1
  Se  Se28  1  0.400503  0.397343  0.627012  1
  Se  Se29  1  0.397071  0.933219  0.536670  1
