# generated using pymatgen
data_Ho2Th2ReWC4
_symmetry_space_group_name_H-M   'P 1'
_cell_length_a   5.25761100
_cell_length_b   6.74002300
_cell_length_c   9.90514300
_cell_angle_alpha   90.00000000
_cell_angle_beta   90.00000000
_cell_angle_gamma   90.00000000
_symmetry_Int_Tables_number   1
_chemical_formula_structural   Ho2Th2ReWC4
_chemical_formula_sum   'Ho4 Th4 Re2 W2 C8'
_cell_volume   351.00279825
_cell_formula_units_Z   2
loop_
 _symmetry_equiv_pos_site_id
 _symmetry_equiv_pos_as_xyz
  1  'x, y, z'
loop_
 _atom_site_type_symbol
 _atom_site_label
 _atom_site_symmetry_multiplicity
 _atom_site_fract_x
 _atom_site_fract_y
 _atom_site_fract_z
 _atom_site_occupancy
  Ho  Ho0  1  0.250000  0.826549  0.054236  1
  Ho  Ho1  1  0.750000  0.673451  0.554236  1
  Ho  Ho2  1  0.250000  0.327389  0.446754  1
  Ho  Ho3  1  0.750000  0.172611  0.946754  1
  Th  Th4  1  0.250000  0.469637  0.787766  1
  Th  Th5  1  0.750000  0.030363  0.287766  1
  Th  Th6  1  0.250000  0.965449  0.714482  1
  Th  Th7  1  0.750000  0.534551  0.214482  1
  Re  Re8  1  0.250000  0.773646  0.365046  1
  Re  Re9  1  0.750000  0.726354  0.865046  1
  W  W10  1  0.250000  0.274382  0.134882  1
  W  W11  1  0.750000  0.225618  0.634882  1
  C  C12  1  0.250000  0.170052  0.944827  1
  C  C13  1  0.750000  0.831036  0.050924  1
  C  C14  1  0.250000  0.668964  0.550924  1
  C  C15  1  0.750000  0.329948  0.444827  1
  C  C16  1  0.250000  0.040767  0.262125  1
  C  C17  1  0.750000  0.459233  0.762125  1
  C  C18  1  0.250000  0.544138  0.238958  1
  C  C19  1  0.750000  0.955862  0.738958  1
