# generated using pymatgen
data_Ti6Al3Ga(PtN)2
_symmetry_space_group_name_H-M   'P 1'
_cell_length_a   8.18787496
_cell_length_b   8.18151825
_cell_length_c   8.18151712
_cell_angle_alpha   59.95384688
_cell_angle_beta   59.97429680
_cell_angle_gamma   59.97429508
_symmetry_Int_Tables_number   1
_chemical_formula_structural   Ti6Al3Ga(PtN)2
_chemical_formula_sum   'Ti12 Al6 Ga2 Pt4 N4'
_cell_volume   387.26078077
_cell_formula_units_Z   2
loop_
 _symmetry_equiv_pos_site_id
 _symmetry_equiv_pos_as_xyz
  1  'x, y, z'
loop_
 _atom_site_type_symbol
 _atom_site_label
 _atom_site_symmetry_multiplicity
 _atom_site_fract_x
 _atom_site_fract_y
 _atom_site_fract_z
 _atom_site_occupancy
  Ti  Ti0  1  0.817272  0.816908  0.182664  1
  Ti  Ti1  1  0.067881  0.431703  0.432534  1
  Ti  Ti2  1  0.432615  0.067442  0.067329  1
  Ti  Ti3  1  0.066844  0.067336  0.433092  1
  Ti  Ti4  1  0.068139  0.431440  0.068512  1
  Ti  Ti5  1  0.432728  0.067336  0.433092  1
  Ti  Ti6  1  0.183156  0.816908  0.182664  1
  Ti  Ti7  1  0.182119  0.817466  0.818297  1
  Ti  Ti8  1  0.817385  0.182671  0.182558  1
  Ti  Ti9  1  0.818091  0.181488  0.818560  1
  Ti  Ti10  1  0.431909  0.431440  0.068512  1
  Ti  Ti11  1  0.181861  0.181488  0.818560  1
  Al  Al12  1  0.493632  0.835780  0.835004  1
  Al  Al13  1  0.835585  0.835780  0.835004  1
  Al  Al14  1  0.756368  0.414996  0.414220  1
  Al  Al15  1  0.414415  0.414996  0.414220  1
  Al  Al16  1  0.414416  0.415131  0.756035  1
  Al  Al17  1  0.835584  0.493965  0.834869  1
  Ga  Ga18  1  0.411688  0.765193  0.411430  1
  Ga  Ga19  1  0.838312  0.838570  0.484807  1
  Pt  Pt20  1  0.623157  0.127043  0.626643  1
  Pt  Pt21  1  0.626843  0.623357  0.122957  1
  Pt  Pt22  1  0.125000  0.621225  0.628775  1
  Pt  Pt23  1  0.625000  0.621225  0.628775  1
  N  N24  1  0.124636  0.625529  0.125199  1
  N  N25  1  0.125364  0.124801  0.624471  1
  N  N26  1  0.625000  0.124393  0.125607  1
  N  N27  1  0.125000  0.124393  0.125607  1
