# generated using pymatgen
data_Sc12GaNi4Sn
_symmetry_space_group_name_H-M   'P 1'
_cell_length_a   7.79034357
_cell_length_b   7.79034457
_cell_length_c   7.79034450
_cell_angle_alpha   111.08298451
_cell_angle_beta   110.81802979
_cell_angle_gamma   106.55161748
_symmetry_Int_Tables_number   1
_chemical_formula_structural   Sc12GaNi4Sn
_chemical_formula_sum   'Sc12 Ga1 Ni4 Sn1'
_cell_volume   363.24908887
_cell_formula_units_Z   1
loop_
 _symmetry_equiv_pos_site_id
 _symmetry_equiv_pos_as_xyz
  1  'x, y, z'
loop_
 _atom_site_type_symbol
 _atom_site_label
 _atom_site_symmetry_multiplicity
 _atom_site_fract_x
 _atom_site_fract_y
 _atom_site_fract_z
 _atom_site_occupancy
  Sc  Sc0  1  0.677504  0.877513  0.200009  1
  Sc  Sc1  1  0.322496  0.522505  0.200009  1
  Sc  Sc2  1  0.817241  0.784295  0.601536  1
  Sc  Sc3  1  0.182759  0.784295  0.967054  1
  Sc  Sc4  1  0.817241  0.215705  0.032946  1
  Sc  Sc5  1  0.182759  0.215705  0.398464  1
  Sc  Sc6  1  0.677504  0.477495  0.799991  1
  Sc  Sc7  1  0.322496  0.122487  0.799991  1
  Sc  Sc8  1  0.564101  0.269493  0.294606  1
  Sc  Sc9  1  0.435899  0.730507  0.705394  1
  Sc  Sc10  1  0.025114  0.730507  0.294606  1
  Sc  Sc11  1  0.974886  0.269493  0.705394  1
  Ga  Ga12  1  0.000000  0.500000  0.500000  1
  Ni  Ni13  1  0.352579  0.500000  0.852579  1
  Ni  Ni14  1  0.647421  0.500000  0.147421  1
  Ni  Ni15  1  0.871384  0.871384  0.000000  1
  Ni  Ni16  1  0.128616  0.128616  0.000000  1
  Sn  Sn17  1  0.500000  0.000000  0.500000  1
