# generated using pymatgen
data_TbHo7(ErRu2)2
_symmetry_space_group_name_H-M   'P 1'
_cell_length_a   6.32999063
_cell_length_b   7.25932463
_cell_length_c   8.45003881
_cell_angle_alpha   96.70141048
_cell_angle_beta   112.08135627
_cell_angle_gamma   89.96106429
_symmetry_Int_Tables_number   1
_chemical_formula_structural   TbHo7(ErRu2)2
_chemical_formula_sum   'Tb1 Ho7 Er2 Ru4'
_cell_volume   356.95878252
_cell_formula_units_Z   1
loop_
 _symmetry_equiv_pos_site_id
 _symmetry_equiv_pos_as_xyz
  1  'x, y, z'
loop_
 _atom_site_type_symbol
 _atom_site_label
 _atom_site_symmetry_multiplicity
 _atom_site_fract_x
 _atom_site_fract_y
 _atom_site_fract_z
 _atom_site_occupancy
  Tb  Tb0  1  0.791643  0.584049  0.813553  1
  Ho  Ho1  1  0.978137  0.915856  0.186344  1
  Ho  Ho2  1  0.208035  0.415713  0.186478  1
  Ho  Ho3  1  0.022534  0.084165  0.814008  1
  Ho  Ho4  1  0.205801  0.685084  0.565704  1
  Ho  Ho5  1  0.640578  0.815348  0.434083  1
  Ho  Ho6  1  0.793575  0.314707  0.433684  1
  Ho  Ho7  1  0.359189  0.184772  0.565666  1
  Er  Er8  1  0.420634  0.749971  0.000090  1
  Er  Er9  1  0.579354  0.250048  0.000244  1
  Ru  Ru10  1  0.603128  0.925045  0.779871  1
  Ru  Ru11  1  0.823545  0.576295  0.220122  1
  Ru  Ru12  1  0.396502  0.075423  0.220069  1
  Ru  Ru13  1  0.177346  0.423524  0.780085  1
