# generated using pymatgen
data_Y2ErHf(NiP)4
_symmetry_space_group_name_H-M   'P 1'
_cell_length_a   3.87255100
_cell_length_b   3.87255215
_cell_length_c   15.06990500
_cell_angle_alpha   90.00000000
_cell_angle_beta   90.00000000
_cell_angle_gamma   120.00001584
_symmetry_Int_Tables_number   1
_chemical_formula_structural   Y2ErHf(NiP)4
_chemical_formula_sum   'Y2 Er1 Hf1 Ni4 P4'
_cell_volume   195.72013078
_cell_formula_units_Z   1
loop_
 _symmetry_equiv_pos_site_id
 _symmetry_equiv_pos_as_xyz
  1  'x, y, z'
loop_
 _atom_site_type_symbol
 _atom_site_label
 _atom_site_symmetry_multiplicity
 _atom_site_fract_x
 _atom_site_fract_y
 _atom_site_fract_z
 _atom_site_occupancy
  Y  Y0  1  0.000000  0.000000  0.493178  1
  Y  Y1  1  0.000000  0.000000  0.006822  1
  Er  Er2  1  0.000000  0.000000  0.750000  1
  Hf  Hf3  1  0.000000  0.000000  0.250000  1
  Ni  Ni4  1  0.333333  0.666667  0.344968  1
  Ni  Ni5  1  0.666667  0.333333  0.627496  1
  Ni  Ni6  1  0.666667  0.333333  0.872504  1
  Ni  Ni7  1  0.333333  0.666667  0.155032  1
  P  P8  1  0.333333  0.666667  0.879520  1
  P  P9  1  0.666667  0.333333  0.127910  1
  P  P10  1  0.666667  0.333333  0.372090  1
  P  P11  1  0.333333  0.666667  0.620480  1
