# generated using pymatgen
data_Ba10P2HN9
_symmetry_space_group_name_H-M   'P 1'
_cell_length_a   7.88211552
_cell_length_b   7.88211448
_cell_length_c   9.43175241
_cell_angle_alpha   75.98421952
_cell_angle_beta   75.98422422
_cell_angle_gamma   94.68892108
_symmetry_Int_Tables_number   1
_chemical_formula_structural   Ba10P2HN9
_chemical_formula_sum   'Ba10 P2 H1 N9'
_cell_volume   545.43294287
_cell_formula_units_Z   1
loop_
 _symmetry_equiv_pos_site_id
 _symmetry_equiv_pos_as_xyz
  1  'x, y, z'
loop_
 _atom_site_type_symbol
 _atom_site_label
 _atom_site_symmetry_multiplicity
 _atom_site_fract_x
 _atom_site_fract_y
 _atom_site_fract_z
 _atom_site_occupancy
  Ba  Ba0  1  0.376058  0.376058  0.373226  1
  Ba  Ba1  1  0.602273  0.602273  0.639858  1
  Ba  Ba2  1  0.671220  0.671220  0.998525  1
  Ba  Ba3  1  0.329280  0.329280  0.994305  1
  Ba  Ba4  1  0.938078  0.938078  0.195768  1
  Ba  Ba5  1  0.073905  0.073905  0.794158  1
  Ba  Ba6  1  0.564865  0.089464  0.759083  1
  Ba  Ba7  1  0.918230  0.429586  0.236017  1
  Ba  Ba8  1  0.429586  0.918230  0.236017  1
  Ba  Ba9  1  0.089464  0.564865  0.759083  1
  P  P10  1  0.755631  0.243322  0.002953  1
  P  P11  1  0.243322  0.755631  0.002953  1
  H  H12  1  0.653495  0.653495  0.309271  1
  N  N13  1  0.354453  0.354453  0.670197  1
  N  N14  1  0.717447  0.030600  0.000698  1
  N  N15  1  0.968356  0.275974  0.009700  1
  N  N16  1  0.275974  0.968356  0.009700  1
  N  N17  1  0.030600  0.717447  0.000698  1
  N  N18  1  0.383430  0.726631  0.846727  1
  N  N19  1  0.280022  0.617680  0.157168  1
  N  N20  1  0.617680  0.280022  0.157168  1
  N  N21  1  0.726631  0.383430  0.846727  1
