# generated using pymatgen
data_La5Lu2ThSb10
_symmetry_space_group_name_H-M   'P 1'
_cell_length_a   9.65648000
_cell_length_b   9.63964555
_cell_length_c   6.52980100
_cell_angle_alpha   90.00000000
_cell_angle_beta   90.00000000
_cell_angle_gamma   120.05779338
_symmetry_Int_Tables_number   1
_chemical_formula_structural   La5Lu2ThSb10
_chemical_formula_sum   'La5 Lu2 Th1 Sb10'
_cell_volume   526.08664343
_cell_formula_units_Z   1
loop_
 _symmetry_equiv_pos_site_id
 _symmetry_equiv_pos_as_xyz
  1  'x, y, z'
loop_
 _atom_site_type_symbol
 _atom_site_label
 _atom_site_symmetry_multiplicity
 _atom_site_fract_x
 _atom_site_fract_y
 _atom_site_fract_z
 _atom_site_occupancy
  La  La0  1  0.616720  0.614647  0.750000  1
  La  La1  1  0.380972  0.000000  0.750000  1
  La  La2  1  0.381572  0.381876  0.250000  1
  La  La3  1  0.999696  0.618124  0.250000  1
  La  La4  1  0.002073  0.385353  0.750000  1
  Lu  Lu5  1  0.000510  0.000000  0.999154  1
  Lu  Lu6  1  0.000510  0.000000  0.500846  1
  Th  Th7  1  0.616836  0.000000  0.250000  1
  Sb  Sb8  1  0.337263  0.670895  0.496739  1
  Sb  Sb9  1  0.666369  0.329105  0.003261  1
  Sb  Sb10  1  0.666369  0.329105  0.496739  1
  Sb  Sb11  1  0.337263  0.670895  0.003261  1
  Sb  Sb12  1  0.733707  0.000000  0.750000  1
  Sb  Sb13  1  0.734012  0.737645  0.250000  1
  Sb  Sb14  1  0.996368  0.262355  0.250000  1
  Sb  Sb15  1  0.999343  0.734901  0.750000  1
  Sb  Sb16  1  0.265973  0.000000  0.250000  1
  Sb  Sb17  1  0.264441  0.265099  0.750000  1
