# generated using pymatgen
data_Y2IrPdO7
_symmetry_space_group_name_H-M   'P 1'
_cell_length_a   7.26881596
_cell_length_b   7.29259034
_cell_length_c   7.26881597
_cell_angle_alpha   59.89174493
_cell_angle_beta   59.70121463
_cell_angle_gamma   59.89173925
_symmetry_Int_Tables_number   1
_chemical_formula_structural   Y2IrPdO7
_chemical_formula_sum   'Y4 Ir2 Pd2 O14'
_cell_volume   271.39042007
_cell_formula_units_Z   2
loop_
 _symmetry_equiv_pos_site_id
 _symmetry_equiv_pos_as_xyz
  1  'x, y, z'
loop_
 _atom_site_type_symbol
 _atom_site_label
 _atom_site_symmetry_multiplicity
 _atom_site_fract_x
 _atom_site_fract_y
 _atom_site_fract_z
 _atom_site_occupancy
  Y  Y0  1  0.625000  0.125000  0.125000  1
  Y  Y1  1  0.125000  0.625000  0.125000  1
  Y  Y2  1  0.125000  0.125000  0.625000  1
  Y  Y3  1  0.125000  0.125000  0.125000  1
  Ir  Ir4  1  0.625000  0.125000  0.625000  1
  Ir  Ir5  1  0.625000  0.625000  0.625000  1
  Pd  Pd6  1  0.125000  0.625000  0.625000  1
  Pd  Pd7  1  0.625000  0.625000  0.125000  1
  O  O8  1  0.710581  0.717481  0.289618  1
  O  O9  1  0.289618  0.282320  0.710581  1
  O  O10  1  0.708682  0.291318  0.708682  1
  O  O11  1  0.281534  0.718466  0.281534  1
  O  O12  1  0.289618  0.717481  0.710581  1
  O  O13  1  0.710581  0.282320  0.289618  1
  O  O14  1  0.539419  0.532519  0.960382  1
  O  O15  1  0.960382  0.967680  0.539419  1
  O  O16  1  0.541318  0.958682  0.541318  1
  O  O17  1  0.968466  0.531534  0.968466  1
  O  O18  1  0.960382  0.532519  0.539419  1
  O  O19  1  0.539419  0.967680  0.960382  1
  O  O20  1  0.250696  0.249304  0.250696  1
  O  O21  1  0.999304  0.000696  0.999304  1
