# generated using pymatgen
data_Mn4Nb8Fe4Si13Ge
_symmetry_space_group_name_H-M   'P 1'
_cell_length_a   9.39072482
_cell_length_b   9.38602255
_cell_length_c   9.37170407
_cell_angle_alpha   94.04290162
_cell_angle_beta   94.06469102
_cell_angle_gamma   149.19052634
_symmetry_Int_Tables_number   1
_chemical_formula_structural   Mn4Nb8Fe4Si13Ge
_chemical_formula_sum   'Mn4 Nb8 Fe4 Si13 Ge1'
_cell_volume   407.82609612
_cell_formula_units_Z   1
loop_
 _symmetry_equiv_pos_site_id
 _symmetry_equiv_pos_as_xyz
  1  'x, y, z'
loop_
 _atom_site_type_symbol
 _atom_site_label
 _atom_site_symmetry_multiplicity
 _atom_site_fract_x
 _atom_site_fract_y
 _atom_site_fract_z
 _atom_site_occupancy
  Mn  Mn0  1  0.397753  0.897625  0.795600  1
  Mn  Mn1  1  0.101996  0.601851  0.204001  1
  Mn  Mn2  1  0.099997  0.893774  0.498226  1
  Mn  Mn3  1  0.398361  0.604565  0.498177  1
  Nb  Nb4  1  0.133917  0.133907  0.267839  1
  Nb  Nb5  1  0.867314  0.867322  0.734594  1
  Nb  Nb6  1  0.865247  0.134577  0.000138  1
  Nb  Nb7  1  0.134899  0.865586  0.000151  1
  Nb  Nb8  1  0.498439  0.690025  0.189653  1
  Nb  Nb9  1  0.501074  0.307620  0.812398  1
  Nb  Nb10  1  0.311326  0.504817  0.812412  1
  Nb  Nb11  1  0.691205  0.499637  0.189663  1
  Fe  Fe12  1  0.603406  0.401567  0.498054  1
  Fe  Fe13  1  0.894552  0.096458  0.498027  1
  Fe  Fe14  1  0.900041  0.400062  0.800142  1
  Fe  Fe15  1  0.599762  0.099758  0.199525  1
  Si  Si16  1  0.706145  0.706125  0.412212  1
  Si  Si17  1  0.708858  0.292637  0.000962  1
  Si  Si18  1  0.292112  0.708346  0.000960  1
  Si  Si19  1  0.991997  0.284974  0.291976  1
  Si  Si20  1  0.991271  0.699284  0.707752  1
  Si  Si21  1  0.716528  0.008555  0.707775  1
  Si  Si22  1  0.299959  0.006980  0.292024  1
  Si  Si23  1  0.513038  0.920875  0.405659  1
  Si  Si24  1  0.515687  0.109337  0.592938  1
  Si  Si25  1  0.077194  0.483603  0.592947  1
  Si  Si26  1  0.892662  0.484882  0.405671  1
  Si  Si27  1  0.751459  0.751324  0.000557  1
  Si  Si28  1  0.249109  0.249262  0.000560  1
  Ge  Ge29  1  0.294686  0.294658  0.589405  1
