# generated using pymatgen
data_LiYbPO4
_symmetry_space_group_name_H-M   'P 1'
_cell_length_a   5.38943734
_cell_length_b   9.97135254
_cell_length_c   6.25061900
_cell_angle_alpha   90.00000000
_cell_angle_beta   90.00000000
_cell_angle_gamma   83.55474527
_symmetry_Int_Tables_number   1
_chemical_formula_structural   LiYbPO4
_chemical_formula_sum   'Li4 Yb4 P4 O16'
_cell_volume   333.78505338
_cell_formula_units_Z   4
loop_
 _symmetry_equiv_pos_site_id
 _symmetry_equiv_pos_as_xyz
  1  'x, y, z'
loop_
 _atom_site_type_symbol
 _atom_site_label
 _atom_site_symmetry_multiplicity
 _atom_site_fract_x
 _atom_site_fract_y
 _atom_site_fract_z
 _atom_site_occupancy
  Li  Li0  1  0.159299  0.921159  0.639794  1
  Li  Li1  1  0.340700  0.578842  0.139794  1
  Li  Li2  1  0.659299  0.421159  0.860205  1
  Li  Li3  1  0.840700  0.078842  0.360205  1
  Yb  Yb4  1  0.208498  0.343973  0.611173  1
  Yb  Yb5  1  0.291502  0.156027  0.111173  1
  Yb  Yb6  1  0.708497  0.843973  0.888826  1
  Yb  Yb7  1  0.791501  0.656027  0.388828  1
  P  P8  1  0.736668  0.361282  0.347824  1
  P  P9  1  0.763333  0.138719  0.847823  1
  P  P10  1  0.236666  0.861282  0.152176  1
  P  P11  1  0.263333  0.638719  0.652177  1
  O  O12  1  0.010116  0.778778  0.146427  1
  O  O13  1  0.989884  0.221222  0.853573  1
  O  O14  1  0.769165  0.441468  0.559370  1
  O  O15  1  0.708094  0.468303  0.165153  1
  O  O16  1  0.021028  0.739667  0.671519  1
  O  O17  1  0.978974  0.260333  0.328482  1
  O  O18  1  0.230835  0.558532  0.440629  1
  O  O19  1  0.291906  0.531696  0.834846  1
  O  O20  1  0.208094  0.968303  0.334845  1
  O  O21  1  0.269165  0.941468  0.940630  1
  O  O22  1  0.791906  0.031696  0.665154  1
  O  O23  1  0.510117  0.278778  0.353574  1
  O  O24  1  0.489884  0.721222  0.646427  1
  O  O25  1  0.478974  0.760333  0.171518  1
  O  O26  1  0.730834  0.058532  0.059369  1
  O  O27  1  0.521027  0.239667  0.828483  1
