# generated using pymatgen
data_CaTm2(B3Ir4)2
_symmetry_space_group_name_H-M   'P 1'
_cell_length_a   9.95202990
_cell_length_b   9.11370652
_cell_length_c   5.59017751
_cell_angle_alpha   81.38294093
_cell_angle_beta   64.88076438
_cell_angle_gamma   33.73630558
_symmetry_Int_Tables_number   1
_chemical_formula_structural   CaTm2(B3Ir4)2
_chemical_formula_sum   'Ca1 Tm2 B6 Ir8'
_cell_volume   233.21686354
_cell_formula_units_Z   1
loop_
 _symmetry_equiv_pos_site_id
 _symmetry_equiv_pos_as_xyz
  1  'x, y, z'
loop_
 _atom_site_type_symbol
 _atom_site_label
 _atom_site_symmetry_multiplicity
 _atom_site_fract_x
 _atom_site_fract_y
 _atom_site_fract_z
 _atom_site_occupancy
  Ca  Ca0  1  0.680325  0.680325  0.319675  1
  Tm  Tm1  1  0.321776  0.321776  0.678224  1
  Tm  Tm2  1  0.502706  0.502706  0.497294  1
  B  B3  1  0.672342  0.979206  0.020794  1
  B  B4  1  0.979206  0.672342  0.327658  1
  B  B5  1  0.325926  0.020415  0.979585  1
  B  B6  1  0.020415  0.325926  0.674074  1
  B  B7  1  0.168963  0.831065  0.168935  1
  B  B8  1  0.831065  0.168963  0.831037  1
  Ir  Ir9  1  0.585660  0.585660  0.914340  1
  Ir  Ir10  1  0.912722  0.912722  0.087278  1
  Ir  Ir11  1  0.414418  0.414418  0.085582  1
  Ir  Ir12  1  0.085660  0.085660  0.414340  1
  Ir  Ir13  1  0.914418  0.914418  0.585582  1
  Ir  Ir14  1  0.249857  0.249857  0.250143  1
  Ir  Ir15  1  0.084683  0.084683  0.915317  1
  Ir  Ir16  1  0.749857  0.749857  0.750143  1
