# generated using pymatgen
data_Nb4Ga2B4Ir3Ru7
_symmetry_space_group_name_H-M   'P 1'
_cell_length_a   9.44623552
_cell_length_b   9.39318653
_cell_length_c   2.96851000
_cell_angle_alpha   90.00000000
_cell_angle_beta   90.00000000
_cell_angle_gamma   90.08386668
_symmetry_Int_Tables_number   1
_chemical_formula_structural   Nb4Ga2B4Ir3Ru7
_chemical_formula_sum   'Nb4 Ga2 B4 Ir3 Ru7'
_cell_volume   263.39635880
_cell_formula_units_Z   1
loop_
 _symmetry_equiv_pos_site_id
 _symmetry_equiv_pos_as_xyz
  1  'x, y, z'
loop_
 _atom_site_type_symbol
 _atom_site_label
 _atom_site_symmetry_multiplicity
 _atom_site_fract_x
 _atom_site_fract_y
 _atom_site_fract_z
 _atom_site_occupancy
  Nb  Nb0  1  0.822380  0.675111  0.000000  1
  Nb  Nb1  1  0.173424  0.322127  0.000000  1
  Nb  Nb2  1  0.322585  0.824454  0.000000  1
  Nb  Nb3  1  0.681692  0.176472  0.000000  1
  Ga  Ga4  1  0.500154  0.499400  0.000000  1
  Ga  Ga5  1  0.998693  0.004830  0.000000  1
  B  B6  1  0.627402  0.880429  0.000000  1
  B  B7  1  0.373067  0.119611  0.000000  1
  B  B8  1  0.125642  0.620239  0.000000  1
  B  B9  1  0.874299  0.376166  0.000000  1
  Ir  Ir10  1  0.567801  0.717568  0.500000  1
  Ir  Ir11  1  0.430266  0.282336  0.500000  1
  Ir  Ir12  1  0.068998  0.784015  0.500000  1
  Ru  Ru13  1  0.931014  0.218569  0.500000  1
  Ru  Ru14  1  0.284473  0.568730  0.500000  1
  Ru  Ru15  1  0.715335  0.432765  0.500000  1
  Ru  Ru16  1  0.216638  0.066418  0.500000  1
  Ru  Ru17  1  0.785170  0.929106  0.500000  1
  Ru  Ru18  1  0.501482  0.000635  0.500000  1
  Ru  Ru19  1  0.999485  0.501020  0.500000  1
