# generated using pymatgen
data_Zn22Ir2Pt
_symmetry_space_group_name_H-M   'P 1'
_cell_length_a   7.79494531
_cell_length_b   7.79494732
_cell_length_c   7.82667718
_cell_angle_alpha   71.96882583
_cell_angle_beta   71.96882516
_cell_angle_gamma   58.38278198
_symmetry_Int_Tables_number   1
_chemical_formula_structural   Zn22Ir2Pt
_chemical_formula_sum   'Zn22 Ir2 Pt1'
_cell_volume   378.66028622
_cell_formula_units_Z   1
loop_
 _symmetry_equiv_pos_site_id
 _symmetry_equiv_pos_as_xyz
  1  'x, y, z'
loop_
 _atom_site_type_symbol
 _atom_site_label
 _atom_site_symmetry_multiplicity
 _atom_site_fract_x
 _atom_site_fract_y
 _atom_site_fract_z
 _atom_site_occupancy
  Zn  Zn0  1  0.341309  0.737930  0.315419  1
  Zn  Zn1  1  0.656848  0.261818  0.686073  1
  Zn  Zn2  1  0.261818  0.656848  0.686073  1
  Zn  Zn3  1  0.737930  0.341309  0.315419  1
  Zn  Zn4  1  0.680214  0.318554  0.999497  1
  Zn  Zn5  1  0.318554  0.680214  0.999497  1
  Zn  Zn6  1  0.831820  0.831820  0.781355  1
  Zn  Zn7  1  0.169464  0.169464  0.217952  1
  Zn  Zn8  1  0.974006  0.974006  0.173031  1
  Zn  Zn9  1  0.026611  0.026611  0.826219  1
  Zn  Zn10  1  0.353001  0.353001  0.277342  1
  Zn  Zn11  1  0.646632  0.646632  0.721857  1
  Zn  Zn12  1  0.685902  0.685902  0.380630  1
  Zn  Zn13  1  0.314832  0.314832  0.619964  1
  Zn  Zn14  1  0.658573  0.025191  0.456213  1
  Zn  Zn15  1  0.342809  0.973542  0.542740  1
  Zn  Zn16  1  0.973542  0.342809  0.542740  1
  Zn  Zn17  1  0.025191  0.658573  0.456213  1
  Zn  Zn18  1  0.618508  0.999646  0.105747  1
  Zn  Zn19  1  0.379085  0.003048  0.894671  1
  Zn  Zn20  1  0.003048  0.379085  0.894671  1
  Zn  Zn21  1  0.999646  0.618508  0.105747  1
  Ir  Ir22  1  0.341797  0.341797  0.945637  1
  Ir  Ir23  1  0.000478  0.000478  0.500391  1
  Pt  Pt24  1  0.658380  0.658380  0.054902  1
