# generated using pymatgen
data_Lu3Np(TcB6)2
_symmetry_space_group_name_H-M   'P 1'
_cell_length_a   3.63559700
_cell_length_b   9.07487987
_cell_length_c   11.42781451
_cell_angle_alpha   90.17653063
_cell_angle_beta   90.00000000
_cell_angle_gamma   90.00000000
_symmetry_Int_Tables_number   1
_chemical_formula_structural   Lu3Np(TcB6)2
_chemical_formula_sum   'Lu6 Np2 Tc4 B24'
_cell_volume   377.03159256
_cell_formula_units_Z   2
loop_
 _symmetry_equiv_pos_site_id
 _symmetry_equiv_pos_as_xyz
  1  'x, y, z'
loop_
 _atom_site_type_symbol
 _atom_site_label
 _atom_site_symmetry_multiplicity
 _atom_site_fract_x
 _atom_site_fract_y
 _atom_site_fract_z
 _atom_site_occupancy
  Lu  Lu0  1  0.000000  0.822711  0.085358  1
  Lu  Lu1  1  0.000000  0.177289  0.914642  1
  Lu  Lu2  1  0.000000  0.944524  0.371708  1
  Lu  Lu3  1  0.000000  0.055476  0.628292  1
  Lu  Lu4  1  0.000000  0.443270  0.127703  1
  Lu  Lu5  1  0.000000  0.556730  0.872297  1
  Np  Np6  1  0.000000  0.321607  0.413484  1
  Np  Np7  1  0.000000  0.678393  0.586516  1
  Tc  Tc8  1  0.000000  0.636862  0.323439  1
  Tc  Tc9  1  0.000000  0.363138  0.676561  1
  Tc  Tc10  1  0.000000  0.140320  0.181519  1
  Tc  Tc11  1  0.000000  0.859680  0.818481  1
  B  B12  1  0.500000  0.552759  0.433629  1
  B  B13  1  0.500000  0.447241  0.566371  1
  B  B14  1  0.500000  0.053245  0.066198  1
  B  B15  1  0.500000  0.946755  0.933802  1
  B  B16  1  0.500000  0.750349  0.420011  1
  B  B17  1  0.500000  0.249651  0.579989  1
  B  B18  1  0.500000  0.249679  0.079383  1
  B  B19  1  0.500000  0.750321  0.920617  1
  B  B20  1  0.500000  0.793080  0.264697  1
  B  B21  1  0.500000  0.206920  0.735303  1
  B  B22  1  0.500000  0.293517  0.234330  1
  B  B23  1  0.500000  0.706483  0.765670  1
  B  B24  1  0.500000  0.631057  0.184185  1
  B  B25  1  0.500000  0.368943  0.815815  1
  B  B26  1  0.500000  0.131898  0.315372  1
  B  B27  1  0.500000  0.868102  0.684628  1
  B  B28  1  0.500000  0.981063  0.211741  1
  B  B29  1  0.500000  0.018937  0.788259  1
  B  B30  1  0.500000  0.481308  0.286834  1
  B  B31  1  0.500000  0.518692  0.713166  1
  B  B32  1  0.500000  0.602563  0.028701  1
  B  B33  1  0.500000  0.397437  0.971299  1
  B  B34  1  0.500000  0.105794  0.470792  1
  B  B35  1  0.500000  0.894206  0.529208  1
