# generated using pymatgen
data_LaDy4Bi3
_symmetry_space_group_name_H-M   'P 1'
_cell_length_a   8.39522600
_cell_length_b   9.59388600
_cell_length_c   12.18638300
_cell_angle_alpha   90.00000000
_cell_angle_beta   90.00000000
_cell_angle_gamma   90.00000000
_symmetry_Int_Tables_number   1
_chemical_formula_structural   LaDy4Bi3
_chemical_formula_sum   'La4 Dy16 Bi12'
_cell_volume   981.52591063
_cell_formula_units_Z   4
loop_
 _symmetry_equiv_pos_site_id
 _symmetry_equiv_pos_as_xyz
  1  'x, y, z'
loop_
 _atom_site_type_symbol
 _atom_site_label
 _atom_site_symmetry_multiplicity
 _atom_site_fract_x
 _atom_site_fract_y
 _atom_site_fract_z
 _atom_site_occupancy
  La  La0  1  0.685177  0.750000  0.778058  1
  La  La1  1  0.814822  0.250000  0.278058  1
  La  La2  1  0.185178  0.750000  0.721942  1
  La  La3  1  0.314823  0.250000  0.221942  1
  Dy  Dy4  1  0.194259  0.936484  0.441419  1
  Dy  Dy5  1  0.305741  0.063516  0.941419  1
  Dy  Dy6  1  0.694259  0.563515  0.058581  1
  Dy  Dy7  1  0.805741  0.436484  0.558581  1
  Dy  Dy8  1  0.805741  0.063516  0.558581  1
  Dy  Dy9  1  0.694259  0.936484  0.058581  1
  Dy  Dy10  1  0.305741  0.436484  0.941419  1
  Dy  Dy11  1  0.194259  0.563515  0.441419  1
  Dy  Dy12  1  0.524753  0.750000  0.511262  1
  Dy  Dy13  1  0.975246  0.250000  0.011262  1
  Dy  Dy14  1  0.024754  0.750000  0.988737  1
  Dy  Dy15  1  0.475246  0.250000  0.488738  1
  Dy  Dy16  1  0.850810  0.750000  0.284237  1
  Dy  Dy17  1  0.649191  0.250000  0.784237  1
  Dy  Dy18  1  0.350809  0.750000  0.215763  1
  Dy  Dy19  1  0.149190  0.250000  0.715763  1
  Bi  Bi20  1  0.063206  0.510233  0.173143  1
  Bi  Bi21  1  0.436793  0.489767  0.673143  1
  Bi  Bi22  1  0.563206  0.989768  0.326857  1
  Bi  Bi23  1  0.936792  0.010233  0.826857  1
  Bi  Bi24  1  0.936792  0.489767  0.826857  1
  Bi  Bi25  1  0.563206  0.510233  0.326857  1
  Bi  Bi26  1  0.436793  0.010233  0.673143  1
  Bi  Bi27  1  0.063206  0.989768  0.173143  1
  Bi  Bi28  1  0.907375  0.750000  0.536965  1
  Bi  Bi29  1  0.592624  0.250000  0.036966  1
  Bi  Bi30  1  0.407375  0.750000  0.963034  1
  Bi  Bi31  1  0.092625  0.250000  0.463034  1
