# generated using pymatgen
data_Ta4Al3BW
_symmetry_space_group_name_H-M   'P 1'
_cell_length_a   7.80915900
_cell_length_b   7.80915832
_cell_length_c   5.28179000
_cell_angle_alpha   90.00000000
_cell_angle_beta   90.00000000
_cell_angle_gamma   120.00000713
_symmetry_Int_Tables_number   1
_chemical_formula_structural   Ta4Al3BW
_chemical_formula_sum   'Ta8 Al6 B2 W2'
_cell_volume   278.94605483
_cell_formula_units_Z   2
loop_
 _symmetry_equiv_pos_site_id
 _symmetry_equiv_pos_as_xyz
  1  'x, y, z'
loop_
 _atom_site_type_symbol
 _atom_site_label
 _atom_site_symmetry_multiplicity
 _atom_site_fract_x
 _atom_site_fract_y
 _atom_site_fract_z
 _atom_site_occupancy
  Ta  Ta0  1  0.241834  0.000000  0.254350  1
  Ta  Ta1  1  0.758166  0.000000  0.745650  1
  Ta  Ta2  1  0.000000  0.241834  0.254350  1
  Ta  Ta3  1  0.000000  0.758166  0.745650  1
  Ta  Ta4  1  0.758166  0.758166  0.254350  1
  Ta  Ta5  1  0.241834  0.241834  0.745650  1
  Ta  Ta6  1  0.666667  0.333333  0.500000  1
  Ta  Ta7  1  0.333333  0.666667  0.500000  1
  Al  Al8  1  0.595503  0.000000  0.239690  1
  Al  Al9  1  0.404497  0.000000  0.760310  1
  Al  Al10  1  0.000000  0.595503  0.239690  1
  Al  Al11  1  0.000000  0.404497  0.760310  1
  Al  Al12  1  0.404497  0.404497  0.239690  1
  Al  Al13  1  0.595503  0.595503  0.760310  1
  B  B14  1  0.000000  0.000000  0.000000  1
  B  B15  1  0.000000  0.000000  0.500000  1
  W  W16  1  0.333333  0.666667  0.000000  1
  W  W17  1  0.666667  0.333333  0.000000  1
