# generated using pymatgen
data_CsCrAs2Pt
_symmetry_space_group_name_H-M   'P 1'
_cell_length_a   8.10081308
_cell_length_b   8.10081257
_cell_length_c   8.10081262
_cell_angle_alpha   150.78891851
_cell_angle_beta   150.78892564
_cell_angle_gamma   41.78457743
_symmetry_Int_Tables_number   1
_chemical_formula_structural   CsCrAs2Pt
_chemical_formula_sum   'Cs1 Cr1 As2 Pt1'
_cell_volume   126.32009443
_cell_formula_units_Z   1
loop_
 _symmetry_equiv_pos_site_id
 _symmetry_equiv_pos_as_xyz
  1  'x, y, z'
loop_
 _atom_site_type_symbol
 _atom_site_label
 _atom_site_symmetry_multiplicity
 _atom_site_fract_x
 _atom_site_fract_y
 _atom_site_fract_z
 _atom_site_occupancy
  Cs  Cs0  1  0.000000  0.000000  0.000000  1
  Cr  Cr1  1  0.250000  0.750000  0.500000  1
  As  As2  1  0.343722  0.343722  0.000000  1
  As  As3  1  0.656278  0.656278  0.000000  1
  Pt  Pt4  1  0.750000  0.250000  0.500000  1
