# generated using pymatgen
data_Pr3Nb(Ga3Pd)8
_symmetry_space_group_name_H-M   'P 1'
_cell_length_a   8.57919393
_cell_length_b   8.57919372
_cell_length_c   8.57919346
_cell_angle_alpha   89.89350051
_cell_angle_beta   89.89350549
_cell_angle_gamma   89.89350617
_symmetry_Int_Tables_number   1
_chemical_formula_structural   Pr3Nb(Ga3Pd)8
_chemical_formula_sum   'Pr3 Nb1 Ga24 Pd8'
_cell_volume   631.44739087
_cell_formula_units_Z   1
loop_
 _symmetry_equiv_pos_site_id
 _symmetry_equiv_pos_as_xyz
  1  'x, y, z'
loop_
 _atom_site_type_symbol
 _atom_site_label
 _atom_site_symmetry_multiplicity
 _atom_site_fract_x
 _atom_site_fract_y
 _atom_site_fract_z
 _atom_site_occupancy
  Pr  Pr0  1  0.000000  0.500000  0.000000  1
  Pr  Pr1  1  0.500000  0.000000  0.000000  1
  Pr  Pr2  1  0.000000  0.000000  0.500000  1
  Nb  Nb3  1  0.500000  0.500000  0.500000  1
  Ga  Ga4  1  0.989619  0.643061  0.643061  1
  Ga  Ga5  1  0.643061  0.643061  0.989619  1
  Ga  Ga6  1  0.643061  0.989619  0.643061  1
  Ga  Ga7  1  0.010381  0.356939  0.356939  1
  Ga  Ga8  1  0.356939  0.356939  0.010381  1
  Ga  Ga9  1  0.356939  0.010381  0.356939  1
  Ga  Ga10  1  0.735435  0.500000  0.264565  1
  Ga  Ga11  1  0.264565  0.500000  0.735435  1
  Ga  Ga12  1  0.500000  0.264565  0.735435  1
  Ga  Ga13  1  0.500000  0.735435  0.264565  1
  Ga  Ga14  1  0.264565  0.735435  0.500000  1
  Ga  Ga15  1  0.735435  0.264565  0.500000  1
  Ga  Ga16  1  0.838522  0.143273  0.838522  1
  Ga  Ga17  1  0.143273  0.838522  0.838522  1
  Ga  Ga18  1  0.838522  0.838522  0.143273  1
  Ga  Ga19  1  0.161478  0.856727  0.161478  1
  Ga  Ga20  1  0.856727  0.161478  0.161478  1
  Ga  Ga21  1  0.161478  0.161478  0.856727  1
  Ga  Ga22  1  0.728427  0.488559  0.728427  1
  Ga  Ga23  1  0.488559  0.728427  0.728427  1
  Ga  Ga24  1  0.728427  0.728427  0.488559  1
  Ga  Ga25  1  0.271573  0.511441  0.271573  1
  Ga  Ga26  1  0.511441  0.271573  0.271573  1
  Ga  Ga27  1  0.271573  0.271573  0.511441  1
  Pd  Pd28  1  0.837316  0.837316  0.837316  1
  Pd  Pd29  1  0.162684  0.162684  0.162684  1
  Pd  Pd30  1  0.663820  0.336180  0.000000  1
  Pd  Pd31  1  0.000000  0.336180  0.663820  1
  Pd  Pd32  1  0.336180  0.000000  0.663820  1
  Pd  Pd33  1  0.336180  0.663820  0.000000  1
  Pd  Pd34  1  0.000000  0.663820  0.336180  1
  Pd  Pd35  1  0.663820  0.000000  0.336180  1
