# generated using pymatgen
data_Lu6Ti5Al11Os7
_symmetry_space_group_name_H-M   'P 1'
_cell_length_a   8.96028884
_cell_length_b   8.96028940
_cell_length_c   8.94359280
_cell_angle_alpha   59.93822582
_cell_angle_beta   59.93822346
_cell_angle_gamma   60.00000201
_symmetry_Int_Tables_number   1
_chemical_formula_structural   Lu6Ti5Al11Os7
_chemical_formula_sum   'Lu6 Ti5 Al11 Os7'
_cell_volume   507.26503185
_cell_formula_units_Z   1
loop_
 _symmetry_equiv_pos_site_id
 _symmetry_equiv_pos_as_xyz
  1  'x, y, z'
loop_
 _atom_site_type_symbol
 _atom_site_label
 _atom_site_symmetry_multiplicity
 _atom_site_fract_x
 _atom_site_fract_y
 _atom_site_fract_z
 _atom_site_occupancy
  Lu  Lu0  1  0.708045  0.708045  0.292511  1
  Lu  Lu1  1  0.291399  0.708045  0.292511  1
  Lu  Lu2  1  0.708045  0.291399  0.292511  1
  Lu  Lu3  1  0.292005  0.292005  0.711071  1
  Lu  Lu4  1  0.704918  0.292005  0.711071  1
  Lu  Lu5  1  0.292005  0.704918  0.711071  1
  Ti  Ti6  1  0.880100  0.880100  0.359699  1
  Ti  Ti7  1  0.878671  0.361611  0.881047  1
  Ti  Ti8  1  0.361611  0.878671  0.881047  1
  Ti  Ti9  1  0.878671  0.878671  0.881047  1
  Ti  Ti10  1  0.122641  0.122641  0.632078  1
  Al  Al11  1  0.118247  0.643704  0.119802  1
  Al  Al12  1  0.643704  0.118247  0.119802  1
  Al  Al13  1  0.118247  0.118247  0.119802  1
  Al  Al14  1  0.668636  0.668636  0.994094  1
  Al  Al15  1  0.668622  0.993892  0.668867  1
  Al  Al16  1  0.993892  0.668622  0.668867  1
  Al  Al17  1  0.668622  0.668622  0.668867  1
  Al  Al18  1  0.330470  0.330470  0.008587  1
  Al  Al19  1  0.333204  0.004020  0.329571  1
  Al  Al20  1  0.004020  0.333204  0.329571  1
  Al  Al21  1  0.333204  0.333204  0.329571  1
  Os  Os22  1  0.004437  0.004437  0.986688  1
  Os  Os23  1  0.999235  0.999235  0.504089  1
  Os  Os24  1  0.497442  0.999235  0.504089  1
  Os  Os25  1  0.999235  0.497442  0.504089  1
  Os  Os26  1  0.500499  0.500499  0.999327  1
  Os  Os27  1  0.999676  0.500499  0.999327  1
  Os  Os28  1  0.500499  0.999676  0.999327  1
