# generated using pymatgen
data_La8MgZn7(Ir3Pt)2
_symmetry_space_group_name_H-M   'P 1'
_cell_length_a   4.09413200
_cell_length_b   7.52678304
_cell_length_c   16.81052237
_cell_angle_alpha   90.11799356
_cell_angle_beta   90.00000000
_cell_angle_gamma   90.00000000
_symmetry_Int_Tables_number   1
_chemical_formula_structural   La8MgZn7(Ir3Pt)2
_chemical_formula_sum   'La8 Mg1 Zn7 Ir6 Pt2'
_cell_volume   518.02596234
_cell_formula_units_Z   1
loop_
 _symmetry_equiv_pos_site_id
 _symmetry_equiv_pos_as_xyz
  1  'x, y, z'
loop_
 _atom_site_type_symbol
 _atom_site_label
 _atom_site_symmetry_multiplicity
 _atom_site_fract_x
 _atom_site_fract_y
 _atom_site_fract_z
 _atom_site_occupancy
  La  La0  1  0.750000  0.326565  0.444620  1
  La  La1  1  0.250000  0.047323  0.715386  1
  La  La2  1  0.250000  0.558510  0.780489  1
  La  La3  1  0.250000  0.671795  0.560381  1
  La  La4  1  0.750000  0.823021  0.056781  1
  La  La5  1  0.250000  0.171284  0.941579  1
  La  La6  1  0.750000  0.461896  0.216302  1
  La  La7  1  0.750000  0.935678  0.287650  1
  Mg  Mg8  1  0.250000  0.124447  0.149652  1
  Zn  Zn9  1  0.250000  0.995524  0.443039  1
  Zn  Zn10  1  0.750000  0.871295  0.850009  1
  Zn  Zn11  1  0.750000  0.999929  0.560349  1
  Zn  Zn12  1  0.250000  0.499200  0.058768  1
  Zn  Zn13  1  0.750000  0.377997  0.646949  1
  Zn  Zn14  1  0.750000  0.505000  0.937991  1
  Zn  Zn15  1  0.250000  0.623227  0.354346  1
  Ir  Ir16  1  0.250000  0.739793  0.933207  1
  Ir  Ir17  1  0.250000  0.238981  0.566025  1
  Ir  Ir18  1  0.250000  0.747621  0.185806  1
  Ir  Ir19  1  0.750000  0.757781  0.436514  1
  Ir  Ir20  1  0.750000  0.265095  0.061846  1
  Ir  Ir21  1  0.750000  0.755680  0.686702  1
  Pt  Pt22  1  0.750000  0.259192  0.812187  1
  Pt  Pt23  1  0.250000  0.243166  0.313421  1
