# generated using pymatgen
data_Ho2Mg(PRh2)6
_symmetry_space_group_name_H-M   'P 1'
_cell_length_a   9.69556900
_cell_length_b   9.69556833
_cell_length_c   3.88455600
_cell_angle_alpha   90.00000000
_cell_angle_beta   90.00000000
_cell_angle_gamma   120.00000569
_symmetry_Int_Tables_number   1
_chemical_formula_structural   Ho2Mg(PRh2)6
_chemical_formula_sum   'Ho2 Mg1 P6 Rh12'
_cell_volume   316.24128532
_cell_formula_units_Z   1
loop_
 _symmetry_equiv_pos_site_id
 _symmetry_equiv_pos_as_xyz
  1  'x, y, z'
loop_
 _atom_site_type_symbol
 _atom_site_label
 _atom_site_symmetry_multiplicity
 _atom_site_fract_x
 _atom_site_fract_y
 _atom_site_fract_z
 _atom_site_occupancy
  Ho  Ho0  1  0.333333  0.666667  0.752324  1
  Ho  Ho1  1  0.666667  0.333333  0.247676  1
  Mg  Mg2  1  0.000000  0.000000  0.500000  1
  P  P3  1  0.402371  0.285275  0.746444  1
  P  P4  1  0.714725  0.117095  0.746444  1
  P  P5  1  0.882905  0.597629  0.746444  1
  P  P6  1  0.597629  0.714725  0.253556  1
  P  P7  1  0.285275  0.882905  0.253556  1
  P  P8  1  0.117095  0.402371  0.253556  1
  Rh  Rh9  1  0.453564  0.066477  0.748416  1
  Rh  Rh10  1  0.933523  0.387087  0.748416  1
  Rh  Rh11  1  0.612913  0.546436  0.748416  1
  Rh  Rh12  1  0.546436  0.933523  0.251584  1
  Rh  Rh13  1  0.066477  0.612913  0.251584  1
  Rh  Rh14  1  0.387087  0.453564  0.251584  1
  Rh  Rh15  1  0.161193  0.289284  0.754535  1
  Rh  Rh16  1  0.710716  0.871908  0.754535  1
  Rh  Rh17  1  0.128092  0.838807  0.754535  1
  Rh  Rh18  1  0.838807  0.710716  0.245465  1
  Rh  Rh19  1  0.289284  0.128092  0.245465  1
  Rh  Rh20  1  0.871908  0.161193  0.245465  1
