# generated using pymatgen
data_La6ScCd22As
_symmetry_space_group_name_H-M   'P 1'
_cell_length_a   10.19662473
_cell_length_b   10.19665029
_cell_length_c   10.19665200
_cell_angle_alpha   59.99974574
_cell_angle_beta   60.00046586
_cell_angle_gamma   60.00048744
_symmetry_Int_Tables_number   1
_chemical_formula_structural   La6ScCd22As
_chemical_formula_sum   'La6 Sc1 Cd22 As1'
_cell_volume   749.65053427
_cell_formula_units_Z   1
loop_
 _symmetry_equiv_pos_site_id
 _symmetry_equiv_pos_as_xyz
  1  'x, y, z'
loop_
 _atom_site_type_symbol
 _atom_site_label
 _atom_site_symmetry_multiplicity
 _atom_site_fract_x
 _atom_site_fract_y
 _atom_site_fract_z
 _atom_site_occupancy
  La  La0  1  0.790016  0.789998  0.209976  1
  La  La1  1  0.209967  0.789989  0.210019  1
  La  La2  1  0.789998  0.209986  0.210010  1
  La  La3  1  0.209975  0.210014  0.790002  1
  La  La4  1  0.790003  0.210003  0.790008  1
  La  La5  1  0.209978  0.790026  0.790003  1
  Sc  Sc6  1  0.500001  0.500001  0.499993  1
  Cd  Cd7  1  0.830697  0.830693  0.507917  1
  Cd  Cd8  1  0.830698  0.507917  0.830692  1
  Cd  Cd9  1  0.507914  0.830696  0.830694  1
  Cd  Cd10  1  0.830697  0.830694  0.830697  1
  Cd  Cd11  1  0.169309  0.169305  0.492083  1
  Cd  Cd12  1  0.169307  0.492084  0.169303  1
  Cd  Cd13  1  0.492088  0.169306  0.169303  1
  Cd  Cd14  1  0.169309  0.169303  0.169305  1
  Cd  Cd15  1  0.620055  0.620050  0.139841  1
  Cd  Cd16  1  0.620053  0.139843  0.620056  1
  Cd  Cd17  1  0.139848  0.620047  0.620055  1
  Cd  Cd18  1  0.620057  0.620053  0.620053  1
  Cd  Cd19  1  0.379948  0.379949  0.860155  1
  Cd  Cd20  1  0.379952  0.860155  0.379948  1
  Cd  Cd21  1  0.860161  0.379950  0.379944  1
  Cd  Cd22  1  0.379948  0.379946  0.379948  1
  Cd  Cd23  1  0.000007  0.999997  0.500000  1
  Cd  Cd24  1  0.500001  0.999999  0.500003  1
  Cd  Cd25  1  0.000004  0.499997  0.500000  1
  Cd  Cd26  1  0.500003  0.500001  0.999994  1
  Cd  Cd27  1  0.000002  0.499998  0.999998  1
  Cd  Cd28  1  0.500002  0.000000  0.999998  1
  As  As29  1  0.000000  0.000000  0.000002  1
