# generated using pymatgen
data_YLu7(SiPd)8
_symmetry_space_group_name_H-M   'P 1'
_cell_length_a   4.32733700
_cell_length_b   7.47804700
_cell_length_c   13.89618700
_cell_angle_alpha   90.00000000
_cell_angle_beta   90.00000000
_cell_angle_gamma   90.00000000
_symmetry_Int_Tables_number   1
_chemical_formula_structural   YLu7(SiPd)8
_chemical_formula_sum   'Y1 Lu7 Si8 Pd8'
_cell_volume   449.68102085
_cell_formula_units_Z   1
loop_
 _symmetry_equiv_pos_site_id
 _symmetry_equiv_pos_as_xyz
  1  'x, y, z'
loop_
 _atom_site_type_symbol
 _atom_site_label
 _atom_site_symmetry_multiplicity
 _atom_site_fract_x
 _atom_site_fract_y
 _atom_site_fract_z
 _atom_site_occupancy
  Y  Y0  1  0.000000  0.299314  0.000000  1
  Lu  Lu1  1  0.500000  0.788520  0.748654  1
  Lu  Lu2  1  0.000000  0.210845  0.749513  1
  Lu  Lu3  1  0.500000  0.788520  0.251346  1
  Lu  Lu4  1  0.000000  0.210845  0.250487  1
  Lu  Lu5  1  0.500000  0.711455  0.000000  1
  Lu  Lu6  1  0.000000  0.290416  0.500000  1
  Lu  Lu7  1  0.500000  0.701882  0.500000  1
  Si  Si8  1  0.500000  0.407274  0.641786  1
  Si  Si9  1  0.000000  0.593841  0.855693  1
  Si  Si10  1  0.500000  0.407274  0.358214  1
  Si  Si11  1  0.000000  0.593841  0.144307  1
  Si  Si12  1  0.500000  0.090650  0.095514  1
  Si  Si13  1  0.000000  0.907393  0.406182  1
  Si  Si14  1  0.500000  0.090650  0.904486  1
  Si  Si15  1  0.000000  0.907393  0.593818  1
  Pd  Pd16  1  0.500000  0.075083  0.608847  1
  Pd  Pd17  1  0.000000  0.923691  0.890186  1
  Pd  Pd18  1  0.500000  0.075083  0.391153  1
  Pd  Pd19  1  0.000000  0.923691  0.109814  1
  Pd  Pd20  1  0.500000  0.422317  0.158250  1
  Pd  Pd21  1  0.000000  0.578852  0.344795  1
  Pd  Pd22  1  0.500000  0.422317  0.841750  1
  Pd  Pd23  1  0.000000  0.578852  0.655205  1
