# generated using pymatgen
data_Ca20Zn9CdSn2
_symmetry_space_group_name_H-M   'P 1'
_cell_length_a   7.97546900
_cell_length_b   7.97546900
_cell_length_c   15.24516400
_cell_angle_alpha   90.00000000
_cell_angle_beta   90.00000000
_cell_angle_gamma   90.00000000
_symmetry_Int_Tables_number   1
_chemical_formula_structural   Ca20Zn9CdSn2
_chemical_formula_sum   'Ca20 Zn9 Cd1 Sn2'
_cell_volume   969.71600419
_cell_formula_units_Z   1
loop_
 _symmetry_equiv_pos_site_id
 _symmetry_equiv_pos_as_xyz
  1  'x, y, z'
loop_
 _atom_site_type_symbol
 _atom_site_label
 _atom_site_symmetry_multiplicity
 _atom_site_fract_x
 _atom_site_fract_y
 _atom_site_fract_z
 _atom_site_occupancy
  Ca  Ca0  1  0.675379  0.166791  0.104428  1
  Ca  Ca1  1  0.172785  0.671018  0.603490  1
  Ca  Ca2  1  0.324621  0.833209  0.104428  1
  Ca  Ca3  1  0.827215  0.328982  0.603490  1
  Ca  Ca4  1  0.833209  0.675379  0.104428  1
  Ca  Ca5  1  0.328982  0.172785  0.603490  1
  Ca  Ca6  1  0.166791  0.324621  0.104428  1
  Ca  Ca7  1  0.671018  0.827215  0.603490  1
  Ca  Ca8  1  0.833209  0.324621  0.895572  1
  Ca  Ca9  1  0.328982  0.827215  0.396510  1
  Ca  Ca10  1  0.166791  0.675379  0.895572  1
  Ca  Ca11  1  0.671018  0.172785  0.396510  1
  Ca  Ca12  1  0.675379  0.833209  0.895572  1
  Ca  Ca13  1  0.172785  0.328982  0.396510  1
  Ca  Ca14  1  0.324621  0.166791  0.895572  1
  Ca  Ca15  1  0.827215  0.671018  0.396510  1
  Ca  Ca16  1  0.500000  0.500000  0.750994  1
  Ca  Ca17  1  0.000000  0.000000  0.254423  1
  Ca  Ca18  1  0.000000  0.000000  0.745577  1
  Ca  Ca19  1  0.500000  0.500000  0.249006  1
  Zn  Zn20  1  0.614399  0.114661  0.750548  1
  Zn  Zn21  1  0.114661  0.614399  0.249452  1
  Zn  Zn22  1  0.885339  0.385601  0.249452  1
  Zn  Zn23  1  0.385601  0.885339  0.750548  1
  Zn  Zn24  1  0.885339  0.614399  0.750548  1
  Zn  Zn25  1  0.385601  0.114661  0.249452  1
  Zn  Zn26  1  0.114661  0.385601  0.750548  1
  Zn  Zn27  1  0.614399  0.885339  0.249452  1
  Zn  Zn28  1  0.000000  0.000000  0.000000  1
  Cd  Cd29  1  0.500000  0.500000  0.000000  1
  Sn  Sn30  1  0.500000  0.500000  0.500000  1
  Sn  Sn31  1  0.000000  0.000000  0.500000  1
