# generated using pymatgen
data_Dy15Ho(LuSn4)4
_symmetry_space_group_name_H-M   'P 1'
_cell_length_a   8.01100612
_cell_length_b   8.16793367
_cell_length_c   15.47660500
_cell_angle_alpha   90.02068641
_cell_angle_beta   89.94943441
_cell_angle_gamma   90.04144017
_symmetry_Int_Tables_number   1
_chemical_formula_structural   Dy15Ho(LuSn4)4
_chemical_formula_sum   'Dy15 Ho1 Lu4 Sn16'
_cell_volume   1012.68564353
_cell_formula_units_Z   1
loop_
 _symmetry_equiv_pos_site_id
 _symmetry_equiv_pos_as_xyz
  1  'x, y, z'
loop_
 _atom_site_type_symbol
 _atom_site_label
 _atom_site_symmetry_multiplicity
 _atom_site_fract_x
 _atom_site_fract_y
 _atom_site_fract_z
 _atom_site_occupancy
  Dy  Dy0  1  0.865327  0.662316  0.623017  1
  Dy  Dy1  1  0.634515  0.162133  0.377371  1
  Dy  Dy2  1  0.135510  0.337727  0.121554  1
  Dy  Dy3  1  0.634428  0.162714  0.122812  1
  Dy  Dy4  1  0.134300  0.337462  0.377448  1
  Dy  Dy5  1  0.365787  0.837670  0.622791  1
  Dy  Dy6  1  0.865642  0.662288  0.877915  1
  Dy  Dy7  1  0.518744  0.320517  0.903547  1
  Dy  Dy8  1  0.019817  0.179095  0.597201  1
  Dy  Dy9  1  0.480747  0.679516  0.403590  1
  Dy  Dy10  1  0.980370  0.820625  0.096499  1
  Dy  Dy11  1  0.481526  0.680195  0.095561  1
  Dy  Dy12  1  0.980764  0.820612  0.403245  1
  Dy  Dy13  1  0.519344  0.320828  0.597170  1
  Dy  Dy14  1  0.018653  0.178601  0.903182  1
  Ho  Ho15  1  0.364628  0.838293  0.876369  1
  Lu  Lu16  1  0.197110  0.503315  0.750540  1
  Lu  Lu17  1  0.696512  0.996611  0.750350  1
  Lu  Lu18  1  0.803656  0.496698  0.250031  1
  Lu  Lu19  1  0.303350  0.003017  0.249563  1
  Sn  Sn20  1  0.294528  0.036301  0.041647  1
  Sn  Sn21  1  0.793881  0.463338  0.458134  1
  Sn  Sn22  1  0.706776  0.963169  0.542336  1
  Sn  Sn23  1  0.206455  0.537775  0.957394  1
  Sn  Sn24  1  0.703539  0.962818  0.957646  1
  Sn  Sn25  1  0.205811  0.536397  0.542383  1
  Sn  Sn26  1  0.293839  0.036602  0.457858  1
  Sn  Sn27  1  0.794353  0.463171  0.042475  1
  Sn  Sn28  1  0.561874  0.618081  0.750327  1
  Sn  Sn29  1  0.061652  0.882020  0.750402  1
  Sn  Sn30  1  0.438286  0.382581  0.250023  1
  Sn  Sn31  1  0.938504  0.118027  0.249575  1
  Sn  Sn32  1  0.328958  0.150253  0.750209  1
  Sn  Sn33  1  0.828970  0.349754  0.750303  1
  Sn  Sn34  1  0.670796  0.849462  0.249840  1
  Sn  Sn35  1  0.171049  0.650019  0.249690  1
