# generated using pymatgen
data_Li4Th3Si4
_symmetry_space_group_name_H-M   'P 1'
_cell_length_a   4.40906031
_cell_length_b   6.73877483
_cell_length_c   8.28779558
_cell_angle_alpha   113.98815798
_cell_angle_beta   105.42622263
_cell_angle_gamma   89.99999783
_symmetry_Int_Tables_number   1
_chemical_formula_structural   Li4Th3Si4
_chemical_formula_sum   'Li4 Th3 Si4'
_cell_volume   215.22987192
_cell_formula_units_Z   1
loop_
 _symmetry_equiv_pos_site_id
 _symmetry_equiv_pos_as_xyz
  1  'x, y, z'
loop_
 _atom_site_type_symbol
 _atom_site_label
 _atom_site_symmetry_multiplicity
 _atom_site_fract_x
 _atom_site_fract_y
 _atom_site_fract_z
 _atom_site_occupancy
  Li  Li0  1  0.669815  0.983612  0.339629  1
  Li  Li1  1  0.330185  0.016388  0.660371  1
  Li  Li2  1  0.330185  0.643983  0.660371  1
  Li  Li3  1  0.669815  0.356017  0.339629  1
  Th  Th4  1  0.000000  0.000000  0.000000  1
  Th  Th5  1  0.128530  0.628530  0.257060  1
  Th  Th6  1  0.871470  0.371470  0.742940  1
  Si  Si7  1  0.500000  0.680639  0.000000  1
  Si  Si8  1  0.500000  0.319361  0.000000  1
  Si  Si9  1  0.785880  0.785880  0.571760  1
  Si  Si10  1  0.214120  0.214120  0.428240  1
