# generated using pymatgen
data_Y6Er4Sn5Bi
_symmetry_space_group_name_H-M   'P 1'
_cell_length_a   8.99931900
_cell_length_b   8.99616065
_cell_length_c   6.51316200
_cell_angle_alpha   90.00000000
_cell_angle_beta   90.00000000
_cell_angle_gamma   120.01161055
_symmetry_Int_Tables_number   1
_chemical_formula_structural   Y6Er4Sn5Bi
_chemical_formula_sum   'Y6 Er4 Sn5 Bi1'
_cell_volume   456.60276665
_cell_formula_units_Z   1
loop_
 _symmetry_equiv_pos_site_id
 _symmetry_equiv_pos_as_xyz
  1  'x, y, z'
loop_
 _atom_site_type_symbol
 _atom_site_label
 _atom_site_symmetry_multiplicity
 _atom_site_fract_x
 _atom_site_fract_y
 _atom_site_fract_z
 _atom_site_occupancy
  Y  Y0  1  0.994471  0.756757  0.750000  1
  Y  Y1  1  0.000406  0.239944  0.250000  1
  Y  Y2  1  0.760462  0.760056  0.250000  1
  Y  Y3  1  0.763963  0.000000  0.750000  1
  Y  Y4  1  0.237713  0.243243  0.750000  1
  Y  Y5  1  0.238546  0.000000  0.250000  1
  Er  Er6  1  0.332536  0.662398  0.498279  1
  Er  Er7  1  0.670141  0.337602  0.001721  1
  Er  Er8  1  0.670141  0.337602  0.498279  1
  Er  Er9  1  0.332536  0.662398  0.001721  1
  Sn  Sn10  1  0.395877  0.394407  0.250000  1
  Sn  Sn11  1  0.001470  0.605593  0.250000  1
  Sn  Sn12  1  0.999456  0.396247  0.750000  1
  Sn  Sn13  1  0.603208  0.603753  0.750000  1
  Sn  Sn14  1  0.604927  0.000000  0.250000  1
  Bi  Bi15  1  0.394149  0.000000  0.750000  1
