# generated using pymatgen
data_Li5Dy5(P6Ir7)2
_symmetry_space_group_name_H-M   'P 1'
_cell_length_a   12.82994840
_cell_length_b   12.64426036
_cell_length_c   3.94970600
_cell_angle_alpha   90.00000000
_cell_angle_beta   90.00000000
_cell_angle_gamma   119.89720716
_symmetry_Int_Tables_number   1
_chemical_formula_structural   Li5Dy5(P6Ir7)2
_chemical_formula_sum   'Li5 Dy5 P12 Ir14'
_cell_volume   555.47261886
_cell_formula_units_Z   1
loop_
 _symmetry_equiv_pos_site_id
 _symmetry_equiv_pos_as_xyz
  1  'x, y, z'
loop_
 _atom_site_type_symbol
 _atom_site_label
 _atom_site_symmetry_multiplicity
 _atom_site_fract_x
 _atom_site_fract_y
 _atom_site_fract_z
 _atom_site_occupancy
  Li  Li0  1  0.521194  0.883004  0.000000  1
  Li  Li1  1  0.111153  0.631857  0.000000  1
  Li  Li2  1  0.992128  0.441303  0.500000  1
  Li  Li3  1  0.556568  0.558389  0.500000  1
  Li  Li4  1  0.446156  0.006583  0.500000  1
  Dy  Dy5  1  0.335459  0.664771  0.500000  1
  Dy  Dy6  1  0.666482  0.331569  0.500000  1
  Dy  Dy7  1  0.998025  0.813419  0.000000  1
  Dy  Dy8  1  0.194215  0.190760  0.000000  1
  Dy  Dy9  1  0.812498  0.004460  0.000000  1
  P  P10  1  0.987338  0.634750  0.500000  1
  P  P11  1  0.373355  0.366591  0.500000  1
  P  P12  1  0.645147  0.011300  0.500000  1
  P  P13  1  0.517927  0.685512  0.000000  1
  P  P14  1  0.298349  0.814635  0.000000  1
  P  P15  1  0.182898  0.483432  0.000000  1
  P  P16  1  0.484082  0.162953  0.000000  1
  P  P17  1  0.684861  0.516357  0.000000  1
  P  P18  1  0.833446  0.319877  0.000000  1
  P  P19  1  0.003777  0.181847  0.500000  1
  P  P20  1  0.816499  0.824517  0.500000  1
  P  P21  1  0.177492  0.996029  0.500000  1
  Ir  Ir22  1  0.364858  0.482634  0.000000  1
  Ir  Ir23  1  0.494426  0.353880  0.000000  1
  Ir  Ir24  1  0.876671  0.521740  0.000000  1
  Ir  Ir25  1  0.644838  0.125529  0.000000  1
  Ir  Ir26  1  0.004244  0.282197  0.000000  1
  Ir  Ir27  1  0.718194  0.724753  0.000000  1
  Ir  Ir28  1  0.274602  0.990661  0.000000  1
  Ir  Ir29  1  0.614471  0.808037  0.500000  1
  Ir  Ir30  1  0.191272  0.804098  0.500000  1
  Ir  Ir31  1  0.181668  0.379306  0.500000  1
  Ir  Ir32  1  0.372729  0.174349  0.500000  1
  Ir  Ir33  1  0.796165  0.624060  0.500000  1
  Ir  Ir34  1  0.827160  0.204843  0.500000  1
  Ir  Ir35  1  0.999650  0.999996  0.500000  1
