# generated using pymatgen
data_CsCoRhF6
_symmetry_space_group_name_H-M   'P 1'
_cell_length_a   7.54280988
_cell_length_b   7.54280923
_cell_length_c   7.54280951
_cell_angle_alpha   120.38852995
_cell_angle_beta   120.92853550
_cell_angle_gamma   88.86377149
_symmetry_Int_Tables_number   1
_chemical_formula_structural   CsCoRhF6
_chemical_formula_sum   'Cs2 Co2 Rh2 F12'
_cell_volume   300.35506123
_cell_formula_units_Z   2
loop_
 _symmetry_equiv_pos_site_id
 _symmetry_equiv_pos_as_xyz
  1  'x, y, z'
loop_
 _atom_site_type_symbol
 _atom_site_label
 _atom_site_symmetry_multiplicity
 _atom_site_fract_x
 _atom_site_fract_y
 _atom_site_fract_z
 _atom_site_occupancy
  Cs  Cs0  1  0.366716  0.616716  0.750000  1
  Cs  Cs1  1  0.633284  0.383284  0.250000  1
  Co  Co2  1  0.000000  0.000000  0.500000  1
  Co  Co3  1  0.000000  0.500000  0.000000  1
  Rh  Rh4  1  0.000000  0.000000  0.000000  1
  Rh  Rh5  1  0.500000  0.000000  0.500000  1
  F  F6  1  0.324087  0.074087  0.250000  1
  F  F7  1  0.934085  0.684085  0.250000  1
  F  F8  1  0.329085  0.680614  0.255062  1
  F  F9  1  0.925552  0.074023  0.244938  1
  F  F10  1  0.329085  0.074023  0.648471  1
  F  F11  1  0.925552  0.680614  0.851529  1
  F  F12  1  0.675913  0.925913  0.750000  1
  F  F13  1  0.065915  0.315915  0.750000  1
  F  F14  1  0.670915  0.319386  0.744938  1
  F  F15  1  0.074448  0.925977  0.755062  1
  F  F16  1  0.670915  0.925977  0.351529  1
  F  F17  1  0.074448  0.319386  0.148471  1
