# generated using pymatgen
data_TbSm3Hf2(SnRh)6
_symmetry_space_group_name_H-M   'P 1'
_cell_length_a   7.55685823
_cell_length_b   7.48720896
_cell_length_c   7.68497600
_cell_angle_alpha   90.00000000
_cell_angle_beta   90.00000000
_cell_angle_gamma   119.70496558
_symmetry_Int_Tables_number   1
_chemical_formula_structural   TbSm3Hf2(SnRh)6
_chemical_formula_sum   'Tb1 Sm3 Hf2 Sn6 Rh6'
_cell_volume   377.67466738
_cell_formula_units_Z   1
loop_
 _symmetry_equiv_pos_site_id
 _symmetry_equiv_pos_as_xyz
  1  'x, y, z'
loop_
 _atom_site_type_symbol
 _atom_site_label
 _atom_site_symmetry_multiplicity
 _atom_site_fract_x
 _atom_site_fract_y
 _atom_site_fract_z
 _atom_site_occupancy
  Tb  Tb0  1  0.001200  0.405509  0.750000  1
  Sm  Sm1  1  0.999892  0.404371  0.250000  1
  Sm  Sm2  1  0.587650  0.591275  0.250000  1
  Sm  Sm3  1  0.412564  0.003625  0.250000  1
  Hf  Hf4  1  0.604335  0.600652  0.750000  1
  Hf  Hf5  1  0.394933  0.994960  0.750000  1
  Sn  Sn6  1  0.262371  0.261589  0.511798  1
  Sn  Sn7  1  0.999419  0.736006  0.499619  1
  Sn  Sn8  1  0.999419  0.736006  0.000381  1
  Sn  Sn9  1  0.738152  0.000361  0.512167  1
  Sn  Sn10  1  0.738152  0.000361  0.987833  1
  Sn  Sn11  1  0.262371  0.261589  0.988202  1
  Rh  Rh12  1  0.344826  0.676408  0.533992  1
  Rh  Rh13  1  0.654990  0.331351  0.535985  1
  Rh  Rh14  1  0.344826  0.676408  0.966008  1
  Rh  Rh15  1  0.000094  0.985933  0.750000  1
  Rh  Rh16  1  0.999822  0.002250  0.250000  1
  Rh  Rh17  1  0.654990  0.331351  0.964015  1
