# generated using pymatgen
data_Er4Os3Ru5
_symmetry_space_group_name_H-M   'P 1'
_cell_length_a   5.27396707
_cell_length_b   5.27547580
_cell_length_c   8.87848400
_cell_angle_alpha   90.00000000
_cell_angle_beta   90.00000000
_cell_angle_gamma   120.00946371
_symmetry_Int_Tables_number   1
_chemical_formula_structural   Er4Os3Ru5
_chemical_formula_sum   'Er4 Os3 Ru5'
_cell_volume   213.90802290
_cell_formula_units_Z   1
loop_
 _symmetry_equiv_pos_site_id
 _symmetry_equiv_pos_as_xyz
  1  'x, y, z'
loop_
 _atom_site_type_symbol
 _atom_site_label
 _atom_site_symmetry_multiplicity
 _atom_site_fract_x
 _atom_site_fract_y
 _atom_site_fract_z
 _atom_site_occupancy
  Er  Er0  1  0.339652  0.669827  0.433425  1
  Er  Er1  1  0.671971  0.335985  0.566138  1
  Er  Er2  1  0.671971  0.335985  0.933862  1
  Er  Er3  1  0.339652  0.669827  0.066575  1
  Os  Os4  1  0.165685  0.337102  0.750000  1
  Os  Os5  1  0.165685  0.828582  0.750000  1
  Os  Os6  1  0.319140  0.159570  0.250000  1
  Ru  Ru7  1  0.816436  0.645540  0.250000  1
  Ru  Ru8  1  0.648447  0.824223  0.750000  1
  Ru  Ru9  1  0.022463  0.011231  0.000513  1
  Ru  Ru10  1  0.816436  0.170896  0.250000  1
  Ru  Ru11  1  0.022463  0.011231  0.499487  1
