# generated using pymatgen
data_Ho2Fe2Si5Ir
_symmetry_space_group_name_H-M   'P 1'
_cell_length_a   8.03379122
_cell_length_b   8.05537089
_cell_length_c   8.05537163
_cell_angle_alpha   140.10757372
_cell_angle_beta   107.52553210
_cell_angle_gamma   86.11492194
_symmetry_Int_Tables_number   1
_chemical_formula_structural   Ho2Fe2Si5Ir
_chemical_formula_sum   'Ho4 Fe4 Si10 Ir2'
_cell_volume   307.24525387
_cell_formula_units_Z   2
loop_
 _symmetry_equiv_pos_site_id
 _symmetry_equiv_pos_as_xyz
  1  'x, y, z'
loop_
 _atom_site_type_symbol
 _atom_site_label
 _atom_site_symmetry_multiplicity
 _atom_site_fract_x
 _atom_site_fract_y
 _atom_site_fract_z
 _atom_site_occupancy
  Ho  Ho0  1  0.866351  0.636852  0.229498  1
  Ho  Ho1  1  0.133650  0.363148  0.770502  1
  Ho  Ho2  1  0.402396  0.135509  0.266887  1
  Ho  Ho3  1  0.597604  0.864491  0.733113  1
  Fe  Fe4  1  0.000000  0.753396  0.753396  1
  Fe  Fe5  1  0.000000  0.246604  0.246604  1
  Fe  Fe6  1  0.256680  0.854936  0.401742  1
  Fe  Fe7  1  0.743320  0.145064  0.598258  1
  Si  Si8  1  0.500000  0.771851  0.271851  1
  Si  Si9  1  0.500000  0.228149  0.728149  1
  Si  Si10  1  0.204738  0.951384  0.736619  1
  Si  Si11  1  0.795262  0.531881  0.746646  1
  Si  Si12  1  0.795262  0.048616  0.263381  1
  Si  Si13  1  0.204738  0.468119  0.253354  1
  Si  Si14  1  0.071585  0.904259  0.167326  1
  Si  Si15  1  0.928415  0.095741  0.832674  1
  Si  Si16  1  0.751629  0.408303  0.343325  1
  Si  Si17  1  0.248371  0.591697  0.656675  1
  Ir  Ir18  1  0.457134  0.356905  0.100228  1
  Ir  Ir19  1  0.542866  0.643095  0.899772  1
