# generated using pymatgen
data_Y20Cd3Pd3Ru2
_symmetry_space_group_name_H-M   'P 1'
_cell_length_a   9.59479234
_cell_length_b   9.59582104
_cell_length_c   9.62688800
_cell_angle_alpha   90.00000000
_cell_angle_beta   90.00000000
_cell_angle_gamma   119.96574724
_symmetry_Int_Tables_number   1
_chemical_formula_structural   Y20Cd3Pd3Ru2
_chemical_formula_sum   'Y20 Cd3 Pd3 Ru2'
_cell_volume   767.86357289
_cell_formula_units_Z   1
loop_
 _symmetry_equiv_pos_site_id
 _symmetry_equiv_pos_as_xyz
  1  'x, y, z'
loop_
 _atom_site_type_symbol
 _atom_site_label
 _atom_site_symmetry_multiplicity
 _atom_site_fract_x
 _atom_site_fract_y
 _atom_site_fract_z
 _atom_site_occupancy
  Y  Y0  1  0.999993  0.999981  0.447925  1
  Y  Y1  1  0.999993  0.999981  0.052075  1
  Y  Y2  1  0.208716  0.791287  0.440905  1
  Y  Y3  1  0.208714  0.417437  0.440909  1
  Y  Y4  1  0.582562  0.791288  0.440908  1
  Y  Y5  1  0.792689  0.207289  0.557655  1
  Y  Y6  1  0.792685  0.585380  0.557700  1
  Y  Y7  1  0.414622  0.207305  0.557706  1
  Y  Y8  1  0.792689  0.207289  0.942345  1
  Y  Y9  1  0.792685  0.585380  0.942300  1
  Y  Y10  1  0.414622  0.207305  0.942294  1
  Y  Y11  1  0.208716  0.791287  0.059095  1
  Y  Y12  1  0.208714  0.417437  0.059091  1
  Y  Y13  1  0.582562  0.791288  0.059092  1
  Y  Y14  1  0.540334  0.459689  0.250000  1
  Y  Y15  1  0.540351  0.080704  0.250000  1
  Y  Y16  1  0.919295  0.459660  0.250000  1
  Y  Y17  1  0.458650  0.541342  0.750000  1
  Y  Y18  1  0.458659  0.917361  0.750000  1
  Y  Y19  1  0.082670  0.541352  0.750000  1
  Cd  Cd20  1  0.107612  0.892407  0.750000  1
  Cd  Cd21  1  0.107584  0.215196  0.750000  1
  Cd  Cd22  1  0.784803  0.892425  0.750000  1
  Pd  Pd23  1  0.868989  0.131046  0.250000  1
  Pd  Pd24  1  0.868998  0.737918  0.250000  1
  Pd  Pd25  1  0.262082  0.131019  0.250000  1
  Ru  Ru26  1  0.333297  0.666706  0.250000  1
  Ru  Ru27  1  0.666721  0.333237  0.750000  1
