# generated using pymatgen
data_Y4VRe(TcB8)2
_symmetry_space_group_name_H-M   'P 1'
_cell_length_a   3.58219700
_cell_length_b   5.98240368
_cell_length_c   11.56095428
_cell_angle_alpha   90.14988168
_cell_angle_beta   90.00000000
_cell_angle_gamma   90.00000000
_symmetry_Int_Tables_number   1
_chemical_formula_structural   Y4VRe(TcB8)2
_chemical_formula_sum   'Y4 V1 Re1 Tc2 B16'
_cell_volume   247.75211928
_cell_formula_units_Z   1
loop_
 _symmetry_equiv_pos_site_id
 _symmetry_equiv_pos_as_xyz
  1  'x, y, z'
loop_
 _atom_site_type_symbol
 _atom_site_label
 _atom_site_symmetry_multiplicity
 _atom_site_fract_x
 _atom_site_fract_y
 _atom_site_fract_z
 _atom_site_occupancy
  Y  Y0  1  0.000000  0.125969  0.150244  1
  Y  Y1  1  0.000000  0.873289  0.850045  1
  Y  Y2  1  0.000000  0.627266  0.349047  1
  Y  Y3  1  0.000000  0.372988  0.649687  1
  V  V4  1  0.000000  0.628266  0.082483  1
  Re  Re5  1  0.000000  0.372460  0.916201  1
  Tc  Tc6  1  0.000000  0.133666  0.413946  1
  Tc  Tc7  1  0.000000  0.866433  0.587299  1
  B  B8  1  0.500000  0.477703  0.192641  1
  B  B9  1  0.500000  0.522614  0.807439  1
  B  B10  1  0.500000  0.976636  0.307729  1
  B  B11  1  0.500000  0.023287  0.692113  1
  B  B12  1  0.500000  0.285729  0.315056  1
  B  B13  1  0.500000  0.714304  0.685124  1
  B  B14  1  0.500000  0.786514  0.184998  1
  B  B15  1  0.500000  0.213382  0.815251  1
  B  B16  1  0.500000  0.363872  0.468765  1
  B  B17  1  0.500000  0.636134  0.531133  1
  B  B18  1  0.500000  0.864653  0.032363  1
  B  B19  1  0.500000  0.135292  0.968043  1
  B  B20  1  0.500000  0.386334  0.047426  1
  B  B21  1  0.500000  0.613583  0.953006  1
  B  B22  1  0.500000  0.886657  0.452720  1
  B  B23  1  0.500000  0.112969  0.547243  1
