# generated using pymatgen
data_Zr8Ta12Ga5Si11
_symmetry_space_group_name_H-M   'P 1'
_cell_length_a   6.93951129
_cell_length_b   6.95050987
_cell_length_c   12.82601088
_cell_angle_alpha   90.03316722
_cell_angle_beta   89.94748607
_cell_angle_gamma   89.88384877
_symmetry_Int_Tables_number   1
_chemical_formula_structural   Zr8Ta12Ga5Si11
_chemical_formula_sum   'Zr8 Ta12 Ga5 Si11'
_cell_volume   618.63716507
_cell_formula_units_Z   1
loop_
 _symmetry_equiv_pos_site_id
 _symmetry_equiv_pos_as_xyz
  1  'x, y, z'
loop_
 _atom_site_type_symbol
 _atom_site_label
 _atom_site_symmetry_multiplicity
 _atom_site_fract_x
 _atom_site_fract_y
 _atom_site_fract_z
 _atom_site_occupancy
  Zr  Zr0  1  0.999835  0.666480  0.028864  1
  Zr  Zr1  1  0.002525  0.336793  0.528911  1
  Zr  Zr2  1  0.657161  0.998730  0.970514  1
  Zr  Zr3  1  0.165768  0.500863  0.779901  1
  Zr  Zr4  1  0.833767  0.499184  0.279589  1
  Zr  Zr5  1  0.501040  0.156680  0.219462  1
  Zr  Zr6  1  0.497229  0.840809  0.721828  1
  Zr  Zr7  1  0.339193  0.001275  0.469136  1
  Ta  Ta8  1  0.352221  0.503278  0.377665  1
  Ta  Ta9  1  0.844149  0.999418  0.369175  1
  Ta  Ta10  1  0.003486  0.147389  0.128153  1
  Ta  Ta11  1  0.001681  0.848900  0.630979  1
  Ta  Ta12  1  0.647844  0.496570  0.878417  1
  Ta  Ta13  1  0.498122  0.348895  0.623614  1
  Ta  Ta14  1  0.498860  0.655921  0.122464  1
  Ta  Ta15  1  0.156225  0.000997  0.872917  1
  Ta  Ta16  1  0.663865  0.667309  0.497969  1
  Ta  Ta17  1  0.830374  0.165618  0.751133  1
  Ta  Ta18  1  0.171911  0.835846  0.248952  1
  Ta  Ta19  1  0.335856  0.327923  0.999073  1
  Ga  Ga20  1  0.040255  0.701196  0.435341  1
  Ga  Ga21  1  0.959497  0.301779  0.935895  1
  Ga  Ga22  1  0.701050  0.039792  0.564596  1
  Ga  Ga23  1  0.198543  0.459036  0.184918  1
  Ga  Ga24  1  0.800908  0.540636  0.684885  1
  Si  Si25  1  0.458095  0.201443  0.813064  1
  Si  Si26  1  0.542825  0.798168  0.313761  1
  Si  Si27  1  0.297968  0.957090  0.063452  1
  Si  Si28  1  0.863405  0.792700  0.823677  1
  Si  Si29  1  0.135728  0.208886  0.323071  1
  Si  Si30  1  0.793722  0.861916  0.177658  1
  Si  Si31  1  0.292882  0.637863  0.572428  1
  Si  Si32  1  0.707768  0.363990  0.073508  1
  Si  Si33  1  0.637016  0.292770  0.428746  1
  Si  Si34  1  0.362745  0.706077  0.928724  1
  Si  Si35  1  0.206482  0.137778  0.677559  1
