# generated using pymatgen
data_Pu2CrFeB8
_symmetry_space_group_name_H-M   'P 1'
_cell_length_a   5.94495348
_cell_length_b   11.50720101
_cell_length_c   3.40603300
_cell_angle_alpha   90.00374787
_cell_angle_beta   90.00066927
_cell_angle_gamma   90.10581262
_symmetry_Int_Tables_number   1
_chemical_formula_structural   Pu2CrFeB8
_chemical_formula_sum   'Pu4 Cr2 Fe2 B16'
_cell_volume   233.00555256
_cell_formula_units_Z   2
loop_
 _symmetry_equiv_pos_site_id
 _symmetry_equiv_pos_as_xyz
  1  'x, y, z'
loop_
 _atom_site_type_symbol
 _atom_site_label
 _atom_site_symmetry_multiplicity
 _atom_site_fract_x
 _atom_site_fract_y
 _atom_site_fract_z
 _atom_site_occupancy
  Pu  Pu0  1  0.124989  0.152606  0.000180  1
  Pu  Pu1  1  0.875567  0.847538  0.999879  1
  Pu  Pu2  1  0.625499  0.351585  0.000123  1
  Pu  Pu3  1  0.374484  0.648634  0.999824  1
  Cr  Cr4  1  0.624479  0.083212  0.000164  1
  Cr  Cr5  1  0.375680  0.916612  0.999839  1
  Fe  Fe6  1  0.130819  0.413110  0.000108  1
  Fe  Fe7  1  0.869053  0.587015  0.999841  1
  B  B8  1  0.473989  0.191570  0.500287  1
  B  B9  1  0.525424  0.808663  0.499766  1
  B  B10  1  0.974895  0.310143  0.500261  1
  B  B11  1  0.025073  0.689837  0.499752  1
  B  B12  1  0.279326  0.316542  0.500207  1
  B  B13  1  0.720482  0.683582  0.499804  1
  B  B14  1  0.781506  0.185583  0.500282  1
  B  B15  1  0.218937  0.814705  0.499726  1
  B  B16  1  0.360753  0.467246  0.499951  1
  B  B17  1  0.639090  0.532909  0.499898  1
  B  B18  1  0.863667  0.033146  0.500199  1
  B  B19  1  0.137153  0.966431  0.499967  1
  B  B20  1  0.385644  0.045823  0.500069  1
  B  B21  1  0.613579  0.953372  0.499970  1
  B  B22  1  0.887799  0.454197  0.500069  1
  B  B23  1  0.112116  0.545941  0.499828  1
