# generated using pymatgen
data_Y3Mg3NiPb2
_symmetry_space_group_name_H-M   'P 1'
_cell_length_a   7.51838600
_cell_length_b   7.51838700
_cell_length_c   4.48515000
_cell_angle_alpha   90.00000000
_cell_angle_beta   90.00000000
_cell_angle_gamma   119.99998681
_symmetry_Int_Tables_number   1
_chemical_formula_structural   Y3Mg3NiPb2
_chemical_formula_sum   'Y3 Mg3 Ni1 Pb2'
_cell_volume   219.56188820
_cell_formula_units_Z   1
loop_
 _symmetry_equiv_pos_site_id
 _symmetry_equiv_pos_as_xyz
  1  'x, y, z'
loop_
 _atom_site_type_symbol
 _atom_site_label
 _atom_site_symmetry_multiplicity
 _atom_site_fract_x
 _atom_site_fract_y
 _atom_site_fract_z
 _atom_site_occupancy
  Y  Y0  1  0.000000  0.607454  0.000000  1
  Y  Y1  1  0.607454  0.000000  0.000000  1
  Y  Y2  1  0.392546  0.392546  0.000000  1
  Mg  Mg3  1  0.000000  0.226370  0.500000  1
  Mg  Mg4  1  0.773630  0.773630  0.500000  1
  Mg  Mg5  1  0.226370  0.000000  0.500000  1
  Ni  Ni6  1  0.000000  0.000000  0.000000  1
  Pb  Pb7  1  0.333333  0.666667  0.500000  1
  Pb  Pb8  1  0.666667  0.333333  0.500000  1
