# generated using pymatgen
data_Er6Tm4IrOs3
_symmetry_space_group_name_H-M   'P 1'
_cell_length_a   6.33224172
_cell_length_b   7.30618048
_cell_length_c   8.30237929
_cell_angle_alpha   96.80382209
_cell_angle_beta   112.30049200
_cell_angle_gamma   89.99948524
_symmetry_Int_Tables_number   1
_chemical_formula_structural   Er6Tm4IrOs3
_chemical_formula_sum   'Er6 Tm4 Ir1 Os3'
_cell_volume   352.45155675
_cell_formula_units_Z   1
loop_
 _symmetry_equiv_pos_site_id
 _symmetry_equiv_pos_as_xyz
  1  'x, y, z'
loop_
 _atom_site_type_symbol
 _atom_site_label
 _atom_site_symmetry_multiplicity
 _atom_site_fract_x
 _atom_site_fract_y
 _atom_site_fract_z
 _atom_site_occupancy
  Er  Er0  1  0.970091  0.915808  0.179614  1
  Er  Er1  1  0.789852  0.581969  0.818182  1
  Er  Er2  1  0.025790  0.083507  0.815140  1
  Er  Er3  1  0.208849  0.418919  0.180058  1
  Er  Er4  1  0.649555  0.817121  0.439489  1
  Er  Er5  1  0.210167  0.681776  0.561837  1
  Tm  Tm6  1  0.351034  0.181603  0.563273  1
  Tm  Tm7  1  0.793065  0.319489  0.439231  1
  Tm  Tm8  1  0.422572  0.748857  0.999351  1
  Tm  Tm9  1  0.577871  0.250530  0.999388  1
  Ir  Ir10  1  0.394949  0.076910  0.221133  1
  Os  Os11  1  0.822951  0.575734  0.217916  1
  Os  Os12  1  0.607190  0.924653  0.782314  1
  Os  Os13  1  0.176067  0.423123  0.783074  1
