# generated using pymatgen
data_Li4Nd7ThSi12
_symmetry_space_group_name_H-M   'P 1'
_cell_length_a   10.99585585
_cell_length_b   9.28653172
_cell_length_c   8.31476647
_cell_angle_alpha   77.07658138
_cell_angle_beta   55.40629422
_cell_angle_gamma   47.55375815
_symmetry_Int_Tables_number   1
_chemical_formula_structural   Li4Nd7ThSi12
_chemical_formula_sum   'Li4 Nd7 Th1 Si12'
_cell_volume   497.64930408
_cell_formula_units_Z   1
loop_
 _symmetry_equiv_pos_site_id
 _symmetry_equiv_pos_as_xyz
  1  'x, y, z'
loop_
 _atom_site_type_symbol
 _atom_site_label
 _atom_site_symmetry_multiplicity
 _atom_site_fract_x
 _atom_site_fract_y
 _atom_site_fract_z
 _atom_site_occupancy
  Li  Li0  1  0.833036  0.166787  0.832742  1
  Li  Li1  1  0.166805  0.832838  0.167501  1
  Li  Li2  1  0.416716  0.084217  0.417126  1
  Li  Li3  1  0.084174  0.416871  0.081935  1
  Nd  Nd4  1  0.377164  0.377013  0.622721  1
  Nd  Nd5  1  0.626741  0.627301  0.872934  1
  Nd  Nd6  1  0.872857  0.872846  0.627220  1
  Nd  Nd7  1  0.123403  0.123692  0.876572  1
  Nd  Nd8  1  0.876258  0.875780  0.124061  1
  Nd  Nd9  1  0.126600  0.126335  0.373428  1
  Nd  Nd10  1  0.373696  0.374131  0.126075  1
  Th  Th11  1  0.623238  0.622483  0.377188  1
  Si  Si12  1  0.171739  0.835676  0.661392  1
  Si  Si13  1  0.331514  0.661342  0.835564  1
  Si  Si14  1  0.661384  0.331502  0.171772  1
  Si  Si15  1  0.835502  0.171877  0.331039  1
  Si  Si16  1  0.078462  0.413759  0.588538  1
  Si  Si17  1  0.918530  0.588540  0.413635  1
  Si  Si18  1  0.588546  0.918503  0.079090  1
  Si  Si19  1  0.413866  0.078550  0.919266  1
  Si  Si20  1  0.666352  0.333639  0.666848  1
  Si  Si21  1  0.333671  0.666806  0.333058  1
  Si  Si22  1  0.583812  0.916060  0.582203  1
  Si  Si23  1  0.915937  0.583452  0.918093  1
