# generated using pymatgen
data_AgPt4Pb3O14
_symmetry_space_group_name_H-M   'P 1'
_cell_length_a   7.42145867
_cell_length_b   7.42145726
_cell_length_c   7.27231233
_cell_angle_alpha   59.31921674
_cell_angle_beta   59.31922143
_cell_angle_gamma   59.99999420
_symmetry_Int_Tables_number   1
_chemical_formula_structural   AgPt4Pb3O14
_chemical_formula_sum   'Ag1 Pt4 Pb3 O14'
_cell_volume   280.27836959
_cell_formula_units_Z   1
loop_
 _symmetry_equiv_pos_site_id
 _symmetry_equiv_pos_as_xyz
  1  'x, y, z'
loop_
 _atom_site_type_symbol
 _atom_site_label
 _atom_site_symmetry_multiplicity
 _atom_site_fract_x
 _atom_site_fract_y
 _atom_site_fract_z
 _atom_site_occupancy
  Ag  Ag0  1  0.125000  0.125000  0.625000  1
  Pt  Pt1  1  0.625000  0.625000  0.625000  1
  Pt  Pt2  1  0.125000  0.625000  0.625000  1
  Pt  Pt3  1  0.625000  0.125000  0.625000  1
  Pt  Pt4  1  0.625000  0.625000  0.125000  1
  Pb  Pb5  1  0.125000  0.625000  0.125000  1
  Pb  Pb6  1  0.625000  0.125000  0.125000  1
  Pb  Pb7  1  0.125000  0.125000  0.125000  1
  O  O8  1  0.293958  0.703123  0.708963  1
  O  O9  1  0.541534  0.956144  0.960788  1
  O  O10  1  0.703123  0.293958  0.708963  1
  O  O11  1  0.293958  0.293958  0.708963  1
  O  O12  1  0.708466  0.708466  0.289212  1
  O  O13  1  0.999951  0.999951  0.000147  1
  O  O14  1  0.293856  0.708466  0.289212  1
  O  O15  1  0.956144  0.541534  0.960788  1
  O  O16  1  0.956042  0.956042  0.541037  1
  O  O17  1  0.541534  0.541534  0.960788  1
  O  O18  1  0.250049  0.250049  0.249853  1
  O  O19  1  0.546877  0.956042  0.541037  1
  O  O20  1  0.708466  0.293856  0.289212  1
  O  O21  1  0.956042  0.546877  0.541037  1
