# generated using pymatgen
data_BaMg2(CoH6)2
_symmetry_space_group_name_H-M   'P 1'
_cell_length_a   4.63999100
_cell_length_b   4.63999241
_cell_length_c   8.05490600
_cell_angle_alpha   90.00000000
_cell_angle_beta   90.00000000
_cell_angle_gamma   119.99998279
_symmetry_Int_Tables_number   1
_chemical_formula_structural   BaMg2(CoH6)2
_chemical_formula_sum   'Ba1 Mg2 Co2 H12'
_cell_volume   150.18466572
_cell_formula_units_Z   1
loop_
 _symmetry_equiv_pos_site_id
 _symmetry_equiv_pos_as_xyz
  1  'x, y, z'
loop_
 _atom_site_type_symbol
 _atom_site_label
 _atom_site_symmetry_multiplicity
 _atom_site_fract_x
 _atom_site_fract_y
 _atom_site_fract_z
 _atom_site_occupancy
  Ba  Ba0  1  0.000000  0.000000  0.000000  1
  Mg  Mg1  1  0.666667  0.333333  0.377112  1
  Mg  Mg2  1  0.333333  0.666667  0.622888  1
  Co  Co3  1  0.666667  0.333333  0.712917  1
  Co  Co4  1  0.333333  0.666667  0.287083  1
  H  H5  1  0.175448  0.824552  0.391031  1
  H  H6  1  0.649103  0.824552  0.391031  1
  H  H7  1  0.175448  0.350897  0.391031  1
  H  H8  1  0.824552  0.175448  0.608969  1
  H  H9  1  0.350897  0.175448  0.608969  1
  H  H10  1  0.824552  0.649103  0.608969  1
  H  H11  1  0.509932  0.019864  0.823021  1
  H  H12  1  0.509932  0.490068  0.823021  1
  H  H13  1  0.980136  0.490068  0.823021  1
  H  H14  1  0.490068  0.980136  0.176979  1
  H  H15  1  0.490068  0.509932  0.176979  1
  H  H16  1  0.019864  0.509932  0.176979  1
