# generated using pymatgen
data_Cs5Rb(SiSe3)2
_symmetry_space_group_name_H-M   'P 1'
_cell_length_a   8.31294290
_cell_length_b   8.59845808
_cell_length_c   9.05744817
_cell_angle_alpha   75.05671062
_cell_angle_beta   75.80720749
_cell_angle_gamma   109.62920638
_symmetry_Int_Tables_number   1
_chemical_formula_structural   Cs5Rb(SiSe3)2
_chemical_formula_sum   'Cs5 Rb1 Si2 Se6'
_cell_volume   548.60834565
_cell_formula_units_Z   1
loop_
 _symmetry_equiv_pos_site_id
 _symmetry_equiv_pos_as_xyz
  1  'x, y, z'
loop_
 _atom_site_type_symbol
 _atom_site_label
 _atom_site_symmetry_multiplicity
 _atom_site_fract_x
 _atom_site_fract_y
 _atom_site_fract_z
 _atom_site_occupancy
  Cs  Cs0  1  0.223757  0.217101  0.317079  1
  Cs  Cs1  1  0.000000  0.500000  0.000000  1
  Cs  Cs2  1  0.671766  0.334694  0.499335  1
  Cs  Cs3  1  0.328234  0.665306  0.500665  1
  Cs  Cs4  1  0.776243  0.782899  0.682921  1
  Rb  Rb5  1  0.500000  0.000000  0.000000  1
  Si  Si6  1  0.106853  0.103616  0.861878  1
  Si  Si7  1  0.893147  0.896384  0.138122  1
  Se  Se8  1  0.654344  0.666206  0.128671  1
  Se  Se9  1  0.345656  0.333794  0.871329  1
  Se  Se10  1  0.768824  0.044922  0.278673  1
  Se  Se11  1  0.949587  0.222331  0.721863  1
  Se  Se12  1  0.231176  0.955078  0.721327  1
  Se  Se13  1  0.050413  0.777669  0.278137  1
