# generated using pymatgen
data_Li3Ac3Ag2Pt
_symmetry_space_group_name_H-M   'P 1'
_cell_length_a   8.08280400
_cell_length_b   8.08280298
_cell_length_c   4.27918600
_cell_angle_alpha   90.00000000
_cell_angle_beta   90.00000000
_cell_angle_gamma   119.99999598
_symmetry_Int_Tables_number   1
_chemical_formula_structural   Li3Ac3Ag2Pt
_chemical_formula_sum   'Li3 Ac3 Ag2 Pt1'
_cell_volume   242.11174288
_cell_formula_units_Z   1
loop_
 _symmetry_equiv_pos_site_id
 _symmetry_equiv_pos_as_xyz
  1  'x, y, z'
loop_
 _atom_site_type_symbol
 _atom_site_label
 _atom_site_symmetry_multiplicity
 _atom_site_fract_x
 _atom_site_fract_y
 _atom_site_fract_z
 _atom_site_occupancy
  Li  Li0  1  0.000727  0.234940  0.000000  1
  Li  Li1  1  0.234213  0.999273  0.000000  1
  Li  Li2  1  0.765060  0.765787  0.000000  1
  Ac  Ac3  1  0.018982  0.597936  0.500000  1
  Ac  Ac4  1  0.578955  0.981018  0.500000  1
  Ac  Ac5  1  0.402064  0.421045  0.500000  1
  Ag  Ag6  1  0.000000  0.000000  0.500000  1
  Ag  Ag7  1  0.666667  0.333333  0.000000  1
  Pt  Pt8  1  0.333333  0.666667  0.000000  1
