# generated using pymatgen
data_Ho2ErZn(Ga4Pd)2
_symmetry_space_group_name_H-M   'P 1'
_cell_length_a   8.11381350
_cell_length_b   8.11381340
_cell_length_c   8.11381324
_cell_angle_alpha   149.13676860
_cell_angle_beta   108.82696870
_cell_angle_gamma   79.56583701
_symmetry_Int_Tables_number   1
_chemical_formula_structural   Ho2ErZn(Ga4Pd)2
_chemical_formula_sum   'Ho2 Er1 Zn1 Ga8 Pd2'
_cell_volume   254.25044702
_cell_formula_units_Z   1
loop_
 _symmetry_equiv_pos_site_id
 _symmetry_equiv_pos_as_xyz
  1  'x, y, z'
loop_
 _atom_site_type_symbol
 _atom_site_label
 _atom_site_symmetry_multiplicity
 _atom_site_fract_x
 _atom_site_fract_y
 _atom_site_fract_z
 _atom_site_occupancy
  Ho  Ho0  1  0.499920  0.499920  0.000000  1
  Ho  Ho1  1  0.799088  0.799088  0.000000  1
  Er  Er2  1  0.200727  0.200727  0.000000  1
  Zn  Zn3  1  0.000055  0.500055  0.500000  1
  Ga  Ga4  1  0.647882  0.363644  0.284238  1
  Ga  Ga5  1  0.352012  0.636445  0.715567  1
  Ga  Ga6  1  0.079406  0.363644  0.715762  1
  Ga  Ga7  1  0.920878  0.636445  0.284433  1
  Ga  Ga8  1  0.521869  0.156050  0.365819  1
  Ga  Ga9  1  0.477900  0.843817  0.634083  1
  Ga  Ga10  1  0.790232  0.156050  0.634181  1
  Ga  Ga11  1  0.209733  0.843817  0.365917  1
  Pd  Pd12  1  0.182885  0.000149  0.182736  1
  Pd  Pd13  1  0.817412  0.000149  0.817264  1
