# generated using pymatgen
data_GdYCo9Mo3As7
_symmetry_space_group_name_H-M   'P 1'
_cell_length_a   3.86520100
_cell_length_b   9.41508708
_cell_length_c   9.41508701
_cell_angle_alpha   119.99999495
_cell_angle_beta   90.00000000
_cell_angle_gamma   90.00000000
_symmetry_Int_Tables_number   1
_chemical_formula_structural   GdYCo9Mo3As7
_chemical_formula_sum   'Gd1 Y1 Co9 Mo3 As7'
_cell_volume   296.72313985
_cell_formula_units_Z   1
loop_
 _symmetry_equiv_pos_site_id
 _symmetry_equiv_pos_as_xyz
  1  'x, y, z'
loop_
 _atom_site_type_symbol
 _atom_site_label
 _atom_site_symmetry_multiplicity
 _atom_site_fract_x
 _atom_site_fract_y
 _atom_site_fract_z
 _atom_site_occupancy
  Gd  Gd0  1  0.500000  0.333333  0.666667  1
  Y  Y1  1  0.000000  0.666667  0.333333  1
  Co  Co2  1  0.000000  0.570205  0.940787  1
  Co  Co3  1  0.000000  0.370582  0.429795  1
  Co  Co4  1  0.000000  0.059213  0.629418  1
  Co  Co5  1  0.000000  0.876068  0.157611  1
  Co  Co6  1  0.000000  0.281543  0.123932  1
  Co  Co7  1  0.000000  0.842389  0.718457  1
  Co  Co8  1  0.500000  0.948859  0.381747  1
  Co  Co9  1  0.500000  0.432887  0.051141  1
  Co  Co10  1  0.500000  0.618253  0.567113  1
  Mo  Mo11  1  0.500000  0.781705  0.902311  1
  Mo  Mo12  1  0.500000  0.120606  0.218295  1
  Mo  Mo13  1  0.500000  0.097689  0.879394  1
  As  As14  1  0.000000  0.000000  0.000000  1
  As  As15  1  0.500000  0.706755  0.118924  1
  As  As16  1  0.500000  0.412170  0.293245  1
  As  As17  1  0.500000  0.881076  0.587830  1
  As  As18  1  0.000000  0.586719  0.699414  1
  As  As19  1  0.000000  0.112696  0.413281  1
  As  As20  1  0.000000  0.300586  0.887304  1
