# generated using pymatgen
data_Y2Co2NiP7Ru9
_symmetry_space_group_name_H-M   'P 1'
_cell_length_a   9.39819207
_cell_length_b   9.32345830
_cell_length_c   3.83249000
_cell_angle_alpha   90.00000000
_cell_angle_beta   90.00000000
_cell_angle_gamma   120.17229328
_symmetry_Int_Tables_number   1
_chemical_formula_structural   Y2Co2NiP7Ru9
_chemical_formula_sum   'Y2 Co2 Ni1 P7 Ru9'
_cell_volume   290.31962450
_cell_formula_units_Z   1
loop_
 _symmetry_equiv_pos_site_id
 _symmetry_equiv_pos_as_xyz
  1  'x, y, z'
loop_
 _atom_site_type_symbol
 _atom_site_label
 _atom_site_symmetry_multiplicity
 _atom_site_fract_x
 _atom_site_fract_y
 _atom_site_fract_z
 _atom_site_occupancy
  Y  Y0  1  0.664830  0.334224  0.000000  1
  Y  Y1  1  0.334188  0.666112  0.500000  1
  Co  Co2  1  0.270373  0.111452  0.000000  1
  Co  Co3  1  0.842173  0.728918  0.000000  1
  Ni  Ni4  1  0.889495  0.158529  0.000000  1
  P  P5  1  0.300925  0.889547  0.000000  1
  P  P6  1  0.592479  0.700777  0.000000  1
  P  P7  1  0.112727  0.412448  0.000000  1
  P  P8  1  0.401635  0.286192  0.500000  1
  P  P9  1  0.883985  0.598400  0.500000  1
  P  P10  1  0.709104  0.113315  0.500000  1
  P  P11  1  0.002164  0.998603  0.000000  1
  Ru  Ru12  1  0.061402  0.635374  0.000000  1
  Ru  Ru13  1  0.574525  0.939517  0.000000  1
  Ru  Ru14  1  0.365073  0.427415  0.000000  1
  Ru  Ru15  1  0.431914  0.050502  0.500000  1
  Ru  Ru16  1  0.618174  0.564942  0.500000  1
  Ru  Ru17  1  0.946265  0.380732  0.500000  1
  Ru  Ru18  1  0.083222  0.880767  0.500000  1
  Ru  Ru19  1  0.790731  0.913476  0.500000  1
  Ru  Ru20  1  0.124617  0.208759  0.500000  1
