# generated using pymatgen
data_YbFe3B4Os
_symmetry_space_group_name_H-M   'P 1'
_cell_length_a   6.97709404
_cell_length_b   7.16573821
_cell_length_c   3.91990500
_cell_angle_alpha   90.00000000
_cell_angle_beta   90.00000000
_cell_angle_gamma   91.45545629
_symmetry_Int_Tables_number   1
_chemical_formula_structural   YbFe3B4Os
_chemical_formula_sum   'Yb2 Fe6 B8 Os2'
_cell_volume   195.91645707
_cell_formula_units_Z   2
loop_
 _symmetry_equiv_pos_site_id
 _symmetry_equiv_pos_as_xyz
  1  'x, y, z'
loop_
 _atom_site_type_symbol
 _atom_site_label
 _atom_site_symmetry_multiplicity
 _atom_site_fract_x
 _atom_site_fract_y
 _atom_site_fract_z
 _atom_site_occupancy
  Yb  Yb0  1  0.000000  0.000000  0.939622  1
  Yb  Yb1  1  0.500000  0.500000  0.419236  1
  Fe  Fe2  1  0.884636  0.354408  0.388456  1
  Fe  Fe3  1  0.115364  0.645592  0.388456  1
  Fe  Fe4  1  0.377249  0.116628  0.628848  1
  Fe  Fe5  1  0.622751  0.883372  0.628848  1
  Fe  Fe6  1  0.626302  0.124667  0.128415  1
  Fe  Fe7  1  0.373698  0.875333  0.128415  1
  B  B8  1  0.660350  0.820305  0.123762  1
  B  B9  1  0.339650  0.179695  0.123762  1
  B  B10  1  0.312550  0.830838  0.620882  1
  B  B11  1  0.687450  0.169162  0.620882  1
  B  B12  1  0.825097  0.720079  0.396394  1
  B  B13  1  0.174903  0.279921  0.396394  1
  B  B14  1  0.197983  0.671871  0.894336  1
  B  B15  1  0.802017  0.328129  0.894336  1
  Os  Os16  1  0.144027  0.379954  0.889478  1
  Os  Os17  1  0.855973  0.620046  0.889478  1
