# generated using pymatgen
data_Ce2Co2CuSi3
_symmetry_space_group_name_H-M   'P 1'
_cell_length_a   8.67797816
_cell_length_b   8.67797834
_cell_length_c   3.98951700
_cell_angle_alpha   90.00000000
_cell_angle_beta   90.00000000
_cell_angle_gamma   153.42031455
_symmetry_Int_Tables_number   1
_chemical_formula_structural   Ce2Co2CuSi3
_chemical_formula_sum   'Ce2 Co2 Cu1 Si3'
_cell_volume   134.42938550
_cell_formula_units_Z   1
loop_
 _symmetry_equiv_pos_site_id
 _symmetry_equiv_pos_as_xyz
  1  'x, y, z'
loop_
 _atom_site_type_symbol
 _atom_site_label
 _atom_site_symmetry_multiplicity
 _atom_site_fract_x
 _atom_site_fract_y
 _atom_site_fract_z
 _atom_site_occupancy
  Ce  Ce0  1  0.609974  0.390026  0.250000  1
  Ce  Ce1  1  0.389583  0.610417  0.750000  1
  Co  Co2  1  0.250355  0.749645  0.250000  1
  Co  Co3  1  0.749947  0.250053  0.750000  1
  Cu  Cu4  1  0.964161  0.035839  0.250000  1
  Si  Si5  1  0.035778  0.964222  0.750000  1
  Si  Si6  1  0.820096  0.179904  0.250000  1
  Si  Si7  1  0.180105  0.819895  0.750000  1
