# generated using pymatgen
data_LaEu(Ga3Ni2)2
_symmetry_space_group_name_H-M   'P 1'
_cell_length_a   6.37622543
_cell_length_b   6.37622436
_cell_length_c   5.15830200
_cell_angle_alpha   90.00000000
_cell_angle_beta   90.00000000
_cell_angle_gamma   103.82061434
_symmetry_Int_Tables_number   1
_chemical_formula_structural   LaEu(Ga3Ni2)2
_chemical_formula_sum   'La1 Eu1 Ga6 Ni4'
_cell_volume   203.64553542
_cell_formula_units_Z   1
loop_
 _symmetry_equiv_pos_site_id
 _symmetry_equiv_pos_as_xyz
  1  'x, y, z'
loop_
 _atom_site_type_symbol
 _atom_site_label
 _atom_site_symmetry_multiplicity
 _atom_site_fract_x
 _atom_site_fract_y
 _atom_site_fract_z
 _atom_site_occupancy
  La  La0  1  0.656792  0.656792  0.250000  1
  Eu  Eu1  1  0.341808  0.341808  0.750000  1
  Ga  Ga2  1  0.060651  0.060651  0.250000  1
  Ga  Ga3  1  0.939505  0.939505  0.750000  1
  Ga  Ga4  1  0.090844  0.470891  0.250000  1
  Ga  Ga5  1  0.527252  0.913372  0.750000  1
  Ga  Ga6  1  0.913372  0.527252  0.750000  1
  Ga  Ga7  1  0.470891  0.090844  0.250000  1
  Ni  Ni8  1  0.204443  0.794999  0.499901  1
  Ni  Ni9  1  0.204443  0.794999  0.000099  1
  Ni  Ni10  1  0.794999  0.204443  0.499901  1
  Ni  Ni11  1  0.794999  0.204443  0.000099  1
