# generated using pymatgen
data_Lu4ReTcOs6
_symmetry_space_group_name_H-M   'P 1'
_cell_length_a   5.38354652
_cell_length_b   5.28198689
_cell_length_c   8.77891400
_cell_angle_alpha   90.00000000
_cell_angle_beta   90.00000000
_cell_angle_gamma   121.45478368
_symmetry_Int_Tables_number   1
_chemical_formula_structural   Lu4ReTcOs6
_chemical_formula_sum   'Lu4 Re1 Tc1 Os6'
_cell_volume   212.95223959
_cell_formula_units_Z   1
loop_
 _symmetry_equiv_pos_site_id
 _symmetry_equiv_pos_as_xyz
  1  'x, y, z'
loop_
 _atom_site_type_symbol
 _atom_site_label
 _atom_site_symmetry_multiplicity
 _atom_site_fract_x
 _atom_site_fract_y
 _atom_site_fract_z
 _atom_site_occupancy
  Lu  Lu0  1  0.335255  0.667214  0.436524  1
  Lu  Lu1  1  0.670354  0.339539  0.564751  1
  Lu  Lu2  1  0.670354  0.339539  0.935249  1
  Lu  Lu3  1  0.335255  0.667214  0.063476  1
  Re  Re4  1  0.165158  0.332832  0.750000  1
  Tc  Tc5  1  0.338072  0.168646  0.250000  1
  Os  Os6  1  0.169072  0.823785  0.750000  1
  Os  Os7  1  0.821026  0.644774  0.250000  1
  Os  Os8  1  0.646199  0.819711  0.750000  1
  Os  Os9  1  0.011026  0.014128  0.000643  1
  Os  Os10  1  0.827201  0.168495  0.250000  1
  Os  Os11  1  0.011026  0.014128  0.499357  1
