# generated using pymatgen
data_Ca11Lu(SiIr)8
_symmetry_space_group_name_H-M   'P 1'
_cell_length_a   5.81791820
_cell_length_b   7.62436670
_cell_length_c   13.35438000
_cell_angle_alpha   90.00000000
_cell_angle_beta   90.00000000
_cell_angle_gamma   89.80947902
_symmetry_Int_Tables_number   1
_chemical_formula_structural   Ca11Lu(SiIr)8
_chemical_formula_sum   'Ca11 Lu1 Si8 Ir8'
_cell_volume   592.36953580
_cell_formula_units_Z   1
loop_
 _symmetry_equiv_pos_site_id
 _symmetry_equiv_pos_as_xyz
  1  'x, y, z'
loop_
 _atom_site_type_symbol
 _atom_site_label
 _atom_site_symmetry_multiplicity
 _atom_site_fract_x
 _atom_site_fract_y
 _atom_site_fract_z
 _atom_site_occupancy
  Ca  Ca0  1  0.634667  0.226926  0.250000  1
  Ca  Ca1  1  0.366884  0.767569  0.750000  1
  Ca  Ca2  1  0.366847  0.726749  0.250000  1
  Ca  Ca3  1  0.134015  0.391447  0.100502  1
  Ca  Ca4  1  0.868484  0.611299  0.897907  1
  Ca  Ca5  1  0.868484  0.611299  0.602093  1
  Ca  Ca6  1  0.868171  0.890736  0.399014  1
  Ca  Ca7  1  0.134015  0.391447  0.399498  1
  Ca  Ca8  1  0.131440  0.107599  0.599746  1
  Ca  Ca9  1  0.131440  0.107599  0.900254  1
  Ca  Ca10  1  0.868171  0.890736  0.100986  1
  Lu  Lu11  1  0.617855  0.270391  0.750000  1
  Si  Si12  1  0.163656  0.077122  0.250000  1
  Si  Si13  1  0.836225  0.928161  0.750000  1
  Si  Si14  1  0.838217  0.575816  0.250000  1
  Si  Si15  1  0.150753  0.412474  0.750000  1
  Si  Si16  1  0.583297  0.251224  0.000312  1
  Si  Si17  1  0.419143  0.750901  0.997210  1
  Si  Si18  1  0.419143  0.750901  0.502790  1
  Si  Si19  1  0.583297  0.251224  0.499688  1
  Ir  Ir20  1  0.364483  0.024601  0.091133  1
  Ir  Ir21  1  0.637156  0.982072  0.906640  1
  Ir  Ir22  1  0.637156  0.982072  0.593360  1
  Ir  Ir23  1  0.638426  0.526075  0.410233  1
  Ir  Ir24  1  0.364483  0.024601  0.408867  1
  Ir  Ir25  1  0.367833  0.471441  0.594729  1
  Ir  Ir26  1  0.367833  0.471441  0.905271  1
  Ir  Ir27  1  0.638426  0.526075  0.089767  1
