# generated using pymatgen
data_Sr3CoPtO6
_symmetry_space_group_name_H-M   'P 1'
_cell_length_a   6.76184400
_cell_length_b   6.76440539
_cell_length_c   6.76418019
_cell_angle_alpha   91.61069574
_cell_angle_beta   91.59131192
_cell_angle_gamma   91.58809207
_symmetry_Int_Tables_number   1
_chemical_formula_structural   Sr3CoPtO6
_chemical_formula_sum   'Sr6 Co2 Pt2 O12'
_cell_volume   309.02536799
_cell_formula_units_Z   2
loop_
 _symmetry_equiv_pos_site_id
 _symmetry_equiv_pos_as_xyz
  1  'x, y, z'
loop_
 _atom_site_type_symbol
 _atom_site_label
 _atom_site_symmetry_multiplicity
 _atom_site_fract_x
 _atom_site_fract_y
 _atom_site_fract_z
 _atom_site_occupancy
  Sr  Sr0  1  0.613763  0.886541  0.249121  1
  Sr  Sr1  1  0.886529  0.249733  0.613504  1
  Sr  Sr2  1  0.251125  0.613206  0.886449  1
  Sr  Sr3  1  0.113785  0.749548  0.386415  1
  Sr  Sr4  1  0.751058  0.386421  0.113188  1
  Sr  Sr5  1  0.386569  0.113613  0.749370  1
  Co  Co6  1  0.253467  0.248485  0.248028  1
  Co  Co7  1  0.753600  0.749122  0.747269  1
  Pt  Pt8  1  0.499266  0.499823  0.500709  1
  Pt  Pt9  1  0.999276  0.000656  0.000261  1
  O  O10  1  0.537061  0.212564  0.406324  1
  O  O11  1  0.212517  0.406680  0.539123  1
  O  O12  1  0.404613  0.537283  0.213331  1
  O  O13  1  0.036581  0.905730  0.712541  1
  O  O14  1  0.904563  0.713062  0.037569  1
  O  O15  1  0.712297  0.039092  0.906965  1
  O  O16  1  0.462191  0.787231  0.594958  1
  O  O17  1  0.787123  0.594742  0.463257  1
  O  O18  1  0.592998  0.461341  0.787788  1
  O  O19  1  0.961767  0.094379  0.287238  1
  O  O20  1  0.093033  0.287603  0.961679  1
  O  O21  1  0.286816  0.963146  0.094912  1
