# generated using pymatgen
data_MgTi2AlPt12
_symmetry_space_group_name_H-M   'P 1'
_cell_length_a   5.59293480
_cell_length_b   5.59293428
_cell_length_c   7.86483200
_cell_angle_alpha   90.00000000
_cell_angle_beta   90.00000000
_cell_angle_gamma   89.96718744
_symmetry_Int_Tables_number   1
_chemical_formula_structural   MgTi2AlPt12
_chemical_formula_sum   'Mg1 Ti2 Al1 Pt12'
_cell_volume   246.01911466
_cell_formula_units_Z   1
loop_
 _symmetry_equiv_pos_site_id
 _symmetry_equiv_pos_as_xyz
  1  'x, y, z'
loop_
 _atom_site_type_symbol
 _atom_site_label
 _atom_site_symmetry_multiplicity
 _atom_site_fract_x
 _atom_site_fract_y
 _atom_site_fract_z
 _atom_site_occupancy
  Mg  Mg0  1  0.500000  0.000000  0.750102  1
  Ti  Ti1  1  0.500000  0.000000  0.250035  1
  Ti  Ti2  1  0.000000  0.500000  0.250179  1
  Al  Al3  1  0.000000  0.500000  0.749798  1
  Pt  Pt4  1  0.245721  0.254279  0.003121  1
  Pt  Pt5  1  0.748421  0.248421  0.004054  1
  Pt  Pt6  1  0.251579  0.751579  0.004054  1
  Pt  Pt7  1  0.754279  0.745721  0.003121  1
  Pt  Pt8  1  0.000000  0.000000  0.249950  1
  Pt  Pt9  1  0.500000  0.500000  0.249950  1
  Pt  Pt10  1  0.751374  0.251374  0.496361  1
  Pt  Pt11  1  0.248790  0.251210  0.496429  1
  Pt  Pt12  1  0.751210  0.748790  0.496429  1
  Pt  Pt13  1  0.248626  0.748626  0.496361  1
  Pt  Pt14  1  0.000000  0.000000  0.750028  1
  Pt  Pt15  1  0.500000  0.500000  0.750028  1
