# generated using pymatgen
data_Ca2LaTb(Ru2O7)2
_symmetry_space_group_name_H-M   'P 1'
_cell_length_a   7.30183049
_cell_length_b   7.36559031
_cell_length_c   7.30183036
_cell_angle_alpha   59.98985119
_cell_angle_beta   59.76723735
_cell_angle_gamma   59.98985545
_symmetry_Int_Tables_number   1
_chemical_formula_structural   Ca2LaTb(Ru2O7)2
_chemical_formula_sum   'Ca2 La1 Tb1 Ru4 O14'
_cell_volume   277.15317639
_cell_formula_units_Z   1
loop_
 _symmetry_equiv_pos_site_id
 _symmetry_equiv_pos_as_xyz
  1  'x, y, z'
loop_
 _atom_site_type_symbol
 _atom_site_label
 _atom_site_symmetry_multiplicity
 _atom_site_fract_x
 _atom_site_fract_y
 _atom_site_fract_z
 _atom_site_occupancy
  Ca  Ca0  1  0.625000  0.625000  0.125000  1
  Ca  Ca1  1  0.125000  0.625000  0.625000  1
  La  La2  1  0.625000  0.625000  0.625000  1
  Tb  Tb3  1  0.625000  0.125000  0.625000  1
  Ru  Ru4  1  0.625000  0.125000  0.125000  1
  Ru  Ru5  1  0.125000  0.625000  0.125000  1
  Ru  Ru6  1  0.125000  0.125000  0.625000  1
  Ru  Ru7  1  0.125000  0.125000  0.125000  1
  O  O8  1  0.203526  0.193602  0.801124  1
  O  O9  1  0.193666  0.806305  0.193666  1
  O  O10  1  0.448876  0.056398  0.046474  1
  O  O11  1  0.196219  0.802040  0.799887  1
  O  O12  1  0.053781  0.447960  0.450113  1
  O  O13  1  0.799887  0.802040  0.196219  1
  O  O14  1  0.450113  0.447960  0.053781  1
  O  O15  1  0.501015  0.489840  0.501015  1
  O  O16  1  0.046474  0.056398  0.448876  1
  O  O17  1  0.453422  0.053060  0.453422  1
  O  O18  1  0.056334  0.443695  0.056334  1
  O  O19  1  0.748985  0.760160  0.748985  1
  O  O20  1  0.796578  0.196940  0.796578  1
  O  O21  1  0.801124  0.193602  0.203526  1
