# generated using pymatgen
data_CaNd11(GePd)12
_symmetry_space_group_name_H-M   'P 1'
_cell_length_a   4.51347900
_cell_length_b   7.69138804
_cell_length_c   21.91356725
_cell_angle_alpha   90.10360423
_cell_angle_beta   90.00000000
_cell_angle_gamma   90.00000000
_symmetry_Int_Tables_number   1
_chemical_formula_structural   CaNd11(GePd)12
_chemical_formula_sum   'Ca1 Nd11 Ge12 Pd12'
_cell_volume   760.72645546
_cell_formula_units_Z   1
loop_
 _symmetry_equiv_pos_site_id
 _symmetry_equiv_pos_as_xyz
  1  'x, y, z'
loop_
 _atom_site_type_symbol
 _atom_site_label
 _atom_site_symmetry_multiplicity
 _atom_site_fract_x
 _atom_site_fract_y
 _atom_site_fract_z
 _atom_site_occupancy
  Ca  Ca0  1  0.250000  0.784011  0.500995  1
  Nd  Nd1  1  0.250000  0.709399  0.334099  1
  Nd  Nd2  1  0.750000  0.291416  0.666711  1
  Nd  Nd3  1  0.750000  0.208284  0.167083  1
  Nd  Nd4  1  0.250000  0.791184  0.832842  1
  Nd  Nd5  1  0.250000  0.791088  0.166566  1
  Nd  Nd6  1  0.750000  0.208872  0.833558  1
  Nd  Nd7  1  0.750000  0.291290  0.333966  1
  Nd  Nd8  1  0.250000  0.710299  0.665111  1
  Nd  Nd9  1  0.250000  0.715249  0.001349  1
  Nd  Nd10  1  0.750000  0.284879  0.998614  1
  Nd  Nd11  1  0.750000  0.211792  0.498885  1
  Ge  Ge12  1  0.250000  0.089151  0.071234  1
  Ge  Ge13  1  0.750000  0.911131  0.928712  1
  Ge  Ge14  1  0.750000  0.590533  0.428891  1
  Ge  Ge15  1  0.250000  0.411565  0.570946  1
  Ge  Ge16  1  0.250000  0.083797  0.269582  1
  Ge  Ge17  1  0.750000  0.916097  0.730363  1
  Ge  Ge18  1  0.750000  0.583471  0.230616  1
  Ge  Ge19  1  0.250000  0.416501  0.769360  1
  Ge  Ge20  1  0.250000  0.085693  0.397435  1
  Ge  Ge21  1  0.750000  0.914179  0.602700  1
  Ge  Ge22  1  0.750000  0.586275  0.102922  1
  Ge  Ge23  1  0.250000  0.413820  0.897020  1
  Pd  Pd24  1  0.250000  0.416859  0.237044  1
  Pd  Pd25  1  0.750000  0.583219  0.763041  1
  Pd  Pd26  1  0.750000  0.916542  0.263050  1
  Pd  Pd27  1  0.250000  0.083529  0.737056  1
  Pd  Pd28  1  0.250000  0.416742  0.436146  1
  Pd  Pd29  1  0.750000  0.584000  0.563918  1
  Pd  Pd30  1  0.750000  0.916758  0.064313  1
  Pd  Pd31  1  0.250000  0.083175  0.935706  1
  Pd  Pd32  1  0.250000  0.420164  0.093809  1
  Pd  Pd33  1  0.750000  0.579760  0.906226  1
  Pd  Pd34  1  0.750000  0.919236  0.406334  1
  Pd  Pd35  1  0.250000  0.080039  0.593799  1
