# generated using pymatgen
data_Ba5BiSb3
_symmetry_space_group_name_H-M   'P 1'
_cell_length_a   10.14928077
_cell_length_b   10.14928079
_cell_length_c   9.23601800
_cell_angle_alpha   90.00000000
_cell_angle_beta   90.00000000
_cell_angle_gamma   126.11485998
_symmetry_Int_Tables_number   1
_chemical_formula_structural   Ba5BiSb3
_chemical_formula_sum   'Ba10 Bi2 Sb6'
_cell_volume   768.56228749
_cell_formula_units_Z   2
loop_
 _symmetry_equiv_pos_site_id
 _symmetry_equiv_pos_as_xyz
  1  'x, y, z'
loop_
 _atom_site_type_symbol
 _atom_site_label
 _atom_site_symmetry_multiplicity
 _atom_site_fract_x
 _atom_site_fract_y
 _atom_site_fract_z
 _atom_site_occupancy
  Ba  Ba0  1  0.497949  0.497949  0.495479  1
  Ba  Ba1  1  0.997949  0.997949  0.004521  1
  Ba  Ba2  1  0.315970  0.021105  0.662425  1
  Ba  Ba3  1  0.521105  0.815970  0.837575  1
  Ba  Ba4  1  0.184955  0.478095  0.165117  1
  Ba  Ba5  1  0.978095  0.684955  0.334883  1
  Ba  Ba6  1  0.684955  0.978095  0.334883  1
  Ba  Ba7  1  0.478095  0.184955  0.165117  1
  Ba  Ba8  1  0.815970  0.521105  0.837575  1
  Ba  Ba9  1  0.021105  0.315970  0.662425  1
  Bi  Bi10  1  0.884470  0.884470  0.616257  1
  Bi  Bi11  1  0.384470  0.384470  0.883743  1
  Sb  Sb12  1  0.616455  0.616455  0.115844  1
  Sb  Sb13  1  0.116455  0.116455  0.384156  1
  Sb  Sb14  1  0.198528  0.802473  0.999824  1
  Sb  Sb15  1  0.302473  0.698528  0.500176  1
  Sb  Sb16  1  0.802473  0.198528  0.999824  1
  Sb  Sb17  1  0.698528  0.302473  0.500176  1
