# generated using pymatgen
data_Ti4Fe3RuPt8
_symmetry_space_group_name_H-M   'P 1'
_cell_length_a   5.50509200
_cell_length_b   5.51616045
_cell_length_c   8.96534000
_cell_angle_alpha   90.00000000
_cell_angle_beta   90.00000000
_cell_angle_gamma   119.93364602
_symmetry_Int_Tables_number   1
_chemical_formula_structural   Ti4Fe3RuPt8
_chemical_formula_sum   'Ti4 Fe3 Ru1 Pt8'
_cell_volume   235.93309256
_cell_formula_units_Z   1
loop_
 _symmetry_equiv_pos_site_id
 _symmetry_equiv_pos_as_xyz
  1  'x, y, z'
loop_
 _atom_site_type_symbol
 _atom_site_label
 _atom_site_symmetry_multiplicity
 _atom_site_fract_x
 _atom_site_fract_y
 _atom_site_fract_z
 _atom_site_occupancy
  Ti  Ti0  1  0.005820  0.011641  0.509016  1
  Ti  Ti1  1  0.005820  0.011641  0.990984  1
  Ti  Ti2  1  0.331275  0.662552  0.250000  1
  Ti  Ti3  1  0.666118  0.332235  0.750000  1
  Fe  Fe4  1  0.499835  0.999671  0.497997  1
  Fe  Fe5  1  0.499835  0.999671  0.002003  1
  Fe  Fe6  1  0.825992  0.651985  0.250000  1
  Ru  Ru7  1  0.170144  0.340286  0.750000  1
  Pt  Pt8  1  0.502890  0.503461  0.496023  1
  Pt  Pt9  1  0.000571  0.503461  0.496023  1
  Pt  Pt10  1  0.502890  0.503461  0.003977  1
  Pt  Pt11  1  0.000571  0.503461  0.003977  1
  Pt  Pt12  1  0.325603  0.146728  0.250000  1
  Pt  Pt13  1  0.821124  0.146728  0.250000  1
  Pt  Pt14  1  0.666376  0.841507  0.750000  1
  Pt  Pt15  1  0.175132  0.841507  0.750000  1
