# generated using pymatgen
data_HfZr3Fe2(Sb2Pt)2
_symmetry_space_group_name_H-M   'P 1'
_cell_length_a   6.28886837
_cell_length_b   6.28772163
_cell_length_c   7.64236761
_cell_angle_alpha   65.78548858
_cell_angle_beta   65.70419727
_cell_angle_gamma   90.00000271
_symmetry_Int_Tables_number   1
_chemical_formula_structural   HfZr3Fe2(Sb2Pt)2
_chemical_formula_sum   'Hf1 Zr3 Fe2 Sb4 Pt2'
_cell_volume   245.96969687
_cell_formula_units_Z   1
loop_
 _symmetry_equiv_pos_site_id
 _symmetry_equiv_pos_as_xyz
  1  'x, y, z'
loop_
 _atom_site_type_symbol
 _atom_site_label
 _atom_site_symmetry_multiplicity
 _atom_site_fract_x
 _atom_site_fract_y
 _atom_site_fract_z
 _atom_site_occupancy
  Hf  Hf0  1  0.883515  0.375000  0.750000  1
  Zr  Zr1  1  0.124990  0.115919  0.249888  1
  Zr  Zr2  1  0.624878  0.634082  0.250111  1
  Zr  Zr3  1  0.365883  0.875000  0.750000  1
  Fe  Fe4  1  0.999508  0.000980  0.999352  1
  Fe  Fe5  1  0.248860  0.749020  0.500648  1
  Sb  Sb6  1  0.625485  0.106137  0.249494  1
  Sb  Sb7  1  0.124979  0.643864  0.250505  1
  Sb  Sb8  1  0.353903  0.375000  0.750000  1
  Sb  Sb9  1  0.894374  0.875000  0.750000  1
  Pt  Pt10  1  0.502788  0.498987  0.998050  1
  Pt  Pt11  1  0.750838  0.251013  0.501950  1
