# generated using pymatgen
data_Dy4Ho8Co4BiRu
_symmetry_space_group_name_H-M   'P 1'
_cell_length_a   8.30885429
_cell_length_b   8.30885505
_cell_length_c   8.30885498
_cell_angle_alpha   110.57197086
_cell_angle_beta   111.03513667
_cell_angle_gamma   106.83856023
_symmetry_Int_Tables_number   1
_chemical_formula_structural   Dy4Ho8Co4BiRu
_chemical_formula_sum   'Dy4 Ho8 Co4 Bi1 Ru1'
_cell_volume   440.86932390
_cell_formula_units_Z   1
loop_
 _symmetry_equiv_pos_site_id
 _symmetry_equiv_pos_as_xyz
  1  'x, y, z'
loop_
 _atom_site_type_symbol
 _atom_site_label
 _atom_site_symmetry_multiplicity
 _atom_site_fract_x
 _atom_site_fract_y
 _atom_site_fract_z
 _atom_site_occupancy
  Dy  Dy0  1  0.284979  0.182739  0.467717  1
  Dy  Dy1  1  0.715021  0.817261  0.532283  1
  Dy  Dy2  1  0.284979  0.817261  0.102241  1
  Dy  Dy3  1  0.715021  0.182739  0.897759  1
  Ho  Ho4  1  0.621169  0.311580  0.309588  1
  Ho  Ho5  1  0.378831  0.688420  0.690412  1
  Ho  Ho6  1  0.001994  0.311580  0.690412  1
  Ho  Ho7  1  0.998006  0.688420  0.309588  1
  Ho  Ho8  1  0.211484  0.407102  0.195617  1
  Ho  Ho9  1  0.788516  0.592898  0.804383  1
  Ho  Ho10  1  0.211484  0.015868  0.804383  1
  Ho  Ho11  1  0.788516  0.984132  0.195617  1
  Co  Co12  1  0.000000  0.375894  0.375894  1
  Co  Co13  1  0.000000  0.624106  0.624106  1
  Co  Co14  1  0.388851  0.888851  0.500000  1
  Co  Co15  1  0.611149  0.111149  0.500000  1
  Bi  Bi16  1  0.500000  0.500000  0.000000  1
  Ru  Ru17  1  0.000000  0.000000  0.000000  1
