# generated using pymatgen
data_YbB3W
_symmetry_space_group_name_H-M   'P 1'
_cell_length_a   5.47596507
_cell_length_b   3.07648400
_cell_length_c   6.92530558
_cell_angle_alpha   90.00000000
_cell_angle_beta   102.57293755
_cell_angle_gamma   90.00000000
_symmetry_Int_Tables_number   1
_chemical_formula_structural   YbB3W
_chemical_formula_sum   'Yb2 B6 W2'
_cell_volume   113.87092525
_cell_formula_units_Z   2
loop_
 _symmetry_equiv_pos_site_id
 _symmetry_equiv_pos_as_xyz
  1  'x, y, z'
loop_
 _atom_site_type_symbol
 _atom_site_label
 _atom_site_symmetry_multiplicity
 _atom_site_fract_x
 _atom_site_fract_y
 _atom_site_fract_z
 _atom_site_occupancy
  Yb  Yb0  1  0.169153  0.250000  0.206616  1
  Yb  Yb1  1  0.830847  0.750000  0.793384  1
  B  B2  1  0.569482  0.250000  0.032363  1
  B  B3  1  0.083674  0.750000  0.489683  1
  B  B4  1  0.410624  0.750000  0.489793  1
  B  B5  1  0.589374  0.250000  0.510207  1
  B  B6  1  0.916327  0.250000  0.510317  1
  B  B7  1  0.430518  0.750000  0.967636  1
  W  W8  1  0.686675  0.750000  0.282405  1
  W  W9  1  0.313326  0.250000  0.717596  1
