# generated using pymatgen
data_Tm12Ir3I16
_symmetry_space_group_name_H-M   'P 1'
_cell_length_a   9.56073652
_cell_length_b   12.15813730
_cell_length_c   12.85922985
_cell_angle_alpha   116.90147959
_cell_angle_beta   101.41587669
_cell_angle_gamma   101.00749684
_symmetry_Int_Tables_number   1
_chemical_formula_structural   Tm12Ir3I16
_chemical_formula_sum   'Tm12 Ir3 I16'
_cell_volume   1237.54605785
_cell_formula_units_Z   1
loop_
 _symmetry_equiv_pos_site_id
 _symmetry_equiv_pos_as_xyz
  1  'x, y, z'
loop_
 _atom_site_type_symbol
 _atom_site_label
 _atom_site_symmetry_multiplicity
 _atom_site_fract_x
 _atom_site_fract_y
 _atom_site_fract_z
 _atom_site_occupancy
  Tm  Tm0  1  0.085110  0.267521  0.356209  1
  Tm  Tm1  1  0.914890  0.732479  0.643791  1
  Tm  Tm2  1  0.782406  0.534198  0.328299  1
  Tm  Tm3  1  0.217594  0.465802  0.671701  1
  Tm  Tm4  1  0.275340  0.733193  0.643325  1
  Tm  Tm5  1  0.724660  0.266807  0.356675  1
  Tm  Tm6  1  0.141978  0.534581  0.328139  1
  Tm  Tm7  1  0.858022  0.465419  0.671861  1
  Tm  Tm8  1  0.404534  0.356504  0.270960  1
  Tm  Tm9  1  0.595466  0.643496  0.729040  1
  Tm  Tm10  1  0.458868  0.310542  0.520484  1
  Tm  Tm11  1  0.541132  0.689458  0.479516  1
  Ir  Ir12  1  0.000000  0.500000  0.500000  1
  Ir  Ir13  1  0.340778  0.500198  0.499556  1
  Ir  Ir14  1  0.659223  0.499802  0.500444  1
  I  I15  1  0.395741  0.747054  0.893973  1
  I  I16  1  0.604259  0.252946  0.106027  1
  I  I17  1  0.192393  0.975905  0.788769  1
  I  I18  1  0.807607  0.024095  0.211231  1
  I  I19  1  0.333965  0.086044  0.246508  1
  I  I20  1  0.666035  0.913956  0.753492  1
  I  I21  1  0.559461  0.435954  0.805261  1
  I  I22  1  0.440539  0.564046  0.194739  1
  I  I23  1  0.306117  0.834519  0.461383  1
  I  I24  1  0.693883  0.165481  0.538617  1
  I  I25  1  0.161190  0.165512  0.535824  1
  I  I26  1  0.838810  0.834488  0.464176  1
  I  I27  1  0.925067  0.578900  0.153731  1
  I  I28  1  0.074933  0.421100  0.846269  1
  I  I29  1  0.932123  0.745781  0.894587  1
  I  I30  1  0.067877  0.254219  0.105413  1
