# generated using pymatgen
data_NaZr(NbSe2)8
_symmetry_space_group_name_H-M   'P 1'
_cell_length_a   7.01393200
_cell_length_b   7.01393175
_cell_length_c   14.76946700
_cell_angle_alpha   90.00000000
_cell_angle_beta   90.00000000
_cell_angle_gamma   120.00000119
_symmetry_Int_Tables_number   1
_chemical_formula_structural   NaZr(NbSe2)8
_chemical_formula_sum   'Na1 Zr1 Nb8 Se16'
_cell_volume   629.24320690
_cell_formula_units_Z   1
loop_
 _symmetry_equiv_pos_site_id
 _symmetry_equiv_pos_as_xyz
  1  'x, y, z'
loop_
 _atom_site_type_symbol
 _atom_site_label
 _atom_site_symmetry_multiplicity
 _atom_site_fract_x
 _atom_site_fract_y
 _atom_site_fract_z
 _atom_site_occupancy
  Na  Na0  1  0.000000  0.000000  0.000000  1
  Zr  Zr1  1  0.000000  0.000000  0.500000  1
  Nb  Nb2  1  0.985997  0.492999  0.271544  1
  Nb  Nb3  1  0.014003  0.507001  0.728456  1
  Nb  Nb4  1  0.492999  0.507001  0.728456  1
  Nb  Nb5  1  0.507001  0.014003  0.271544  1
  Nb  Nb6  1  0.000000  0.000000  0.726135  1
  Nb  Nb7  1  0.000000  0.000000  0.273865  1
  Nb  Nb8  1  0.507001  0.492999  0.271544  1
  Nb  Nb9  1  0.492999  0.985997  0.728456  1
  Se  Se10  1  0.333333  0.666667  0.611584  1
  Se  Se11  1  0.666667  0.333333  0.154541  1
  Se  Se12  1  0.666667  0.333333  0.388416  1
  Se  Se13  1  0.333333  0.666667  0.845459  1
  Se  Se14  1  0.170847  0.341694  0.385206  1
  Se  Se15  1  0.833469  0.166531  0.839527  1
  Se  Se16  1  0.333063  0.166531  0.839527  1
  Se  Se17  1  0.658306  0.829153  0.385206  1
  Se  Se18  1  0.170847  0.829153  0.385206  1
  Se  Se19  1  0.833469  0.666937  0.839527  1
  Se  Se20  1  0.166531  0.333063  0.160473  1
  Se  Se21  1  0.829153  0.170847  0.614794  1
  Se  Se22  1  0.341694  0.170847  0.614794  1
  Se  Se23  1  0.666937  0.833469  0.160473  1
  Se  Se24  1  0.166531  0.833469  0.160473  1
  Se  Se25  1  0.829153  0.658306  0.614794  1
