# generated using pymatgen
data_Dy4HoRh2
_symmetry_space_group_name_H-M   'P 1'
_cell_length_a   6.41957471
_cell_length_b   7.16601601
_cell_length_c   8.65635045
_cell_angle_alpha   96.79087456
_cell_angle_beta   111.76506296
_cell_angle_gamma   89.99999874
_symmetry_Int_Tables_number   1
_chemical_formula_structural   Dy4HoRh2
_chemical_formula_sum   'Dy8 Ho2 Rh4'
_cell_volume   366.81826426
_cell_formula_units_Z   2
loop_
 _symmetry_equiv_pos_site_id
 _symmetry_equiv_pos_as_xyz
  1  'x, y, z'
loop_
 _atom_site_type_symbol
 _atom_site_label
 _atom_site_symmetry_multiplicity
 _atom_site_fract_x
 _atom_site_fract_y
 _atom_site_fract_z
 _atom_site_occupancy
  Dy  Dy0  1  0.980232  0.917409  0.187935  1
  Dy  Dy1  1  0.792298  0.582591  0.812065  1
  Dy  Dy2  1  0.019768  0.082591  0.812065  1
  Dy  Dy3  1  0.207702  0.417409  0.187935  1
  Dy  Dy4  1  0.646008  0.812871  0.436794  1
  Dy  Dy5  1  0.209215  0.687129  0.563206  1
  Dy  Dy6  1  0.353992  0.187129  0.563206  1
  Dy  Dy7  1  0.790785  0.312871  0.436794  1
  Ho  Ho8  1  0.423731  0.750000  0.000000  1
  Ho  Ho9  1  0.576269  0.250000  0.000000  1
  Rh  Rh10  1  0.818050  0.574550  0.220410  1
  Rh  Rh11  1  0.597641  0.925450  0.779590  1
  Rh  Rh12  1  0.181950  0.425450  0.779590  1
  Rh  Rh13  1  0.402359  0.074550  0.220410  1
