# generated using pymatgen
data_VCoF30
_symmetry_space_group_name_H-M   'P 1'
_cell_length_a   9.21850989
_cell_length_b   9.21851071
_cell_length_c   7.02845917
_cell_angle_alpha   89.77727727
_cell_angle_beta   90.22272165
_cell_angle_gamma   92.48024388
_symmetry_Int_Tables_number   1
_chemical_formula_structural   VCoF30
_chemical_formula_sum   'V1 Co1 F30'
_cell_volume   596.71683400
_cell_formula_units_Z   1
loop_
 _symmetry_equiv_pos_site_id
 _symmetry_equiv_pos_as_xyz
  1  'x, y, z'
loop_
 _atom_site_type_symbol
 _atom_site_label
 _atom_site_symmetry_multiplicity
 _atom_site_fract_x
 _atom_site_fract_y
 _atom_site_fract_z
 _atom_site_occupancy
  V  V0  1  0.864380  0.135620  0.017864  1
  Co  Co1  1  0.137048  0.862952  0.534641  1
  F  F2  1  0.295516  0.276714  0.211055  1
  F  F3  1  0.284912  0.296359  0.704807  1
  F  F4  1  0.344070  0.655930  0.073166  1
  F  F5  1  0.655072  0.344928  0.571979  1
  F  F6  1  0.723286  0.704484  0.211055  1
  F  F7  1  0.703641  0.715088  0.704807  1
  F  F8  1  0.049842  0.140327  0.087040  1
  F  F9  1  0.141822  0.047534  0.586606  1
  F  F10  1  0.075391  0.395161  0.395375  1
  F  F11  1  0.392509  0.074785  0.890483  1
  F  F12  1  0.323579  0.435136  0.783442  1
  F  F13  1  0.434687  0.329678  0.275969  1
  F  F14  1  0.063252  0.576212  0.970162  1
  F  F15  1  0.574607  0.062904  0.473360  1
  F  F16  1  0.638873  0.361127  0.772204  1
  F  F17  1  0.357620  0.642380  0.274266  1
  F  F18  1  0.937096  0.425393  0.473360  1
  F  F19  1  0.423788  0.936748  0.970162  1
  F  F20  1  0.670322  0.565313  0.275969  1
  F  F21  1  0.564864  0.676421  0.783442  1
  F  F22  1  0.925215  0.607491  0.890483  1
  F  F23  1  0.604839  0.924609  0.395375  1
  F  F24  1  0.859673  0.950158  0.087040  1
  F  F25  1  0.952466  0.858178  0.586606  1
  F  F26  1  0.134358  0.677148  0.574729  1
  F  F27  1  0.678204  0.132691  0.078281  1
  F  F28  1  0.867313  0.132687  0.772597  1
  F  F29  1  0.131594  0.868406  0.283388  1
  F  F30  1  0.867309  0.321796  0.078281  1
  F  F31  1  0.322852  0.865642  0.574729  1
