# generated using pymatgen
data_La6RuBr10
_symmetry_space_group_name_H-M   'P 1'
_cell_length_a   7.85125772
_cell_length_b   9.66283866
_cell_length_c   9.71139074
_cell_angle_alpha   108.99369381
_cell_angle_beta   97.00330457
_cell_angle_gamma   106.53321802
_symmetry_Int_Tables_number   1
_chemical_formula_structural   La6RuBr10
_chemical_formula_sum   'La6 Ru1 Br10'
_cell_volume   648.86718692
_cell_formula_units_Z   1
loop_
 _symmetry_equiv_pos_site_id
 _symmetry_equiv_pos_as_xyz
  1  'x, y, z'
loop_
 _atom_site_type_symbol
 _atom_site_label
 _atom_site_symmetry_multiplicity
 _atom_site_fract_x
 _atom_site_fract_y
 _atom_site_fract_z
 _atom_site_occupancy
  La  La0  1  0.128850  0.048695  0.757864  1
  La  La1  1  0.871150  0.951305  0.242136  1
  La  La2  1  0.971052  0.296412  0.094001  1
  La  La3  1  0.028948  0.703588  0.905999  1
  La  La4  1  0.374784  0.146599  0.192806  1
  La  La5  1  0.625216  0.853401  0.807194  1
  Ru  Ru6  1  0.000000  0.000000  0.000000  1
  Br  Br7  1  0.549186  0.173289  0.920525  1
  Br  Br8  1  0.450814  0.826711  0.079475  1
  Br  Br9  1  0.356504  0.460701  0.275070  1
  Br  Br10  1  0.643496  0.539299  0.724930  1
  Br  Br11  1  0.249499  0.082326  0.455596  1
  Br  Br12  1  0.750501  0.917674  0.544404  1
  Br  Br13  1  0.797585  0.258641  0.350956  1
  Br  Br14  1  0.202415  0.741359  0.649044  1
  Br  Br15  1  0.088358  0.368604  0.829429  1
  Br  Br16  1  0.911642  0.631396  0.170571  1
