# generated using pymatgen
data_TbGd4TmSi4
_symmetry_space_group_name_H-M   'P 1'
_cell_length_a   7.47708100
_cell_length_b   7.47708100
_cell_length_c   4.27273300
_cell_angle_alpha   90.00000000
_cell_angle_beta   90.00000000
_cell_angle_gamma   90.00000000
_symmetry_Int_Tables_number   1
_chemical_formula_structural   TbGd4TmSi4
_chemical_formula_sum   'Tb1 Gd4 Tm1 Si4'
_cell_volume   238.87457412
_cell_formula_units_Z   1
loop_
 _symmetry_equiv_pos_site_id
 _symmetry_equiv_pos_as_xyz
  1  'x, y, z'
loop_
 _atom_site_type_symbol
 _atom_site_label
 _atom_site_symmetry_multiplicity
 _atom_site_fract_x
 _atom_site_fract_y
 _atom_site_fract_z
 _atom_site_occupancy
  Tb  Tb0  1  0.500000  0.500000  0.000000  1
  Gd  Gd1  1  0.676859  0.175688  0.500000  1
  Gd  Gd2  1  0.323141  0.824312  0.500000  1
  Gd  Gd3  1  0.175688  0.323141  0.500000  1
  Gd  Gd4  1  0.824312  0.676859  0.500000  1
  Tm  Tm5  1  0.000000  0.000000  0.000000  1
  Si  Si6  1  0.114902  0.616432  0.000000  1
  Si  Si7  1  0.885098  0.383568  0.000000  1
  Si  Si8  1  0.616432  0.885098  0.000000  1
  Si  Si9  1  0.383568  0.114902  0.000000  1
