# generated using pymatgen
data_CaNd4Ga2Sb
_symmetry_space_group_name_H-M   'P 1'
_cell_length_a   9.07413655
_cell_length_b   9.07413632
_cell_length_c   9.07413535
_cell_angle_alpha   126.91521712
_cell_angle_beta   126.91521368
_cell_angle_gamma   78.38904805
_symmetry_Int_Tables_number   1
_chemical_formula_structural   CaNd4Ga2Sb
_chemical_formula_sum   'Ca2 Nd8 Ga4 Sb2'
_cell_volume   462.51193908
_cell_formula_units_Z   2
loop_
 _symmetry_equiv_pos_site_id
 _symmetry_equiv_pos_as_xyz
  1  'x, y, z'
loop_
 _atom_site_type_symbol
 _atom_site_label
 _atom_site_symmetry_multiplicity
 _atom_site_fract_x
 _atom_site_fract_y
 _atom_site_fract_z
 _atom_site_occupancy
  Ca  Ca0  1  0.500000  0.500000  0.000000  1
  Ca  Ca1  1  0.000000  0.000000  0.000000  1
  Nd  Nd2  1  0.522301  0.022301  0.835442  1
  Nd  Nd3  1  0.186858  0.686858  0.164558  1
  Nd  Nd4  1  0.022301  0.186858  0.500000  1
  Nd  Nd5  1  0.686858  0.522301  0.500000  1
  Nd  Nd6  1  0.477699  0.977699  0.164558  1
  Nd  Nd7  1  0.813142  0.313142  0.835442  1
  Nd  Nd8  1  0.977699  0.813142  0.500000  1
  Nd  Nd9  1  0.313142  0.477699  0.500000  1
  Ga  Ga10  1  0.878481  0.378481  0.256960  1
  Ga  Ga11  1  0.121519  0.621519  0.743040  1
  Ga  Ga12  1  0.378481  0.121519  0.500000  1
  Ga  Ga13  1  0.621519  0.878481  0.500000  1
  Sb  Sb14  1  0.250000  0.250000  0.000000  1
  Sb  Sb15  1  0.750000  0.750000  0.000000  1
