# generated using pymatgen
data_Pr2Ho2Al15(GaIr2)3
_symmetry_space_group_name_H-M   'P 1'
_cell_length_a   7.56384612
_cell_length_b   7.56325539
_cell_length_c   9.60826000
_cell_angle_alpha   90.00000000
_cell_angle_beta   90.00000000
_cell_angle_gamma   119.33921757
_symmetry_Int_Tables_number   1
_chemical_formula_structural   Pr2Ho2Al15(GaIr2)3
_chemical_formula_sum   'Pr2 Ho2 Al15 Ga3 Ir6'
_cell_volume   479.15964090
_cell_formula_units_Z   1
loop_
 _symmetry_equiv_pos_site_id
 _symmetry_equiv_pos_as_xyz
  1  'x, y, z'
loop_
 _atom_site_type_symbol
 _atom_site_label
 _atom_site_symmetry_multiplicity
 _atom_site_fract_x
 _atom_site_fract_y
 _atom_site_fract_z
 _atom_site_occupancy
  Pr  Pr0  1  0.997423  0.674461  0.250000  1
  Pr  Pr1  1  0.669730  0.990089  0.250000  1
  Ho  Ho2  1  0.004788  0.324036  0.750000  1
  Ho  Ho3  1  0.323546  0.003329  0.750000  1
  Al  Al4  1  0.004306  0.335347  0.067213  1
  Al  Al5  1  0.999690  0.663357  0.922220  1
  Al  Al6  1  0.999690  0.663357  0.577780  1
  Al  Al7  1  0.336345  0.006513  0.432443  1
  Al  Al8  1  0.004306  0.335347  0.432787  1
  Al  Al9  1  0.663396  0.000276  0.577598  1
  Al  Al10  1  0.663396  0.000276  0.922402  1
  Al  Al11  1  0.336345  0.006513  0.067557  1
  Al  Al12  1  0.333605  0.333829  0.562958  1
  Al  Al13  1  0.665175  0.664729  0.460288  1
  Al  Al14  1  0.665175  0.664729  0.039712  1
  Al  Al15  1  0.333605  0.333829  0.937042  1
  Al  Al16  1  0.662363  0.447980  0.750000  1
  Al  Al17  1  0.546993  0.339134  0.250000  1
  Al  Al18  1  0.448394  0.662329  0.750000  1
  Ga  Ga19  1  0.134999  0.135492  0.250000  1
  Ga  Ga20  1  0.865289  0.865110  0.750000  1
  Ga  Ga21  1  0.337949  0.542001  0.250000  1
  Ir  Ir22  1  0.671027  0.329441  0.998115  1
  Ir  Ir23  1  0.328821  0.672291  0.995855  1
  Ir  Ir24  1  0.328821  0.672291  0.504145  1
  Ir  Ir25  1  0.671027  0.329441  0.501885  1
  Ir  Ir26  1  0.001897  0.002237  0.996248  1
  Ir  Ir27  1  0.001897  0.002237  0.503752  1
