# generated using pymatgen
data_Y5TlRu2
_symmetry_space_group_name_H-M   'P 1'
_cell_length_a   8.79631655
_cell_length_b   8.79631648
_cell_length_c   8.79631630
_cell_angle_alpha   127.67534214
_cell_angle_beta   127.67534650
_cell_angle_gamma   77.15154962
_symmetry_Int_Tables_number   1
_chemical_formula_structural   Y5TlRu2
_chemical_formula_sum   'Y10 Tl2 Ru4'
_cell_volume   413.77166099
_cell_formula_units_Z   2
loop_
 _symmetry_equiv_pos_site_id
 _symmetry_equiv_pos_as_xyz
  1  'x, y, z'
loop_
 _atom_site_type_symbol
 _atom_site_label
 _atom_site_symmetry_multiplicity
 _atom_site_fract_x
 _atom_site_fract_y
 _atom_site_fract_z
 _atom_site_occupancy
  Y  Y0  1  0.000000  0.000000  0.000000  1
  Y  Y1  1  0.500000  0.500000  0.000000  1
  Y  Y2  1  0.792682  0.292682  0.820467  1
  Y  Y3  1  0.207318  0.707318  0.179533  1
  Y  Y4  1  0.472216  0.972216  0.179533  1
  Y  Y5  1  0.292682  0.472216  0.500000  1
  Y  Y6  1  0.027784  0.207318  0.500000  1
  Y  Y7  1  0.527784  0.027784  0.820467  1
  Y  Y8  1  0.707318  0.527784  0.500000  1
  Y  Y9  1  0.972216  0.792682  0.500000  1
  Tl  Tl10  1  0.250000  0.250000  0.000000  1
  Tl  Tl11  1  0.750000  0.750000  0.000000  1
  Ru  Ru12  1  0.140330  0.640330  0.780658  1
  Ru  Ru13  1  0.859670  0.359670  0.219342  1
  Ru  Ru14  1  0.640330  0.859670  0.500000  1
  Ru  Ru15  1  0.359670  0.140330  0.500000  1
