# generated using pymatgen
data_Rb8NaLi3(YSb2)4
_symmetry_space_group_name_H-M   'P 1'
_cell_length_a   11.23973901
_cell_length_b   11.23973936
_cell_length_c   7.31623577
_cell_angle_alpha   90.07642747
_cell_angle_beta   89.92357124
_cell_angle_gamma   98.77056341
_symmetry_Int_Tables_number   1
_chemical_formula_structural   Rb8NaLi3(YSb2)4
_chemical_formula_sum   'Rb8 Na1 Li3 Y4 Sb8'
_cell_volume   913.46370334
_cell_formula_units_Z   1
loop_
 _symmetry_equiv_pos_site_id
 _symmetry_equiv_pos_as_xyz
  1  'x, y, z'
loop_
 _atom_site_type_symbol
 _atom_site_label
 _atom_site_symmetry_multiplicity
 _atom_site_fract_x
 _atom_site_fract_y
 _atom_site_fract_z
 _atom_site_occupancy
  Rb  Rb0  1  0.071070  0.429551  0.249339  1
  Rb  Rb1  1  0.429551  0.071070  0.750661  1
  Rb  Rb2  1  0.929421  0.568139  0.750018  1
  Rb  Rb3  1  0.568139  0.929421  0.249982  1
  Rb  Rb4  1  0.674419  0.324129  0.213019  1
  Rb  Rb5  1  0.823484  0.178529  0.714361  1
  Rb  Rb6  1  0.324129  0.674419  0.786981  1
  Rb  Rb7  1  0.178529  0.823484  0.285639  1
  Na  Na8  1  0.883150  0.883150  0.500000  1
  Li  Li9  1  0.379098  0.379098  0.000000  1
  Li  Li10  1  0.124821  0.124821  0.500000  1
  Li  Li11  1  0.620171  0.620171  0.000000  1
  Y  Y12  1  0.131739  0.131739  0.000000  1
  Y  Y13  1  0.370095  0.370095  0.500000  1
  Y  Y14  1  0.869043  0.869043  0.000000  1
  Y  Y15  1  0.629250  0.629250  0.500000  1
  Sb  Sb16  1  0.841484  0.647705  0.239795  1
  Sb  Sb17  1  0.647705  0.841484  0.760205  1
  Sb  Sb18  1  0.154410  0.345808  0.748479  1
  Sb  Sb19  1  0.345808  0.154410  0.251521  1
  Sb  Sb20  1  0.903824  0.101506  0.226111  1
  Sb  Sb21  1  0.593371  0.405781  0.739128  1
  Sb  Sb22  1  0.101506  0.903824  0.773889  1
  Sb  Sb23  1  0.405781  0.593371  0.260872  1
