# generated using pymatgen
data_Yb2VP2O9
_symmetry_space_group_name_H-M   'P 1'
_cell_length_a   6.63670767
_cell_length_b   6.85420133
_cell_length_c   8.48525316
_cell_angle_alpha   76.55261030
_cell_angle_beta   77.63602194
_cell_angle_gamma   115.98396070
_symmetry_Int_Tables_number   1
_chemical_formula_structural   Yb2VP2O9
_chemical_formula_sum   'Yb4 V2 P4 O18'
_cell_volume   314.64358502
_cell_formula_units_Z   2
loop_
 _symmetry_equiv_pos_site_id
 _symmetry_equiv_pos_as_xyz
  1  'x, y, z'
loop_
 _atom_site_type_symbol
 _atom_site_label
 _atom_site_symmetry_multiplicity
 _atom_site_fract_x
 _atom_site_fract_y
 _atom_site_fract_z
 _atom_site_occupancy
  Yb  Yb0  1  0.210706  0.957752  0.080511  1
  Yb  Yb1  1  0.791217  0.038262  0.919489  1
  Yb  Yb2  1  0.628327  0.377226  0.246283  1
  Yb  Yb3  1  0.374609  0.623509  0.753717  1
  V  V4  1  0.002993  0.986262  0.493382  1
  V  V5  1  0.996375  0.479643  0.506618  1
  P  P6  1  0.822943  0.571640  0.854487  1
  P  P7  1  0.177430  0.426127  0.145513  1
  P  P8  1  0.410735  0.160893  0.677149  1
  P  P9  1  0.587884  0.838044  0.322850  1
  O  O10  1  0.945875  0.688570  0.966516  1
  O  O11  1  0.587065  0.343384  0.965917  1
  O  O12  1  0.052981  0.309300  0.034083  1
  O  O13  1  0.412391  0.655085  0.033484  1
  O  O14  1  0.753229  0.785157  0.205119  1
  O  O15  1  0.537604  0.007043  0.206266  1
  O  O16  1  0.243869  0.213310  0.793734  1
  O  O17  1  0.458349  0.990277  0.794881  1
  O  O18  1  0.992797  0.518496  0.734099  1
  O  O19  1  0.776662  0.746430  0.732309  1
  O  O20  1  0.008971  0.478739  0.267691  1
  O  O21  1  0.226896  0.252596  0.265901  1
  O  O22  1  0.703021  0.938127  0.449469  1
  O  O23  1  0.348594  0.611528  0.452165  1
  O  O24  1  0.300759  0.063693  0.547835  1
  O  O25  1  0.652490  0.387597  0.550531  1
  O  O26  1  0.043866  0.793707  0.405334  1
  O  O27  1  0.949201  0.199043  0.594666  1
