# generated using pymatgen
data_Pr2Tc17C3
_symmetry_space_group_name_H-M   'P 1'
_cell_length_a   7.01858152
_cell_length_b   7.01858149
_cell_length_c   7.01858094
_cell_angle_alpha   82.96225743
_cell_angle_beta   82.96225878
_cell_angle_gamma   82.96226054
_symmetry_Int_Tables_number   1
_chemical_formula_structural   Pr2Tc17C3
_chemical_formula_sum   'Pr2 Tc17 C3'
_cell_volume   338.51384159
_cell_formula_units_Z   1
loop_
 _symmetry_equiv_pos_site_id
 _symmetry_equiv_pos_as_xyz
  1  'x, y, z'
loop_
 _atom_site_type_symbol
 _atom_site_label
 _atom_site_symmetry_multiplicity
 _atom_site_fract_x
 _atom_site_fract_y
 _atom_site_fract_z
 _atom_site_occupancy
  Pr  Pr0  1  0.649074  0.649074  0.649074  1
  Pr  Pr1  1  0.350926  0.350926  0.350926  1
  Tc  Tc2  1  0.000000  0.000000  0.500000  1
  Tc  Tc3  1  0.500000  0.000000  0.000000  1
  Tc  Tc4  1  0.000000  0.500000  0.000000  1
  Tc  Tc5  1  0.721767  0.278233  0.000000  1
  Tc  Tc6  1  0.000000  0.721767  0.278233  1
  Tc  Tc7  1  0.278233  0.000000  0.721767  1
  Tc  Tc8  1  0.000000  0.278233  0.721767  1
  Tc  Tc9  1  0.721767  0.000000  0.278233  1
  Tc  Tc10  1  0.278233  0.721767  0.000000  1
  Tc  Tc11  1  0.347087  0.347087  0.866492  1
  Tc  Tc12  1  0.866492  0.347087  0.347087  1
  Tc  Tc13  1  0.347087  0.866492  0.347087  1
  Tc  Tc14  1  0.652913  0.652913  0.133508  1
  Tc  Tc15  1  0.133508  0.652913  0.652913  1
  Tc  Tc16  1  0.652913  0.133508  0.652913  1
  Tc  Tc17  1  0.903198  0.903198  0.903198  1
  Tc  Tc18  1  0.096802  0.096802  0.096802  1
  C  C19  1  0.500000  0.500000  0.000000  1
  C  C20  1  0.000000  0.500000  0.500000  1
  C  C21  1  0.500000  0.000000  0.500000  1
