# generated using pymatgen
data_CsCd3Ga5HgSe12
_symmetry_space_group_name_H-M   'P 1'
_cell_length_a   9.08646549
_cell_length_b   9.14774113
_cell_length_c   9.35779507
_cell_angle_alpha   108.47157672
_cell_angle_beta   106.60607001
_cell_angle_gamma   108.01628627
_symmetry_Int_Tables_number   1
_chemical_formula_structural   CsCd3Ga5HgSe12
_chemical_formula_sum   'Cs1 Cd3 Ga5 Hg1 Se12'
_cell_volume   634.90361607
_cell_formula_units_Z   1
loop_
 _symmetry_equiv_pos_site_id
 _symmetry_equiv_pos_as_xyz
  1  'x, y, z'
loop_
 _atom_site_type_symbol
 _atom_site_label
 _atom_site_symmetry_multiplicity
 _atom_site_fract_x
 _atom_site_fract_y
 _atom_site_fract_z
 _atom_site_occupancy
  Cs  Cs0  1  0.998598  0.001685  0.000940  1
  Cd  Cd1  1  0.626501  0.709211  0.402510  1
  Cd  Cd2  1  0.406580  0.642913  0.717836  1
  Cd  Cd3  1  0.715599  0.402357  0.634427  1
  Ga  Ga4  1  0.188809  0.554938  0.026741  1
  Ga  Ga5  1  0.022969  0.186290  0.554237  1
  Ga  Ga6  1  0.562814  0.023229  0.194019  1
  Ga  Ga7  1  0.935196  0.470902  0.333249  1
  Ga  Ga8  1  0.321193  0.929484  0.469232  1
  Hg  Hg9  1  0.487968  0.340489  0.933945  1
  Se  Se10  1  0.874439  0.633755  0.546227  1
  Se  Se11  1  0.546391  0.885790  0.632404  1
  Se  Se12  1  0.657882  0.584284  0.872899  1
  Se  Se13  1  0.354921  0.433172  0.151800  1
  Se  Se14  1  0.147599  0.372583  0.440885  1
  Se  Se15  1  0.433338  0.139824  0.368578  1
  Se  Se16  1  0.066631  0.675032  0.222853  1
  Se  Se17  1  0.208733  0.060869  0.660442  1
  Se  Se18  1  0.699561  0.214971  0.085341  1
  Se  Se19  1  0.781757  0.936717  0.302510  1
  Se  Se20  1  0.301680  0.784147  0.949682  1
  Se  Se21  1  0.942042  0.298556  0.780445  1
