# generated using pymatgen
data_In8Ir3Pd
_symmetry_space_group_name_H-M   'P 1'
_cell_length_a   10.44685089
_cell_length_b   9.57818050
_cell_length_c   5.61840152
_cell_angle_alpha   82.43393648
_cell_angle_beta   65.34916187
_cell_angle_gamma   32.88593476
_symmetry_Int_Tables_number   1
_chemical_formula_structural   In8Ir3Pd
_chemical_formula_sum   'In8 Ir3 Pd1'
_cell_volume   248.73245996
_cell_formula_units_Z   1
loop_
 _symmetry_equiv_pos_site_id
 _symmetry_equiv_pos_as_xyz
  1  'x, y, z'
loop_
 _atom_site_type_symbol
 _atom_site_label
 _atom_site_symmetry_multiplicity
 _atom_site_fract_x
 _atom_site_fract_y
 _atom_site_fract_z
 _atom_site_occupancy
  In  In0  1  0.592365  0.909516  0.588732  1
  In  In1  1  0.909516  0.592365  0.909387  1
  In  In2  1  0.914880  0.914880  0.085120  1
  In  In3  1  0.340245  0.658399  0.348819  1
  In  In4  1  0.084574  0.084574  0.915426  1
  In  In5  1  0.165493  0.165493  0.334507  1
  In  In6  1  0.658399  0.340245  0.652537  1
  In  In7  1  0.335910  0.335910  0.164090  1
  Ir  Ir8  1  0.369663  0.369663  0.630337  1
  Ir  Ir9  1  0.879653  0.879653  0.620347  1
  Ir  Ir10  1  0.628515  0.628515  0.371485  1
  Pd  Pd11  1  0.620788  0.620788  0.879212  1
