# generated using pymatgen
data_Tm5Si12Ir16Ru3
_symmetry_space_group_name_H-M   'P 1'
_cell_length_a   12.69137400
_cell_length_b   12.69137425
_cell_length_c   3.95031200
_cell_angle_alpha   90.00000000
_cell_angle_beta   90.00000000
_cell_angle_gamma   120.00000457
_symmetry_Int_Tables_number   1
_chemical_formula_structural   Tm5Si12Ir16Ru3
_chemical_formula_sum   'Tm5 Si12 Ir16 Ru3'
_cell_volume   551.03515013
_cell_formula_units_Z   1
loop_
 _symmetry_equiv_pos_site_id
 _symmetry_equiv_pos_as_xyz
  1  'x, y, z'
loop_
 _atom_site_type_symbol
 _atom_site_label
 _atom_site_symmetry_multiplicity
 _atom_site_fract_x
 _atom_site_fract_y
 _atom_site_fract_z
 _atom_site_occupancy
  Tm  Tm0  1  0.333333  0.666667  0.000000  1
  Tm  Tm1  1  0.666667  0.333333  0.000000  1
  Tm  Tm2  1  0.814189  0.000000  0.500000  1
  Tm  Tm3  1  0.000000  0.814189  0.500000  1
  Tm  Tm4  1  0.185811  0.185811  0.500000  1
  Si  Si5  1  0.180798  0.000000  0.000000  1
  Si  Si6  1  0.000000  0.180798  0.000000  1
  Si  Si7  1  0.819202  0.819202  0.000000  1
  Si  Si8  1  0.167058  0.480320  0.500000  1
  Si  Si9  1  0.519680  0.686737  0.500000  1
  Si  Si10  1  0.313263  0.832942  0.500000  1
  Si  Si11  1  0.686737  0.519680  0.500000  1
  Si  Si12  1  0.832942  0.313263  0.500000  1
  Si  Si13  1  0.480320  0.167058  0.500000  1
  Si  Si14  1  0.629493  0.000000  0.000000  1
  Si  Si15  1  0.000000  0.629493  0.000000  1
  Si  Si16  1  0.370507  0.370507  0.000000  1
  Ir  Ir17  1  0.360927  0.487840  0.500000  1
  Ir  Ir18  1  0.512160  0.873087  0.500000  1
  Ir  Ir19  1  0.126913  0.639073  0.500000  1
  Ir  Ir20  1  0.873087  0.512160  0.500000  1
  Ir  Ir21  1  0.639073  0.126913  0.500000  1
  Ir  Ir22  1  0.487840  0.360927  0.500000  1
  Ir  Ir23  1  0.182754  0.375407  0.000000  1
  Ir  Ir24  1  0.624593  0.807346  0.000000  1
  Ir  Ir25  1  0.192654  0.817246  0.000000  1
  Ir  Ir26  1  0.807346  0.624593  0.000000  1
  Ir  Ir27  1  0.817246  0.192654  0.000000  1
  Ir  Ir28  1  0.375407  0.182754  0.000000  1
  Ir  Ir29  1  0.280007  0.000000  0.500000  1
  Ir  Ir30  1  0.000000  0.280007  0.500000  1
  Ir  Ir31  1  0.719993  0.719993  0.500000  1
  Ir  Ir32  1  0.000000  0.000000  0.000000  1
  Ru  Ru33  1  0.444375  0.000000  0.000000  1
  Ru  Ru34  1  0.000000  0.444375  0.000000  1
  Ru  Ru35  1  0.555625  0.555625  0.000000  1
