# generated using pymatgen
data_Y20ZnIn5Ir2
_symmetry_space_group_name_H-M   'P 1'
_cell_length_a   9.77082335
_cell_length_b   9.86006179
_cell_length_c   9.68257800
_cell_angle_alpha   90.00000000
_cell_angle_beta   90.00000000
_cell_angle_gamma   120.30259184
_symmetry_Int_Tables_number   1
_chemical_formula_structural   Y20ZnIn5Ir2
_chemical_formula_sum   'Y20 Zn1 In5 Ir2'
_cell_volume   805.37867855
_cell_formula_units_Z   1
loop_
 _symmetry_equiv_pos_site_id
 _symmetry_equiv_pos_as_xyz
  1  'x, y, z'
loop_
 _atom_site_type_symbol
 _atom_site_label
 _atom_site_symmetry_multiplicity
 _atom_site_fract_x
 _atom_site_fract_y
 _atom_site_fract_z
 _atom_site_occupancy
  Y  Y0  1  0.989386  0.994693  0.509005  1
  Y  Y1  1  0.989386  0.994693  0.990995  1
  Y  Y2  1  0.210385  0.791596  0.441846  1
  Y  Y3  1  0.210385  0.418790  0.441846  1
  Y  Y4  1  0.580191  0.790097  0.439397  1
  Y  Y5  1  0.791159  0.211163  0.558969  1
  Y  Y6  1  0.791159  0.579995  0.558969  1
  Y  Y7  1  0.416911  0.208455  0.561286  1
  Y  Y8  1  0.791159  0.211163  0.941031  1
  Y  Y9  1  0.791159  0.579995  0.941031  1
  Y  Y10  1  0.416911  0.208455  0.938714  1
  Y  Y11  1  0.210385  0.791596  0.058154  1
  Y  Y12  1  0.210385  0.418790  0.058154  1
  Y  Y13  1  0.580191  0.790097  0.060603  1
  Y  Y14  1  0.543330  0.458771  0.250000  1
  Y  Y15  1  0.543330  0.084560  0.250000  1
  Y  Y16  1  0.922475  0.461237  0.250000  1
  Y  Y17  1  0.468421  0.549943  0.750000  1
  Y  Y18  1  0.468421  0.918476  0.750000  1
  Y  Y19  1  0.083064  0.541532  0.750000  1
  Zn  Zn20  1  0.761296  0.880648  0.750000  1
  In  In21  1  0.884958  0.118796  0.250000  1
  In  In22  1  0.884958  0.766162  0.250000  1
  In  In23  1  0.228951  0.114476  0.250000  1
  In  In24  1  0.118440  0.879795  0.750000  1
  In  In25  1  0.118440  0.238644  0.750000  1
  Ir  Ir26  1  0.327332  0.663666  0.250000  1
  Ir  Ir27  1  0.667432  0.333716  0.750000  1
