# generated using pymatgen
data_U4FeCo11Sn4
_symmetry_space_group_name_H-M   'P 1'
_cell_length_a   5.16315400
_cell_length_b   7.31342948
_cell_length_c   8.22674006
_cell_angle_alpha   89.88060949
_cell_angle_beta   90.00000000
_cell_angle_gamma   90.00000000
_symmetry_Int_Tables_number   1
_chemical_formula_structural   U4FeCo11Sn4
_chemical_formula_sum   'U4 Fe1 Co11 Sn4'
_cell_volume   310.64401358
_cell_formula_units_Z   1
loop_
 _symmetry_equiv_pos_site_id
 _symmetry_equiv_pos_as_xyz
  1  'x, y, z'
loop_
 _atom_site_type_symbol
 _atom_site_label
 _atom_site_symmetry_multiplicity
 _atom_site_fract_x
 _atom_site_fract_y
 _atom_site_fract_z
 _atom_site_occupancy
  U  U0  1  0.750000  0.885690  0.827845  1
  U  U1  1  0.750000  0.384420  0.670296  1
  U  U2  1  0.250000  0.117482  0.170098  1
  U  U3  1  0.250000  0.618483  0.325813  1
  Fe  Fe4  1  0.750000  0.539894  0.439473  1
  Co  Co5  1  0.750000  0.048599  0.073068  1
  Co  Co6  1  0.250000  0.454954  0.567104  1
  Co  Co7  1  0.250000  0.950871  0.926446  1
  Co  Co8  1  0.998443  0.245794  0.372647  1
  Co  Co9  1  0.502540  0.749957  0.124075  1
  Co  Co10  1  0.495997  0.754014  0.626793  1
  Co  Co11  1  0.002078  0.250066  0.875957  1
  Co  Co12  1  0.004003  0.754014  0.626793  1
  Co  Co13  1  0.497922  0.250066  0.875957  1
  Co  Co14  1  0.501557  0.245794  0.372647  1
  Co  Co15  1  0.997460  0.749957  0.124075  1
  Sn  Sn16  1  0.750000  0.921346  0.383012  1
  Sn  Sn17  1  0.750000  0.425193  0.117378  1
  Sn  Sn18  1  0.250000  0.078862  0.617696  1
  Sn  Sn19  1  0.250000  0.574544  0.882823  1
