# generated using pymatgen
data_Tb12Co4CuPb
_symmetry_space_group_name_H-M   'P 1'
_cell_length_a   8.37263620
_cell_length_b   8.37263674
_cell_length_c   8.37263635
_cell_angle_alpha   111.24824677
_cell_angle_beta   110.10082911
_cell_angle_gamma   107.09261964
_symmetry_Int_Tables_number   1
_chemical_formula_structural   Tb12Co4CuPb
_chemical_formula_sum   'Tb12 Co4 Cu1 Pb1'
_cell_volume   451.19103828
_cell_formula_units_Z   1
loop_
 _symmetry_equiv_pos_site_id
 _symmetry_equiv_pos_as_xyz
  1  'x, y, z'
loop_
 _atom_site_type_symbol
 _atom_site_label
 _atom_site_symmetry_multiplicity
 _atom_site_fract_x
 _atom_site_fract_y
 _atom_site_fract_z
 _atom_site_occupancy
  Tb  Tb0  1  0.815401  0.707923  0.523323  1
  Tb  Tb1  1  0.184599  0.292077  0.476677  1
  Tb  Tb2  1  0.184599  0.707923  0.892523  1
  Tb  Tb3  1  0.815401  0.292077  0.107477  1
  Tb  Tb4  1  0.685395  0.378697  0.693302  1
  Tb  Tb5  1  0.314605  0.621303  0.306698  1
  Tb  Tb6  1  0.685395  0.992093  0.306698  1
  Tb  Tb7  1  0.314605  0.007907  0.693302  1
  Tb  Tb8  1  0.588181  0.788257  0.799925  1
  Tb  Tb9  1  0.411819  0.211743  0.200075  1
  Tb  Tb10  1  0.988332  0.788257  0.200075  1
  Tb  Tb11  1  0.011668  0.211743  0.799925  1
  Co  Co12  1  0.622519  0.000000  0.622519  1
  Co  Co13  1  0.377481  0.000000  0.377481  1
  Co  Co14  1  0.111997  0.611997  0.500000  1
  Co  Co15  1  0.888003  0.388003  0.500000  1
  Cu  Cu16  1  0.000000  0.000000  0.000000  1
  Pb  Pb17  1  0.500000  0.500000  0.000000  1
