# generated using pymatgen
data_La2SmCu6Ni7B2
_symmetry_space_group_name_H-M   'P 1'
_cell_length_a   5.12273705
_cell_length_b   5.12273872
_cell_length_c   10.97135900
_cell_angle_alpha   90.00000000
_cell_angle_beta   90.00000000
_cell_angle_gamma   120.03739630
_symmetry_Int_Tables_number   1
_chemical_formula_structural   La2SmCu6Ni7B2
_chemical_formula_sum   'La2 Sm1 Cu6 Ni7 B2'
_cell_volume   249.24792349
_cell_formula_units_Z   1
loop_
 _symmetry_equiv_pos_site_id
 _symmetry_equiv_pos_as_xyz
  1  'x, y, z'
loop_
 _atom_site_type_symbol
 _atom_site_label
 _atom_site_symmetry_multiplicity
 _atom_site_fract_x
 _atom_site_fract_y
 _atom_site_fract_z
 _atom_site_occupancy
  La  La0  1  0.000000  0.000000  0.680294  1
  La  La1  1  0.000000  0.000000  0.319706  1
  Sm  Sm2  1  0.000000  0.000000  0.000000  1
  Cu  Cu3  1  0.500000  0.000000  0.500000  1
  Cu  Cu4  1  0.000000  0.500000  0.500000  1
  Cu  Cu5  1  0.664745  0.335255  0.685775  1
  Cu  Cu6  1  0.335255  0.664745  0.685775  1
  Cu  Cu7  1  0.335255  0.664745  0.314225  1
  Cu  Cu8  1  0.664745  0.335255  0.314225  1
  Ni  Ni9  1  0.500000  0.500000  0.500000  1
  Ni  Ni10  1  0.500000  0.500000  0.872919  1
  Ni  Ni11  1  0.500000  0.000000  0.872559  1
  Ni  Ni12  1  0.000000  0.500000  0.872559  1
  Ni  Ni13  1  0.500000  0.500000  0.127081  1
  Ni  Ni14  1  0.500000  0.000000  0.127441  1
  Ni  Ni15  1  0.000000  0.500000  0.127441  1
  B  B16  1  0.667190  0.332810  0.000000  1
  B  B17  1  0.332810  0.667190  0.000000  1
