# generated using pymatgen
data_Tb6ErRhO12
_symmetry_space_group_name_H-M   'P 1'
_cell_length_a   6.67156502
_cell_length_b   6.67156511
_cell_length_c   6.67156500
_cell_angle_alpha   95.18979705
_cell_angle_beta   95.18980574
_cell_angle_gamma   95.18980842
_symmetry_Int_Tables_number   1
_chemical_formula_structural   Tb6ErRhO12
_chemical_formula_sum   'Tb6 Er1 Rh1 O12'
_cell_volume   293.06009560
_cell_formula_units_Z   1
loop_
 _symmetry_equiv_pos_site_id
 _symmetry_equiv_pos_as_xyz
  1  'x, y, z'
loop_
 _atom_site_type_symbol
 _atom_site_label
 _atom_site_symmetry_multiplicity
 _atom_site_fract_x
 _atom_site_fract_y
 _atom_site_fract_z
 _atom_site_occupancy
  Tb  Tb0  1  0.734377  0.912111  0.426453  1
  Tb  Tb1  1  0.426453  0.734377  0.912111  1
  Tb  Tb2  1  0.087889  0.573547  0.265623  1
  Tb  Tb3  1  0.912111  0.426453  0.734377  1
  Tb  Tb4  1  0.573547  0.265623  0.087889  1
  Tb  Tb5  1  0.265623  0.087889  0.573547  1
  Er  Er6  1  0.000000  0.000000  0.000000  1
  Rh  Rh7  1  0.500000  0.500000  0.500000  1
  O  O8  1  0.065481  0.913632  0.317548  1
  O  O9  1  0.682452  0.934519  0.086368  1
  O  O10  1  0.455217  0.802784  0.585162  1
  O  O11  1  0.086368  0.682452  0.934519  1
  O  O12  1  0.802784  0.585162  0.455217  1
  O  O13  1  0.414838  0.544783  0.197216  1
  O  O14  1  0.585162  0.455217  0.802784  1
  O  O15  1  0.197216  0.414838  0.544783  1
  O  O16  1  0.913632  0.317548  0.065481  1
  O  O17  1  0.544783  0.197216  0.414838  1
  O  O18  1  0.317548  0.065481  0.913632  1
  O  O19  1  0.934519  0.086368  0.682452  1
