# generated using pymatgen
data_ThCu4Pd
_symmetry_space_group_name_H-M   'P 1'
_cell_length_a   5.10038837
_cell_length_b   5.10038765
_cell_length_c   5.10038800
_cell_angle_alpha   59.99999772
_cell_angle_beta   60.00000238
_cell_angle_gamma   60.00000067
_symmetry_Int_Tables_number   1
_chemical_formula_structural   ThCu4Pd
_chemical_formula_sum   'Th1 Cu4 Pd1'
_cell_volume   93.81983216
_cell_formula_units_Z   1
loop_
 _symmetry_equiv_pos_site_id
 _symmetry_equiv_pos_as_xyz
  1  'x, y, z'
loop_
 _atom_site_type_symbol
 _atom_site_label
 _atom_site_symmetry_multiplicity
 _atom_site_fract_x
 _atom_site_fract_y
 _atom_site_fract_z
 _atom_site_occupancy
  Th  Th0  1  0.250000  0.250000  0.250000  1
  Cu  Cu1  1  0.626639  0.626639  0.626639  1
  Cu  Cu2  1  0.626639  0.626639  0.120082  1
  Cu  Cu3  1  0.626639  0.120082  0.626639  1
  Cu  Cu4  1  0.120082  0.626639  0.626639  1
  Pd  Pd5  1  0.000000  0.000000  0.000000  1
