# generated using pymatgen
data_Ac9Nd10MgPb16
_symmetry_space_group_name_H-M   'P 1'
_cell_length_a   8.66730112
_cell_length_b   16.64685600
_cell_length_c   8.72683800
_cell_angle_alpha   90.00000000
_cell_angle_beta   89.84645616
_cell_angle_gamma   90.00000000
_symmetry_Int_Tables_number   1
_chemical_formula_structural   Ac9Nd10MgPb16
_chemical_formula_sum   'Ac9 Nd10 Mg1 Pb16'
_cell_volume   1259.13258342
_cell_formula_units_Z   1
loop_
 _symmetry_equiv_pos_site_id
 _symmetry_equiv_pos_as_xyz
  1  'x, y, z'
loop_
 _atom_site_type_symbol
 _atom_site_label
 _atom_site_symmetry_multiplicity
 _atom_site_fract_x
 _atom_site_fract_y
 _atom_site_fract_z
 _atom_site_occupancy
  Ac  Ac0  1  0.478678  0.598252  0.677162  1
  Ac  Ac1  1  0.979582  0.901417  0.822148  1
  Ac  Ac2  1  0.520611  0.096653  0.313796  1
  Ac  Ac3  1  0.013454  0.403398  0.175284  1
  Ac  Ac4  1  0.520611  0.403347  0.313796  1
  Ac  Ac5  1  0.013454  0.096602  0.175284  1
  Ac  Ac6  1  0.478678  0.901748  0.677162  1
  Ac  Ac7  1  0.979582  0.598583  0.822148  1
  Ac  Ac8  1  0.201965  0.250000  0.501780  1
  Nd  Nd9  1  0.634200  0.620868  0.159146  1
  Nd  Nd10  1  0.134362  0.878073  0.341668  1
  Nd  Nd11  1  0.375034  0.119700  0.843767  1
  Nd  Nd12  1  0.864823  0.379862  0.663947  1
  Nd  Nd13  1  0.375034  0.380300  0.843767  1
  Nd  Nd14  1  0.864823  0.120138  0.663947  1
  Nd  Nd15  1  0.634200  0.879132  0.159146  1
  Nd  Nd16  1  0.134362  0.621927  0.341668  1
  Nd  Nd17  1  0.798385  0.750000  0.500085  1
  Nd  Nd18  1  0.299184  0.750000  0.002877  1
  Mg  Mg19  1  0.705089  0.250000  0.992640  1
  Pb  Pb20  1  0.703829  0.458226  0.956202  1
  Pb  Pb21  1  0.202244  0.042377  0.543335  1
  Pb  Pb22  1  0.295600  0.955572  0.042634  1
  Pb  Pb23  1  0.797326  0.544357  0.458540  1
  Pb  Pb24  1  0.295600  0.544428  0.042634  1
  Pb  Pb25  1  0.797326  0.955643  0.458540  1
  Pb  Pb26  1  0.703829  0.041774  0.956202  1
  Pb  Pb27  1  0.202244  0.457623  0.543335  1
  Pb  Pb28  1  0.438132  0.750000  0.368862  1
  Pb  Pb29  1  0.936126  0.750000  0.132236  1
  Pb  Pb30  1  0.574385  0.250000  0.632404  1
  Pb  Pb31  1  0.060778  0.250000  0.881703  1
  Pb  Pb32  1  0.667673  0.750000  0.859722  1
  Pb  Pb33  1  0.168061  0.750000  0.643710  1
  Pb  Pb34  1  0.328414  0.250000  0.130371  1
  Pb  Pb35  1  0.822318  0.250000  0.358353  1
