# generated using pymatgen
data_HfZrV2Ni10P7
_symmetry_space_group_name_H-M   'P 1'
_cell_length_a   9.05058566
_cell_length_b   9.07382612
_cell_length_c   3.60023300
_cell_angle_alpha   90.00000000
_cell_angle_beta   90.00000000
_cell_angle_gamma   120.05330894
_symmetry_Int_Tables_number   1
_chemical_formula_structural   HfZrV2Ni10P7
_chemical_formula_sum   'Hf1 Zr1 V2 Ni10 P7'
_cell_volume   255.91446422
_cell_formula_units_Z   1
loop_
 _symmetry_equiv_pos_site_id
 _symmetry_equiv_pos_as_xyz
  1  'x, y, z'
loop_
 _atom_site_type_symbol
 _atom_site_label
 _atom_site_symmetry_multiplicity
 _atom_site_fract_x
 _atom_site_fract_y
 _atom_site_fract_z
 _atom_site_occupancy
  Hf  Hf0  1  0.333342  0.666052  0.500000  1
  Zr  Zr1  1  0.997992  0.001830  0.000000  1
  V  V2  1  0.885113  0.455968  0.500000  1
  V  V3  1  0.545410  0.429049  0.500000  1
  Ni  Ni4  1  0.292933  0.396505  0.000000  1
  Ni  Ni5  1  0.102825  0.707128  0.000000  1
  Ni  Ni6  1  0.384059  0.171153  0.000000  1
  Ni  Ni7  1  0.792213  0.621293  0.000000  1
  Ni  Ni8  1  0.824065  0.209952  0.000000  1
  Ni  Ni9  1  0.232038  0.945426  0.500000  1
  Ni  Ni10  1  0.055517  0.282842  0.500000  1
  Ni  Ni11  1  0.716114  0.772760  0.500000  1
  Ni  Ni12  1  0.572715  0.110788  0.500000  1
  Ni  Ni13  1  0.599530  0.893404  0.000000  1
  P  P14  1  0.665311  0.333095  0.000000  1
  P  P15  1  0.080043  0.453818  0.000000  1
  P  P16  1  0.256719  0.212792  0.500000  1
  P  P17  1  0.786899  0.045707  0.500000  1
  P  P18  1  0.956825  0.744858  0.500000  1
  P  P19  1  0.546890  0.625793  0.000000  1
  P  P20  1  0.373446  0.919788  0.000000  1
