# generated using pymatgen
data_Pr3Nd7(AgSn3)2
_symmetry_space_group_name_H-M   'P 1'
_cell_length_a   9.59373100
_cell_length_b   9.59373059
_cell_length_c   6.79210100
_cell_angle_alpha   90.00000000
_cell_angle_beta   90.00000000
_cell_angle_gamma   120.00000486
_symmetry_Int_Tables_number   1
_chemical_formula_structural   Pr3Nd7(AgSn3)2
_chemical_formula_sum   'Pr3 Nd7 Ag2 Sn6'
_cell_volume   541.38946594
_cell_formula_units_Z   1
loop_
 _symmetry_equiv_pos_site_id
 _symmetry_equiv_pos_as_xyz
  1  'x, y, z'
loop_
 _atom_site_type_symbol
 _atom_site_label
 _atom_site_symmetry_multiplicity
 _atom_site_fract_x
 _atom_site_fract_y
 _atom_site_fract_z
 _atom_site_occupancy
  Pr  Pr0  1  0.666667  0.333333  0.500000  1
  Pr  Pr1  1  0.666667  0.333333  0.000000  1
  Pr  Pr2  1  0.333333  0.666667  0.000000  1
  Nd  Nd3  1  0.274034  0.999878  0.749891  1
  Nd  Nd4  1  0.725844  0.999878  0.250109  1
  Nd  Nd5  1  0.000122  0.274156  0.749891  1
  Nd  Nd6  1  0.000122  0.725966  0.250109  1
  Nd  Nd7  1  0.725844  0.725966  0.749891  1
  Nd  Nd8  1  0.274034  0.274156  0.250109  1
  Nd  Nd9  1  0.333333  0.666667  0.500000  1
  Ag  Ag10  1  0.000000  0.000000  0.500000  1
  Ag  Ag11  1  0.000000  0.000000  0.000000  1
  Sn  Sn12  1  0.621996  0.999504  0.749629  1
  Sn  Sn13  1  0.377508  0.999504  0.250371  1
  Sn  Sn14  1  0.000496  0.622492  0.749629  1
  Sn  Sn15  1  0.000496  0.378004  0.250371  1
  Sn  Sn16  1  0.377508  0.378004  0.749629  1
  Sn  Sn17  1  0.621996  0.622492  0.250371  1
