# generated using pymatgen
data_ZrTa2Ti3Rh10
_symmetry_space_group_name_H-M   'P 1'
_cell_length_a   4.15926900
_cell_length_b   5.50268514
_cell_length_c   10.76605588
_cell_angle_alpha   90.89179119
_cell_angle_beta   90.00000000
_cell_angle_gamma   90.00000000
_symmetry_Int_Tables_number   1
_chemical_formula_structural   ZrTa2Ti3Rh10
_chemical_formula_sum   'Zr1 Ta2 Ti3 Rh10'
_cell_volume   246.37446493
_cell_formula_units_Z   1
loop_
 _symmetry_equiv_pos_site_id
 _symmetry_equiv_pos_as_xyz
  1  'x, y, z'
loop_
 _atom_site_type_symbol
 _atom_site_label
 _atom_site_symmetry_multiplicity
 _atom_site_fract_x
 _atom_site_fract_y
 _atom_site_fract_z
 _atom_site_occupancy
  Zr  Zr0  1  0.500000  0.835608  0.358976  1
  Ta  Ta1  1  0.500000  0.332587  0.145432  1
  Ta  Ta2  1  0.500000  0.665589  0.853928  1
  Ti  Ti3  1  0.000000  0.003147  0.999304  1
  Ti  Ti4  1  0.000000  0.497191  0.504003  1
  Ti  Ti5  1  0.500000  0.163563  0.645613  1
  Rh  Rh6  1  0.000000  0.015159  0.509542  1
  Rh  Rh7  1  0.000000  0.498524  0.995976  1
  Rh  Rh8  1  0.000000  0.088224  0.236808  1
  Rh  Rh9  1  0.000000  0.905214  0.763950  1
  Rh  Rh10  1  0.000000  0.581338  0.253034  1
  Rh  Rh11  1  0.000000  0.403709  0.737632  1
  Rh  Rh12  1  0.500000  0.325547  0.393410  1
  Rh  Rh13  1  0.500000  0.687044  0.609752  1
  Rh  Rh14  1  0.500000  0.808699  0.099144  1
  Rh  Rh15  1  0.500000  0.188858  0.893498  1
