# generated using pymatgen
data_La5Sn2Ir
_symmetry_space_group_name_H-M   'P 1'
_cell_length_a   8.42934900
_cell_length_b   9.30020600
_cell_length_c   12.97004000
_cell_angle_alpha   90.00000000
_cell_angle_beta   90.00000000
_cell_angle_gamma   90.00000000
_symmetry_Int_Tables_number   1
_chemical_formula_structural   La5Sn2Ir
_chemical_formula_sum   'La20 Sn8 Ir4'
_cell_volume   1016.78216322
_cell_formula_units_Z   4
loop_
 _symmetry_equiv_pos_site_id
 _symmetry_equiv_pos_as_xyz
  1  'x, y, z'
loop_
 _atom_site_type_symbol
 _atom_site_label
 _atom_site_symmetry_multiplicity
 _atom_site_fract_x
 _atom_site_fract_y
 _atom_site_fract_z
 _atom_site_occupancy
  La  La0  1  0.670340  0.750000  0.709870  1
  La  La1  1  0.329660  0.250000  0.290130  1
  La  La2  1  0.170340  0.250000  0.790130  1
  La  La3  1  0.829660  0.750000  0.209870  1
  La  La4  1  0.144224  0.750000  0.801481  1
  La  La5  1  0.855776  0.250000  0.198519  1
  La  La6  1  0.644224  0.250000  0.698519  1
  La  La7  1  0.355776  0.750000  0.301481  1
  La  La8  1  0.549715  0.750000  0.999820  1
  La  La9  1  0.450285  0.250000  0.000180  1
  La  La10  1  0.049715  0.250000  0.500180  1
  La  La11  1  0.950285  0.750000  0.499820  1
  La  La12  1  0.825136  0.466954  0.929824  1
  La  La13  1  0.174864  0.533046  0.070176  1
  La  La14  1  0.325136  0.533046  0.570176  1
  La  La15  1  0.174864  0.966954  0.070176  1
  La  La16  1  0.674864  0.466954  0.429824  1
  La  La17  1  0.825136  0.033046  0.929824  1
  La  La18  1  0.674864  0.033046  0.429824  1
  La  La19  1  0.325136  0.966954  0.570176  1
  Sn  Sn20  1  0.942807  0.006481  0.672683  1
  Sn  Sn21  1  0.057193  0.993519  0.327317  1
  Sn  Sn22  1  0.442807  0.993519  0.827317  1
  Sn  Sn23  1  0.057193  0.506481  0.327317  1
  Sn  Sn24  1  0.557193  0.006481  0.172683  1
  Sn  Sn25  1  0.942807  0.493519  0.672683  1
  Sn  Sn26  1  0.557193  0.493519  0.172683  1
  Sn  Sn27  1  0.442807  0.506481  0.827317  1
  Ir  Ir28  1  0.920813  0.750000  0.985707  1
  Ir  Ir29  1  0.079187  0.250000  0.014293  1
  Ir  Ir30  1  0.420813  0.250000  0.514293  1
  Ir  Ir31  1  0.579187  0.750000  0.485707  1
