# generated using pymatgen
data_ErTh5(GaPd)6
_symmetry_space_group_name_H-M   'P 1'
_cell_length_a   7.32346354
_cell_length_b   7.33590096
_cell_length_c   8.20279200
_cell_angle_alpha   90.00000000
_cell_angle_beta   90.00000000
_cell_angle_gamma   120.06067331
_symmetry_Int_Tables_number   1
_chemical_formula_structural   ErTh5(GaPd)6
_chemical_formula_sum   'Er1 Th5 Ga6 Pd6'
_cell_volume   381.41385822
_cell_formula_units_Z   1
loop_
 _symmetry_equiv_pos_site_id
 _symmetry_equiv_pos_as_xyz
  1  'x, y, z'
loop_
 _atom_site_type_symbol
 _atom_site_label
 _atom_site_symmetry_multiplicity
 _atom_site_fract_x
 _atom_site_fract_y
 _atom_site_fract_z
 _atom_site_occupancy
  Er  Er0  1  0.999959  0.404113  0.250000  1
  Th  Th1  1  0.585002  0.582173  0.250000  1
  Th  Th2  1  0.000125  0.419357  0.750000  1
  Th  Th3  1  0.415234  0.997632  0.250000  1
  Th  Th4  1  0.414476  0.002020  0.750000  1
  Th  Th5  1  0.585309  0.587711  0.750000  1
  Ga  Ga6  1  0.240955  0.243989  0.499155  1
  Ga  Ga7  1  0.758962  0.003007  0.499049  1
  Ga  Ga8  1  0.000083  0.755311  0.494214  1
  Ga  Ga9  1  0.758962  0.003007  0.000951  1
  Ga  Ga10  1  0.240955  0.243989  0.000845  1
  Ga  Ga11  1  0.000083  0.755311  0.005786  1
  Pd  Pd12  1  0.331558  0.665478  0.496836  1
  Pd  Pd13  1  0.999862  0.001524  0.750000  1
  Pd  Pd14  1  0.000037  0.001906  0.250000  1
  Pd  Pd15  1  0.331558  0.665478  0.003164  1
  Pd  Pd16  1  0.668443  0.333998  0.497388  1
  Pd  Pd17  1  0.668443  0.333998  0.002612  1
