# generated using pymatgen
data_HfZrSc2(InCu2)2
_symmetry_space_group_name_H-M   'P 1'
_cell_length_a   7.25775284
_cell_length_b   7.25775284
_cell_length_c   6.88325500
_cell_angle_alpha   90.00000000
_cell_angle_beta   90.00000000
_cell_angle_gamma   89.79303966
_symmetry_Int_Tables_number   1
_chemical_formula_structural   HfZrSc2(InCu2)2
_chemical_formula_sum   'Hf2 Zr2 Sc4 In4 Cu8'
_cell_volume   362.57292824
_cell_formula_units_Z   2
loop_
 _symmetry_equiv_pos_site_id
 _symmetry_equiv_pos_as_xyz
  1  'x, y, z'
loop_
 _atom_site_type_symbol
 _atom_site_label
 _atom_site_symmetry_multiplicity
 _atom_site_fract_x
 _atom_site_fract_y
 _atom_site_fract_z
 _atom_site_occupancy
  Hf  Hf0  1  0.649529  0.350471  0.500000  1
  Hf  Hf1  1  0.350471  0.649529  0.500000  1
  Zr  Zr2  1  0.150090  0.150090  0.000000  1
  Zr  Zr3  1  0.849910  0.849910  0.000000  1
  Sc  Sc4  1  0.686111  0.313889  0.000000  1
  Sc  Sc5  1  0.313889  0.686111  0.000000  1
  Sc  Sc6  1  0.814022  0.814022  0.500000  1
  Sc  Sc7  1  0.185978  0.185978  0.500000  1
  In  In8  1  0.500000  0.000000  0.250230  1
  In  In9  1  0.500000  0.000000  0.749770  1
  In  In10  1  0.000000  0.500000  0.250230  1
  In  In11  1  0.000000  0.500000  0.749770  1
  Cu  Cu12  1  0.376778  0.376778  0.212247  1
  Cu  Cu13  1  0.623222  0.623222  0.787753  1
  Cu  Cu14  1  0.623222  0.623222  0.212247  1
  Cu  Cu15  1  0.874782  0.125218  0.706213  1
  Cu  Cu16  1  0.874782  0.125218  0.293787  1
  Cu  Cu17  1  0.376778  0.376778  0.787753  1
  Cu  Cu18  1  0.125218  0.874782  0.293787  1
  Cu  Cu19  1  0.125218  0.874782  0.706213  1
