# generated using pymatgen
data_CaGd3(IO6)2
_symmetry_space_group_name_H-M   'P 1'
_cell_length_a   5.47357300
_cell_length_b   7.75232433
_cell_length_c   11.68526500
_cell_angle_alpha   76.19575884
_cell_angle_beta   90.00000000
_cell_angle_gamma   90.00000000
_symmetry_Int_Tables_number   1
_chemical_formula_structural   CaGd3(IO6)2
_chemical_formula_sum   'Ca2 Gd6 I4 O24'
_cell_volume   481.51830436
_cell_formula_units_Z   2
loop_
 _symmetry_equiv_pos_site_id
 _symmetry_equiv_pos_as_xyz
  1  'x, y, z'
loop_
 _atom_site_type_symbol
 _atom_site_label
 _atom_site_symmetry_multiplicity
 _atom_site_fract_x
 _atom_site_fract_y
 _atom_site_fract_z
 _atom_site_occupancy
  Ca  Ca0  1  0.191170  0.785181  0.075333  1
  Ca  Ca1  1  0.191170  0.214819  0.424667  1
  Gd  Gd2  1  0.254454  0.000000  0.750000  1
  Gd  Gd3  1  0.745737  0.000000  0.250000  1
  Gd  Gd4  1  0.320673  0.500000  0.750000  1
  Gd  Gd5  1  0.690510  0.500000  0.250000  1
  Gd  Gd6  1  0.812373  0.208519  0.918972  1
  Gd  Gd7  1  0.812373  0.791481  0.581028  1
  I  I8  1  0.741766  0.724710  0.891562  1
  I  I9  1  0.254577  0.729606  0.380550  1
  I  I10  1  0.741766  0.275290  0.608438  1
  I  I11  1  0.254577  0.270394  0.119450  1
  O  O12  1  0.831104  0.354107  0.444530  1
  O  O13  1  0.470556  0.849650  0.930623  1
  O  O14  1  0.831104  0.645893  0.055470  1
  O  O15  1  0.038840  0.286716  0.740858  1
  O  O16  1  0.979378  0.294660  0.220522  1
  O  O17  1  0.138896  0.365060  0.965449  1
  O  O18  1  0.622419  0.490235  0.891207  1
  O  O19  1  0.530419  0.159413  0.067885  1
  O  O20  1  0.138896  0.634940  0.534551  1
  O  O21  1  0.038840  0.713284  0.759142  1
  O  O22  1  0.440277  0.200202  0.267619  1
  O  O23  1  0.064749  0.939205  0.389244  1
  O  O24  1  0.470556  0.150350  0.569377  1
  O  O25  1  0.979378  0.705340  0.279478  1
  O  O26  1  0.959778  0.057767  0.601992  1
  O  O27  1  0.546066  0.212286  0.771557  1
  O  O28  1  0.546066  0.787714  0.728443  1
  O  O29  1  0.064749  0.060795  0.110756  1
  O  O30  1  0.622419  0.509765  0.608793  1
  O  O31  1  0.371941  0.495927  0.118123  1
  O  O32  1  0.440277  0.799798  0.232381  1
  O  O33  1  0.371941  0.504073  0.381877  1
  O  O34  1  0.530419  0.840587  0.432115  1
  O  O35  1  0.959778  0.942233  0.898008  1
