# generated using pymatgen
data_Tb5Y5GaBi5
_symmetry_space_group_name_H-M   'P 1'
_cell_length_a   9.11998237
_cell_length_b   9.11763989
_cell_length_c   6.43907700
_cell_angle_alpha   90.00000000
_cell_angle_beta   90.00000000
_cell_angle_gamma   119.74944259
_symmetry_Int_Tables_number   1
_chemical_formula_structural   Tb5Y5GaBi5
_chemical_formula_sum   'Tb5 Y5 Ga1 Bi5'
_cell_volume   464.85944135
_cell_formula_units_Z   1
loop_
 _symmetry_equiv_pos_site_id
 _symmetry_equiv_pos_as_xyz
  1  'x, y, z'
loop_
 _atom_site_type_symbol
 _atom_site_label
 _atom_site_symmetry_multiplicity
 _atom_site_fract_x
 _atom_site_fract_y
 _atom_site_fract_z
 _atom_site_occupancy
  Tb  Tb0  1  0.657726  0.335701  0.996584  1
  Tb  Tb1  1  0.335670  0.657704  0.996580  1
  Tb  Tb2  1  0.335670  0.657704  0.503420  1
  Tb  Tb3  1  0.657726  0.335701  0.503416  1
  Tb  Tb4  1  0.000647  0.758662  0.250000  1
  Y  Y5  1  0.749200  0.749199  0.750000  1
  Y  Y6  1  0.244919  0.014642  0.750000  1
  Y  Y7  1  0.014634  0.244900  0.750000  1
  Y  Y8  1  0.242531  0.242513  0.250000  1
  Y  Y9  1  0.758624  0.000626  0.250000  1
  Ga  Ga10  1  0.392775  0.392777  0.750000  1
  Bi  Bi11  1  0.612070  0.002824  0.750000  1
  Bi  Bi12  1  0.002831  0.612081  0.750000  1
  Bi  Bi13  1  0.609206  0.609263  0.250000  1
  Bi  Bi14  1  0.390420  0.995414  0.250000  1
  Bi  Bi15  1  0.995351  0.390291  0.250000  1
