# generated using pymatgen
data_Tm3Nb3(B2Ru5)2
_symmetry_space_group_name_H-M   'P 1'
_cell_length_a   9.56713015
_cell_length_b   9.56712977
_cell_length_c   3.12052800
_cell_angle_alpha   90.00000000
_cell_angle_beta   90.00000000
_cell_angle_gamma   89.74749934
_symmetry_Int_Tables_number   1
_chemical_formula_structural   Tm3Nb3(B2Ru5)2
_chemical_formula_sum   'Tm3 Nb3 B4 Ru10'
_cell_volume   285.61907851
_cell_formula_units_Z   1
loop_
 _symmetry_equiv_pos_site_id
 _symmetry_equiv_pos_as_xyz
  1  'x, y, z'
loop_
 _atom_site_type_symbol
 _atom_site_label
 _atom_site_symmetry_multiplicity
 _atom_site_fract_x
 _atom_site_fract_y
 _atom_site_fract_z
 _atom_site_occupancy
  Tm  Tm0  1  0.174324  0.825676  0.000000  1
  Tm  Tm1  1  0.325171  0.324366  0.000000  1
  Tm  Tm2  1  0.675634  0.674829  0.000000  1
  Nb  Nb3  1  0.496650  0.997927  0.000000  1
  Nb  Nb4  1  0.002073  0.503350  0.000000  1
  Nb  Nb5  1  0.824447  0.175553  0.000000  1
  B  B6  1  0.623513  0.376487  0.000000  1
  B  B7  1  0.380756  0.619244  0.000000  1
  B  B8  1  0.119579  0.123472  0.000000  1
  B  B9  1  0.876528  0.880421  0.000000  1
  Ru  Ru10  1  0.503738  0.496262  0.500000  1
  Ru  Ru11  1  0.991513  0.008487  0.500000  1
  Ru  Ru12  1  0.583304  0.213633  0.500000  1
  Ru  Ru13  1  0.430314  0.780262  0.500000  1
  Ru  Ru14  1  0.060303  0.280561  0.500000  1
  Ru  Ru15  1  0.928412  0.721805  0.500000  1
  Ru  Ru16  1  0.278195  0.071588  0.500000  1
  Ru  Ru17  1  0.719439  0.939697  0.500000  1
  Ru  Ru18  1  0.219738  0.569686  0.500000  1
  Ru  Ru19  1  0.786367  0.416696  0.500000  1
