# generated using pymatgen
data_ErLu2Al3SiPd2
_symmetry_space_group_name_H-M   'P 1'
_cell_length_a   6.96567149
_cell_length_b   6.97572888
_cell_length_c   4.10968300
_cell_angle_alpha   90.00000000
_cell_angle_beta   90.00000000
_cell_angle_gamma   120.19236682
_symmetry_Int_Tables_number   1
_chemical_formula_structural   ErLu2Al3SiPd2
_chemical_formula_sum   'Er1 Lu2 Al3 Si1 Pd2'
_cell_volume   172.60223940
_cell_formula_units_Z   1
loop_
 _symmetry_equiv_pos_site_id
 _symmetry_equiv_pos_as_xyz
  1  'x, y, z'
loop_
 _atom_site_type_symbol
 _atom_site_label
 _atom_site_symmetry_multiplicity
 _atom_site_fract_x
 _atom_site_fract_y
 _atom_site_fract_z
 _atom_site_occupancy
  Er  Er0  1  0.581820  0.579123  0.500000  1
  Lu  Lu1  1  0.419452  0.002930  0.500000  1
  Lu  Lu2  1  0.996401  0.416878  0.500000  1
  Al  Al3  1  0.762344  0.008446  0.000000  1
  Al  Al4  1  0.991641  0.754366  0.000000  1
  Al  Al5  1  0.245162  0.237342  0.000000  1
  Si  Si6  1  0.332622  0.666976  0.000000  1
  Pd  Pd7  1  0.667431  0.331002  0.000000  1
  Pd  Pd8  1  0.003124  0.002939  0.500000  1
