# generated using pymatgen
data_Tm5(SiB4)2
_symmetry_space_group_name_H-M   'P 1'
_cell_length_a   7.15464300
_cell_length_b   7.15464300
_cell_length_c   7.94968900
_cell_angle_alpha   90.00000000
_cell_angle_beta   90.00000000
_cell_angle_gamma   90.00000000
_symmetry_Int_Tables_number   1
_chemical_formula_structural   Tm5(SiB4)2
_chemical_formula_sum   'Tm10 Si4 B16'
_cell_volume   406.93596608
_cell_formula_units_Z   2
loop_
 _symmetry_equiv_pos_site_id
 _symmetry_equiv_pos_as_xyz
  1  'x, y, z'
loop_
 _atom_site_type_symbol
 _atom_site_label
 _atom_site_symmetry_multiplicity
 _atom_site_fract_x
 _atom_site_fract_y
 _atom_site_fract_z
 _atom_site_occupancy
  Tm  Tm0  1  0.680216  0.180216  0.223800  1
  Tm  Tm1  1  0.319784  0.819784  0.776200  1
  Tm  Tm2  1  0.319784  0.819784  0.223800  1
  Tm  Tm3  1  0.819784  0.680216  0.223800  1
  Tm  Tm4  1  0.819784  0.680216  0.776200  1
  Tm  Tm5  1  0.680216  0.180216  0.776200  1
  Tm  Tm6  1  0.180216  0.319784  0.776200  1
  Tm  Tm7  1  0.180216  0.319784  0.223800  1
  Tm  Tm8  1  0.000000  0.000000  0.500000  1
  Tm  Tm9  1  0.500000  0.500000  0.500000  1
  Si  Si10  1  0.116241  0.616241  0.500000  1
  Si  Si11  1  0.883759  0.383759  0.500000  1
  Si  Si12  1  0.383759  0.116241  0.500000  1
  Si  Si13  1  0.616241  0.883759  0.500000  1
  B  B14  1  0.172994  0.039161  0.000000  1
  B  B15  1  0.827006  0.960839  0.000000  1
  B  B16  1  0.960839  0.172994  0.000000  1
  B  B17  1  0.327006  0.539161  0.000000  1
  B  B18  1  0.039161  0.827006  0.000000  1
  B  B19  1  0.672994  0.460839  0.000000  1
  B  B20  1  0.539161  0.672994  0.000000  1
  B  B21  1  0.460839  0.327006  0.000000  1
  B  B22  1  0.089274  0.589274  0.000000  1
  B  B23  1  0.910726  0.410726  0.000000  1
  B  B24  1  0.410726  0.089274  0.000000  1
  B  B25  1  0.589274  0.910726  0.000000  1
  B  B26  1  0.000000  0.000000  0.166014  1
  B  B27  1  0.000000  0.000000  0.833986  1
  B  B28  1  0.500000  0.500000  0.833986  1
  B  B29  1  0.500000  0.500000  0.166014  1
