# generated using pymatgen
data_Zr4ReTcOs6
_symmetry_space_group_name_H-M   'P 1'
_cell_length_a   5.19726450
_cell_length_b   5.19726521
_cell_length_c   8.67740400
_cell_angle_alpha   90.00000000
_cell_angle_beta   90.00000000
_cell_angle_gamma   118.62046238
_symmetry_Int_Tables_number   1
_chemical_formula_structural   Zr4ReTcOs6
_chemical_formula_sum   'Zr4 Re1 Tc1 Os6'
_cell_volume   205.75055271
_cell_formula_units_Z   1
loop_
 _symmetry_equiv_pos_site_id
 _symmetry_equiv_pos_as_xyz
  1  'x, y, z'
loop_
 _atom_site_type_symbol
 _atom_site_label
 _atom_site_symmetry_multiplicity
 _atom_site_fract_x
 _atom_site_fract_y
 _atom_site_fract_z
 _atom_site_occupancy
  Zr  Zr0  1  0.333312  0.666688  0.434767  1
  Zr  Zr1  1  0.667710  0.332290  0.565507  1
  Zr  Zr2  1  0.667710  0.332290  0.934493  1
  Zr  Zr3  1  0.333312  0.666688  0.065233  1
  Re  Re4  1  0.169083  0.830917  0.750000  1
  Tc  Tc5  1  0.827384  0.172616  0.250000  1
  Os  Os6  1  0.002593  0.997407  0.499484  1
  Os  Os7  1  0.002593  0.997407  0.000516  1
  Os  Os8  1  0.828337  0.656193  0.250000  1
  Os  Os9  1  0.343807  0.171663  0.250000  1
  Os  Os10  1  0.170142  0.345984  0.750000  1
  Os  Os11  1  0.654016  0.829858  0.750000  1
