# generated using pymatgen
data_Ho8In3Ir
_symmetry_space_group_name_H-M   'P 1'
_cell_length_a   10.39897000
_cell_length_b   10.39896983
_cell_length_c   7.03671000
_cell_angle_alpha   90.00000000
_cell_angle_beta   90.00000000
_cell_angle_gamma   120.00000053
_symmetry_Int_Tables_number   1
_chemical_formula_structural   Ho8In3Ir
_chemical_formula_sum   'Ho16 In6 Ir2'
_cell_volume   658.99318912
_cell_formula_units_Z   2
loop_
 _symmetry_equiv_pos_site_id
 _symmetry_equiv_pos_as_xyz
  1  'x, y, z'
loop_
 _atom_site_type_symbol
 _atom_site_label
 _atom_site_symmetry_multiplicity
 _atom_site_fract_x
 _atom_site_fract_y
 _atom_site_fract_z
 _atom_site_occupancy
  Ho  Ho0  1  0.533388  0.066776  0.506577  1
  Ho  Ho1  1  0.933224  0.466612  0.506577  1
  Ho  Ho2  1  0.533388  0.466612  0.506577  1
  Ho  Ho3  1  0.466612  0.933224  0.006577  1
  Ho  Ho4  1  0.066776  0.533388  0.006577  1
  Ho  Ho5  1  0.466612  0.533388  0.006577  1
  Ho  Ho6  1  0.176704  0.353406  0.713047  1
  Ho  Ho7  1  0.646594  0.823296  0.713047  1
  Ho  Ho8  1  0.176704  0.823296  0.713047  1
  Ho  Ho9  1  0.823296  0.646594  0.213047  1
  Ho  Ho10  1  0.353406  0.176704  0.213047  1
  Ho  Ho11  1  0.823296  0.176704  0.213047  1
  Ho  Ho12  1  0.666667  0.333333  0.887931  1
  Ho  Ho13  1  0.333333  0.666667  0.387931  1
  Ho  Ho14  1  0.000000  0.000000  0.493877  1
  Ho  Ho15  1  0.000000  0.000000  0.993877  1
  In  In16  1  0.837350  0.674700  0.751386  1
  In  In17  1  0.325300  0.162650  0.751386  1
  In  In18  1  0.837350  0.162650  0.751386  1
  In  In19  1  0.162650  0.325300  0.251386  1
  In  In20  1  0.674700  0.837350  0.251386  1
  In  In21  1  0.162650  0.837350  0.251386  1
  Ir  Ir22  1  0.666667  0.333333  0.284184  1
  Ir  Ir23  1  0.333333  0.666667  0.784184  1
