# generated using pymatgen
data_LaYbCd(Si3Pd10)2
_symmetry_space_group_name_H-M   'P 1'
_cell_length_a   8.72209821
_cell_length_b   8.72118440
_cell_length_c   8.72066501
_cell_angle_alpha   59.99796792
_cell_angle_beta   60.00018857
_cell_angle_gamma   60.00095690
_symmetry_Int_Tables_number   1
_chemical_formula_structural   LaYbCd(Si3Pd10)2
_chemical_formula_sum   'La1 Yb1 Cd1 Si6 Pd20'
_cell_volume   469.05971736
_cell_formula_units_Z   1
loop_
 _symmetry_equiv_pos_site_id
 _symmetry_equiv_pos_as_xyz
  1  'x, y, z'
loop_
 _atom_site_type_symbol
 _atom_site_label
 _atom_site_symmetry_multiplicity
 _atom_site_fract_x
 _atom_site_fract_y
 _atom_site_fract_z
 _atom_site_occupancy
  La  La0  1  0.250036  0.249996  0.249972  1
  Yb  Yb1  1  0.749981  0.750000  0.750024  1
  Cd  Cd2  1  0.999993  0.999999  0.000004  1
  Si  Si3  1  0.732424  0.732437  0.267562  1
  Si  Si4  1  0.267572  0.267558  0.732440  1
  Si  Si5  1  0.732408  0.267584  0.732418  1
  Si  Si6  1  0.267598  0.732417  0.267576  1
  Si  Si7  1  0.267573  0.732429  0.732433  1
  Si  Si8  1  0.732423  0.267579  0.267575  1
  Pd  Pd9  1  0.616179  0.616223  0.616225  1
  Pd  Pd10  1  0.385465  0.385420  0.385432  1
  Pd  Pd11  1  0.151298  0.616233  0.616250  1
  Pd  Pd12  1  0.616174  0.151395  0.616230  1
  Pd  Pd13  1  0.843743  0.385422  0.385399  1
  Pd  Pd14  1  0.385465  0.843672  0.385428  1
  Pd  Pd15  1  0.616167  0.616196  0.151463  1
  Pd  Pd16  1  0.385464  0.385447  0.843623  1
  Pd  Pd17  1  0.999478  0.999477  0.656515  1
  Pd  Pd18  1  0.999532  0.999530  0.344472  1
  Pd  Pd19  1  0.344522  0.656527  0.999475  1
  Pd  Pd20  1  0.656475  0.344463  0.999531  1
  Pd  Pd21  1  0.999505  0.656500  0.999497  1
  Pd  Pd22  1  0.656445  0.999566  0.344436  1
  Pd  Pd23  1  0.999509  0.344483  0.999519  1
  Pd  Pd24  1  0.344540  0.999460  0.656528  1
  Pd  Pd25  1  0.656478  0.999542  0.999510  1
  Pd  Pd26  1  0.344522  0.999471  0.999493  1
  Pd  Pd27  1  0.999548  0.656459  0.344472  1
  Pd  Pd28  1  0.999481  0.344516  0.656498  1
