# generated using pymatgen
data_Dy3Si2Ir3
_symmetry_space_group_name_H-M   'P 1'
_cell_length_a   5.52425100
_cell_length_b   7.55560400
_cell_length_c   14.86725800
_cell_angle_alpha   90.00000000
_cell_angle_beta   90.00000000
_cell_angle_gamma   90.00000000
_symmetry_Int_Tables_number   1
_chemical_formula_structural   Dy3Si2Ir3
_chemical_formula_sum   'Dy12 Si8 Ir12'
_cell_volume   620.54526892
_cell_formula_units_Z   4
loop_
 _symmetry_equiv_pos_site_id
 _symmetry_equiv_pos_as_xyz
  1  'x, y, z'
loop_
 _atom_site_type_symbol
 _atom_site_label
 _atom_site_symmetry_multiplicity
 _atom_site_fract_x
 _atom_site_fract_y
 _atom_site_fract_z
 _atom_site_occupancy
  Dy  Dy0  1  0.900874  0.828640  0.750000  1
  Dy  Dy1  1  0.869410  0.525999  0.391824  1
  Dy  Dy2  1  0.369410  0.974001  0.608176  1
  Dy  Dy3  1  0.130590  0.474001  0.891824  1
  Dy  Dy4  1  0.630590  0.026000  0.108176  1
  Dy  Dy5  1  0.099126  0.171360  0.250000  1
  Dy  Dy6  1  0.130590  0.474001  0.608176  1
  Dy  Dy7  1  0.630590  0.026000  0.391824  1
  Dy  Dy8  1  0.400874  0.671360  0.250000  1
  Dy  Dy9  1  0.369410  0.974001  0.891824  1
  Dy  Dy10  1  0.599126  0.328640  0.750000  1
  Dy  Dy11  1  0.869410  0.525999  0.108176  1
  Si  Si12  1  0.620783  0.624731  0.896632  1
  Si  Si13  1  0.879217  0.124731  0.603368  1
  Si  Si14  1  0.120783  0.875269  0.103368  1
  Si  Si15  1  0.120783  0.875269  0.396632  1
  Si  Si16  1  0.620783  0.624731  0.603368  1
  Si  Si17  1  0.879217  0.124731  0.896632  1
  Si  Si18  1  0.379217  0.375269  0.103368  1
  Si  Si19  1  0.379217  0.375269  0.396632  1
  Ir  Ir20  1  0.600694  0.331918  0.960251  1
  Ir  Ir21  1  0.100694  0.168082  0.460251  1
  Ir  Ir22  1  0.100694  0.168082  0.039749  1
  Ir  Ir23  1  0.413297  0.680084  0.750000  1
  Ir  Ir24  1  0.899306  0.831918  0.960251  1
  Ir  Ir25  1  0.586703  0.319916  0.250000  1
  Ir  Ir26  1  0.899306  0.831918  0.539749  1
  Ir  Ir27  1  0.913297  0.819916  0.250000  1
  Ir  Ir28  1  0.600694  0.331918  0.539749  1
  Ir  Ir29  1  0.399306  0.668082  0.460251  1
  Ir  Ir30  1  0.086703  0.180084  0.750000  1
  Ir  Ir31  1  0.399306  0.668082  0.039749  1
