# generated using pymatgen
data_AcPuTe3
_symmetry_space_group_name_H-M   'P 1'
_cell_length_a   4.64397500
_cell_length_b   11.96575500
_cell_length_c   12.43766500
_cell_angle_alpha   90.00000000
_cell_angle_beta   90.00000000
_cell_angle_gamma   90.00000000
_symmetry_Int_Tables_number   1
_chemical_formula_structural   AcPuTe3
_chemical_formula_sum   'Ac4 Pu4 Te12'
_cell_volume   691.14446559
_cell_formula_units_Z   4
loop_
 _symmetry_equiv_pos_site_id
 _symmetry_equiv_pos_as_xyz
  1  'x, y, z'
loop_
 _atom_site_type_symbol
 _atom_site_label
 _atom_site_symmetry_multiplicity
 _atom_site_fract_x
 _atom_site_fract_y
 _atom_site_fract_z
 _atom_site_occupancy
  Ac  Ac0  1  0.250000  0.499655  0.697381  1
  Ac  Ac1  1  0.750000  0.500345  0.302619  1
  Ac  Ac2  1  0.750000  0.999655  0.802619  1
  Ac  Ac3  1  0.250000  0.000345  0.197381  1
  Pu  Pu4  1  0.250000  0.188606  0.504136  1
  Pu  Pu5  1  0.750000  0.811394  0.495864  1
  Pu  Pu6  1  0.750000  0.688606  0.995864  1
  Pu  Pu7  1  0.250000  0.311394  0.004136  1
  Te  Te8  1  0.250000  0.865335  0.954779  1
  Te  Te9  1  0.750000  0.134665  0.045221  1
  Te  Te10  1  0.750000  0.365335  0.545221  1
  Te  Te11  1  0.250000  0.634665  0.454779  1
  Te  Te12  1  0.250000  0.206477  0.766963  1
  Te  Te13  1  0.750000  0.793523  0.233037  1
  Te  Te14  1  0.750000  0.706477  0.733037  1
  Te  Te15  1  0.250000  0.293523  0.266963  1
  Te  Te16  1  0.250000  0.556397  0.110505  1
  Te  Te17  1  0.750000  0.443603  0.889495  1
  Te  Te18  1  0.750000  0.056397  0.389495  1
  Te  Te19  1  0.250000  0.943603  0.610505  1
