# generated using pymatgen
data_LaYb4Sn3H
_symmetry_space_group_name_H-M   'P 1'
_cell_length_a   9.45370194
_cell_length_b   9.45370176
_cell_length_c   9.46824107
_cell_angle_alpha   128.71511929
_cell_angle_beta   128.71511783
_cell_angle_gamma   75.35549768
_symmetry_Int_Tables_number   1
_chemical_formula_structural   LaYb4Sn3H
_chemical_formula_sum   'La2 Yb8 Sn6 H2'
_cell_volume   501.69732194
_cell_formula_units_Z   2
loop_
 _symmetry_equiv_pos_site_id
 _symmetry_equiv_pos_as_xyz
  1  'x, y, z'
loop_
 _atom_site_type_symbol
 _atom_site_label
 _atom_site_symmetry_multiplicity
 _atom_site_fract_x
 _atom_site_fract_y
 _atom_site_fract_z
 _atom_site_occupancy
  La  La0  1  0.520628  0.020628  0.839928  1
  La  La1  1  0.180700  0.680700  0.160072  1
  Yb  Yb2  1  0.503997  0.503997  0.000000  1
  Yb  Yb3  1  0.003997  0.003997  0.000000  1
  Yb  Yb4  1  0.009107  0.187280  0.500000  1
  Yb  Yb5  1  0.687280  0.509107  0.500000  1
  Yb  Yb6  1  0.489265  0.989265  0.180841  1
  Yb  Yb7  1  0.808424  0.308424  0.819159  1
  Yb  Yb8  1  0.987763  0.812291  0.500000  1
  Yb  Yb9  1  0.312291  0.487763  0.500000  1
  Sn  Sn10  1  0.250838  0.250838  0.000000  1
  Sn  Sn11  1  0.750838  0.750838  0.000000  1
  Sn  Sn12  1  0.873735  0.373735  0.247279  1
  Sn  Sn13  1  0.126457  0.626457  0.752721  1
  Sn  Sn14  1  0.369688  0.127447  0.500000  1
  Sn  Sn15  1  0.627447  0.869688  0.500000  1
  H  H16  1  0.248779  0.748779  0.500000  1
  H  H17  1  0.748766  0.248766  0.500000  1
