# generated using pymatgen
data_Nd4DyIrRh2
_symmetry_space_group_name_H-M   'P 1'
_cell_length_a   11.17280600
_cell_length_b   11.17280600
_cell_length_c   6.55260300
_cell_angle_alpha   90.00000000
_cell_angle_beta   90.00000000
_cell_angle_gamma   90.00000000
_symmetry_Int_Tables_number   1
_chemical_formula_structural   Nd4DyIrRh2
_chemical_formula_sum   'Nd16 Dy4 Ir4 Rh8'
_cell_volume   817.97187677
_cell_formula_units_Z   4
loop_
 _symmetry_equiv_pos_site_id
 _symmetry_equiv_pos_as_xyz
  1  'x, y, z'
loop_
 _atom_site_type_symbol
 _atom_site_label
 _atom_site_symmetry_multiplicity
 _atom_site_fract_x
 _atom_site_fract_y
 _atom_site_fract_z
 _atom_site_occupancy
  Nd  Nd0  1  0.089681  0.289145  0.115134  1
  Nd  Nd1  1  0.789145  0.410319  0.115134  1
  Nd  Nd2  1  0.210855  0.589681  0.115134  1
  Nd  Nd3  1  0.910319  0.710855  0.115134  1
  Nd  Nd4  1  0.410319  0.789145  0.384866  1
  Nd  Nd5  1  0.589681  0.210855  0.384866  1
  Nd  Nd6  1  0.289145  0.089681  0.384866  1
  Nd  Nd7  1  0.710855  0.910319  0.384866  1
  Nd  Nd8  1  0.411285  0.210246  0.883319  1
  Nd  Nd9  1  0.710246  0.088715  0.883319  1
  Nd  Nd10  1  0.289754  0.911285  0.883319  1
  Nd  Nd11  1  0.588715  0.789754  0.883319  1
  Nd  Nd12  1  0.088715  0.710246  0.616681  1
  Nd  Nd13  1  0.911285  0.289754  0.616681  1
  Nd  Nd14  1  0.210246  0.411285  0.616681  1
  Nd  Nd15  1  0.789754  0.588715  0.616681  1
  Dy  Dy16  1  0.000000  0.000000  0.999487  1
  Dy  Dy17  1  0.500000  0.500000  0.999487  1
  Dy  Dy18  1  0.500000  0.500000  0.500513  1
  Dy  Dy19  1  0.000000  0.000000  0.500513  1
  Ir  Ir20  1  0.350218  0.649782  0.750000  1
  Ir  Ir21  1  0.149782  0.149782  0.750000  1
  Ir  Ir22  1  0.850218  0.850218  0.750000  1
  Ir  Ir23  1  0.649782  0.350218  0.750000  1
  Rh  Rh24  1  0.150158  0.849842  0.250000  1
  Rh  Rh25  1  0.349842  0.349842  0.250000  1
  Rh  Rh26  1  0.650158  0.650158  0.250000  1
  Rh  Rh27  1  0.849842  0.150158  0.250000  1
  Rh  Rh28  1  0.000000  0.500000  0.376753  1
  Rh  Rh29  1  0.500000  0.000000  0.123247  1
  Rh  Rh30  1  0.500000  0.000000  0.620582  1
  Rh  Rh31  1  0.000000  0.500000  0.879418  1
