# generated using pymatgen
data_Nd3Cd3Hg2Pt
_symmetry_space_group_name_H-M   'P 1'
_cell_length_a   8.22418600
_cell_length_b   8.22418636
_cell_length_c   3.91533700
_cell_angle_alpha   90.00000000
_cell_angle_beta   90.00000000
_cell_angle_gamma   119.99999049
_symmetry_Int_Tables_number   1
_chemical_formula_structural   Nd3Cd3Hg2Pt
_chemical_formula_sum   'Nd3 Cd3 Hg2 Pt1'
_cell_volume   229.34310544
_cell_formula_units_Z   1
loop_
 _symmetry_equiv_pos_site_id
 _symmetry_equiv_pos_as_xyz
  1  'x, y, z'
loop_
 _atom_site_type_symbol
 _atom_site_label
 _atom_site_symmetry_multiplicity
 _atom_site_fract_x
 _atom_site_fract_y
 _atom_site_fract_z
 _atom_site_occupancy
  Nd  Nd0  1  0.579128  0.973600  0.000000  1
  Nd  Nd1  1  0.026400  0.605527  0.000000  1
  Nd  Nd2  1  0.394473  0.420872  0.000000  1
  Cd  Cd3  1  0.271574  0.000888  0.500000  1
  Cd  Cd4  1  0.999112  0.270687  0.500000  1
  Cd  Cd5  1  0.729313  0.728426  0.500000  1
  Hg  Hg6  1  0.666667  0.333333  0.500000  1
  Hg  Hg7  1  0.000000  0.000000  0.000000  1
  Pt  Pt8  1  0.333333  0.666667  0.500000  1
