# generated using pymatgen
data_Dy13Y2Th(CdPt)4
_symmetry_space_group_name_H-M   'P 1'
_cell_length_a   9.71317327
_cell_length_b   9.71317379
_cell_length_c   9.71476135
_cell_angle_alpha   60.20218062
_cell_angle_beta   60.20218706
_cell_angle_gamma   60.20380352
_symmetry_Int_Tables_number   1
_chemical_formula_structural   Dy13Y2Th(CdPt)4
_chemical_formula_sum   'Dy13 Y2 Th1 Cd4 Pt4'
_cell_volume   651.07112237
_cell_formula_units_Z   1
loop_
 _symmetry_equiv_pos_site_id
 _symmetry_equiv_pos_as_xyz
  1  'x, y, z'
loop_
 _atom_site_type_symbol
 _atom_site_label
 _atom_site_symmetry_multiplicity
 _atom_site_fract_x
 _atom_site_fract_y
 _atom_site_fract_z
 _atom_site_occupancy
  Dy  Dy0  1  0.353721  0.353721  0.939235  1
  Dy  Dy1  1  0.353798  0.939432  0.353684  1
  Dy  Dy2  1  0.939432  0.353798  0.353684  1
  Dy  Dy3  1  0.812559  0.189255  0.189151  1
  Dy  Dy4  1  0.190197  0.810873  0.810839  1
  Dy  Dy5  1  0.189255  0.812559  0.189151  1
  Dy  Dy6  1  0.810873  0.190197  0.810839  1
  Dy  Dy7  1  0.189166  0.189166  0.812595  1
  Dy  Dy8  1  0.810900  0.810900  0.190261  1
  Dy  Dy9  1  0.936741  0.566025  0.566063  1
  Dy  Dy10  1  0.563299  0.937131  0.937061  1
  Dy  Dy11  1  0.566025  0.936741  0.566063  1
  Dy  Dy12  1  0.937131  0.563299  0.937061  1
  Y  Y13  1  0.566359  0.566359  0.936299  1
  Y  Y14  1  0.936343  0.936343  0.563917  1
  Th  Th15  1  0.348813  0.348813  0.349312  1
  Cd  Cd16  1  0.581639  0.581639  0.581508  1
  Cd  Cd17  1  0.582682  0.582682  0.252645  1
  Cd  Cd18  1  0.582649  0.252767  0.582556  1
  Cd  Cd19  1  0.252767  0.582649  0.582556  1
  Pt  Pt20  1  0.144182  0.144182  0.144141  1
  Pt  Pt21  1  0.140637  0.140637  0.570281  1
  Pt  Pt22  1  0.140660  0.570169  0.140548  1
  Pt  Pt23  1  0.570169  0.140660  0.140548  1
