# generated using pymatgen
data_Hf17ScRe6(RhW)2
_symmetry_space_group_name_H-M   'P 1'
_cell_length_a   8.69416653
_cell_length_b   8.69416642
_cell_length_c   8.47169300
_cell_angle_alpha   90.00000000
_cell_angle_beta   90.00000000
_cell_angle_gamma   119.83036770
_symmetry_Int_Tables_number   1
_chemical_formula_structural   Hf17ScRe6(RhW)2
_chemical_formula_sum   'Hf17 Sc1 Re6 Rh2 W2'
_cell_volume   555.51598648
_cell_formula_units_Z   1
loop_
 _symmetry_equiv_pos_site_id
 _symmetry_equiv_pos_as_xyz
  1  'x, y, z'
loop_
 _atom_site_type_symbol
 _atom_site_label
 _atom_site_symmetry_multiplicity
 _atom_site_fract_x
 _atom_site_fract_y
 _atom_site_fract_z
 _atom_site_occupancy
  Hf  Hf0  1  0.196809  0.803191  0.446196  1
  Hf  Hf1  1  0.196862  0.393562  0.445470  1
  Hf  Hf2  1  0.606438  0.803138  0.445470  1
  Hf  Hf3  1  0.803087  0.196913  0.554811  1
  Hf  Hf4  1  0.803489  0.606716  0.555182  1
  Hf  Hf5  1  0.393284  0.196511  0.555182  1
  Hf  Hf6  1  0.803087  0.196913  0.945189  1
  Hf  Hf7  1  0.803489  0.606716  0.944818  1
  Hf  Hf8  1  0.393284  0.196511  0.944818  1
  Hf  Hf9  1  0.196809  0.803191  0.053804  1
  Hf  Hf10  1  0.196862  0.393562  0.054530  1
  Hf  Hf11  1  0.606438  0.803138  0.054530  1
  Hf  Hf12  1  0.542671  0.084435  0.250000  1
  Hf  Hf13  1  0.915565  0.457329  0.250000  1
  Hf  Hf14  1  0.457573  0.542427  0.750000  1
  Hf  Hf15  1  0.457673  0.914546  0.750000  1
  Hf  Hf16  1  0.085454  0.542327  0.750000  1
  Sc  Sc17  1  0.542110  0.457890  0.250000  1
  Re  Re18  1  0.888413  0.111587  0.250000  1
  Re  Re19  1  0.890015  0.777849  0.250000  1
  Re  Re20  1  0.222151  0.109985  0.250000  1
  Re  Re21  1  0.111238  0.888762  0.750000  1
  Re  Re22  1  0.110768  0.221821  0.750000  1
  Re  Re23  1  0.778179  0.889232  0.750000  1
  Rh  Rh24  1  0.331933  0.668067  0.250000  1
  Rh  Rh25  1  0.666216  0.333784  0.750000  1
  W  W26  1  0.000050  0.999950  0.498267  1
  W  W27  1  0.000050  0.999950  0.001733  1
