# generated using pymatgen
data_Nd18Dy2(Ga3Pb)3
_symmetry_space_group_name_H-M   'P 1'
_cell_length_a   8.03458100
_cell_length_b   8.03458100
_cell_length_c   14.62542300
_cell_angle_alpha   90.00000000
_cell_angle_beta   90.00000000
_cell_angle_gamma   90.00000000
_symmetry_Int_Tables_number   1
_chemical_formula_structural   Nd18Dy2(Ga3Pb)3
_chemical_formula_sum   'Nd18 Dy2 Ga9 Pb3'
_cell_volume   944.13674979
_cell_formula_units_Z   1
loop_
 _symmetry_equiv_pos_site_id
 _symmetry_equiv_pos_as_xyz
  1  'x, y, z'
loop_
 _atom_site_type_symbol
 _atom_site_label
 _atom_site_symmetry_multiplicity
 _atom_site_fract_x
 _atom_site_fract_y
 _atom_site_fract_z
 _atom_site_occupancy
  Nd  Nd0  1  0.681507  0.158466  0.105156  1
  Nd  Nd1  1  0.171959  0.662942  0.608141  1
  Nd  Nd2  1  0.318493  0.841534  0.105156  1
  Nd  Nd3  1  0.828041  0.337058  0.608141  1
  Nd  Nd4  1  0.841534  0.681507  0.105156  1
  Nd  Nd5  1  0.337058  0.171959  0.608141  1
  Nd  Nd6  1  0.158466  0.318493  0.105156  1
  Nd  Nd7  1  0.662942  0.828041  0.608141  1
  Nd  Nd8  1  0.841534  0.318493  0.894844  1
  Nd  Nd9  1  0.337058  0.828041  0.391859  1
  Nd  Nd10  1  0.158466  0.681507  0.894844  1
  Nd  Nd11  1  0.662942  0.171959  0.391859  1
  Nd  Nd12  1  0.681507  0.841534  0.894844  1
  Nd  Nd13  1  0.171959  0.337058  0.391859  1
  Nd  Nd14  1  0.318493  0.158466  0.894844  1
  Nd  Nd15  1  0.828041  0.662942  0.391859  1
  Nd  Nd16  1  0.500000  0.500000  0.776391  1
  Nd  Nd17  1  0.500000  0.500000  0.223609  1
  Dy  Dy18  1  0.000000  0.000000  0.262305  1
  Dy  Dy19  1  0.000000  0.000000  0.737695  1
  Ga  Ga20  1  0.626961  0.121314  0.749157  1
  Ga  Ga21  1  0.121314  0.626961  0.250843  1
  Ga  Ga22  1  0.878686  0.373039  0.250843  1
  Ga  Ga23  1  0.373039  0.878686  0.749157  1
  Ga  Ga24  1  0.878686  0.626961  0.749157  1
  Ga  Ga25  1  0.373039  0.121314  0.250843  1
  Ga  Ga26  1  0.121314  0.373039  0.749157  1
  Ga  Ga27  1  0.626961  0.878686  0.250843  1
  Ga  Ga28  1  0.000000  0.000000  0.000000  1
  Pb  Pb29  1  0.500000  0.500000  0.500000  1
  Pb  Pb30  1  0.500000  0.500000  0.000000  1
  Pb  Pb31  1  0.000000  0.000000  0.500000  1
