# generated using pymatgen
data_Tm3Lu7(In2Bi)2
_symmetry_space_group_name_H-M   'P 1'
_cell_length_a   6.49996200
_cell_length_b   8.87703200
_cell_length_c   8.84075415
_cell_angle_alpha   119.68105696
_cell_angle_beta   89.99964822
_cell_angle_gamma   90.00030972
_symmetry_Int_Tables_number   1
_chemical_formula_structural   Tm3Lu7(In2Bi)2
_chemical_formula_sum   'Tm3 Lu7 In4 Bi2'
_cell_volume   443.18532066
_cell_formula_units_Z   1
loop_
 _symmetry_equiv_pos_site_id
 _symmetry_equiv_pos_as_xyz
  1  'x, y, z'
loop_
 _atom_site_type_symbol
 _atom_site_label
 _atom_site_symmetry_multiplicity
 _atom_site_fract_x
 _atom_site_fract_y
 _atom_site_fract_z
 _atom_site_occupancy
  Tm  Tm0  1  0.750007  0.227830  0.990609  1
  Tm  Tm1  1  0.749982  0.771756  0.761903  1
  Tm  Tm2  1  0.749986  0.999894  0.238119  1
  Lu  Lu3  1  0.492224  0.328446  0.667061  1
  Lu  Lu4  1  0.492367  0.671584  0.338789  1
  Lu  Lu5  1  0.007649  0.671573  0.338776  1
  Lu  Lu6  1  0.007793  0.328469  0.667078  1
  Lu  Lu7  1  0.250003  0.765560  0.000802  1
  Lu  Lu8  1  0.249982  0.234156  0.234866  1
  Lu  Lu9  1  0.249997  0.000206  0.763618  1
  In  In10  1  0.750001  0.000188  0.595589  1
  In  In11  1  0.250026  0.397416  0.003625  1
  In  In12  1  0.249994  0.602249  0.605561  1
  In  In13  1  0.249986  0.000143  0.397081  1
  Bi  Bi14  1  0.749996  0.603437  0.999811  1
  Bi  Bi15  1  0.750004  0.397094  0.396715  1
