# generated using pymatgen
data_Tb2Dy2B16Os3Ru
_symmetry_space_group_name_H-M   'P 1'
_cell_length_a   3.57078500
_cell_length_b   5.96998601
_cell_length_c   11.55040913
_cell_angle_alpha   89.98894094
_cell_angle_beta   90.00000000
_cell_angle_gamma   90.00000000
_symmetry_Int_Tables_number   1
_chemical_formula_structural   Tb2Dy2B16Os3Ru
_chemical_formula_sum   'Tb2 Dy2 B16 Os3 Ru1'
_cell_volume   246.22626340
_cell_formula_units_Z   1
loop_
 _symmetry_equiv_pos_site_id
 _symmetry_equiv_pos_as_xyz
  1  'x, y, z'
loop_
 _atom_site_type_symbol
 _atom_site_label
 _atom_site_symmetry_multiplicity
 _atom_site_fract_x
 _atom_site_fract_y
 _atom_site_fract_z
 _atom_site_occupancy
  Tb  Tb0  1  0.500000  0.628227  0.349553  1
  Tb  Tb1  1  0.500000  0.371710  0.650455  1
  Dy  Dy2  1  0.500000  0.128097  0.149864  1
  Dy  Dy3  1  0.500000  0.871933  0.850202  1
  B  B4  1  0.000000  0.475555  0.191288  1
  B  B5  1  0.000000  0.524108  0.808650  1
  B  B6  1  0.000000  0.975524  0.308631  1
  B  B7  1  0.000000  0.024804  0.691469  1
  B  B8  1  0.000000  0.288433  0.314050  1
  B  B9  1  0.000000  0.711552  0.685888  1
  B  B10  1  0.000000  0.788614  0.185541  1
  B  B11  1  0.000000  0.211380  0.814567  1
  B  B12  1  0.000000  0.363306  0.469907  1
  B  B13  1  0.000000  0.636677  0.530217  1
  B  B14  1  0.000000  0.863643  0.030251  1
  B  B15  1  0.000000  0.136290  0.969483  1
  B  B16  1  0.000000  0.387896  0.046501  1
  B  B17  1  0.000000  0.612165  0.953501  1
  B  B18  1  0.000000  0.887941  0.453449  1
  B  B19  1  0.000000  0.112108  0.546672  1
  Os  Os20  1  0.500000  0.141230  0.406904  1
  Os  Os21  1  0.500000  0.858828  0.593040  1
  Os  Os22  1  0.500000  0.640354  0.092840  1
  Ru  Ru23  1  0.500000  0.359624  0.907076  1
