# generated using pymatgen
data_Tb16Ho4Si15Rh
_symmetry_space_group_name_H-M   'P 1'
_cell_length_a   7.40767000
_cell_length_b   7.76783900
_cell_length_c   14.65116700
_cell_angle_alpha   90.00000000
_cell_angle_beta   90.00000000
_cell_angle_gamma   89.99958694
_symmetry_Int_Tables_number   1
_chemical_formula_structural   Tb16Ho4Si15Rh
_chemical_formula_sum   'Tb16 Ho4 Si15 Rh1'
_cell_volume   843.05141414
_cell_formula_units_Z   1
loop_
 _symmetry_equiv_pos_site_id
 _symmetry_equiv_pos_as_xyz
  1  'x, y, z'
loop_
 _atom_site_type_symbol
 _atom_site_label
 _atom_site_symmetry_multiplicity
 _atom_site_fract_x
 _atom_site_fract_y
 _atom_site_fract_z
 _atom_site_occupancy
  Tb  Tb0  1  0.674967  0.182680  0.624765  1
  Tb  Tb1  1  0.190465  0.324820  0.874027  1
  Tb  Tb2  1  0.318401  0.819405  0.123243  1
  Tb  Tb3  1  0.816935  0.678223  0.377093  1
  Tb  Tb4  1  0.318401  0.819405  0.376757  1
  Tb  Tb5  1  0.816935  0.678223  0.122907  1
  Tb  Tb6  1  0.674967  0.182680  0.875235  1
  Tb  Tb7  1  0.190465  0.324820  0.625973  1
  Tb  Tb8  1  0.523264  0.677496  0.595557  1
  Tb  Tb9  1  0.026344  0.816615  0.903868  1
  Tb  Tb10  1  0.473088  0.315036  0.097169  1
  Tb  Tb11  1  0.973065  0.183034  0.402833  1
  Tb  Tb12  1  0.473088  0.315036  0.402831  1
  Tb  Tb13  1  0.973065  0.183034  0.097167  1
  Tb  Tb14  1  0.523264  0.677496  0.904443  1
  Tb  Tb15  1  0.026344  0.816615  0.596132  1
  Ho  Ho16  1  0.841245  0.513317  0.750000  1
  Ho  Ho17  1  0.354143  0.980778  0.750000  1
  Ho  Ho18  1  0.149868  0.484148  0.250000  1
  Ho  Ho19  1  0.648783  0.014665  0.250000  1
  Si  Si20  1  0.645911  0.971754  0.460234  1
  Si  Si21  1  0.148234  0.527645  0.039498  1
  Si  Si22  1  0.350879  0.026340  0.960261  1
  Si  Si23  1  0.855765  0.470605  0.540038  1
  Si  Si24  1  0.350879  0.026340  0.539739  1
  Si  Si25  1  0.855765  0.470605  0.959962  1
  Si  Si26  1  0.645911  0.971754  0.039766  1
  Si  Si27  1  0.148234  0.527645  0.460502  1
  Si  Si28  1  0.980183  0.101494  0.750000  1
  Si  Si29  1  0.522502  0.601571  0.250000  1
  Si  Si30  1  0.019696  0.895637  0.250000  1
  Si  Si31  1  0.740519  0.876391  0.750000  1
  Si  Si32  1  0.228395  0.633149  0.750000  1
  Si  Si33  1  0.266544  0.127383  0.250000  1
  Si  Si34  1  0.768656  0.372056  0.250000  1
  Rh  Rh35  1  0.484825  0.412101  0.750000  1
