# generated using pymatgen
data_Yb5Al6O14
_symmetry_space_group_name_H-M   'P 1'
_cell_length_a   7.74599600
_cell_length_b   7.74599665
_cell_length_c   10.13692900
_cell_angle_alpha   90.00000000
_cell_angle_beta   90.00000000
_cell_angle_gamma   91.48731343
_symmetry_Int_Tables_number   1
_chemical_formula_structural   Yb5Al6O14
_chemical_formula_sum   'Yb10 Al12 O28'
_cell_volume   608.01548221
_cell_formula_units_Z   2
loop_
 _symmetry_equiv_pos_site_id
 _symmetry_equiv_pos_as_xyz
  1  'x, y, z'
loop_
 _atom_site_type_symbol
 _atom_site_label
 _atom_site_symmetry_multiplicity
 _atom_site_fract_x
 _atom_site_fract_y
 _atom_site_fract_z
 _atom_site_occupancy
  Yb  Yb0  1  0.475429  0.475429  0.742596  1
  Yb  Yb1  1  0.524571  0.524571  0.242596  1
  Yb  Yb2  1  0.678587  0.959582  0.198738  1
  Yb  Yb3  1  0.321413  0.040418  0.698738  1
  Yb  Yb4  1  0.040418  0.321413  0.698738  1
  Yb  Yb5  1  0.959582  0.678587  0.198738  1
  Yb  Yb6  1  0.264017  0.946830  0.249637  1
  Yb  Yb7  1  0.735983  0.053170  0.749637  1
  Yb  Yb8  1  0.053170  0.735983  0.749637  1
  Yb  Yb9  1  0.946830  0.264017  0.249637  1
  Al  Al10  1  0.644569  0.157922  0.475450  1
  Al  Al11  1  0.355431  0.842078  0.975450  1
  Al  Al12  1  0.842078  0.355431  0.975450  1
  Al  Al13  1  0.157922  0.644569  0.475450  1
  Al  Al14  1  0.001782  0.001782  0.965259  1
  Al  Al15  1  0.998218  0.998218  0.465259  1
  Al  Al16  1  0.699288  0.699288  0.937594  1
  Al  Al17  1  0.300712  0.300712  0.437594  1
  Al  Al18  1  0.500994  0.788876  0.509273  1
  Al  Al19  1  0.499006  0.211124  0.009273  1
  Al  Al20  1  0.211124  0.499006  0.009273  1
  Al  Al21  1  0.788876  0.500994  0.509273  1
  O  O22  1  0.696186  0.696186  0.109205  1
  O  O23  1  0.303814  0.303814  0.609205  1
  O  O24  1  0.496988  0.243241  0.364258  1
  O  O25  1  0.503012  0.756759  0.864258  1
  O  O26  1  0.756759  0.503012  0.864258  1
  O  O27  1  0.243241  0.496988  0.364258  1
  O  O28  1  0.991018  0.991018  0.136767  1
  O  O29  1  0.008982  0.008982  0.636767  1
  O  O30  1  0.490124  0.806690  0.337462  1
  O  O31  1  0.509876  0.193310  0.837462  1
  O  O32  1  0.193310  0.509876  0.837462  1
  O  O33  1  0.806690  0.490124  0.337462  1
  O  O34  1  0.854453  0.854453  0.887178  1
  O  O35  1  0.145547  0.145547  0.387178  1
  O  O36  1  0.807657  0.060685  0.383587  1
  O  O37  1  0.192343  0.939315  0.883587  1
  O  O38  1  0.939315  0.192343  0.883587  1
  O  O39  1  0.060685  0.807657  0.383587  1
  O  O40  1  0.295241  0.754145  0.589732  1
  O  O41  1  0.704759  0.245855  0.089732  1
  O  O42  1  0.245855  0.704759  0.089732  1
  O  O43  1  0.754145  0.295241  0.589732  1
  O  O44  1  0.992332  0.559773  0.578347  1
  O  O45  1  0.007668  0.440227  0.078347  1
  O  O46  1  0.440227  0.007668  0.078347  1
  O  O47  1  0.559773  0.992332  0.578347  1
  O  O48  1  0.623311  0.623311  0.571334  1
  O  O49  1  0.376689  0.376689  0.071334  1
