# generated using pymatgen
data_Dy2Ho6In3PbAu8
_symmetry_space_group_name_H-M   'P 1'
_cell_length_a   8.03389880
_cell_length_b   8.03400432
_cell_length_c   7.33447200
_cell_angle_alpha   90.00000000
_cell_angle_beta   90.00000000
_cell_angle_gamma   90.08858443
_symmetry_Int_Tables_number   1
_chemical_formula_structural   Dy2Ho6In3PbAu8
_chemical_formula_sum   'Dy2 Ho6 In3 Pb1 Au8'
_cell_volume   473.39836480
_cell_formula_units_Z   1
loop_
 _symmetry_equiv_pos_site_id
 _symmetry_equiv_pos_as_xyz
  1  'x, y, z'
loop_
 _atom_site_type_symbol
 _atom_site_label
 _atom_site_symmetry_multiplicity
 _atom_site_fract_x
 _atom_site_fract_y
 _atom_site_fract_z
 _atom_site_occupancy
  Dy  Dy0  1  0.180098  0.817721  0.998690  1
  Dy  Dy1  1  0.819902  0.182279  0.998690  1
  Ho  Ho2  1  0.843336  0.159435  0.501642  1
  Ho  Ho3  1  0.156664  0.840565  0.501642  1
  Ho  Ho4  1  0.340565  0.343291  0.998382  1
  Ho  Ho5  1  0.659435  0.656709  0.998382  1
  Ho  Ho6  1  0.682130  0.679959  0.501351  1
  Ho  Ho7  1  0.317870  0.320041  0.501351  1
  In  In8  1  0.000000  0.500000  0.748605  1
  In  In9  1  0.500000  0.000000  0.748545  1
  In  In10  1  0.000000  0.500000  0.251484  1
  Pb  Pb11  1  0.500000  0.000000  0.251022  1
  Au  Au12  1  0.632102  0.377017  0.274250  1
  Au  Au13  1  0.367898  0.622983  0.274250  1
  Au  Au14  1  0.129501  0.128139  0.772451  1
  Au  Au15  1  0.870499  0.871861  0.772451  1
  Au  Au16  1  0.372339  0.629065  0.726477  1
  Au  Au17  1  0.627661  0.370935  0.726477  1
  Au  Au18  1  0.876491  0.867511  0.226931  1
  Au  Au19  1  0.123509  0.132489  0.226931  1
