# generated using pymatgen
data_Sm4Ga10CuNi5
_symmetry_space_group_name_H-M   'P 1'
_cell_length_a   8.38162631
_cell_length_b   8.38162608
_cell_length_c   8.38162676
_cell_angle_alpha   140.76589098
_cell_angle_beta   107.05563584
_cell_angle_gamma   86.10843990
_symmetry_Int_Tables_number   1
_chemical_formula_structural   Sm4Ga10CuNi5
_chemical_formula_sum   'Sm4 Ga10 Cu1 Ni5'
_cell_volume   343.46614012
_cell_formula_units_Z   1
loop_
 _symmetry_equiv_pos_site_id
 _symmetry_equiv_pos_as_xyz
  1  'x, y, z'
loop_
 _atom_site_type_symbol
 _atom_site_label
 _atom_site_symmetry_multiplicity
 _atom_site_fract_x
 _atom_site_fract_y
 _atom_site_fract_z
 _atom_site_occupancy
  Sm  Sm0  1  0.865119  0.640648  0.226697  1
  Sm  Sm1  1  0.134881  0.361578  0.775530  1
  Sm  Sm2  1  0.413951  0.138422  0.273303  1
  Sm  Sm3  1  0.586049  0.859352  0.724470  1
  Ga  Ga4  1  0.500000  0.750000  0.250000  1
  Ga  Ga5  1  0.500000  0.250000  0.750000  1
  Ga  Ga6  1  0.218308  0.968308  0.750000  1
  Ga  Ga7  1  0.781692  0.531692  0.750000  1
  Ga  Ga8  1  0.784697  0.034697  0.250000  1
  Ga  Ga9  1  0.215303  0.465303  0.250000  1
  Ga  Ga10  1  0.071783  0.908771  0.172352  1
  Ga  Ga11  1  0.928217  0.100569  0.836989  1
  Ga  Ga12  1  0.736419  0.399431  0.327648  1
  Ga  Ga13  1  0.263581  0.591229  0.663011  1
  Cu  Cu14  1  0.000000  0.750000  0.750000  1
  Ni  Ni15  1  0.000000  0.250000  0.250000  1
  Ni  Ni16  1  0.260625  0.857146  0.400171  1
  Ni  Ni17  1  0.739375  0.139545  0.596521  1
  Ni  Ni18  1  0.456977  0.360455  0.099829  1
  Ni  Ni19  1  0.543023  0.642854  0.903479  1
