# generated using pymatgen
data_Sc4Co5Si6NiIr
_symmetry_space_group_name_H-M   'P 1'
_cell_length_a   6.70274580
_cell_length_b   6.70274681
_cell_length_c   6.70274703
_cell_angle_alpha   109.46600211
_cell_angle_beta   109.46599768
_cell_angle_gamma   109.48166907
_symmetry_Int_Tables_number   1
_chemical_formula_structural   Sc4Co5Si6NiIr
_chemical_formula_sum   'Sc4 Co5 Si6 Ni1 Ir1'
_cell_volume   231.81228954
_cell_formula_units_Z   1
loop_
 _symmetry_equiv_pos_site_id
 _symmetry_equiv_pos_as_xyz
  1  'x, y, z'
loop_
 _atom_site_type_symbol
 _atom_site_label
 _atom_site_symmetry_multiplicity
 _atom_site_fract_x
 _atom_site_fract_y
 _atom_site_fract_z
 _atom_site_occupancy
  Sc  Sc0  1  0.001256  0.998744  0.500000  1
  Sc  Sc1  1  0.001256  0.501256  0.002512  1
  Sc  Sc2  1  0.498744  0.998744  0.997488  1
  Sc  Sc3  1  0.498744  0.501256  0.500000  1
  Co  Co4  1  0.750161  0.499768  0.250393  1
  Co  Co5  1  0.500232  0.249839  0.749607  1
  Co  Co6  1  0.249375  0.499768  0.749607  1
  Co  Co7  1  0.250000  0.750000  0.500000  1
  Co  Co8  1  0.500232  0.750625  0.250393  1
  Si  Si9  1  0.671234  0.671234  0.000000  1
  Si  Si10  1  0.326479  0.997883  0.328596  1
  Si  Si11  1  0.002117  0.330713  0.328596  1
  Si  Si12  1  0.328766  0.328766  0.000000  1
  Si  Si13  1  0.669287  0.997883  0.671404  1
  Si  Si14  1  0.002117  0.673521  0.671404  1
  Ni  Ni15  1  0.750000  0.250000  0.500000  1
  Ir  Ir16  1  0.000000  0.000000  0.000000  1
