# generated using pymatgen
data_Er6Al24GaFe4Ru3
_symmetry_space_group_name_H-M   'P 1'
_cell_length_a   8.72342469
_cell_length_b   8.72342326
_cell_length_c   9.39228406
_cell_angle_alpha   90.15538539
_cell_angle_beta   89.84461230
_cell_angle_gamma   119.76863434
_symmetry_Int_Tables_number   1
_chemical_formula_structural   Er6Al24GaFe4Ru3
_chemical_formula_sum   'Er6 Al24 Ga1 Fe4 Ru3'
_cell_volume   620.41383650
_cell_formula_units_Z   1
loop_
 _symmetry_equiv_pos_site_id
 _symmetry_equiv_pos_as_xyz
  1  'x, y, z'
loop_
 _atom_site_type_symbol
 _atom_site_label
 _atom_site_symmetry_multiplicity
 _atom_site_fract_x
 _atom_site_fract_y
 _atom_site_fract_z
 _atom_site_occupancy
  Er  Er0  1  0.193362  0.386872  0.243860  1
  Er  Er1  1  0.806638  0.613128  0.756140  1
  Er  Er2  1  0.613128  0.806638  0.243860  1
  Er  Er3  1  0.386872  0.193362  0.756140  1
  Er  Er4  1  0.195303  0.804697  0.253431  1
  Er  Er5  1  0.804697  0.195303  0.746569  1
  Al  Al6  1  0.324007  0.675993  0.019072  1
  Al  Al7  1  0.675993  0.324007  0.980928  1
  Al  Al8  1  0.666553  0.333447  0.518826  1
  Al  Al9  1  0.333447  0.666553  0.481174  1
  Al  Al10  1  0.158788  0.318489  0.574038  1
  Al  Al11  1  0.841212  0.681511  0.425962  1
  Al  Al12  1  0.681511  0.841212  0.574038  1
  Al  Al13  1  0.856869  0.682428  0.079302  1
  Al  Al14  1  0.318489  0.158788  0.425962  1
  Al  Al15  1  0.143131  0.317572  0.920698  1
  Al  Al16  1  0.159959  0.840041  0.578422  1
  Al  Al17  1  0.317572  0.143131  0.079302  1
  Al  Al18  1  0.840041  0.159959  0.421578  1
  Al  Al19  1  0.682428  0.856869  0.920698  1
  Al  Al20  1  0.839063  0.160937  0.077321  1
  Al  Al21  1  0.160937  0.839063  0.922679  1
  Al  Al22  1  0.560562  0.118104  0.243943  1
  Al  Al23  1  0.439438  0.881896  0.756057  1
  Al  Al24  1  0.881896  0.439438  0.243943  1
  Al  Al25  1  0.118104  0.560562  0.756057  1
  Al  Al26  1  0.565923  0.434077  0.256690  1
  Al  Al27  1  0.434077  0.565923  0.743310  1
  Al  Al28  1  0.998864  0.001136  0.250656  1
  Al  Al29  1  0.001136  0.998864  0.749344  1
  Ga  Ga30  1  0.500000  0.500000  0.000000  1
  Fe  Fe31  1  0.500000  0.000000  0.000000  1
  Fe  Fe32  1  0.000000  0.500000  0.000000  1
  Fe  Fe33  1  0.000000  0.000000  0.000000  1
  Fe  Fe34  1  0.000000  0.000000  0.500000  1
  Ru  Ru35  1  0.500000  0.000000  0.500000  1
  Ru  Ru36  1  0.000000  0.500000  0.500000  1
  Ru  Ru37  1  0.500000  0.500000  0.500000  1
