# generated using pymatgen
data_Gd4Ni2AsP3
_symmetry_space_group_name_H-M   'P 1'
_cell_length_a   3.99585100
_cell_length_b   3.99585220
_cell_length_c   14.43905400
_cell_angle_alpha   90.00000000
_cell_angle_beta   90.00000000
_cell_angle_gamma   120.00001487
_symmetry_Int_Tables_number   1
_chemical_formula_structural   Gd4Ni2AsP3
_chemical_formula_sum   'Gd4 Ni2 As1 P3'
_cell_volume   199.65859436
_cell_formula_units_Z   1
loop_
 _symmetry_equiv_pos_site_id
 _symmetry_equiv_pos_as_xyz
  1  'x, y, z'
loop_
 _atom_site_type_symbol
 _atom_site_label
 _atom_site_symmetry_multiplicity
 _atom_site_fract_x
 _atom_site_fract_y
 _atom_site_fract_z
 _atom_site_occupancy
  Gd  Gd0  1  0.333333  0.666667  0.378768  1
  Gd  Gd1  1  0.666667  0.333333  0.621232  1
  Gd  Gd2  1  0.666667  0.333333  0.885143  1
  Gd  Gd3  1  0.333333  0.666667  0.114857  1
  Ni  Ni4  1  0.000000  0.000000  0.248331  1
  Ni  Ni5  1  0.000000  0.000000  0.751669  1
  As  As6  1  0.000000  0.000000  0.500000  1
  P  P7  1  0.000000  0.000000  0.000000  1
  P  P8  1  0.333333  0.666667  0.752692  1
  P  P9  1  0.666667  0.333333  0.247308  1
