# generated using pymatgen
data_Y3HoTm4(B6Ru)4
_symmetry_space_group_name_H-M   'P 1'
_cell_length_a   3.63864300
_cell_length_b   9.10518000
_cell_length_c   11.49082800
_cell_angle_alpha   89.99953282
_cell_angle_beta   90.00000000
_cell_angle_gamma   90.00000000
_symmetry_Int_Tables_number   1
_chemical_formula_structural   Y3HoTm4(B6Ru)4
_chemical_formula_sum   'Y3 Ho1 Tm4 B24 Ru4'
_cell_volume   380.69687097
_cell_formula_units_Z   1
loop_
 _symmetry_equiv_pos_site_id
 _symmetry_equiv_pos_as_xyz
  1  'x, y, z'
loop_
 _atom_site_type_symbol
 _atom_site_label
 _atom_site_symmetry_multiplicity
 _atom_site_fract_x
 _atom_site_fract_y
 _atom_site_fract_z
 _atom_site_occupancy
  Y  Y0  1  0.000000  0.321845  0.414179  1
  Y  Y1  1  0.000000  0.678169  0.585842  1
  Y  Y2  1  0.000000  0.821884  0.085780  1
  Ho  Ho3  1  0.000000  0.178062  0.914212  1
  Tm  Tm4  1  0.000000  0.943840  0.372340  1
  Tm  Tm5  1  0.000000  0.056216  0.627717  1
  Tm  Tm6  1  0.000000  0.443713  0.127503  1
  Tm  Tm7  1  0.000000  0.556076  0.872408  1
  B  B8  1  0.500000  0.554385  0.432842  1
  B  B9  1  0.500000  0.445563  0.567229  1
  B  B10  1  0.500000  0.054575  0.066848  1
  B  B11  1  0.500000  0.945989  0.932838  1
  B  B12  1  0.500000  0.749223  0.419366  1
  B  B13  1  0.500000  0.250789  0.580738  1
  B  B14  1  0.500000  0.249100  0.080236  1
  B  B15  1  0.500000  0.750897  0.919350  1
  B  B16  1  0.500000  0.791593  0.266005  1
  B  B17  1  0.500000  0.208302  0.734299  1
  B  B18  1  0.500000  0.291531  0.233849  1
  B  B19  1  0.500000  0.708479  0.766078  1
  B  B20  1  0.500000  0.631078  0.184614  1
  B  B21  1  0.500000  0.368567  0.815585  1
  B  B22  1  0.500000  0.131119  0.315305  1
  B  B23  1  0.500000  0.868990  0.684723  1
  B  B24  1  0.500000  0.983298  0.213244  1
  B  B25  1  0.500000  0.017126  0.786884  1
  B  B26  1  0.500000  0.483197  0.286625  1
  B  B27  1  0.500000  0.516668  0.713409  1
  B  B28  1  0.500000  0.605436  0.028977  1
  B  B29  1  0.500000  0.394109  0.970887  1
  B  B30  1  0.500000  0.105381  0.471039  1
  B  B31  1  0.500000  0.894657  0.528991  1
  Ru  Ru32  1  0.000000  0.638328  0.320395  1
  Ru  Ru33  1  0.000000  0.361489  0.679801  1
  Ru  Ru34  1  0.000000  0.138322  0.179305  1
  Ru  Ru35  1  0.000000  0.862003  0.820557  1
