# generated using pymatgen
data_Li4PrTh3Pb4
_symmetry_space_group_name_H-M   'P 1'
_cell_length_a   9.82921000
_cell_length_b   9.82920952
_cell_length_c   7.44590100
_cell_angle_alpha   90.00000000
_cell_angle_beta   90.00000000
_cell_angle_gamma   120.00000163
_symmetry_Int_Tables_number   1
_chemical_formula_structural   Li4PrTh3Pb4
_chemical_formula_sum   'Li8 Pr2 Th6 Pb8'
_cell_volume   622.99575635
_cell_formula_units_Z   2
loop_
 _symmetry_equiv_pos_site_id
 _symmetry_equiv_pos_as_xyz
  1  'x, y, z'
loop_
 _atom_site_type_symbol
 _atom_site_label
 _atom_site_symmetry_multiplicity
 _atom_site_fract_x
 _atom_site_fract_y
 _atom_site_fract_z
 _atom_site_occupancy
  Li  Li0  1  0.834322  0.165678  0.735147  1
  Li  Li1  1  0.834322  0.668644  0.735147  1
  Li  Li2  1  0.331356  0.165678  0.735147  1
  Li  Li3  1  0.165678  0.834322  0.235147  1
  Li  Li4  1  0.165678  0.331356  0.235147  1
  Li  Li5  1  0.668644  0.834322  0.235147  1
  Li  Li6  1  0.666667  0.333333  0.288707  1
  Li  Li7  1  0.333333  0.666667  0.788707  1
  Pr  Pr8  1  0.000000  0.000000  0.500445  1
  Pr  Pr9  1  0.000000  0.000000  0.000445  1
  Th  Th10  1  0.495550  0.504450  0.504454  1
  Th  Th11  1  0.495550  0.991102  0.504454  1
  Th  Th12  1  0.008898  0.504450  0.504454  1
  Th  Th13  1  0.504450  0.495550  0.004454  1
  Th  Th14  1  0.504450  0.008898  0.004454  1
  Th  Th15  1  0.991102  0.495550  0.004454  1
  Pb  Pb16  1  0.832335  0.167665  0.259021  1
  Pb  Pb17  1  0.832335  0.664669  0.259021  1
  Pb  Pb18  1  0.335331  0.167665  0.259021  1
  Pb  Pb19  1  0.167665  0.832335  0.759021  1
  Pb  Pb20  1  0.167665  0.335331  0.759021  1
  Pb  Pb21  1  0.664669  0.832335  0.759021  1
  Pb  Pb22  1  0.666667  0.333333  0.743987  1
  Pb  Pb23  1  0.333333  0.666667  0.243987  1
