# generated using pymatgen
data_Yb2Ho3Pa3(Pt2Pb)4
_symmetry_space_group_name_H-M   'P 1'
_cell_length_a   7.94514022
_cell_length_b   7.95279267
_cell_length_c   7.18775600
_cell_angle_alpha   90.00000000
_cell_angle_beta   90.00000000
_cell_angle_gamma   90.67001677
_symmetry_Int_Tables_number   1
_chemical_formula_structural   Yb2Ho3Pa3(Pt2Pb)4
_chemical_formula_sum   'Yb2 Ho3 Pa3 Pt8 Pb4'
_cell_volume   454.13487767
_cell_formula_units_Z   1
loop_
 _symmetry_equiv_pos_site_id
 _symmetry_equiv_pos_as_xyz
  1  'x, y, z'
loop_
 _atom_site_type_symbol
 _atom_site_label
 _atom_site_symmetry_multiplicity
 _atom_site_fract_x
 _atom_site_fract_y
 _atom_site_fract_z
 _atom_site_occupancy
  Yb  Yb0  1  0.656566  0.659996  0.500000  1
  Yb  Yb1  1  0.176236  0.823410  0.500000  1
  Ho  Ho2  1  0.341932  0.345406  0.500000  1
  Ho  Ho3  1  0.841136  0.158051  0.000000  1
  Ho  Ho4  1  0.157453  0.842132  0.000000  1
  Pa  Pa5  1  0.678205  0.676001  0.000000  1
  Pa  Pa6  1  0.826120  0.173340  0.500000  1
  Pa  Pa7  1  0.324645  0.322582  0.000000  1
  Pt  Pt8  1  0.865596  0.875020  0.738886  1
  Pt  Pt9  1  0.127630  0.135565  0.736723  1
  Pt  Pt10  1  0.633039  0.365466  0.768622  1
  Pt  Pt11  1  0.633039  0.365466  0.231378  1
  Pt  Pt12  1  0.377713  0.620084  0.216379  1
  Pt  Pt13  1  0.127630  0.135565  0.263277  1
  Pt  Pt14  1  0.865596  0.875020  0.261114  1
  Pt  Pt15  1  0.377713  0.620084  0.783621  1
  Pb  Pb16  1  0.494035  0.996575  0.745722  1
  Pb  Pb17  1  0.494035  0.996575  0.254278  1
  Pb  Pb18  1  0.000843  0.506830  0.745559  1
  Pb  Pb19  1  0.000843  0.506830  0.254441  1
