# generated using pymatgen
data_Ba6Na2Cd(SnSe4)4
_symmetry_space_group_name_H-M   'P 1'
_cell_length_a   13.58932569
_cell_length_b   13.58932590
_cell_length_c   13.58932616
_cell_angle_alpha   109.77103201
_cell_angle_beta   109.77103032
_cell_angle_gamma   108.87324821
_symmetry_Int_Tables_number   1
_chemical_formula_structural   Ba6Na2Cd(SnSe4)4
_chemical_formula_sum   'Ba12 Na4 Cd2 Sn8 Se32'
_cell_volume   1931.68551666
_cell_formula_units_Z   2
loop_
 _symmetry_equiv_pos_site_id
 _symmetry_equiv_pos_as_xyz
  1  'x, y, z'
loop_
 _atom_site_type_symbol
 _atom_site_label
 _atom_site_symmetry_multiplicity
 _atom_site_fract_x
 _atom_site_fract_y
 _atom_site_fract_z
 _atom_site_occupancy
  Ba  Ba0  1  0.352958  0.352958  0.000000  1
  Ba  Ba1  1  0.625000  0.896531  0.771531  1
  Ba  Ba2  1  0.103469  0.875000  0.728469  1
  Ba  Ba3  1  0.625000  0.606476  0.481476  1
  Ba  Ba4  1  0.146531  0.375000  0.271531  1
  Ba  Ba5  1  0.647042  0.647042  0.000000  1
  Ba  Ba6  1  0.393524  0.875000  0.018524  1
  Ba  Ba7  1  0.125000  0.853469  0.228469  1
  Ba  Ba8  1  0.897042  0.397042  0.500000  1
  Ba  Ba9  1  0.856476  0.375000  0.981476  1
  Ba  Ba10  1  0.602958  0.102958  0.500000  1
  Ba  Ba11  1  0.125000  0.143524  0.518524  1
  Na  Na12  1  0.625000  0.250787  0.125787  1
  Na  Na13  1  0.500787  0.375000  0.625787  1
  Na  Na14  1  0.125000  0.499213  0.874213  1
  Na  Na15  1  0.749213  0.875000  0.374213  1
  Cd  Cd16  1  0.250000  0.750000  0.500000  1
  Cd  Cd17  1  0.000000  0.000000  0.000000  1
  Sn  Sn18  1  0.414983  0.125631  0.754729  1
  Sn  Sn19  1  0.910254  0.120902  0.745271  1
  Sn  Sn20  1  0.874369  0.629098  0.289352  1
  Sn  Sn21  1  0.339746  0.585017  0.710648  1
  Sn  Sn22  1  0.835017  0.089746  0.210648  1
  Sn  Sn23  1  0.879098  0.624369  0.789352  1
  Sn  Sn24  1  0.375631  0.164983  0.254729  1
  Sn  Sn25  1  0.370902  0.660254  0.245271  1
  Se  Se26  1  0.601468  0.127167  0.753907  1
  Se  Se27  1  0.864563  0.287910  0.214691  1
  Se  Se28  1  0.919260  0.143684  0.947758  1
  Se  Se29  1  0.684489  0.454962  0.089190  1
  Se  Se30  1  0.097560  0.123259  0.746093  1
  Se  Se31  1  0.054075  0.606316  0.275576  1
  Se  Se32  1  0.712090  0.926781  0.576652  1
  Se  Se33  1  0.393684  0.669260  0.447758  1
  Se  Se34  1  0.385437  0.100128  0.923348  1
  Se  Se35  1  0.028499  0.080740  0.224424  1
  Se  Se36  1  0.856316  0.804075  0.775576  1
  Se  Se37  1  0.195925  0.971501  0.052242  1
  Se  Se38  1  0.537910  0.614563  0.714691  1
  Se  Se39  1  0.152440  0.398532  0.525699  1
  Se  Se40  1  0.872833  0.626741  0.474301  1
  Se  Se41  1  0.377167  0.351468  0.253907  1
  Se  Se42  1  0.330740  0.778499  0.724424  1
  Se  Se43  1  0.073219  0.649872  0.785309  1
  Se  Se44  1  0.876741  0.622833  0.974301  1
  Se  Se45  1  0.648532  0.902440  0.025699  1
  Se  Se46  1  0.704962  0.434489  0.589190  1
  Se  Se47  1  0.404701  0.315511  0.770472  1
  Se  Se48  1  0.350128  0.135437  0.423348  1
  Se  Se49  1  0.565511  0.154701  0.270472  1
  Se  Se50  1  0.365771  0.595299  0.910810  1
  Se  Se51  1  0.884229  0.295038  0.729528  1
  Se  Se52  1  0.545038  0.634229  0.229528  1
  Se  Se53  1  0.176781  0.462090  0.076652  1
  Se  Se54  1  0.221501  0.945925  0.552242  1
  Se  Se55  1  0.845299  0.115771  0.410810  1
  Se  Se56  1  0.373259  0.847560  0.246093  1
  Se  Se57  1  0.899872  0.823219  0.285309  1
