# generated using pymatgen
data_La6Tb3Lu(In3Br)2
_symmetry_space_group_name_H-M   'P 1'
_cell_length_a   9.62301600
_cell_length_b   9.62301573
_cell_length_c   6.81172100
_cell_angle_alpha   90.00000000
_cell_angle_beta   90.00000000
_cell_angle_gamma   120.00000094
_symmetry_Int_Tables_number   1
_chemical_formula_structural   La6Tb3Lu(In3Br)2
_chemical_formula_sum   'La6 Tb3 Lu1 In6 Br2'
_cell_volume   546.27318458
_cell_formula_units_Z   1
loop_
 _symmetry_equiv_pos_site_id
 _symmetry_equiv_pos_as_xyz
  1  'x, y, z'
loop_
 _atom_site_type_symbol
 _atom_site_label
 _atom_site_symmetry_multiplicity
 _atom_site_fract_x
 _atom_site_fract_y
 _atom_site_fract_z
 _atom_site_occupancy
  La  La0  1  0.730933  0.730284  0.249526  1
  La  La1  1  0.999351  0.730284  0.750474  1
  La  La2  1  0.730933  0.000649  0.750474  1
  La  La3  1  0.269716  0.269067  0.750474  1
  La  La4  1  0.999351  0.269067  0.249526  1
  La  La5  1  0.269716  0.000649  0.249526  1
  Tb  Tb6  1  0.333333  0.666667  0.500000  1
  Tb  Tb7  1  0.666667  0.333333  0.500000  1
  Tb  Tb8  1  0.333333  0.666667  0.000000  1
  Lu  Lu9  1  0.666667  0.333333  0.000000  1
  In  In10  1  0.393644  0.000534  0.750285  1
  In  In11  1  0.999466  0.606356  0.249715  1
  In  In12  1  0.606890  0.000534  0.249715  1
  In  In13  1  0.999466  0.393110  0.750285  1
  In  In14  1  0.393644  0.393110  0.249715  1
  In  In15  1  0.606890  0.606356  0.750285  1
  Br  Br16  1  0.000000  0.000000  0.500000  1
  Br  Br17  1  0.000000  0.000000  0.000000  1
