# generated using pymatgen
data_MnSb6Pd
_symmetry_space_group_name_H-M   'P 1'
_cell_length_a   8.12207184
_cell_length_b   8.12207258
_cell_length_c   9.35824036
_cell_angle_alpha   54.85378789
_cell_angle_beta   54.85378634
_cell_angle_gamma   70.62581673
_symmetry_Int_Tables_number   1
_chemical_formula_structural   MnSb6Pd
_chemical_formula_sum   'Mn2 Sb12 Pd2'
_cell_volume   412.76285228
_cell_formula_units_Z   2
loop_
 _symmetry_equiv_pos_site_id
 _symmetry_equiv_pos_as_xyz
  1  'x, y, z'
loop_
 _atom_site_type_symbol
 _atom_site_label
 _atom_site_symmetry_multiplicity
 _atom_site_fract_x
 _atom_site_fract_y
 _atom_site_fract_z
 _atom_site_occupancy
  Mn  Mn0  1  0.500000  0.000000  0.500000  1
  Mn  Mn1  1  0.000000  0.500000  0.500000  1
  Sb  Sb2  1  0.668498  0.668498  0.490942  1
  Sb  Sb3  1  0.331502  0.331502  0.509058  1
  Sb  Sb4  1  0.652231  0.652231  0.194654  1
  Sb  Sb5  1  0.347769  0.347769  0.805346  1
  Sb  Sb6  1  0.164412  0.852149  0.652314  1
  Sb  Sb7  1  0.835588  0.147851  0.347686  1
  Sb  Sb8  1  0.852149  0.164412  0.652314  1
  Sb  Sb9  1  0.147851  0.835588  0.347686  1
  Sb  Sb10  1  0.816715  0.494446  0.835936  1
  Sb  Sb11  1  0.183285  0.505554  0.164064  1
  Sb  Sb12  1  0.505554  0.183285  0.164064  1
  Sb  Sb13  1  0.494446  0.816715  0.835936  1
  Pd  Pd14  1  0.000000  0.500000  0.000000  1
  Pd  Pd15  1  0.500000  0.000000  0.000000  1
