# generated using pymatgen
data_TaNb3(GaC)2
_symmetry_space_group_name_H-M   'P 1'
_cell_length_a   3.16603400
_cell_length_b   3.16603411
_cell_length_c   13.56175000
_cell_angle_alpha   90.00000000
_cell_angle_beta   90.00000000
_cell_angle_gamma   119.99999885
_symmetry_Int_Tables_number   1
_chemical_formula_structural   TaNb3(GaC)2
_chemical_formula_sum   'Ta1 Nb3 Ga2 C2'
_cell_volume   117.72739515
_cell_formula_units_Z   1
loop_
 _symmetry_equiv_pos_site_id
 _symmetry_equiv_pos_as_xyz
  1  'x, y, z'
loop_
 _atom_site_type_symbol
 _atom_site_label
 _atom_site_symmetry_multiplicity
 _atom_site_fract_x
 _atom_site_fract_y
 _atom_site_fract_z
 _atom_site_occupancy
  Ta  Ta0  1  0.333333  0.666667  0.911152  1
  Nb  Nb1  1  0.333333  0.666667  0.589891  1
  Nb  Nb2  1  0.666667  0.333333  0.410701  1
  Nb  Nb3  1  0.666667  0.333333  0.089179  1
  Ga  Ga4  1  0.333333  0.666667  0.250043  1
  Ga  Ga5  1  0.666667  0.333333  0.750203  1
  C  C6  1  0.000000  0.000000  0.998629  1
  C  C7  1  0.000000  0.000000  0.500201  1
