# generated using pymatgen
data_Sr12SiSn7As16
_symmetry_space_group_name_H-M   'P 1'
_cell_length_a   19.33193209
_cell_length_b   7.78915105
_cell_length_c   7.77831387
_cell_angle_alpha   68.01291162
_cell_angle_beta   90.01644107
_cell_angle_gamma   90.06444736
_symmetry_Int_Tables_number   1
_chemical_formula_structural   Sr12SiSn7As16
_chemical_formula_sum   'Sr12 Si1 Sn7 As16'
_cell_volume   1086.06535614
_cell_formula_units_Z   1
loop_
 _symmetry_equiv_pos_site_id
 _symmetry_equiv_pos_as_xyz
  1  'x, y, z'
loop_
 _atom_site_type_symbol
 _atom_site_label
 _atom_site_symmetry_multiplicity
 _atom_site_fract_x
 _atom_site_fract_y
 _atom_site_fract_z
 _atom_site_occupancy
  Sr  Sr0  1  0.817465  0.788801  0.009742  1
  Sr  Sr1  1  0.316560  0.211189  0.487021  1
  Sr  Sr2  1  0.183409  0.214718  0.987597  1
  Sr  Sr3  1  0.682054  0.788941  0.509813  1
  Sr  Sr4  1  0.556916  0.742757  0.010728  1
  Sr  Sr5  1  0.061251  0.258874  0.489014  1
  Sr  Sr6  1  0.438871  0.258185  0.987882  1
  Sr  Sr7  1  0.941244  0.741365  0.510957  1
  Sr  Sr8  1  0.064344  0.735865  0.005283  1
  Sr  Sr9  1  0.557459  0.262270  0.497212  1
  Sr  Sr10  1  0.938248  0.263756  0.995003  1
  Sr  Sr11  1  0.436503  0.735008  0.504701  1
  Si  Si12  1  0.378823  0.793545  0.035278  1
  Sn  Sn13  1  0.877858  0.206725  0.472314  1
  Sn  Sn14  1  0.622008  0.207361  0.972725  1
  Sn  Sn15  1  0.124483  0.793712  0.530094  1
  Sn  Sn16  1  0.245530  0.675438  0.409945  1
  Sn  Sn17  1  0.744030  0.322712  0.090579  1
  Sn  Sn18  1  0.755253  0.321619  0.590067  1
  Sn  Sn19  1  0.266111  0.686886  0.916261  1
  As  As20  1  0.552994  0.996997  0.263235  1
  As  As21  1  0.055219  0.005258  0.240603  1
  As  As22  1  0.437113  0.986308  0.761931  1
  As  As23  1  0.946494  0.994207  0.761710  1
  As  As24  1  0.321292  0.965577  0.202605  1
  As  As25  1  0.817142  0.021330  0.278480  1
  As  As26  1  0.680697  0.021234  0.778506  1
  As  As27  1  0.185478  0.977370  0.724864  1
  As  As28  1  0.430057  0.510617  0.235203  1
  As  As29  1  0.936810  0.510430  0.245537  1
  As  As30  1  0.562091  0.508629  0.744035  1
  As  As31  1  0.063741  0.490621  0.752795  1
  As  As32  1  0.196891  0.472709  0.224571  1
  As  As33  1  0.692326  0.526818  0.272423  1
  As  As34  1  0.805792  0.528435  0.771259  1
  As  As35  1  0.307445  0.473729  0.730027  1
