# generated using pymatgen
data_Dy3Ho4Co2Sn23Os4
_symmetry_space_group_name_H-M   'P 1'
_cell_length_a   9.80007553
_cell_length_b   9.85845456
_cell_length_c   10.04007114
_cell_angle_alpha   90.00000138
_cell_angle_beta   89.76624371
_cell_angle_gamma   120.19726239
_symmetry_Int_Tables_number   1
_chemical_formula_structural   Dy3Ho4Co2Sn23Os4
_chemical_formula_sum   'Dy3 Ho4 Co2 Sn23 Os4'
_cell_volume   838.36693496
_cell_formula_units_Z   1
loop_
 _symmetry_equiv_pos_site_id
 _symmetry_equiv_pos_as_xyz
  1  'x, y, z'
loop_
 _atom_site_type_symbol
 _atom_site_label
 _atom_site_symmetry_multiplicity
 _atom_site_fract_x
 _atom_site_fract_y
 _atom_site_fract_z
 _atom_site_occupancy
  Dy  Dy0  1  0.000000  0.000000  0.000000  1
  Dy  Dy1  1  0.033797  0.516899  0.303861  1
  Dy  Dy2  1  0.966203  0.483101  0.696139  1
  Ho  Ho3  1  0.484988  0.518203  0.305116  1
  Ho  Ho4  1  0.515012  0.481797  0.694884  1
  Ho  Ho5  1  0.484988  0.966786  0.305116  1
  Ho  Ho6  1  0.515012  0.033214  0.694884  1
  Co  Co7  1  0.339217  0.169608  0.200092  1
  Co  Co8  1  0.660783  0.830392  0.799908  1
  Sn  Sn9  1  0.349167  0.002827  0.005022  1
  Sn  Sn10  1  0.650833  0.997173  0.994978  1
  Sn  Sn11  1  0.000000  0.349317  0.000000  1
  Sn  Sn12  1  0.000000  0.650683  0.000000  1
  Sn  Sn13  1  0.650833  0.653659  0.994978  1
  Sn  Sn14  1  0.349167  0.346341  0.005022  1
  Sn  Sn15  1  0.336397  0.668200  0.823159  1
  Sn  Sn16  1  0.663603  0.331800  0.176841  1
  Sn  Sn17  1  0.000000  0.000000  0.500000  1
  Sn  Sn18  1  0.779446  0.220300  0.462123  1
  Sn  Sn19  1  0.220554  0.779700  0.537877  1
  Sn  Sn20  1  0.779446  0.559147  0.462123  1
  Sn  Sn21  1  0.220554  0.440853  0.537877  1
  Sn  Sn22  1  0.438754  0.219377  0.455358  1
  Sn  Sn23  1  0.561246  0.780623  0.544642  1
  Sn  Sn24  1  0.336097  0.668049  0.125995  1
  Sn  Sn25  1  0.663903  0.331951  0.874005  1
  Sn  Sn26  1  0.120587  0.889132  0.276618  1
  Sn  Sn27  1  0.879413  0.110868  0.723382  1
  Sn  Sn28  1  0.120587  0.231455  0.276618  1
  Sn  Sn29  1  0.879413  0.768545  0.723382  1
  Sn  Sn30  1  0.763911  0.881955  0.277583  1
  Sn  Sn31  1  0.236089  0.118045  0.722417  1
  Os  Os32  1  0.828933  0.168111  0.201043  1
  Os  Os33  1  0.171067  0.831889  0.798957  1
  Os  Os34  1  0.828933  0.660821  0.201043  1
  Os  Os35  1  0.171067  0.339179  0.798957  1
