# generated using pymatgen
data_SrAl2(SeO3)4
_symmetry_space_group_name_H-M   'P 1'
_cell_length_a   7.16768373
_cell_length_b   5.29901600
_cell_length_c   7.07367694
_cell_angle_alpha   90.00000000
_cell_angle_beta   91.43166603
_cell_angle_gamma   90.00000000
_symmetry_Int_Tables_number   1
_chemical_formula_structural   SrAl2(SeO3)4
_chemical_formula_sum   'Sr1 Al2 Se4 O12'
_cell_volume   268.58619895
_cell_formula_units_Z   1
loop_
 _symmetry_equiv_pos_site_id
 _symmetry_equiv_pos_as_xyz
  1  'x, y, z'
loop_
 _atom_site_type_symbol
 _atom_site_label
 _atom_site_symmetry_multiplicity
 _atom_site_fract_x
 _atom_site_fract_y
 _atom_site_fract_z
 _atom_site_occupancy
  Sr  Sr0  1  0.500001  0.500000  0.500001  1
  Al  Al1  1  0.499999  0.000000  0.999999  1
  Al  Al2  1  0.000000  0.500000  0.500000  1
  Se  Se3  1  0.722416  0.500000  0.087749  1
  Se  Se4  1  0.107470  0.000000  0.290316  1
  Se  Se5  1  0.892530  0.000000  0.709683  1
  Se  Se6  1  0.277584  0.500000  0.912251  1
  O  O7  1  0.257452  0.000000  0.107472  1
  O  O8  1  0.584078  0.257181  0.177284  1
  O  O9  1  0.584078  0.742819  0.177284  1
  O  O10  1  0.911726  0.500000  0.240491  1
  O  O11  1  0.185084  0.251173  0.432924  1
  O  O12  1  0.185084  0.748829  0.432924  1
  O  O13  1  0.814916  0.251173  0.567076  1
  O  O14  1  0.814916  0.748829  0.567076  1
  O  O15  1  0.088276  0.500000  0.759510  1
  O  O16  1  0.415922  0.257181  0.822716  1
  O  O17  1  0.415922  0.742819  0.822716  1
  O  O18  1  0.742548  0.000000  0.892528  1
