# generated using pymatgen
data_LuThP7Ru12
_symmetry_space_group_name_H-M   'P 1'
_cell_length_a   9.46182400
_cell_length_b   9.46182441
_cell_length_c   3.95352600
_cell_angle_alpha   90.00000000
_cell_angle_beta   90.00000000
_cell_angle_gamma   119.99999158
_symmetry_Int_Tables_number   1
_chemical_formula_structural   LuThP7Ru12
_chemical_formula_sum   'Lu1 Th1 P7 Ru12'
_cell_volume   306.52437634
_cell_formula_units_Z   1
loop_
 _symmetry_equiv_pos_site_id
 _symmetry_equiv_pos_as_xyz
  1  'x, y, z'
loop_
 _atom_site_type_symbol
 _atom_site_label
 _atom_site_symmetry_multiplicity
 _atom_site_fract_x
 _atom_site_fract_y
 _atom_site_fract_z
 _atom_site_occupancy
  Lu  Lu0  1  0.666667  0.333333  0.500000  1
  Th  Th1  1  0.333333  0.666667  0.000000  1
  P  P2  1  0.606268  0.717410  0.500000  1
  P  P3  1  0.000000  0.000000  0.000000  1
  P  P4  1  0.282590  0.888858  0.500000  1
  P  P5  1  0.111142  0.393732  0.500000  1
  P  P6  1  0.885205  0.572126  0.000000  1
  P  P7  1  0.427874  0.313079  0.000000  1
  P  P8  1  0.686921  0.114795  0.000000  1
  Ru  Ru9  1  0.557091  0.950852  0.500000  1
  Ru  Ru10  1  0.393762  0.442909  0.500000  1
  Ru  Ru11  1  0.913061  0.119598  0.500000  1
  Ru  Ru12  1  0.206537  0.086939  0.500000  1
  Ru  Ru13  1  0.880402  0.793463  0.500000  1
  Ru  Ru14  1  0.727352  0.891388  0.000000  1
  Ru  Ru15  1  0.108612  0.835963  0.000000  1
  Ru  Ru16  1  0.164037  0.272648  0.000000  1
  Ru  Ru17  1  0.425288  0.070953  0.000000  1
  Ru  Ru18  1  0.929047  0.354335  0.000000  1
  Ru  Ru19  1  0.645665  0.574712  0.000000  1
  Ru  Ru20  1  0.049148  0.606238  0.500000  1
