# generated using pymatgen
data_Dy4Mn6V3Fe11P12
_symmetry_space_group_name_H-M   'P 1'
_cell_length_a   3.64988000
_cell_length_b   10.35337332
_cell_length_c   12.14642716
_cell_angle_alpha   89.80605861
_cell_angle_beta   90.00000000
_cell_angle_gamma   90.00000000
_symmetry_Int_Tables_number   1
_chemical_formula_structural   Dy4Mn6V3Fe11P12
_chemical_formula_sum   'Dy4 Mn6 V3 Fe11 P12'
_cell_volume   458.99348580
_cell_formula_units_Z   1
loop_
 _symmetry_equiv_pos_site_id
 _symmetry_equiv_pos_as_xyz
  1  'x, y, z'
loop_
 _atom_site_type_symbol
 _atom_site_label
 _atom_site_symmetry_multiplicity
 _atom_site_fract_x
 _atom_site_fract_y
 _atom_site_fract_z
 _atom_site_occupancy
  Dy  Dy0  1  0.250000  0.580205  0.710774  1
  Dy  Dy1  1  0.250000  0.914974  0.211853  1
  Dy  Dy2  1  0.750000  0.423579  0.290799  1
  Dy  Dy3  1  0.750000  0.082264  0.788626  1
  Mn  Mn4  1  0.750000  0.205386  0.507453  1
  Mn  Mn5  1  0.250000  0.408628  0.492522  1
  Mn  Mn6  1  0.250000  0.089900  0.990504  1
  Mn  Mn7  1  0.750000  0.590567  0.509418  1
  Mn  Mn8  1  0.750000  0.904256  0.008020  1
  Mn  Mn9  1  0.250000  0.216174  0.176611  1
  V  V10  1  0.250000  0.699717  0.991927  1
  V  V11  1  0.250000  0.799598  0.491977  1
  V  V12  1  0.750000  0.298350  0.008510  1
  Fe  Fe13  1  0.250000  0.279064  0.671766  1
  Fe  Fe14  1  0.750000  0.782886  0.825141  1
  Fe  Fe15  1  0.750000  0.719591  0.327191  1
  Fe  Fe16  1  0.250000  0.875990  0.697092  1
  Fe  Fe17  1  0.250000  0.623340  0.195882  1
  Fe  Fe18  1  0.750000  0.125455  0.301115  1
  Fe  Fe19  1  0.750000  0.376774  0.804072  1
  Fe  Fe20  1  0.250000  0.463950  0.934502  1
  Fe  Fe21  1  0.250000  0.039196  0.434629  1
  Fe  Fe22  1  0.750000  0.535416  0.064592  1
  Fe  Fe23  1  0.750000  0.965577  0.564936  1
  P  P24  1  0.250000  0.426147  0.112613  1
  P  P25  1  0.250000  0.076870  0.611965  1
  P  P26  1  0.750000  0.575773  0.886976  1
  P  P27  1  0.750000  0.923198  0.387868  1
  P  P28  1  0.250000  0.269169  0.861562  1
  P  P29  1  0.250000  0.236000  0.368312  1
  P  P30  1  0.750000  0.729078  0.138670  1
  P  P31  1  0.750000  0.769151  0.635609  1
  P  P32  1  0.250000  0.603571  0.381793  1
  P  P33  1  0.250000  0.899421  0.882047  1
  P  P34  1  0.750000  0.396556  0.619003  1
  P  P35  1  0.750000  0.094233  0.113667  1
