# generated using pymatgen
data_YbPr17(DyIr6)2
_symmetry_space_group_name_H-M   'P 1'
_cell_length_a   11.30471600
_cell_length_b   11.30471600
_cell_length_c   6.56940500
_cell_angle_alpha   90.00000000
_cell_angle_beta   90.00000000
_cell_angle_gamma   90.00000000
_symmetry_Int_Tables_number   1
_chemical_formula_structural   YbPr17(DyIr6)2
_chemical_formula_sum   'Yb1 Pr17 Dy2 Ir12'
_cell_volume   839.54764825
_cell_formula_units_Z   1
loop_
 _symmetry_equiv_pos_site_id
 _symmetry_equiv_pos_as_xyz
  1  'x, y, z'
loop_
 _atom_site_type_symbol
 _atom_site_label
 _atom_site_symmetry_multiplicity
 _atom_site_fract_x
 _atom_site_fract_y
 _atom_site_fract_z
 _atom_site_occupancy
  Yb  Yb0  1  0.500000  0.500000  0.000000  1
  Pr  Pr1  1  0.287948  0.088870  0.383985  1
  Pr  Pr2  1  0.288720  0.912502  0.883371  1
  Pr  Pr3  1  0.711280  0.087498  0.883371  1
  Pr  Pr4  1  0.712052  0.911130  0.383985  1
  Pr  Pr5  1  0.587378  0.787734  0.884594  1
  Pr  Pr6  1  0.588791  0.208701  0.384437  1
  Pr  Pr7  1  0.411209  0.791299  0.384437  1
  Pr  Pr8  1  0.412622  0.212266  0.884594  1
  Pr  Pr9  1  0.208701  0.411209  0.615563  1
  Pr  Pr10  1  0.212266  0.587378  0.115406  1
  Pr  Pr11  1  0.787734  0.412622  0.115406  1
  Pr  Pr12  1  0.791299  0.588791  0.615563  1
  Pr  Pr13  1  0.912502  0.711280  0.116629  1
  Pr  Pr14  1  0.911130  0.287948  0.616015  1
  Pr  Pr15  1  0.088870  0.712052  0.616015  1
  Pr  Pr16  1  0.087498  0.288720  0.116629  1
  Pr  Pr17  1  0.500000  0.500000  0.500000  1
  Dy  Dy18  1  0.000000  0.000000  0.500000  1
  Dy  Dy19  1  0.000000  0.000000  0.000000  1
  Ir  Ir20  1  0.852054  0.148062  0.249064  1
  Ir  Ir21  1  0.851938  0.852054  0.750936  1
  Ir  Ir22  1  0.148062  0.147946  0.750936  1
  Ir  Ir23  1  0.147946  0.851938  0.249064  1
  Ir  Ir24  1  0.654968  0.345434  0.748059  1
  Ir  Ir25  1  0.654566  0.654968  0.251941  1
  Ir  Ir26  1  0.345434  0.345032  0.251941  1
  Ir  Ir27  1  0.345032  0.654566  0.748059  1
  Ir  Ir28  1  0.500000  0.000000  0.116660  1
  Ir  Ir29  1  0.500000  0.000000  0.618428  1
  Ir  Ir30  1  0.000000  0.500000  0.883340  1
  Ir  Ir31  1  0.000000  0.500000  0.381572  1
