# generated using pymatgen
data_Y24CoTc7
_symmetry_space_group_name_H-M   'P 1'
_cell_length_a   6.33223783
_cell_length_b   9.24643800
_cell_length_c   14.71085693
_cell_angle_alpha   90.00000000
_cell_angle_beta   90.24007915
_cell_angle_gamma   90.00000000
_symmetry_Int_Tables_number   1
_chemical_formula_structural   Y24CoTc7
_chemical_formula_sum   'Y24 Co1 Tc7'
_cell_volume   861.32259262
_cell_formula_units_Z   1
loop_
 _symmetry_equiv_pos_site_id
 _symmetry_equiv_pos_as_xyz
  1  'x, y, z'
loop_
 _atom_site_type_symbol
 _atom_site_label
 _atom_site_symmetry_multiplicity
 _atom_site_fract_x
 _atom_site_fract_y
 _atom_site_fract_z
 _atom_site_occupancy
  Y  Y0  1  0.539421  0.750000  0.355686  1
  Y  Y1  1  0.036090  0.250000  0.145933  1
  Y  Y2  1  0.465932  0.250000  0.644492  1
  Y  Y3  1  0.968095  0.750000  0.849602  1
  Y  Y4  1  0.779048  0.750000  0.105693  1
  Y  Y5  1  0.276590  0.250000  0.394471  1
  Y  Y6  1  0.220894  0.250000  0.891198  1
  Y  Y7  1  0.728789  0.750000  0.608749  1
  Y  Y8  1  0.429678  0.934492  0.784949  1
  Y  Y9  1  0.925681  0.067224  0.712835  1
  Y  Y10  1  0.565643  0.435114  0.210455  1
  Y  Y11  1  0.063213  0.565318  0.287327  1
  Y  Y12  1  0.565643  0.064886  0.210455  1
  Y  Y13  1  0.063213  0.934682  0.287327  1
  Y  Y14  1  0.429678  0.565508  0.784949  1
  Y  Y15  1  0.925681  0.432776  0.712835  1
  Y  Y16  1  0.243403  0.935049  0.540917  1
  Y  Y17  1  0.740201  0.062174  0.963945  1
  Y  Y18  1  0.761343  0.437007  0.465870  1
  Y  Y19  1  0.258206  0.564094  0.034264  1
  Y  Y20  1  0.761343  0.062993  0.465870  1
  Y  Y21  1  0.258206  0.935906  0.034264  1
  Y  Y22  1  0.243403  0.564951  0.540917  1
  Y  Y23  1  0.740201  0.437826  0.963945  1
  Co  Co24  1  0.139202  0.750000  0.683559  1
  Tc  Tc25  1  0.939129  0.750000  0.442882  1
  Tc  Tc26  1  0.431332  0.250000  0.059956  1
  Tc  Tc27  1  0.068217  0.250000  0.564209  1
  Tc  Tc28  1  0.571303  0.750000  0.934860  1
  Tc  Tc29  1  0.360340  0.750000  0.183119  1
  Tc  Tc30  1  0.857814  0.250000  0.317676  1
  Tc  Tc31  1  0.643068  0.250000  0.816788  1
