# generated using pymatgen
data_Tb6Al25Os7
_symmetry_space_group_name_H-M   'P 1'
_cell_length_a   8.88939821
_cell_length_b   8.88939763
_cell_length_c   9.57887734
_cell_angle_alpha   90.28036115
_cell_angle_beta   89.71964179
_cell_angle_gamma   119.93841050
_symmetry_Int_Tables_number   1
_chemical_formula_structural   Tb6Al25Os7
_chemical_formula_sum   'Tb6 Al25 Os7'
_cell_volume   655.92199954
_cell_formula_units_Z   1
loop_
 _symmetry_equiv_pos_site_id
 _symmetry_equiv_pos_as_xyz
  1  'x, y, z'
loop_
 _atom_site_type_symbol
 _atom_site_label
 _atom_site_symmetry_multiplicity
 _atom_site_fract_x
 _atom_site_fract_y
 _atom_site_fract_z
 _atom_site_occupancy
  Tb  Tb0  1  0.192234  0.384171  0.245007  1
  Tb  Tb1  1  0.807766  0.615829  0.754993  1
  Tb  Tb2  1  0.615829  0.807766  0.245007  1
  Tb  Tb3  1  0.384171  0.192234  0.754993  1
  Tb  Tb4  1  0.193233  0.806767  0.256207  1
  Tb  Tb5  1  0.806767  0.193233  0.743793  1
  Al  Al6  1  0.326531  0.673469  0.021450  1
  Al  Al7  1  0.673469  0.326531  0.978550  1
  Al  Al8  1  0.666013  0.333987  0.517239  1
  Al  Al9  1  0.333987  0.666013  0.482761  1
  Al  Al10  1  0.162614  0.325739  0.570960  1
  Al  Al11  1  0.837386  0.674261  0.429040  1
  Al  Al12  1  0.674261  0.837386  0.570960  1
  Al  Al13  1  0.851837  0.678037  0.081783  1
  Al  Al14  1  0.325739  0.162614  0.429040  1
  Al  Al15  1  0.148163  0.321963  0.918217  1
  Al  Al16  1  0.162844  0.837156  0.576033  1
  Al  Al17  1  0.321963  0.148163  0.081783  1
  Al  Al18  1  0.837156  0.162844  0.423967  1
  Al  Al19  1  0.678037  0.851837  0.918217  1
  Al  Al20  1  0.836932  0.163068  0.076297  1
  Al  Al21  1  0.163068  0.836932  0.923703  1
  Al  Al22  1  0.562265  0.121071  0.249582  1
  Al  Al23  1  0.437735  0.878929  0.750418  1
  Al  Al24  1  0.878929  0.437735  0.249582  1
  Al  Al25  1  0.121071  0.562265  0.750418  1
  Al  Al26  1  0.565599  0.434401  0.258996  1
  Al  Al27  1  0.434401  0.565599  0.741004  1
  Al  Al28  1  0.998904  0.001096  0.250761  1
  Al  Al29  1  0.001096  0.998904  0.749239  1
  Al  Al30  1  0.500000  0.500000  0.000000  1
  Os  Os31  1  0.500000  0.000000  0.000000  1
  Os  Os32  1  0.000000  0.500000  0.000000  1
  Os  Os33  1  0.500000  0.000000  0.500000  1
  Os  Os34  1  0.000000  0.500000  0.500000  1
  Os  Os35  1  0.500000  0.500000  0.500000  1
  Os  Os36  1  0.000000  0.000000  0.000000  1
  Os  Os37  1  0.000000  0.000000  0.500000  1
