# generated using pymatgen
data_Ba10InSi4Sb
_symmetry_space_group_name_H-M   'P 1'
_cell_length_a   8.62421100
_cell_length_b   8.62421100
_cell_length_c   17.38744000
_cell_angle_alpha   90.00000000
_cell_angle_beta   90.00000000
_cell_angle_gamma   90.00000000
_symmetry_Int_Tables_number   1
_chemical_formula_structural   Ba10InSi4Sb
_chemical_formula_sum   'Ba20 In2 Si8 Sb2'
_cell_volume   1293.22589217
_cell_formula_units_Z   2
loop_
 _symmetry_equiv_pos_site_id
 _symmetry_equiv_pos_as_xyz
  1  'x, y, z'
loop_
 _atom_site_type_symbol
 _atom_site_label
 _atom_site_symmetry_multiplicity
 _atom_site_fract_x
 _atom_site_fract_y
 _atom_site_fract_z
 _atom_site_occupancy
  Ba  Ba0  1  0.310382  0.672105  0.112716  1
  Ba  Ba1  1  0.172105  0.189618  0.112716  1
  Ba  Ba2  1  0.500000  0.000000  0.724874  1
  Ba  Ba3  1  0.333833  0.682657  0.388957  1
  Ba  Ba4  1  0.672105  0.689618  0.887284  1
  Ba  Ba5  1  0.182657  0.166167  0.388957  1
  Ba  Ba6  1  0.666167  0.317343  0.388957  1
  Ba  Ba7  1  0.166167  0.817343  0.611043  1
  Ba  Ba8  1  0.327895  0.310382  0.887284  1
  Ba  Ba9  1  0.189618  0.827895  0.887284  1
  Ba  Ba10  1  0.500000  0.000000  0.241303  1
  Ba  Ba11  1  0.833833  0.182657  0.611043  1
  Ba  Ba12  1  0.317343  0.333833  0.611043  1
  Ba  Ba13  1  0.817343  0.833833  0.388957  1
  Ba  Ba14  1  0.810382  0.172105  0.887284  1
  Ba  Ba15  1  0.827895  0.810382  0.112716  1
  Ba  Ba16  1  0.000000  0.500000  0.275126  1
  Ba  Ba17  1  0.000000  0.500000  0.758697  1
  Ba  Ba18  1  0.689618  0.327895  0.112716  1
  Ba  Ba19  1  0.682657  0.666167  0.611043  1
  In  In20  1  0.500000  0.000000  0.507263  1
  In  In21  1  0.000000  0.500000  0.492737  1
  Si  Si22  1  0.100988  0.100285  0.752264  1
  Si  Si23  1  0.399715  0.600988  0.752264  1
  Si  Si24  1  0.600988  0.600285  0.247736  1
  Si  Si25  1  0.100285  0.899012  0.247736  1
  Si  Si26  1  0.600285  0.399012  0.752264  1
  Si  Si27  1  0.899012  0.899715  0.752264  1
  Si  Si28  1  0.399012  0.399715  0.247736  1
  Si  Si29  1  0.899715  0.100988  0.247736  1
  Sb  Sb30  1  0.000000  0.500000  0.986012  1
  Sb  Sb31  1  0.500000  0.000000  0.013988  1
