# generated using pymatgen
data_Tm3Mn7CrCoP6
_symmetry_space_group_name_H-M   'P 1'
_cell_length_a   3.61739600
_cell_length_b   10.82859700
_cell_length_c   12.58395300
_cell_angle_alpha   90.00000000
_cell_angle_beta   90.00000000
_cell_angle_gamma   90.00000000
_symmetry_Int_Tables_number   1
_chemical_formula_structural   Tm3Mn7CrCoP6
_chemical_formula_sum   'Tm6 Mn14 Cr2 Co2 P12'
_cell_volume   492.93009354
_cell_formula_units_Z   2
loop_
 _symmetry_equiv_pos_site_id
 _symmetry_equiv_pos_as_xyz
  1  'x, y, z'
loop_
 _atom_site_type_symbol
 _atom_site_label
 _atom_site_symmetry_multiplicity
 _atom_site_fract_x
 _atom_site_fract_y
 _atom_site_fract_z
 _atom_site_occupancy
  Tm  Tm0  1  0.000000  0.500000  0.531960  1
  Tm  Tm1  1  0.500000  0.000000  0.468040  1
  Tm  Tm2  1  0.500000  0.822872  0.206510  1
  Tm  Tm3  1  0.500000  0.177128  0.206510  1
  Tm  Tm4  1  0.000000  0.677128  0.793490  1
  Tm  Tm5  1  0.000000  0.322872  0.793490  1
  Mn  Mn6  1  0.000000  0.500000  0.992456  1
  Mn  Mn7  1  0.500000  0.000000  0.007544  1
  Mn  Mn8  1  0.500000  0.332412  0.995979  1
  Mn  Mn9  1  0.500000  0.667588  0.995979  1
  Mn  Mn10  1  0.000000  0.167588  0.004021  1
  Mn  Mn11  1  0.000000  0.832412  0.004021  1
  Mn  Mn12  1  0.500000  0.298012  0.433019  1
  Mn  Mn13  1  0.500000  0.701988  0.433019  1
  Mn  Mn14  1  0.000000  0.201988  0.566981  1
  Mn  Mn15  1  0.000000  0.798012  0.566981  1
  Mn  Mn16  1  0.500000  0.879442  0.701822  1
  Mn  Mn17  1  0.500000  0.120558  0.701822  1
  Mn  Mn18  1  0.000000  0.620558  0.298178  1
  Mn  Mn19  1  0.000000  0.379442  0.298178  1
  Cr  Cr20  1  0.500000  0.500000  0.162911  1
  Cr  Cr21  1  0.000000  0.000000  0.837089  1
  Co  Co22  1  0.500000  0.500000  0.704863  1
  Co  Co23  1  0.000000  0.000000  0.295137  1
  P  P24  1  0.500000  0.500000  0.879302  1
  P  P25  1  0.000000  0.000000  0.120698  1
  P  P26  1  0.500000  0.500000  0.358625  1
  P  P27  1  0.000000  0.000000  0.641375  1
  P  P28  1  0.500000  0.319256  0.619268  1
  P  P29  1  0.500000  0.680744  0.619268  1
  P  P30  1  0.000000  0.180744  0.380732  1
  P  P31  1  0.000000  0.819256  0.380732  1
  P  P32  1  0.500000  0.845268  0.883981  1
  P  P33  1  0.500000  0.154732  0.883981  1
  P  P34  1  0.000000  0.654732  0.116019  1
  P  P35  1  0.000000  0.345268  0.116019  1
