# generated using pymatgen
data_Dy9Mg(HgPt2)2
_symmetry_space_group_name_H-M   'P 1'
_cell_length_a   8.65216315
_cell_length_b   8.65216331
_cell_length_c   8.65216360
_cell_angle_alpha   126.39332573
_cell_angle_beta   126.39332774
_cell_angle_gamma   79.24263400
_symmetry_Int_Tables_number   1
_chemical_formula_structural   Dy9Mg(HgPt2)2
_chemical_formula_sum   'Dy9 Mg1 Hg2 Pt4'
_cell_volume   405.78673188
_cell_formula_units_Z   1
loop_
 _symmetry_equiv_pos_site_id
 _symmetry_equiv_pos_as_xyz
  1  'x, y, z'
loop_
 _atom_site_type_symbol
 _atom_site_label
 _atom_site_symmetry_multiplicity
 _atom_site_fract_x
 _atom_site_fract_y
 _atom_site_fract_z
 _atom_site_occupancy
  Dy  Dy0  1  0.500000  0.500000  0.000000  1
  Dy  Dy1  1  0.813966  0.282673  0.826143  1
  Dy  Dy2  1  0.186034  0.717327  0.173857  1
  Dy  Dy3  1  0.456530  0.987824  0.173857  1
  Dy  Dy4  1  0.282673  0.456530  0.468707  1
  Dy  Dy5  1  0.012176  0.186034  0.468707  1
  Dy  Dy6  1  0.543470  0.012176  0.826143  1
  Dy  Dy7  1  0.717327  0.543470  0.531293  1
  Dy  Dy8  1  0.987824  0.813966  0.531293  1
  Mg  Mg9  1  0.000000  0.000000  0.000000  1
  Hg  Hg10  1  0.255741  0.255741  0.000000  1
  Hg  Hg11  1  0.744259  0.744259  0.000000  1
  Pt  Pt12  1  0.141149  0.631173  0.772323  1
  Pt  Pt13  1  0.858851  0.368827  0.227677  1
  Pt  Pt14  1  0.631173  0.858851  0.490024  1
  Pt  Pt15  1  0.368827  0.141149  0.509976  1
