# generated using pymatgen
data_Tm20Ir7Ru4Au
_symmetry_space_group_name_H-M   'P 1'
_cell_length_a   10.71248302
_cell_length_b   10.71248302
_cell_length_c   6.38180394
_cell_angle_alpha   90.06312935
_cell_angle_beta   90.06312935
_cell_angle_gamma   89.73149823
_symmetry_Int_Tables_number   1
_chemical_formula_structural   Tm20Ir7Ru4Au
_chemical_formula_sum   'Tm20 Ir7 Ru4 Au1'
_cell_volume   732.34961441
_cell_formula_units_Z   1
loop_
 _symmetry_equiv_pos_site_id
 _symmetry_equiv_pos_as_xyz
  1  'x, y, z'
loop_
 _atom_site_type_symbol
 _atom_site_label
 _atom_site_symmetry_multiplicity
 _atom_site_fract_x
 _atom_site_fract_y
 _atom_site_fract_z
 _atom_site_occupancy
  Tm  Tm0  1  0.291957  0.085302  0.376332  1
  Tm  Tm1  1  0.294712  0.913400  0.876877  1
  Tm  Tm2  1  0.701856  0.082748  0.863962  1
  Tm  Tm3  1  0.703380  0.906710  0.380961  1
  Tm  Tm4  1  0.585849  0.792729  0.878011  1
  Tm  Tm5  1  0.577601  0.207225  0.377875  1
  Tm  Tm6  1  0.412386  0.792688  0.377537  1
  Tm  Tm7  1  0.412865  0.206633  0.878382  1
  Tm  Tm8  1  0.207271  0.414151  0.621989  1
  Tm  Tm9  1  0.207312  0.587614  0.122463  1
  Tm  Tm10  1  0.792775  0.422399  0.122125  1
  Tm  Tm11  1  0.793367  0.587135  0.621618  1
  Tm  Tm12  1  0.914698  0.708043  0.123668  1
  Tm  Tm13  1  0.917252  0.298144  0.636038  1
  Tm  Tm14  1  0.086600  0.705288  0.623123  1
  Tm  Tm15  1  0.093290  0.296620  0.119039  1
  Tm  Tm16  1  0.003417  0.995507  0.503361  1
  Tm  Tm17  1  0.004493  0.996583  0.996639  1
  Tm  Tm18  1  0.499393  0.500204  0.999177  1
  Tm  Tm19  1  0.499796  0.500607  0.500823  1
  Ir  Ir20  1  0.848181  0.848573  0.750628  1
  Ir  Ir21  1  0.151427  0.151819  0.749372  1
  Ir  Ir22  1  0.153386  0.846614  0.250000  1
  Ir  Ir23  1  0.653721  0.346279  0.750000  1
  Ir  Ir24  1  0.652326  0.652199  0.249632  1
  Ir  Ir25  1  0.347801  0.347674  0.250368  1
  Ir  Ir26  1  0.347197  0.652803  0.750000  1
  Ru  Ru27  1  0.500390  0.999526  0.125380  1
  Ru  Ru28  1  0.499494  0.999370  0.623082  1
  Ru  Ru29  1  0.000630  0.500506  0.876918  1
  Ru  Ru30  1  0.000474  0.499610  0.374620  1
  Au  Au31  1  0.844703  0.155297  0.250000  1
