# generated using pymatgen
data_Ti8Al15Fe2CuRh4
_symmetry_space_group_name_H-M   'P 1'
_cell_length_a   8.63107471
_cell_length_b   8.57066683
_cell_length_c   8.62032764
_cell_angle_alpha   119.92331465
_cell_angle_beta   119.86340534
_cell_angle_gamma   90.10777926
_symmetry_Int_Tables_number   1
_chemical_formula_structural   Ti8Al15Fe2CuRh4
_chemical_formula_sum   'Ti8 Al15 Fe2 Cu1 Rh4'
_cell_volume   451.93611388
_cell_formula_units_Z   1
loop_
 _symmetry_equiv_pos_site_id
 _symmetry_equiv_pos_as_xyz
  1  'x, y, z'
loop_
 _atom_site_type_symbol
 _atom_site_label
 _atom_site_symmetry_multiplicity
 _atom_site_fract_x
 _atom_site_fract_y
 _atom_site_fract_z
 _atom_site_occupancy
  Ti  Ti0  1  0.782073  0.287871  0.071726  1
  Ti  Ti1  1  0.219165  0.286700  0.503519  1
  Ti  Ti2  1  0.213831  0.718578  0.509637  1
  Ti  Ti3  1  0.221691  0.719760  0.925462  1
  Ti  Ti4  1  0.788808  0.716704  0.497230  1
  Ti  Ti5  1  0.776933  0.276013  0.492342  1
  Ti  Ti6  1  0.390971  0.129801  0.759149  1
  Ti  Ti7  1  0.383415  0.632299  0.250249  1
  Al  Al8  1  0.996603  0.495063  0.499123  1
  Al  Al9  1  0.151897  0.349430  0.198301  1
  Al  Al10  1  0.161608  0.972386  0.816895  1
  Al  Al11  1  0.156078  0.347505  0.806597  1
  Al  Al12  1  0.538088  0.342766  0.189749  1
  Al  Al13  1  0.847718  0.649852  0.802246  1
  Al  Al14  1  0.837694  0.033663  0.185133  1
  Al  Al15  1  0.837012  0.651826  0.183913  1
  Al  Al16  1  0.469937  0.657064  0.817569  1
  Al  Al17  1  0.379012  0.120769  0.253857  1
  Al  Al18  1  0.863585  0.124310  0.748369  1
  Al  Al19  1  0.613816  0.871785  0.245163  1
  Al  Al20  1  0.618840  0.367759  0.747867  1
  Al  Al21  1  0.617712  0.877454  0.743815  1
  Al  Al22  1  0.136887  0.876292  0.254836  1
  Fe  Fe23  1  0.496831  0.999820  0.995374  1
  Fe  Fe24  1  0.496328  0.498547  0.004071  1
  Cu  Cu25  1  0.002553  0.999365  0.500375  1
  Rh  Rh26  1  0.499012  0.498628  0.498577  1
  Rh  Rh27  1  0.001046  0.498935  0.000281  1
  Rh  Rh28  1  0.999413  0.999748  0.999775  1
  Rh  Rh29  1  0.501439  0.999306  0.498800  1
