# generated using pymatgen
data_PrSn6RuRh3
_symmetry_space_group_name_H-M   'P 1'
_cell_length_a   6.99538020
_cell_length_b   6.94380512
_cell_length_c   6.93624021
_cell_angle_alpha   90.46760443
_cell_angle_beta   119.45386461
_cell_angle_gamma   119.48974177
_symmetry_Int_Tables_number   1
_chemical_formula_structural   PrSn6RuRh3
_chemical_formula_sum   'Pr1 Sn6 Ru1 Rh3'
_cell_volume   241.05169669
_cell_formula_units_Z   1
loop_
 _symmetry_equiv_pos_site_id
 _symmetry_equiv_pos_as_xyz
  1  'x, y, z'
loop_
 _atom_site_type_symbol
 _atom_site_label
 _atom_site_symmetry_multiplicity
 _atom_site_fract_x
 _atom_site_fract_y
 _atom_site_fract_z
 _atom_site_occupancy
  Pr  Pr0  1  0.000000  0.998297  0.002400  1
  Sn  Sn1  1  0.656985  0.129471  0.125369  1
  Sn  Sn2  1  0.343015  0.472487  0.468385  1
  Sn  Sn3  1  0.000000  0.872911  0.528225  1
  Sn  Sn4  1  0.000000  0.529308  0.874067  1
  Sn  Sn5  1  0.501863  0.498749  0.998043  1
  Sn  Sn6  1  0.498137  0.996886  0.496180  1
  Ru  Ru7  1  0.000000  0.597675  0.245320  1
  Rh  Rh8  1  0.360936  0.760616  0.762138  1
  Rh  Rh9  1  0.639064  0.399680  0.401202  1
  Rh  Rh10  1  0.000000  0.243921  0.598672  1
