# generated using pymatgen
data_Ho6Zn4Pt13
_symmetry_space_group_name_H-M   'P 1'
_cell_length_a   8.24852083
_cell_length_b   8.24852127
_cell_length_c   8.24852100
_cell_angle_alpha   109.47121997
_cell_angle_beta   109.47122105
_cell_angle_gamma   109.47122609
_symmetry_Int_Tables_number   1
_chemical_formula_structural   Ho6Zn4Pt13
_chemical_formula_sum   'Ho6 Zn4 Pt13'
_cell_volume   432.02247440
_cell_formula_units_Z   1
loop_
 _symmetry_equiv_pos_site_id
 _symmetry_equiv_pos_as_xyz
  1  'x, y, z'
loop_
 _atom_site_type_symbol
 _atom_site_label
 _atom_site_symmetry_multiplicity
 _atom_site_fract_x
 _atom_site_fract_y
 _atom_site_fract_z
 _atom_site_occupancy
  Ho  Ho0  1  0.698136  0.698136  0.000000  1
  Ho  Ho1  1  0.301864  0.000000  0.301864  1
  Ho  Ho2  1  0.000000  0.301864  0.301864  1
  Ho  Ho3  1  0.301864  0.301864  0.000000  1
  Ho  Ho4  1  0.698136  0.000000  0.698136  1
  Ho  Ho5  1  0.000000  0.698136  0.698136  1
  Zn  Zn6  1  0.000000  0.000000  0.500000  1
  Zn  Zn7  1  0.000000  0.500000  0.000000  1
  Zn  Zn8  1  0.500000  0.000000  0.000000  1
  Zn  Zn9  1  0.500000  0.500000  0.500000  1
  Pt  Pt10  1  0.331405  0.331405  0.662810  1
  Pt  Pt11  1  0.668595  0.000000  0.331405  1
  Pt  Pt12  1  0.000000  0.668595  0.331405  1
  Pt  Pt13  1  0.668595  0.331405  0.000000  1
  Pt  Pt14  1  0.331405  0.662810  0.331405  1
  Pt  Pt15  1  0.000000  0.331405  0.668595  1
  Pt  Pt16  1  0.331405  0.668595  0.000000  1
  Pt  Pt17  1  0.331405  0.000000  0.668595  1
  Pt  Pt18  1  0.662810  0.331405  0.331405  1
  Pt  Pt19  1  0.668595  0.668595  0.337190  1
  Pt  Pt20  1  0.668595  0.337190  0.668595  1
  Pt  Pt21  1  0.337190  0.668595  0.668595  1
  Pt  Pt22  1  0.000000  0.000000  0.000000  1
