# generated using pymatgen
data_ThSbF36
_symmetry_space_group_name_H-M   'P 1'
_cell_length_a   6.43862310
_cell_length_b   10.85161600
_cell_length_c   10.97070418
_cell_angle_alpha   93.68350739
_cell_angle_beta   100.94736642
_cell_angle_gamma   74.73709139
_symmetry_Int_Tables_number   1
_chemical_formula_structural   ThSbF36
_chemical_formula_sum   'Th1 Sb1 F36'
_cell_volume   725.94144259
_cell_formula_units_Z   1
loop_
 _symmetry_equiv_pos_site_id
 _symmetry_equiv_pos_as_xyz
  1  'x, y, z'
loop_
 _atom_site_type_symbol
 _atom_site_label
 _atom_site_symmetry_multiplicity
 _atom_site_fract_x
 _atom_site_fract_y
 _atom_site_fract_z
 _atom_site_occupancy
  Th  Th0  1  0.734197  0.844135  0.871818  1
  Sb  Sb1  1  0.331228  0.152167  0.150206  1
  F  F2  1  0.323250  0.416356  0.883616  1
  F  F3  1  0.615417  0.634525  0.121128  1
  F  F4  1  0.320861  0.280889  0.594964  1
  F  F5  1  0.670004  0.739879  0.428549  1
  F  F6  1  0.888758  0.225518  0.810699  1
  F  F7  1  0.160739  0.753881  0.199316  1
  F  F8  1  0.696172  0.826625  0.056244  1
  F  F9  1  0.417172  0.083552  0.997817  1
  F  F10  1  0.789420  0.620711  0.857797  1
  F  F11  1  0.223921  0.313364  0.074790  1
  F  F12  1  0.451590  0.464940  0.815448  1
  F  F13  1  0.557269  0.534712  0.175657  1
  F  F14  1  0.737245  0.709478  0.696515  1
  F  F15  1  0.260201  0.232389  0.300198  1
  F  F16  1  0.742603  0.971607  0.556164  1
  F  F17  1  0.240895  0.003122  0.471877  1
  F  F18  1  0.296925  0.175424  0.657498  1
  F  F19  1  0.689927  0.810420  0.327852  1
  F  F20  1  0.805982  0.087563  0.588327  1
  F  F21  1  0.178079  0.907876  0.387455  1
  F  F22  1  0.822225  0.015137  0.856621  1
  F  F23  1  0.133485  0.050244  0.139058  1
  F  F24  1  0.913244  0.351014  0.796591  1
  F  F25  1  0.098060  0.638098  0.204461  1
  F  F26  1  0.136419  0.763952  0.911146  1
  F  F27  1  0.759871  0.307507  0.054002  1
  F  F28  1  0.385046  0.936227  0.757278  1
  F  F29  1  0.608031  0.066349  0.238051  1
  F  F30  1  0.115287  0.746243  0.574664  1
  F  F31  1  0.861820  0.251244  0.427269  1
  F  F32  1  0.200134  0.636065  0.650924  1
  F  F33  1  0.838171  0.371312  0.372999  1
  F  F34  1  0.261951  0.847275  0.837298  1
  F  F35  1  0.720768  0.228426  0.142236  1
  F  F36  1  0.532471  0.449006  0.548314  1
  F  F37  1  0.481161  0.552768  0.465156  1
