# generated using pymatgen
data_EuDy6CoBr12
_symmetry_space_group_name_H-M   'P 1'
_cell_length_a   9.28765246
_cell_length_b   9.28765220
_cell_length_c   9.28765409
_cell_angle_alpha   106.58671950
_cell_angle_beta   106.58671111
_cell_angle_gamma   106.58671807
_symmetry_Int_Tables_number   1
_chemical_formula_structural   EuDy6CoBr12
_chemical_formula_sum   'Eu1 Dy6 Co1 Br12'
_cell_volume   674.59243992
_cell_formula_units_Z   1
loop_
 _symmetry_equiv_pos_site_id
 _symmetry_equiv_pos_as_xyz
  1  'x, y, z'
loop_
 _atom_site_type_symbol
 _atom_site_label
 _atom_site_symmetry_multiplicity
 _atom_site_fract_x
 _atom_site_fract_y
 _atom_site_fract_z
 _atom_site_occupancy
  Eu  Eu0  1  0.996916  0.996916  0.996916  1
  Dy  Dy1  1  0.517951  0.594012  0.799323  1
  Dy  Dy2  1  0.799323  0.517951  0.594012  1
  Dy  Dy3  1  0.594012  0.799323  0.517951  1
  Dy  Dy4  1  0.480059  0.403980  0.198939  1
  Dy  Dy5  1  0.198939  0.480059  0.403980  1
  Dy  Dy6  1  0.403980  0.198939  0.480059  1
  Co  Co7  1  0.499200  0.499200  0.499200  1
  Br  Br8  1  0.280287  0.820152  0.427140  1
  Br  Br9  1  0.427140  0.280287  0.820152  1
  Br  Br10  1  0.820152  0.427140  0.280287  1
  Br  Br11  1  0.717983  0.178045  0.570993  1
  Br  Br12  1  0.570993  0.717983  0.178045  1
  Br  Br13  1  0.178045  0.570993  0.717983  1
  Br  Br14  1  0.054253  0.131423  0.353747  1
  Br  Br15  1  0.353747  0.054253  0.131423  1
  Br  Br16  1  0.131423  0.353747  0.054253  1
  Br  Br17  1  0.943631  0.866137  0.641196  1
  Br  Br18  1  0.641196  0.943631  0.866137  1
  Br  Br19  1  0.866137  0.641196  0.943631  1
