# generated using pymatgen
data_Y13Er3Cd4Co3Ni
_symmetry_space_group_name_H-M   'P 1'
_cell_length_a   9.52050628
_cell_length_b   9.53028281
_cell_length_c   9.53028300
_cell_angle_alpha   60.00000283
_cell_angle_beta   59.96602768
_cell_angle_gamma   59.96602630
_symmetry_Int_Tables_number   1
_chemical_formula_structural   Y13Er3Cd4Co3Ni
_chemical_formula_sum   'Y13 Er3 Cd4 Co3 Ni1'
_cell_volume   611.12976847
_cell_formula_units_Z   1
loop_
 _symmetry_equiv_pos_site_id
 _symmetry_equiv_pos_as_xyz
  1  'x, y, z'
loop_
 _atom_site_type_symbol
 _atom_site_label
 _atom_site_symmetry_multiplicity
 _atom_site_fract_x
 _atom_site_fract_y
 _atom_site_fract_z
 _atom_site_occupancy
  Y  Y0  1  0.211996  0.596001  0.596001  1
  Y  Y1  1  0.065028  0.438343  0.438343  1
  Y  Y2  1  0.438445  0.061496  0.061496  1
  Y  Y3  1  0.438445  0.061496  0.438563  1
  Y  Y4  1  0.065028  0.438343  0.058286  1
  Y  Y5  1  0.438445  0.438563  0.061496  1
  Y  Y6  1  0.065028  0.058286  0.438343  1
  Y  Y7  1  0.186347  0.813107  0.813107  1
  Y  Y8  1  0.810329  0.188083  0.188083  1
  Y  Y9  1  0.810329  0.188083  0.813505  1
  Y  Y10  1  0.186347  0.813107  0.187439  1
  Y  Y11  1  0.810329  0.813505  0.188083  1
  Y  Y12  1  0.186347  0.187439  0.813107  1
  Er  Er13  1  0.594003  0.597608  0.597608  1
  Er  Er14  1  0.594003  0.597608  0.210781  1
  Er  Er15  1  0.594003  0.210781  0.597608  1
  Cd  Cd16  1  0.830212  0.830154  0.830154  1
  Cd  Cd17  1  0.830212  0.830154  0.509478  1
  Cd  Cd18  1  0.830212  0.509478  0.830154  1
  Cd  Cd19  1  0.508241  0.830586  0.830586  1
  Co  Co20  1  0.394641  0.390717  0.390717  1
  Co  Co21  1  0.394641  0.390717  0.823925  1
  Co  Co22  1  0.394641  0.823925  0.390717  1
  Ni  Ni23  1  0.822745  0.392419  0.392419  1
