# generated using pymatgen
data_TbHo3Cr2(SbO7)2
_symmetry_space_group_name_H-M   'P 1'
_cell_length_a   7.26990938
_cell_length_b   7.24524770
_cell_length_c   7.32848641
_cell_angle_alpha   90.00019167
_cell_angle_beta   59.70150181
_cell_angle_gamma   119.88813510
_symmetry_Int_Tables_number   1
_chemical_formula_structural   TbHo3Cr2(SbO7)2
_chemical_formula_sum   'Tb1 Ho3 Cr2 Sb2 O14'
_cell_volume   272.17418798
_cell_formula_units_Z   1
loop_
 _symmetry_equiv_pos_site_id
 _symmetry_equiv_pos_as_xyz
  1  'x, y, z'
loop_
 _atom_site_type_symbol
 _atom_site_label
 _atom_site_symmetry_multiplicity
 _atom_site_fract_x
 _atom_site_fract_y
 _atom_site_fract_z
 _atom_site_occupancy
  Tb  Tb0  1  0.000004  0.000005  0.999983  1
  Ho  Ho1  1  0.500000  0.500002  0.999983  1
  Ho  Ho2  1  0.500001  0.000001  0.999995  1
  Ho  Ho3  1  0.999999  0.000006  0.499981  1
  Cr  Cr4  1  0.500098  0.000064  0.500093  1
  Cr  Cr5  1  0.499855  0.499856  0.500259  1
  Sb  Sb6  1  0.000010  0.500008  0.999976  1
  Sb  Sb7  1  0.000000  0.500004  0.499985  1
  O  O8  1  0.257379  0.128691  0.123379  1
  O  O9  1  0.742629  0.871318  0.876587  1
  O  O10  1  0.681326  0.840666  0.410329  1
  O  O11  1  0.836371  0.418189  0.831881  1
  O  O12  1  0.253024  0.831698  0.837131  1
  O  O13  1  0.252352  0.420489  0.410235  1
  O  O14  1  0.253024  0.421332  0.837126  1
  O  O15  1  0.252357  0.831870  0.410233  1
  O  O16  1  0.318676  0.159341  0.589639  1
  O  O17  1  0.163633  0.581819  0.168082  1
  O  O18  1  0.746980  0.168311  0.162837  1
  O  O19  1  0.747651  0.579515  0.589722  1
  O  O20  1  0.746981  0.578675  0.162832  1
  O  O21  1  0.747649  0.168139  0.589732  1
