# generated using pymatgen
data_Hf6FeCo14Si7Ni
_symmetry_space_group_name_H-M   'P 1'
_cell_length_a   8.02400752
_cell_length_b   8.02151052
_cell_length_c   8.02400734
_cell_angle_alpha   59.96479234
_cell_angle_beta   59.97102926
_cell_angle_gamma   59.96479307
_symmetry_Int_Tables_number   1
_chemical_formula_structural   Hf6FeCo14Si7Ni
_chemical_formula_sum   'Hf6 Fe1 Co14 Si7 Ni1'
_cell_volume   364.91978413
_cell_formula_units_Z   1
loop_
 _symmetry_equiv_pos_site_id
 _symmetry_equiv_pos_as_xyz
  1  'x, y, z'
loop_
 _atom_site_type_symbol
 _atom_site_label
 _atom_site_symmetry_multiplicity
 _atom_site_fract_x
 _atom_site_fract_y
 _atom_site_fract_z
 _atom_site_occupancy
  Hf  Hf0  1  0.793686  0.203045  0.793686  1
  Hf  Hf1  1  0.794922  0.794813  0.205144  1
  Hf  Hf2  1  0.205144  0.794813  0.794922  1
  Hf  Hf3  1  0.208633  0.202104  0.795813  1
  Hf  Hf4  1  0.795813  0.202104  0.208633  1
  Hf  Hf5  1  0.204495  0.796595  0.204495  1
  Fe  Fe6  1  0.173819  0.175406  0.173819  1
  Co  Co7  1  0.619406  0.618560  0.141863  1
  Co  Co8  1  0.379995  0.380435  0.379995  1
  Co  Co9  1  0.171856  0.484154  0.171856  1
  Co  Co10  1  0.170666  0.172769  0.485852  1
  Co  Co11  1  0.141863  0.618560  0.619406  1
  Co  Co12  1  0.619237  0.141568  0.619237  1
  Co  Co13  1  0.830606  0.831932  0.830606  1
  Co  Co14  1  0.859789  0.379739  0.379489  1
  Co  Co15  1  0.379489  0.379739  0.859789  1
  Co  Co16  1  0.379154  0.861148  0.379154  1
  Co  Co17  1  0.507470  0.831192  0.829853  1
  Co  Co18  1  0.619498  0.618756  0.619498  1
  Co  Co19  1  0.829853  0.831192  0.507470  1
  Co  Co20  1  0.485852  0.172769  0.170666  1
  Si  Si21  1  0.997886  0.502998  0.997886  1
  Si  Si22  1  0.500042  0.500189  0.500042  1
  Si  Si23  1  0.499968  0.501674  0.999314  1
  Si  Si24  1  0.500092  0.999083  0.500092  1
  Si  Si25  1  0.999314  0.501674  0.499968  1
  Si  Si26  1  0.999523  0.997347  0.501786  1
  Si  Si27  1  0.501786  0.997347  0.999523  1
  Ni  Ni28  1  0.830143  0.508295  0.830143  1
