# generated using pymatgen
data_Er4MnCuRu6
_symmetry_space_group_name_H-M   'P 1'
_cell_length_a   5.29368658
_cell_length_b   5.15233830
_cell_length_c   8.85617200
_cell_angle_alpha   90.00000000
_cell_angle_beta   90.00000000
_cell_angle_gamma   120.15293959
_symmetry_Int_Tables_number   1
_chemical_formula_structural   Er4MnCuRu6
_chemical_formula_sum   'Er4 Mn1 Cu1 Ru6'
_cell_volume   208.86607431
_cell_formula_units_Z   1
loop_
 _symmetry_equiv_pos_site_id
 _symmetry_equiv_pos_as_xyz
  1  'x, y, z'
loop_
 _atom_site_type_symbol
 _atom_site_label
 _atom_site_symmetry_multiplicity
 _atom_site_fract_x
 _atom_site_fract_y
 _atom_site_fract_z
 _atom_site_occupancy
  Er  Er0  1  0.328701  0.663856  0.434100  1
  Er  Er1  1  0.666486  0.335415  0.564818  1
  Er  Er2  1  0.666486  0.335415  0.935182  1
  Er  Er3  1  0.328701  0.663856  0.065900  1
  Mn  Mn4  1  0.169715  0.335119  0.750000  1
  Cu  Cu5  1  0.336068  0.170343  0.250000  1
  Ru  Ru6  1  0.177626  0.822608  0.750000  1
  Ru  Ru7  1  0.837879  0.663501  0.250000  1
  Ru  Ru8  1  0.665617  0.833147  0.750000  1
  Ru  Ru9  1  0.992829  0.998578  0.998490  1
  Ru  Ru10  1  0.837064  0.179587  0.250000  1
  Ru  Ru11  1  0.992829  0.998578  0.501510  1
