# generated using pymatgen
data_La12Rh3AuBr12
_symmetry_space_group_name_H-M   'P 1'
_cell_length_a   10.73360282
_cell_length_b   10.73428930
_cell_length_c   10.73536030
_cell_angle_alpha   109.79653139
_cell_angle_beta   109.89137431
_cell_angle_gamma   109.81214319
_symmetry_Int_Tables_number   1
_chemical_formula_structural   La12Rh3AuBr12
_chemical_formula_sum   'La12 Rh3 Au1 Br12'
_cell_volume   939.18439591
_cell_formula_units_Z   1
loop_
 _symmetry_equiv_pos_site_id
 _symmetry_equiv_pos_as_xyz
  1  'x, y, z'
loop_
 _atom_site_type_symbol
 _atom_site_label
 _atom_site_symmetry_multiplicity
 _atom_site_fract_x
 _atom_site_fract_y
 _atom_site_fract_z
 _atom_site_occupancy
  La  La0  1  0.474153  0.493458  0.232251  1
  La  La1  1  0.749939  0.234382  0.265533  1
  La  La2  1  0.749821  0.013682  0.486135  1
  La  La3  1  0.232176  0.474101  0.493440  1
  La  La4  1  0.265704  0.750041  0.234522  1
  La  La5  1  0.025753  0.267632  0.006381  1
  La  La6  1  0.006576  0.025843  0.267893  1
  La  La7  1  0.486259  0.750013  0.013659  1
  La  La8  1  0.493529  0.232271  0.474250  1
  La  La9  1  0.013898  0.486399  0.750139  1
  La  La10  1  0.267836  0.006568  0.025878  1
  La  La11  1  0.234350  0.265485  0.749969  1
  Rh  Rh12  1  0.501339  0.998699  0.250004  1
  Rh  Rh13  1  0.998621  0.249972  0.501317  1
  Rh  Rh14  1  0.250024  0.501356  0.998700  1
  Au  Au15  1  0.249977  0.249998  0.250022  1
  Br  Br16  1  0.250020  0.756354  0.743658  1
  Br  Br17  1  0.509096  0.503367  0.753476  1
  Br  Br18  1  0.990916  0.746580  0.996554  1
  Br  Br19  1  0.743665  0.249999  0.756348  1
  Br  Br20  1  0.996491  0.990880  0.746523  1
  Br  Br21  1  0.250059  0.996570  0.503512  1
  Br  Br22  1  0.753500  0.509094  0.503456  1
  Br  Br23  1  0.503539  0.250022  0.996458  1
  Br  Br24  1  0.756312  0.743686  0.249977  1
  Br  Br25  1  0.746476  0.996622  0.990868  1
  Br  Br26  1  0.996483  0.503478  0.249940  1
  Br  Br27  1  0.503488  0.753446  0.509136  1
