# generated using pymatgen
data_Ti2Nb4Re6Si5B
_symmetry_space_group_name_H-M   'P 1'
_cell_length_a   7.51568464
_cell_length_b   7.52557749
_cell_length_c   7.51568360
_cell_angle_alpha   126.31854835
_cell_angle_beta   128.06479018
_cell_angle_gamma   77.91689308
_symmetry_Int_Tables_number   1
_chemical_formula_structural   Ti2Nb4Re6Si5B
_chemical_formula_sum   'Ti2 Nb4 Re6 Si5 B1'
_cell_volume   261.39754395
_cell_formula_units_Z   1
loop_
 _symmetry_equiv_pos_site_id
 _symmetry_equiv_pos_as_xyz
  1  'x, y, z'
loop_
 _atom_site_type_symbol
 _atom_site_label
 _atom_site_symmetry_multiplicity
 _atom_site_fract_x
 _atom_site_fract_y
 _atom_site_fract_z
 _atom_site_occupancy
  Ti  Ti0  1  0.553036  0.098420  0.045383  1
  Ti  Ti1  1  0.446287  0.494073  0.547786  1
  Nb  Nb2  1  0.950579  0.494945  0.044365  1
  Nb  Nb3  1  0.049353  0.095225  0.545873  1
  Nb  Nb4  1  0.754312  0.900620  0.646308  1
  Nb  Nb5  1  0.246736  0.896367  0.149631  1
  Re  Re6  1  0.512635  0.248224  0.760967  1
  Re  Re7  1  0.987258  0.248224  0.235590  1
  Re  Re8  1  0.112738  0.745664  0.608326  1
  Re  Re9  1  0.854254  0.496202  0.600806  1
  Re  Re10  1  0.637338  0.745664  0.132926  1
  Re  Re11  1  0.395396  0.496202  0.141949  1
  Si  Si12  1  0.247394  0.498067  0.750673  1
  Si  Si13  1  0.339481  0.828197  0.503792  1
  Si  Si14  1  0.659840  0.165810  0.487969  1
  Si  Si15  1  0.824405  0.828197  0.988716  1
  Si  Si16  1  0.177840  0.165810  0.005969  1
  B  B17  1  0.751118  0.496287  0.245169  1
