# generated using pymatgen
data_NaTiCuTe3
_symmetry_space_group_name_H-M   'P 1'
_cell_length_a   3.91151600
_cell_length_b   10.73876500
_cell_length_c   14.84305800
_cell_angle_alpha   90.00000000
_cell_angle_beta   90.00000000
_cell_angle_gamma   90.00000000
_symmetry_Int_Tables_number   1
_chemical_formula_structural   NaTiCuTe3
_chemical_formula_sum   'Na4 Ti4 Cu4 Te12'
_cell_volume   623.48044142
_cell_formula_units_Z   4
loop_
 _symmetry_equiv_pos_site_id
 _symmetry_equiv_pos_as_xyz
  1  'x, y, z'
loop_
 _atom_site_type_symbol
 _atom_site_label
 _atom_site_symmetry_multiplicity
 _atom_site_fract_x
 _atom_site_fract_y
 _atom_site_fract_z
 _atom_site_occupancy
  Na  Na0  1  0.250000  0.050703  0.228691  1
  Na  Na1  1  0.750000  0.949297  0.771309  1
  Na  Na2  1  0.750000  0.550703  0.271309  1
  Na  Na3  1  0.250000  0.449297  0.728691  1
  Ti  Ti4  1  0.250000  0.317862  0.012483  1
  Ti  Ti5  1  0.750000  0.682138  0.987517  1
  Ti  Ti6  1  0.750000  0.817862  0.487517  1
  Ti  Ti7  1  0.250000  0.182138  0.512483  1
  Cu  Cu8  1  0.250000  0.590834  0.489505  1
  Cu  Cu9  1  0.750000  0.409166  0.510495  1
  Cu  Cu10  1  0.750000  0.090834  0.010495  1
  Cu  Cu11  1  0.250000  0.909166  0.989505  1
  Te  Te12  1  0.250000  0.559289  0.095972  1
  Te  Te13  1  0.750000  0.440711  0.904028  1
  Te  Te14  1  0.750000  0.059289  0.404028  1
  Te  Te15  1  0.250000  0.940711  0.595972  1
  Te  Te16  1  0.250000  0.374706  0.394664  1
  Te  Te17  1  0.750000  0.625294  0.605336  1
  Te  Te18  1  0.750000  0.874706  0.105336  1
  Te  Te19  1  0.250000  0.125294  0.894664  1
  Te  Te20  1  0.250000  0.757077  0.362543  1
  Te  Te21  1  0.750000  0.242923  0.637457  1
  Te  Te22  1  0.750000  0.257077  0.137457  1
  Te  Te23  1  0.250000  0.742923  0.862543  1
