# generated using pymatgen
data_NpCoH4
_symmetry_space_group_name_H-M   'P 1'
_cell_length_a   6.03095442
_cell_length_b   6.03095316
_cell_length_c   4.78744200
_cell_angle_alpha   90.00000000
_cell_angle_beta   90.00000000
_cell_angle_gamma   144.48103545
_symmetry_Int_Tables_number   1
_chemical_formula_structural   NpCoH4
_chemical_formula_sum   'Np2 Co2 H8'
_cell_volume   101.16517133
_cell_formula_units_Z   2
loop_
 _symmetry_equiv_pos_site_id
 _symmetry_equiv_pos_as_xyz
  1  'x, y, z'
loop_
 _atom_site_type_symbol
 _atom_site_label
 _atom_site_symmetry_multiplicity
 _atom_site_fract_x
 _atom_site_fract_y
 _atom_site_fract_z
 _atom_site_occupancy
  Np  Np0  1  0.872572  0.127428  0.750000  1
  Np  Np1  1  0.127428  0.872572  0.250000  1
  Co  Co2  1  0.597746  0.402254  0.750000  1
  Co  Co3  1  0.402254  0.597746  0.250000  1
  H  H4  1  0.088046  0.911954  0.750000  1
  H  H5  1  0.911954  0.088046  0.250000  1
  H  H6  1  0.696041  0.303959  0.503182  1
  H  H7  1  0.303959  0.696041  0.496818  1
  H  H8  1  0.696041  0.303959  0.996818  1
  H  H9  1  0.303959  0.696041  0.003182  1
  H  H10  1  0.500000  0.500000  0.000000  1
  H  H11  1  0.500000  0.500000  0.500000  1
