# generated using pymatgen
data_CuIrRuO6
_symmetry_space_group_name_H-M   'P 1'
_cell_length_a   4.51960700
_cell_length_b   4.51960700
_cell_length_c   9.38504200
_cell_angle_alpha   90.00000000
_cell_angle_beta   90.00000000
_cell_angle_gamma   90.00000000
_symmetry_Int_Tables_number   1
_chemical_formula_structural   CuIrRuO6
_chemical_formula_sum   'Cu2 Ir2 Ru2 O12'
_cell_volume   191.70682110
_cell_formula_units_Z   2
loop_
 _symmetry_equiv_pos_site_id
 _symmetry_equiv_pos_as_xyz
  1  'x, y, z'
loop_
 _atom_site_type_symbol
 _atom_site_label
 _atom_site_symmetry_multiplicity
 _atom_site_fract_x
 _atom_site_fract_y
 _atom_site_fract_z
 _atom_site_occupancy
  Cu  Cu0  1  0.500000  0.500000  0.166051  1
  Cu  Cu1  1  0.000000  0.000000  0.666051  1
  Ir  Ir2  1  0.500000  0.500000  0.499419  1
  Ir  Ir3  1  0.000000  0.000000  0.999419  1
  Ru  Ru4  1  0.500000  0.500000  0.834692  1
  Ru  Ru5  1  0.000000  0.000000  0.334692  1
  O  O6  1  0.199604  0.800396  0.494422  1
  O  O7  1  0.800396  0.199604  0.494422  1
  O  O8  1  0.300396  0.300396  0.994422  1
  O  O9  1  0.699604  0.699604  0.994422  1
  O  O10  1  0.191285  0.808715  0.167021  1
  O  O11  1  0.808715  0.191285  0.167021  1
  O  O12  1  0.308715  0.308715  0.667021  1
  O  O13  1  0.691285  0.691285  0.667021  1
  O  O14  1  0.800091  0.199909  0.838476  1
  O  O15  1  0.199909  0.800091  0.838476  1
  O  O16  1  0.699909  0.699909  0.338476  1
  O  O17  1  0.300091  0.300091  0.338476  1
