# generated using pymatgen
data_Tm12Tc3Au
_symmetry_space_group_name_H-M   'P 1'
_cell_length_a   6.23112778
_cell_length_b   7.37723395
_cell_length_c   9.05083200
_cell_angle_alpha   90.00000000
_cell_angle_beta   90.00000000
_cell_angle_gamma   89.86979318
_symmetry_Int_Tables_number   1
_chemical_formula_structural   Tm12Tc3Au
_chemical_formula_sum   'Tm12 Tc3 Au1'
_cell_volume   416.05198202
_cell_formula_units_Z   1
loop_
 _symmetry_equiv_pos_site_id
 _symmetry_equiv_pos_as_xyz
  1  'x, y, z'
loop_
 _atom_site_type_symbol
 _atom_site_label
 _atom_site_symmetry_multiplicity
 _atom_site_fract_x
 _atom_site_fract_y
 _atom_site_fract_z
 _atom_site_occupancy
  Tm  Tm0  1  0.329228  0.675653  0.069378  1
  Tm  Tm1  1  0.165081  0.178046  0.435845  1
  Tm  Tm2  1  0.667562  0.312550  0.554981  1
  Tm  Tm3  1  0.843417  0.831958  0.943539  1
  Tm  Tm4  1  0.667562  0.312550  0.945019  1
  Tm  Tm5  1  0.843417  0.831958  0.556461  1
  Tm  Tm6  1  0.329228  0.675653  0.430622  1
  Tm  Tm7  1  0.165081  0.178046  0.064155  1
  Tm  Tm8  1  0.871863  0.542739  0.250000  1
  Tm  Tm9  1  0.622153  0.037793  0.250000  1
  Tm  Tm10  1  0.120213  0.453379  0.750000  1
  Tm  Tm11  1  0.371640  0.973913  0.750000  1
  Tc  Tc12  1  0.035811  0.885148  0.250000  1
  Tc  Tc13  1  0.464682  0.384839  0.250000  1
  Tc  Tc14  1  0.955015  0.114283  0.750000  1
  Au  Au15  1  0.548044  0.611492  0.750000  1
