# generated using pymatgen
data_Na2LiPtAu2
_symmetry_space_group_name_H-M   'P 1'
_cell_length_a   5.56048698
_cell_length_b   5.55235966
_cell_length_c   8.60133600
_cell_angle_alpha   90.00000000
_cell_angle_beta   90.00000000
_cell_angle_gamma   119.95165358
_symmetry_Int_Tables_number   1
_chemical_formula_structural   Na2LiPtAu2
_chemical_formula_sum   'Na4 Li2 Pt2 Au4'
_cell_volume   230.09031194
_cell_formula_units_Z   2
loop_
 _symmetry_equiv_pos_site_id
 _symmetry_equiv_pos_as_xyz
  1  'x, y, z'
loop_
 _atom_site_type_symbol
 _atom_site_label
 _atom_site_symmetry_multiplicity
 _atom_site_fract_x
 _atom_site_fract_y
 _atom_site_fract_z
 _atom_site_occupancy
  Na  Na0  1  0.669275  0.339428  0.069428  1
  Na  Na1  1  0.330725  0.670155  0.930572  1
  Na  Na2  1  0.330725  0.670155  0.569428  1
  Na  Na3  1  0.669275  0.339428  0.430572  1
  Li  Li4  1  0.000000  0.979673  0.000000  1
  Li  Li5  1  0.000000  0.979673  0.500000  1
  Pt  Pt6  1  0.832658  0.668014  0.750000  1
  Pt  Pt7  1  0.167342  0.835357  0.250000  1
  Au  Au8  1  0.661887  0.835031  0.250000  1
  Au  Au9  1  0.338113  0.173142  0.750000  1
  Au  Au10  1  0.834030  0.171986  0.750000  1
  Au  Au11  1  0.165970  0.337957  0.250000  1
