# generated using pymatgen
data_Li4YP12Ir18Ru
_symmetry_space_group_name_H-M   'P 1'
_cell_length_a   12.55539200
_cell_length_b   12.62071737
_cell_length_c   3.91623400
_cell_angle_alpha   90.00000000
_cell_angle_beta   90.00000000
_cell_angle_gamma   120.15505929
_symmetry_Int_Tables_number   1
_chemical_formula_structural   Li4YP12Ir18Ru
_chemical_formula_sum   'Li4 Y1 P12 Ir18 Ru1'
_cell_volume   536.57802646
_cell_formula_units_Z   1
loop_
 _symmetry_equiv_pos_site_id
 _symmetry_equiv_pos_as_xyz
  1  'x, y, z'
loop_
 _atom_site_type_symbol
 _atom_site_label
 _atom_site_symmetry_multiplicity
 _atom_site_fract_x
 _atom_site_fract_y
 _atom_site_fract_z
 _atom_site_occupancy
  Li  Li0  1  0.332207  0.667509  0.500000  1
  Li  Li1  1  0.667270  0.331190  0.500000  1
  Li  Li2  1  0.002640  0.825231  0.000000  1
  Li  Li3  1  0.176027  0.174489  0.000000  1
  Y  Y4  1  0.823357  0.999718  0.000000  1
  P  P5  1  0.999229  0.635951  0.500000  1
  P  P6  1  0.357418  0.357826  0.500000  1
  P  P7  1  0.640358  0.999796  0.500000  1
  P  P8  1  0.509408  0.688348  0.000000  1
  P  P9  1  0.310584  0.823549  0.000000  1
  P  P10  1  0.172218  0.488838  0.000000  1
  P  P11  1  0.489191  0.179340  0.000000  1
  P  P12  1  0.686831  0.510748  0.000000  1
  P  P13  1  0.828079  0.316096  0.000000  1
  P  P14  1  0.008287  0.181617  0.500000  1
  P  P15  1  0.824131  0.816083  0.500000  1
  P  P16  1  0.180940  0.999757  0.500000  1
  Ir  Ir17  1  0.509788  0.870653  0.000000  1
  Ir  Ir18  1  0.127387  0.640074  0.000000  1
  Ir  Ir19  1  0.357372  0.493829  0.000000  1
  Ir  Ir20  1  0.487317  0.361742  0.000000  1
  Ir  Ir21  1  0.869003  0.510277  0.000000  1
  Ir  Ir22  1  0.642486  0.136158  0.000000  1
  Ir  Ir23  1  0.537706  0.544500  0.500000  1
  Ir  Ir24  1  0.460029  0.002540  0.500000  1
  Ir  Ir25  1  0.999860  0.289023  0.000000  1
  Ir  Ir26  1  0.706939  0.708116  0.000000  1
  Ir  Ir27  1  0.292232  0.000743  0.000000  1
  Ir  Ir28  1  0.625356  0.805242  0.500000  1
  Ir  Ir29  1  0.194299  0.817778  0.500000  1
  Ir  Ir30  1  0.182740  0.377648  0.500000  1
  Ir  Ir31  1  0.378472  0.182841  0.500000  1
  Ir  Ir32  1  0.803470  0.620980  0.500000  1
  Ir  Ir33  1  0.820680  0.191482  0.500000  1
  Ir  Ir34  1  0.000481  0.998738  0.500000  1
  Ru  Ru35  1  0.996207  0.451548  0.500000  1
