# generated using pymatgen
data_YIn4Ni(BIr2)4
_symmetry_space_group_name_H-M   'P 1'
_cell_length_a   5.56774065
_cell_length_b   5.62724345
_cell_length_c   10.43550255
_cell_angle_alpha   90.11216623
_cell_angle_beta   89.94332486
_cell_angle_gamma   120.35414986
_symmetry_Int_Tables_number   1
_chemical_formula_structural   YIn4Ni(BIr2)4
_chemical_formula_sum   'Y1 In4 Ni1 B4 Ir8'
_cell_volume   282.13498142
_cell_formula_units_Z   1
loop_
 _symmetry_equiv_pos_site_id
 _symmetry_equiv_pos_as_xyz
  1  'x, y, z'
loop_
 _atom_site_type_symbol
 _atom_site_label
 _atom_site_symmetry_multiplicity
 _atom_site_fract_x
 _atom_site_fract_y
 _atom_site_fract_z
 _atom_site_occupancy
  Y  Y0  1  0.000000  0.000933  0.912591  1
  In  In1  1  0.667012  0.333562  0.505220  1
  In  In2  1  0.000000  0.001406  0.622722  1
  In  In3  1  0.000000  0.998669  0.329849  1
  In  In4  1  0.332988  0.666551  0.505220  1
  Ni  Ni5  1  0.000000  0.503502  0.278483  1
  B  B6  1  0.672779  0.336790  0.155877  1
  B  B7  1  0.333675  0.665571  0.863362  1
  B  B8  1  0.666325  0.331896  0.863362  1
  B  B9  1  0.327221  0.664012  0.155877  1
  Ir  Ir10  1  0.471040  0.998358  0.733746  1
  Ir  Ir11  1  0.504222  0.000975  0.282292  1
  Ir  Ir12  1  0.000000  0.498766  0.014752  1
  Ir  Ir13  1  0.528960  0.527318  0.733746  1
  Ir  Ir14  1  0.000000  0.470195  0.732932  1
  Ir  Ir15  1  0.503477  0.504110  0.013839  1
  Ir  Ir16  1  0.496523  0.000633  0.013839  1
  Ir  Ir17  1  0.495778  0.496752  0.282292  1
