# generated using pymatgen
data_Li2SmLu5(Co4P3)4
_symmetry_space_group_name_H-M   'P 1'
_cell_length_a   3.68757800
_cell_length_b   10.53211000
_cell_length_c   12.10122100
_cell_angle_alpha   90.00000000
_cell_angle_beta   90.00000000
_cell_angle_gamma   90.00000000
_symmetry_Int_Tables_number   1
_chemical_formula_structural   Li2SmLu5(Co4P3)4
_chemical_formula_sum   'Li2 Sm1 Lu5 Co16 P12'
_cell_volume   469.98694444
_cell_formula_units_Z   1
loop_
 _symmetry_equiv_pos_site_id
 _symmetry_equiv_pos_as_xyz
  1  'x, y, z'
loop_
 _atom_site_type_symbol
 _atom_site_label
 _atom_site_symmetry_multiplicity
 _atom_site_fract_x
 _atom_site_fract_y
 _atom_site_fract_z
 _atom_site_occupancy
  Li  Li0  1  0.500000  0.500000  0.151766  1
  Li  Li1  1  0.000000  0.000000  0.844916  1
  Sm  Sm2  1  0.000000  0.500000  0.524369  1
  Lu  Lu3  1  0.500000  0.000000  0.476216  1
  Lu  Lu4  1  0.500000  0.820846  0.205916  1
  Lu  Lu5  1  0.500000  0.179154  0.205916  1
  Lu  Lu6  1  0.000000  0.679858  0.795010  1
  Lu  Lu7  1  0.000000  0.320142  0.795010  1
  Co  Co8  1  0.500000  0.500000  0.707680  1
  Co  Co9  1  0.000000  0.000000  0.295584  1
  Co  Co10  1  0.000000  0.500000  0.987964  1
  Co  Co11  1  0.500000  0.000000  0.013074  1
  Co  Co12  1  0.500000  0.332234  0.997181  1
  Co  Co13  1  0.500000  0.667766  0.997181  1
  Co  Co14  1  0.000000  0.166711  0.002821  1
  Co  Co15  1  0.000000  0.833289  0.002821  1
  Co  Co16  1  0.500000  0.293224  0.430590  1
  Co  Co17  1  0.500000  0.706776  0.430590  1
  Co  Co18  1  0.000000  0.201067  0.569077  1
  Co  Co19  1  0.000000  0.798933  0.569077  1
  Co  Co20  1  0.500000  0.878755  0.707131  1
  Co  Co21  1  0.500000  0.121245  0.707131  1
  Co  Co22  1  0.000000  0.623143  0.292000  1
  Co  Co23  1  0.000000  0.376857  0.292000  1
  P  P24  1  0.500000  0.500000  0.885902  1
  P  P25  1  0.000000  0.000000  0.115833  1
  P  P26  1  0.500000  0.500000  0.343307  1
  P  P27  1  0.000000  0.000000  0.651621  1
  P  P28  1  0.500000  0.308247  0.618352  1
  P  P29  1  0.500000  0.691753  0.618352  1
  P  P30  1  0.000000  0.187988  0.382987  1
  P  P31  1  0.000000  0.812012  0.382987  1
  P  P32  1  0.500000  0.842798  0.891896  1
  P  P33  1  0.500000  0.157202  0.891896  1
  P  P34  1  0.000000  0.658503  0.107922  1
  P  P35  1  0.000000  0.341497  0.107922  1
