# generated using pymatgen
data_Dy2HoEr3(SbO7)2
_symmetry_space_group_name_H-M   'P 1'
_cell_length_a   6.44302584
_cell_length_b   6.44042609
_cell_length_c   7.48425201
_cell_angle_alpha   90.00427151
_cell_angle_beta   90.00256040
_cell_angle_gamma   109.23769709
_symmetry_Int_Tables_number   1
_chemical_formula_structural   Dy2HoEr3(SbO7)2
_chemical_formula_sum   'Dy2 Ho1 Er3 Sb2 O14'
_cell_volume   293.22323169
_cell_formula_units_Z   1
loop_
 _symmetry_equiv_pos_site_id
 _symmetry_equiv_pos_as_xyz
  1  'x, y, z'
loop_
 _atom_site_type_symbol
 _atom_site_label
 _atom_site_symmetry_multiplicity
 _atom_site_fract_x
 _atom_site_fract_y
 _atom_site_fract_z
 _atom_site_occupancy
  Dy  Dy0  1  0.511481  0.511581  0.500190  1
  Dy  Dy1  1  0.488838  0.489115  0.999802  1
  Ho  Ho2  1  0.468519  0.999483  0.252550  1
  Er  Er3  1  0.999237  0.468672  0.747444  1
  Er  Er4  1  0.000786  0.531215  0.247457  1
  Er  Er5  1  0.531523  0.000788  0.752556  1
  Sb  Sb6  1  0.999707  0.999640  0.500259  1
  Sb  Sb7  1  0.000296  0.000221  0.999734  1
  O  O8  1  0.639494  0.360753  0.749973  1
  O  O9  1  0.360614  0.638059  0.250040  1
  O  O10  1  0.928148  0.072269  0.749993  1
  O  O11  1  0.071136  0.927865  0.249996  1
  O  O12  1  0.923233  0.674107  0.528324  1
  O  O13  1  0.076869  0.325726  0.028226  1
  O  O14  1  0.325700  0.077478  0.971094  1
  O  O15  1  0.674017  0.922120  0.472650  1
  O  O16  1  0.368313  0.631539  0.750015  1
  O  O17  1  0.632378  0.370019  0.249921  1
  O  O18  1  0.934579  0.679469  0.967076  1
  O  O19  1  0.065447  0.320309  0.467143  1
  O  O20  1  0.320281  0.066056  0.533546  1
  O  O21  1  0.679403  0.933516  0.032013  1
