# generated using pymatgen
data_SmDy4ErRh18
_symmetry_space_group_name_H-M   'P 1'
_cell_length_a   5.27008200
_cell_length_b   5.27008296
_cell_length_c   17.55417500
_cell_angle_alpha   90.00000000
_cell_angle_beta   90.00000000
_cell_angle_gamma   119.99999398
_symmetry_Int_Tables_number   1
_chemical_formula_structural   SmDy4ErRh18
_chemical_formula_sum   'Sm1 Dy4 Er1 Rh18'
_cell_volume   422.22690719
_cell_formula_units_Z   1
loop_
 _symmetry_equiv_pos_site_id
 _symmetry_equiv_pos_as_xyz
  1  'x, y, z'
loop_
 _atom_site_type_symbol
 _atom_site_label
 _atom_site_symmetry_multiplicity
 _atom_site_fract_x
 _atom_site_fract_y
 _atom_site_fract_z
 _atom_site_occupancy
  Sm  Sm0  1  0.666667  0.333333  0.249932  1
  Dy  Dy1  1  0.666667  0.333333  0.041042  1
  Dy  Dy2  1  0.666667  0.333333  0.458631  1
  Dy  Dy3  1  0.333333  0.666667  0.542123  1
  Dy  Dy4  1  0.333333  0.666667  0.750184  1
  Er  Er5  1  0.333333  0.666667  0.957695  1
  Rh  Rh6  1  0.167210  0.832790  0.374718  1
  Rh  Rh7  1  0.167210  0.334421  0.374718  1
  Rh  Rh8  1  0.665579  0.832790  0.374718  1
  Rh  Rh9  1  0.832771  0.167229  0.625823  1
  Rh  Rh10  1  0.832771  0.665542  0.625823  1
  Rh  Rh11  1  0.334458  0.167229  0.625823  1
  Rh  Rh12  1  0.832635  0.167365  0.874506  1
  Rh  Rh13  1  0.832635  0.665268  0.874506  1
  Rh  Rh14  1  0.334732  0.167365  0.874506  1
  Rh  Rh15  1  0.167352  0.832648  0.125088  1
  Rh  Rh16  1  0.167352  0.334703  0.125088  1
  Rh  Rh17  1  0.665297  0.832648  0.125088  1
  Rh  Rh18  1  0.333333  0.666667  0.249956  1
  Rh  Rh19  1  0.666667  0.333333  0.750129  1
  Rh  Rh20  1  0.000000  0.000000  0.249905  1
  Rh  Rh21  1  0.000000  0.000000  0.750113  1
  Rh  Rh22  1  0.000000  0.000000  0.500209  1
  Rh  Rh23  1  0.000000  0.000000  0.999676  1
