# generated using pymatgen
data_Tm2Nb3Co16(P4Ru)3
_symmetry_space_group_name_H-M   'P 1'
_cell_length_a   11.84204900
_cell_length_b   11.84204852
_cell_length_c   3.64197800
_cell_angle_alpha   90.00000000
_cell_angle_beta   90.00000000
_cell_angle_gamma   119.99999855
_symmetry_Int_Tables_number   1
_chemical_formula_structural   Tm2Nb3Co16(P4Ru)3
_chemical_formula_sum   'Tm2 Nb3 Co16 P12 Ru3'
_cell_volume   442.30479339
_cell_formula_units_Z   1
loop_
 _symmetry_equiv_pos_site_id
 _symmetry_equiv_pos_as_xyz
  1  'x, y, z'
loop_
 _atom_site_type_symbol
 _atom_site_label
 _atom_site_symmetry_multiplicity
 _atom_site_fract_x
 _atom_site_fract_y
 _atom_site_fract_z
 _atom_site_occupancy
  Tm  Tm0  1  0.333333  0.666667  0.000000  1
  Tm  Tm1  1  0.666667  0.333333  0.000000  1
  Nb  Nb2  1  0.821962  0.000000  0.500000  1
  Nb  Nb3  1  0.000000  0.821962  0.500000  1
  Nb  Nb4  1  0.178038  0.178038  0.500000  1
  Co  Co5  1  0.276780  0.000000  0.500000  1
  Co  Co6  1  0.000000  0.276780  0.500000  1
  Co  Co7  1  0.723220  0.723220  0.500000  1
  Co  Co8  1  0.632032  0.810418  0.000000  1
  Co  Co9  1  0.189582  0.821615  0.000000  1
  Co  Co10  1  0.178385  0.367968  0.000000  1
  Co  Co11  1  0.367968  0.178385  0.000000  1
  Co  Co12  1  0.810418  0.632032  0.000000  1
  Co  Co13  1  0.821615  0.189582  0.000000  1
  Co  Co14  1  0.519317  0.873783  0.500000  1
  Co  Co15  1  0.126217  0.645533  0.500000  1
  Co  Co16  1  0.354467  0.480683  0.500000  1
  Co  Co17  1  0.480683  0.354467  0.500000  1
  Co  Co18  1  0.873783  0.519317  0.500000  1
  Co  Co19  1  0.645533  0.126217  0.500000  1
  Co  Co20  1  0.000000  0.000000  0.000000  1
  P  P21  1  0.174453  0.000000  0.000000  1
  P  P22  1  0.000000  0.174453  0.000000  1
  P  P23  1  0.825547  0.825547  0.000000  1
  P  P24  1  0.521975  0.685908  0.500000  1
  P  P25  1  0.314092  0.836066  0.500000  1
  P  P26  1  0.163934  0.478025  0.500000  1
  P  P27  1  0.478025  0.163934  0.500000  1
  P  P28  1  0.685908  0.521975  0.500000  1
  P  P29  1  0.836066  0.314092  0.500000  1
  P  P30  1  0.642982  0.000000  0.000000  1
  P  P31  1  0.000000  0.642982  0.000000  1
  P  P32  1  0.357018  0.357018  0.000000  1
  Ru  Ru33  1  0.448347  0.000000  0.000000  1
  Ru  Ru34  1  0.000000  0.448347  0.000000  1
  Ru  Ru35  1  0.551653  0.551653  0.000000  1
