# generated using pymatgen
data_Sr4HoTl(SbO6)2
_symmetry_space_group_name_H-M   'P 1'
_cell_length_a   5.86685792
_cell_length_b   5.93129558
_cell_length_c   8.31262748
_cell_angle_alpha   89.71202289
_cell_angle_beta   90.20373461
_cell_angle_gamma   90.00844718
_symmetry_Int_Tables_number   1
_chemical_formula_structural   Sr4HoTl(SbO6)2
_chemical_formula_sum   'Sr4 Ho1 Tl1 Sb2 O12'
_cell_volume   289.25789512
_cell_formula_units_Z   1
loop_
 _symmetry_equiv_pos_site_id
 _symmetry_equiv_pos_as_xyz
  1  'x, y, z'
loop_
 _atom_site_type_symbol
 _atom_site_label
 _atom_site_symmetry_multiplicity
 _atom_site_fract_x
 _atom_site_fract_y
 _atom_site_fract_z
 _atom_site_occupancy
  Sr  Sr0  1  0.010655  0.036866  0.248495  1
  Sr  Sr1  1  0.493174  0.538541  0.249263  1
  Sr  Sr2  1  0.506827  0.461458  0.750737  1
  Sr  Sr3  1  0.989345  0.963135  0.751505  1
  Ho  Ho4  1  0.000000  0.500001  0.500000  1
  Tl  Tl5  1  0.500000  0.000000  0.999999  1
  Sb  Sb6  1  0.000000  0.500001  0.000000  1
  Sb  Sb7  1  0.500000  0.000000  0.500000  1
  O  O8  1  0.276947  0.307135  0.044921  1
  O  O9  1  0.188934  0.776880  0.047310  1
  O  O10  1  0.921918  0.477401  0.236120  1
  O  O11  1  0.587601  0.972892  0.265551  1
  O  O12  1  0.301108  0.272995  0.456590  1
  O  O13  1  0.228469  0.797688  0.460126  1
  O  O14  1  0.771531  0.202312  0.539874  1
  O  O15  1  0.698893  0.727005  0.543410  1
  O  O16  1  0.412399  0.027107  0.734449  1
  O  O17  1  0.078080  0.522599  0.763880  1
  O  O18  1  0.811067  0.223120  0.952690  1
  O  O19  1  0.723051  0.692864  0.955078  1
