# generated using pymatgen
data_Lu2Ti2Ge4Mo
_symmetry_space_group_name_H-M   'P 1'
_cell_length_a   7.03645800
_cell_length_b   6.87636121
_cell_length_c   7.04051976
_cell_angle_alpha   70.73095670
_cell_angle_beta   90.00000000
_cell_angle_gamma   90.00000000
_symmetry_Int_Tables_number   1
_chemical_formula_structural   Lu2Ti2Ge4Mo
_chemical_formula_sum   'Lu4 Ti4 Ge8 Mo2'
_cell_volume   321.57332453
_cell_formula_units_Z   2
loop_
 _symmetry_equiv_pos_site_id
 _symmetry_equiv_pos_as_xyz
  1  'x, y, z'
loop_
 _atom_site_type_symbol
 _atom_site_label
 _atom_site_symmetry_multiplicity
 _atom_site_fract_x
 _atom_site_fract_y
 _atom_site_fract_z
 _atom_site_occupancy
  Lu  Lu0  1  0.170767  0.937463  0.190558  1
  Lu  Lu1  1  0.329233  0.437463  0.190558  1
  Lu  Lu2  1  0.829233  0.062537  0.809442  1
  Lu  Lu3  1  0.670767  0.562537  0.809442  1
  Ti  Ti4  1  0.823362  0.249609  0.254364  1
  Ti  Ti5  1  0.323362  0.250391  0.745636  1
  Ti  Ti6  1  0.176638  0.750391  0.745636  1
  Ti  Ti7  1  0.676638  0.749609  0.254364  1
  Ge  Ge8  1  0.539247  0.139786  0.085429  1
  Ge  Ge9  1  0.369064  0.636408  0.493590  1
  Ge  Ge10  1  0.869064  0.863592  0.506410  1
  Ge  Ge11  1  0.039247  0.360214  0.914571  1
  Ge  Ge12  1  0.130936  0.136408  0.493590  1
  Ge  Ge13  1  0.630936  0.363592  0.506410  1
  Ge  Ge14  1  0.960753  0.639786  0.085429  1
  Ge  Ge15  1  0.460753  0.860214  0.914571  1
  Mo  Mo16  1  0.500000  0.000000  0.500000  1
  Mo  Mo17  1  0.000000  0.500000  0.500000  1
