# generated using pymatgen
data_Pr6Dy10MgAg3Ir4
_symmetry_space_group_name_H-M   'P 1'
_cell_length_a   9.73389940
_cell_length_b   9.71489548
_cell_length_c   9.71489500
_cell_angle_alpha   59.99999822
_cell_angle_beta   60.06456025
_cell_angle_gamma   60.06455817
_symmetry_Int_Tables_number   1
_chemical_formula_structural   Pr6Dy10MgAg3Ir4
_chemical_formula_sum   'Pr6 Dy10 Mg1 Ag3 Ir4'
_cell_volume   650.23627541
_cell_formula_units_Z   1
loop_
 _symmetry_equiv_pos_site_id
 _symmetry_equiv_pos_as_xyz
  1  'x, y, z'
loop_
 _atom_site_type_symbol
 _atom_site_label
 _atom_site_symmetry_multiplicity
 _atom_site_fract_x
 _atom_site_fract_y
 _atom_site_fract_z
 _atom_site_occupancy
  Pr  Pr0  1  0.941030  0.560921  0.560921  1
  Pr  Pr1  1  0.560441  0.939485  0.939485  1
  Pr  Pr2  1  0.560441  0.939485  0.560590  1
  Pr  Pr3  1  0.941030  0.560921  0.937128  1
  Pr  Pr4  1  0.560441  0.560590  0.939485  1
  Pr  Pr5  1  0.941030  0.937128  0.560921  1
  Dy  Dy6  1  0.345685  0.347363  0.347363  1
  Dy  Dy7  1  0.345685  0.347363  0.959590  1
  Dy  Dy8  1  0.345685  0.959590  0.347363  1
  Dy  Dy9  1  0.947724  0.350759  0.350759  1
  Dy  Dy10  1  0.811768  0.187456  0.187456  1
  Dy  Dy11  1  0.184546  0.814847  0.814847  1
  Dy  Dy12  1  0.184546  0.814847  0.185762  1
  Dy  Dy13  1  0.811768  0.187456  0.813319  1
  Dy  Dy14  1  0.184546  0.185762  0.814847  1
  Dy  Dy15  1  0.811768  0.813319  0.187456  1
  Mg  Mg16  1  0.290294  0.569902  0.569902  1
  Ag  Ag17  1  0.580340  0.581714  0.581714  1
  Ag  Ag18  1  0.580340  0.581714  0.256233  1
  Ag  Ag19  1  0.580340  0.256233  0.581714  1
  Ir  Ir20  1  0.138424  0.143001  0.143001  1
  Ir  Ir21  1  0.138424  0.143001  0.575572  1
  Ir  Ir22  1  0.138424  0.575572  0.143001  1
  Ir  Ir23  1  0.575283  0.141572  0.141572  1
