# generated using pymatgen
data_Tb5Y7Fe2I17
_symmetry_space_group_name_H-M   'P 1'
_cell_length_a   9.73938835
_cell_length_b   11.69664806
_cell_length_c   11.71115655
_cell_angle_alpha   93.49025359
_cell_angle_beta   104.77708958
_cell_angle_gamma   114.12582842
_symmetry_Int_Tables_number   1
_chemical_formula_structural   Tb5Y7Fe2I17
_chemical_formula_sum   'Tb5 Y7 Fe2 I17'
_cell_volume   1156.51207037
_cell_formula_units_Z   1
loop_
 _symmetry_equiv_pos_site_id
 _symmetry_equiv_pos_as_xyz
  1  'x, y, z'
loop_
 _atom_site_type_symbol
 _atom_site_label
 _atom_site_symmetry_multiplicity
 _atom_site_fract_x
 _atom_site_fract_y
 _atom_site_fract_z
 _atom_site_occupancy
  Tb  Tb0  1  0.053259  0.503714  0.319979  1
  Tb  Tb1  1  0.993239  0.808069  0.590135  1
  Tb  Tb2  1  0.656375  0.241380  0.280262  1
  Tb  Tb3  1  0.008759  0.190633  0.412920  1
  Tb  Tb4  1  0.218092  0.672007  0.980981  1
  Y  Y5  1  0.255402  0.978941  0.889248  1
  Y  Y6  1  0.346761  0.758676  0.718330  1
  Y  Y7  1  0.947184  0.496626  0.679692  1
  Y  Y8  1  0.744429  0.020979  0.110728  1
  Y  Y9  1  0.140075  0.286871  0.154144  1
  Y  Y10  1  0.780272  0.329151  0.015451  1
  Y  Y11  1  0.856313  0.713008  0.846743  1
  Fe  Fe12  1  0.104015  0.738021  0.785619  1
  Fe  Fe13  1  0.895540  0.262102  0.214623  1
  I  I14  1  0.784040  0.528503  0.417631  1
  I  I15  1  0.643492  0.418610  0.761939  1
  I  I16  1  0.843224  0.895316  0.325999  1
  I  I17  1  0.326967  0.213657  0.368145  1
  I  I18  1  0.156630  0.104422  0.673997  1
  I  I19  1  0.586380  0.053314  0.842763  1
  I  I20  1  0.758235  0.188248  0.539438  1
  I  I21  1  0.552272  0.711023  0.954247  1
  I  I22  1  0.356229  0.579937  0.238309  1
  I  I23  1  0.216404  0.471354  0.582962  1
  I  I24  1  0.055974  0.367077  0.896969  1
  I  I25  1  0.448128  0.289134  0.044989  1
  I  I26  1  0.000410  0.000604  0.000304  1
  I  I27  1  0.242958  0.812901  0.461844  1
  I  I28  1  0.414291  0.947111  0.157006  1
  I  I29  1  0.671556  0.786196  0.631680  1
  I  I30  1  0.943094  0.632416  0.102924  1
