# generated using pymatgen
data_U8Ta11Si16W
_symmetry_space_group_name_H-M   'P 1'
_cell_length_a   6.80183700
_cell_length_b   6.99784851
_cell_length_c   13.29700500
_cell_angle_alpha   90.00000000
_cell_angle_beta   90.00000000
_cell_angle_gamma   89.97821272
_symmetry_Int_Tables_number   1
_chemical_formula_structural   U8Ta11Si16W
_chemical_formula_sum   'U8 Ta11 Si16 W1'
_cell_volume   632.91378857
_cell_formula_units_Z   1
loop_
 _symmetry_equiv_pos_site_id
 _symmetry_equiv_pos_as_xyz
  1  'x, y, z'
loop_
 _atom_site_type_symbol
 _atom_site_label
 _atom_site_symmetry_multiplicity
 _atom_site_fract_x
 _atom_site_fract_y
 _atom_site_fract_z
 _atom_site_occupancy
  U  U0  1  0.498666  0.669398  0.592356  1
  U  U1  1  0.998660  0.831553  0.907875  1
  U  U2  1  0.502133  0.330400  0.092979  1
  U  U3  1  0.001264  0.168582  0.407143  1
  U  U4  1  0.502133  0.330400  0.407021  1
  U  U5  1  0.001264  0.168582  0.092857  1
  U  U6  1  0.498666  0.669398  0.907644  1
  U  U7  1  0.998660  0.831553  0.592125  1
  Ta  Ta8  1  0.663387  0.172168  0.623756  1
  Ta  Ta9  1  0.163485  0.327809  0.875860  1
  Ta  Ta10  1  0.337299  0.828325  0.125057  1
  Ta  Ta11  1  0.836325  0.672518  0.374997  1
  Ta  Ta12  1  0.337299  0.828325  0.374943  1
  Ta  Ta13  1  0.836325  0.672518  0.125003  1
  Ta  Ta14  1  0.663387  0.172168  0.876244  1
  Ta  Ta15  1  0.163485  0.327809  0.624140  1
  Ta  Ta16  1  0.834086  0.499355  0.750000  1
  Ta  Ta17  1  0.334022  0.001011  0.750000  1
  Ta  Ta18  1  0.165048  0.500376  0.250000  1
  Si  Si19  1  0.664365  0.960445  0.457999  1
  Si  Si20  1  0.164214  0.539062  0.041421  1
  Si  Si21  1  0.334992  0.039619  0.959580  1
  Si  Si22  1  0.835799  0.460752  0.540668  1
  Si  Si23  1  0.334992  0.039619  0.540420  1
  Si  Si24  1  0.835799  0.460752  0.959332  1
  Si  Si25  1  0.664365  0.960445  0.042001  1
  Si  Si26  1  0.164214  0.539062  0.458579  1
  Si  Si27  1  0.459365  0.378905  0.750000  1
  Si  Si28  1  0.958944  0.121306  0.750000  1
  Si  Si29  1  0.541415  0.621197  0.250000  1
  Si  Si30  1  0.038753  0.880321  0.250000  1
  Si  Si31  1  0.702171  0.869521  0.750000  1
  Si  Si32  1  0.201595  0.631311  0.750000  1
  Si  Si33  1  0.300584  0.130667  0.250000  1
  Si  Si34  1  0.797711  0.365911  0.250000  1
  W  W35  1  0.665123  0.998857  0.250000  1
