# generated using pymatgen
data_Pu3Pa3P8
_symmetry_space_group_name_H-M   'P 1'
_cell_length_a   7.15567294
_cell_length_b   7.18254776
_cell_length_c   7.15567287
_cell_angle_alpha   109.74029148
_cell_angle_beta   109.31767296
_cell_angle_gamma   109.20404672
_symmetry_Int_Tables_number   1
_chemical_formula_structural   Pu3Pa3P8
_chemical_formula_sum   'Pu3 Pa3 P8'
_cell_volume   283.63499662
_cell_formula_units_Z   1
loop_
 _symmetry_equiv_pos_site_id
 _symmetry_equiv_pos_as_xyz
  1  'x, y, z'
loop_
 _atom_site_type_symbol
 _atom_site_label
 _atom_site_symmetry_multiplicity
 _atom_site_fract_x
 _atom_site_fract_y
 _atom_site_fract_z
 _atom_site_occupancy
  Pu  Pu0  1  0.752498  0.876436  0.126664  1
  Pu  Pu1  1  0.374081  0.250000  0.624081  1
  Pu  Pu2  1  0.250228  0.623564  0.376062  1
  Pa  Pa3  1  0.871222  0.123836  0.748290  1
  Pa  Pa4  1  0.624455  0.376164  0.247387  1
  Pa  Pa5  1  0.126708  0.750000  0.876708  1
  P  P6  1  0.660611  0.657902  0.658269  1
  P  P7  1  0.842025  0.501243  0.999990  1
  P  P8  1  0.498747  0.998757  0.840783  1
  P  P9  1  0.341759  0.501859  0.001161  1
  P  P10  1  0.000368  0.842098  0.502710  1
  P  P11  1  0.997956  0.341890  0.501931  1
  P  P12  1  0.499302  0.998141  0.339899  1
  P  P13  1  0.160041  0.158110  0.156067  1
