# generated using pymatgen
data_Y8Ti12Si15P
_symmetry_space_group_name_H-M   'P 1'
_cell_length_a   7.04883744
_cell_length_b   7.05549089
_cell_length_c   12.95718503
_cell_angle_alpha   90.00180704
_cell_angle_beta   89.90916112
_cell_angle_gamma   90.03051846
_symmetry_Int_Tables_number   1
_chemical_formula_structural   Y8Ti12Si15P
_chemical_formula_sum   'Y8 Ti12 Si15 P1'
_cell_volume   644.39888982
_cell_formula_units_Z   1
loop_
 _symmetry_equiv_pos_site_id
 _symmetry_equiv_pos_as_xyz
  1  'x, y, z'
loop_
 _atom_site_type_symbol
 _atom_site_label
 _atom_site_symmetry_multiplicity
 _atom_site_fract_x
 _atom_site_fract_y
 _atom_site_fract_z
 _atom_site_occupancy
  Y  Y0  1  0.997283  0.659625  0.033602  1
  Y  Y1  1  0.003118  0.344699  0.532173  1
  Y  Y2  1  0.659726  0.997381  0.966603  1
  Y  Y3  1  0.159650  0.502932  0.782689  1
  Y  Y4  1  0.842193  0.498792  0.284634  1
  Y  Y5  1  0.502643  0.159991  0.217181  1
  Y  Y6  1  0.497557  0.841312  0.716552  1
  Y  Y7  1  0.338679  0.999965  0.467015  1
  Ti  Ti8  1  0.343485  0.510933  0.374924  1
  Ti  Ti9  1  0.850237  0.987871  0.377282  1
  Ti  Ti10  1  0.008365  0.152107  0.124076  1
  Ti  Ti11  1  0.992756  0.845779  0.620623  1
  Ti  Ti12  1  0.508957  0.346421  0.625758  1
  Ti  Ti13  1  0.151727  0.008279  0.876244  1
  Ti  Ti14  1  0.674566  0.673631  0.499397  1
  Ti  Ti15  1  0.826978  0.173301  0.749638  1
  Ti  Ti16  1  0.172062  0.825757  0.251811  1
  Ti  Ti17  1  0.326846  0.326649  0.000073  1
  Ti  Ti18  1  0.491534  0.652159  0.126596  1
  Ti  Ti19  1  0.652363  0.491497  0.873686  1
  Si  Si20  1  0.952939  0.290869  0.935150  1
  Si  Si21  1  0.709817  0.047834  0.564611  1
  Si  Si22  1  0.209202  0.452558  0.185365  1
  Si  Si23  1  0.790826  0.547061  0.685234  1
  Si  Si24  1  0.452624  0.209347  0.814627  1
  Si  Si25  1  0.546755  0.790829  0.314684  1
  Si  Si26  1  0.290811  0.952681  0.065193  1
  Si  Si27  1  0.796990  0.870652  0.184700  1
  Si  Si28  1  0.301986  0.628693  0.567365  1
  Si  Si29  1  0.702521  0.369955  0.065597  1
  Si  Si30  1  0.628846  0.297531  0.434165  1
  Si  Si31  1  0.370071  0.702650  0.934574  1
  Si  Si32  1  0.130087  0.202153  0.315524  1
  Si  Si33  1  0.200966  0.130264  0.683995  1
  Si  Si34  1  0.870393  0.797753  0.814543  1
  P  P35  1  0.044435  0.710090  0.434114  1
