# generated using pymatgen
data_NbV2(BOs)3
_symmetry_space_group_name_H-M   'P 1'
_cell_length_a   3.01398500
_cell_length_b   8.87889400
_cell_length_c   15.40109300
_cell_angle_alpha   90.00000000
_cell_angle_beta   90.00000000
_cell_angle_gamma   90.00000000
_symmetry_Int_Tables_number   1
_chemical_formula_structural   NbV2(BOs)3
_chemical_formula_sum   'Nb4 V8 B12 Os12'
_cell_volume   412.14639093
_cell_formula_units_Z   4
loop_
 _symmetry_equiv_pos_site_id
 _symmetry_equiv_pos_as_xyz
  1  'x, y, z'
loop_
 _atom_site_type_symbol
 _atom_site_label
 _atom_site_symmetry_multiplicity
 _atom_site_fract_x
 _atom_site_fract_y
 _atom_site_fract_z
 _atom_site_occupancy
  Nb  Nb0  1  0.000000  0.685752  0.201310  1
  Nb  Nb1  1  0.000000  0.314248  0.798690  1
  Nb  Nb2  1  0.000000  0.185752  0.298690  1
  Nb  Nb3  1  0.000000  0.814248  0.701310  1
  V  V4  1  0.000000  0.790408  0.497732  1
  V  V5  1  0.000000  0.209592  0.502268  1
  V  V6  1  0.000000  0.290408  0.002268  1
  V  V7  1  0.000000  0.709592  0.997732  1
  V  V8  1  0.000000  0.519059  0.589164  1
  V  V9  1  0.000000  0.480941  0.410836  1
  V  V10  1  0.000000  0.019059  0.910836  1
  V  V11  1  0.000000  0.980941  0.089164  1
  B  B12  1  0.500000  0.603213  0.495395  1
  B  B13  1  0.500000  0.396787  0.504605  1
  B  B14  1  0.500000  0.103213  0.004605  1
  B  B15  1  0.500000  0.896787  0.995395  1
  B  B16  1  0.000000  0.610361  0.834058  1
  B  B17  1  0.000000  0.389639  0.165942  1
  B  B18  1  0.000000  0.110361  0.665942  1
  B  B19  1  0.000000  0.889639  0.334058  1
  B  B20  1  0.500000  0.710124  0.594940  1
  B  B21  1  0.500000  0.289876  0.405060  1
  B  B22  1  0.500000  0.210124  0.905060  1
  B  B23  1  0.500000  0.789876  0.094940  1
  Os  Os24  1  0.500000  0.713978  0.360053  1
  Os  Os25  1  0.500000  0.286022  0.639947  1
  Os  Os26  1  0.500000  0.213978  0.139947  1
  Os  Os27  1  0.500000  0.786022  0.860053  1
  Os  Os28  1  0.500000  0.516663  0.088594  1
  Os  Os29  1  0.500000  0.483337  0.911406  1
  Os  Os30  1  0.500000  0.016663  0.411406  1
  Os  Os31  1  0.500000  0.983337  0.588594  1
  Os  Os32  1  0.500000  0.560281  0.730917  1
  Os  Os33  1  0.500000  0.439719  0.269083  1
  Os  Os34  1  0.500000  0.060281  0.769083  1
  Os  Os35  1  0.500000  0.939719  0.230917  1
