# generated using pymatgen
data_Dy16Cd4FeNi3
_symmetry_space_group_name_H-M   'P 1'
_cell_length_a   9.54566191
_cell_length_b   9.54566123
_cell_length_c   9.54566102
_cell_angle_alpha   59.76923270
_cell_angle_beta   59.76923408
_cell_angle_gamma   59.76923105
_symmetry_Int_Tables_number   1
_chemical_formula_structural   Dy16Cd4FeNi3
_chemical_formula_sum   'Dy16 Cd4 Fe1 Ni3'
_cell_volume   611.81702350
_cell_formula_units_Z   1
loop_
 _symmetry_equiv_pos_site_id
 _symmetry_equiv_pos_as_xyz
  1  'x, y, z'
loop_
 _atom_site_type_symbol
 _atom_site_label
 _atom_site_symmetry_multiplicity
 _atom_site_fract_x
 _atom_site_fract_y
 _atom_site_fract_z
 _atom_site_occupancy
  Dy  Dy0  1  0.597650  0.597650  0.597650  1
  Dy  Dy1  1  0.597041  0.597041  0.206143  1
  Dy  Dy2  1  0.597041  0.206143  0.597041  1
  Dy  Dy3  1  0.206143  0.597041  0.597041  1
  Dy  Dy4  1  0.065652  0.438208  0.438208  1
  Dy  Dy5  1  0.436880  0.061609  0.061609  1
  Dy  Dy6  1  0.438208  0.065652  0.438208  1
  Dy  Dy7  1  0.061609  0.436880  0.061609  1
  Dy  Dy8  1  0.438208  0.438208  0.065652  1
  Dy  Dy9  1  0.061609  0.061609  0.436880  1
  Dy  Dy10  1  0.186952  0.814360  0.814360  1
  Dy  Dy11  1  0.808764  0.188330  0.188330  1
  Dy  Dy12  1  0.814360  0.186952  0.814360  1
  Dy  Dy13  1  0.188330  0.808764  0.188330  1
  Dy  Dy14  1  0.814360  0.814360  0.186952  1
  Dy  Dy15  1  0.188330  0.188330  0.808764  1
  Cd  Cd16  1  0.829751  0.829751  0.829751  1
  Cd  Cd17  1  0.830509  0.830509  0.506197  1
  Cd  Cd18  1  0.830509  0.506197  0.830509  1
  Cd  Cd19  1  0.506197  0.830509  0.830509  1
  Fe  Fe20  1  0.393010  0.393010  0.393010  1
  Ni  Ni21  1  0.392237  0.392237  0.824413  1
  Ni  Ni22  1  0.392237  0.824413  0.392237  1
  Ni  Ni23  1  0.824413  0.392237  0.392237  1
