# generated using pymatgen
data_Er4Tm(TcO6)2
_symmetry_space_group_name_H-M   'P 1'
_cell_length_a   6.76911089
_cell_length_b   6.76911025
_cell_length_c   7.45131653
_cell_angle_alpha   73.76396459
_cell_angle_beta   73.76395649
_cell_angle_gamma   49.20547123
_symmetry_Int_Tables_number   1
_chemical_formula_structural   Er4Tm(TcO6)2
_chemical_formula_sum   'Er4 Tm1 Tc2 O12'
_cell_volume   245.95406443
_cell_formula_units_Z   1
loop_
 _symmetry_equiv_pos_site_id
 _symmetry_equiv_pos_as_xyz
  1  'x, y, z'
loop_
 _atom_site_type_symbol
 _atom_site_label
 _atom_site_symmetry_multiplicity
 _atom_site_fract_x
 _atom_site_fract_y
 _atom_site_fract_z
 _atom_site_occupancy
  Er  Er0  1  0.803632  0.803632  0.358452  1
  Er  Er1  1  0.196368  0.196368  0.641548  1
  Er  Er2  1  0.184059  0.184059  0.177564  1
  Er  Er3  1  0.815941  0.815941  0.822436  1
  Tm  Tm4  1  0.500000  0.500000  0.500000  1
  Tc  Tc5  1  0.285419  0.714581  0.000000  1
  Tc  Tc6  1  0.714581  0.285419  0.000000  1
  O  O7  1  0.413910  0.917958  0.914300  1
  O  O8  1  0.082042  0.586090  0.085700  1
  O  O9  1  0.586090  0.082042  0.085700  1
  O  O10  1  0.917958  0.413910  0.914300  1
  O  O11  1  0.598154  0.095944  0.572569  1
  O  O12  1  0.904056  0.401846  0.427431  1
  O  O13  1  0.401846  0.904056  0.427431  1
  O  O14  1  0.001245  0.001245  0.819578  1
  O  O15  1  0.998755  0.998755  0.180422  1
  O  O16  1  0.498043  0.498043  0.793589  1
  O  O17  1  0.501957  0.501957  0.206411  1
  O  O18  1  0.095944  0.598154  0.572569  1
