# generated using pymatgen
data_TbYb(Al3Pd)3
_symmetry_space_group_name_H-M   'P 1'
_cell_length_a   7.64616470
_cell_length_b   7.64481268
_cell_length_c   9.48786600
_cell_angle_alpha   90.00000000
_cell_angle_beta   90.00000000
_cell_angle_gamma   119.66441854
_symmetry_Int_Tables_number   1
_chemical_formula_structural   TbYb(Al3Pd)3
_chemical_formula_sum   'Tb2 Yb2 Al18 Pd6'
_cell_volume   481.91267209
_cell_formula_units_Z   2
loop_
 _symmetry_equiv_pos_site_id
 _symmetry_equiv_pos_as_xyz
  1  'x, y, z'
loop_
 _atom_site_type_symbol
 _atom_site_label
 _atom_site_symmetry_multiplicity
 _atom_site_fract_x
 _atom_site_fract_y
 _atom_site_fract_z
 _atom_site_occupancy
  Tb  Tb0  1  0.669223  0.996385  0.250000  1
  Tb  Tb1  1  0.330777  0.003615  0.750000  1
  Yb  Yb2  1  0.995568  0.668356  0.250000  1
  Yb  Yb3  1  0.004432  0.331644  0.750000  1
  Al  Al4  1  0.129517  0.131119  0.250000  1
  Al  Al5  1  0.870483  0.868881  0.750000  1
  Al  Al6  1  0.000965  0.334988  0.075951  1
  Al  Al7  1  0.999035  0.665012  0.924049  1
  Al  Al8  1  0.999035  0.665012  0.575951  1
  Al  Al9  1  0.334209  0.999664  0.424034  1
  Al  Al10  1  0.000965  0.334988  0.424049  1
  Al  Al11  1  0.665791  0.000336  0.575966  1
  Al  Al12  1  0.665791  0.000336  0.924034  1
  Al  Al13  1  0.334209  0.999664  0.075966  1
  Al  Al14  1  0.333076  0.333057  0.558005  1
  Al  Al15  1  0.666924  0.666943  0.441995  1
  Al  Al16  1  0.666924  0.666943  0.058005  1
  Al  Al17  1  0.333076  0.333057  0.941995  1
  Al  Al18  1  0.342093  0.547796  0.250000  1
  Al  Al19  1  0.657907  0.452204  0.750000  1
  Al  Al20  1  0.543241  0.335456  0.250000  1
  Al  Al21  1  0.456759  0.664544  0.750000  1
  Pd  Pd22  1  0.672367  0.328580  0.000305  1
  Pd  Pd23  1  0.327633  0.671420  0.999695  1
  Pd  Pd24  1  0.327633  0.671420  0.500305  1
  Pd  Pd25  1  0.672367  0.328580  0.499695  1
  Pd  Pd26  1  0.000000  0.000000  0.000000  1
  Pd  Pd27  1  0.000000  0.000000  0.500000  1
