# generated using pymatgen
data_DyHo9(Ir2Os)2
_symmetry_space_group_name_H-M   'P 1'
_cell_length_a   10.82371402
_cell_length_b   10.82260900
_cell_length_c   6.39523401
_cell_angle_alpha   90.00000000
_cell_angle_beta   90.00726878
_cell_angle_gamma   90.00000000
_symmetry_Int_Tables_number   1
_chemical_formula_structural   DyHo9(Ir2Os)2
_chemical_formula_sum   'Dy2 Ho18 Ir8 Os4'
_cell_volume   749.14298093
_cell_formula_units_Z   2
loop_
 _symmetry_equiv_pos_site_id
 _symmetry_equiv_pos_as_xyz
  1  'x, y, z'
loop_
 _atom_site_type_symbol
 _atom_site_label
 _atom_site_symmetry_multiplicity
 _atom_site_fract_x
 _atom_site_fract_y
 _atom_site_fract_z
 _atom_site_occupancy
  Dy  Dy0  1  0.293562  0.086282  0.376725  1
  Dy  Dy1  1  0.293562  0.913718  0.876725  1
  Ho  Ho2  1  0.706285  0.086131  0.876846  1
  Ho  Ho3  1  0.706285  0.913869  0.376846  1
  Ho  Ho4  1  0.586229  0.793681  0.876896  1
  Ho  Ho5  1  0.586229  0.206319  0.376896  1
  Ho  Ho6  1  0.413989  0.793579  0.376856  1
  Ho  Ho7  1  0.413989  0.206421  0.876856  1
  Ho  Ho8  1  0.206265  0.413919  0.623178  1
  Ho  Ho9  1  0.206265  0.586081  0.123178  1
  Ho  Ho10  1  0.793729  0.413874  0.123153  1
  Ho  Ho11  1  0.793729  0.586126  0.623153  1
  Ho  Ho12  1  0.913844  0.706266  0.123142  1
  Ho  Ho13  1  0.913844  0.293734  0.623142  1
  Ho  Ho14  1  0.086080  0.706207  0.623090  1
  Ho  Ho15  1  0.086080  0.293793  0.123090  1
  Ho  Ho16  1  0.999887  0.999973  0.499988  1
  Ho  Ho17  1  0.999887  0.000027  0.999988  1
  Ho  Ho18  1  0.500027  0.500002  0.999981  1
  Ho  Ho19  1  0.500027  0.499998  0.499981  1
  Ir  Ir20  1  0.847754  0.152248  0.250012  1
  Ir  Ir21  1  0.847754  0.847752  0.750012  1
  Ir  Ir22  1  0.152062  0.152416  0.750253  1
  Ir  Ir23  1  0.152062  0.847584  0.250253  1
  Ir  Ir24  1  0.652235  0.347755  0.750013  1
  Ir  Ir25  1  0.652235  0.652245  0.250013  1
  Ir  Ir26  1  0.347798  0.347940  0.249904  1
  Ir  Ir27  1  0.347798  0.652060  0.749904  1
  Os  Os28  1  0.500237  0.000003  0.122533  1
  Os  Os29  1  0.500237  0.999997  0.622533  1
  Os  Os30  1  0.000017  0.499981  0.877428  1
  Os  Os31  1  0.000017  0.500019  0.377428  1
