# generated using pymatgen
data_ErTm4GePb3
_symmetry_space_group_name_H-M   'P 1'
_cell_length_a   9.23046822
_cell_length_b   9.23046830
_cell_length_c   6.46192600
_cell_angle_alpha   90.00000000
_cell_angle_beta   90.00000000
_cell_angle_gamma   119.97475938
_symmetry_Int_Tables_number   1
_chemical_formula_structural   ErTm4GePb3
_chemical_formula_sum   'Er2 Tm8 Ge2 Pb6'
_cell_volume   476.92543170
_cell_formula_units_Z   2
loop_
 _symmetry_equiv_pos_site_id
 _symmetry_equiv_pos_as_xyz
  1  'x, y, z'
loop_
 _atom_site_type_symbol
 _atom_site_label
 _atom_site_symmetry_multiplicity
 _atom_site_fract_x
 _atom_site_fract_y
 _atom_site_fract_z
 _atom_site_occupancy
  Er  Er0  1  0.748363  0.748363  0.250000  1
  Er  Er1  1  0.251637  0.251637  0.750000  1
  Tm  Tm2  1  0.251486  0.999908  0.250000  1
  Tm  Tm3  1  0.748514  0.000092  0.750000  1
  Tm  Tm4  1  0.999908  0.251486  0.250000  1
  Tm  Tm5  1  0.000092  0.748514  0.750000  1
  Tm  Tm6  1  0.333266  0.666734  0.000000  1
  Tm  Tm7  1  0.666734  0.333266  0.000000  1
  Tm  Tm8  1  0.666734  0.333266  0.500000  1
  Tm  Tm9  1  0.333266  0.666734  0.500000  1
  Ge  Ge10  1  0.000000  0.000000  0.000000  1
  Ge  Ge11  1  0.000000  0.000000  0.500000  1
  Pb  Pb12  1  0.606549  0.000100  0.250000  1
  Pb  Pb13  1  0.393451  0.999900  0.750000  1
  Pb  Pb14  1  0.000100  0.606549  0.250000  1
  Pb  Pb15  1  0.999900  0.393451  0.750000  1
  Pb  Pb16  1  0.393280  0.393280  0.250000  1
  Pb  Pb17  1  0.606720  0.606720  0.750000  1
