# generated using pymatgen
data_RbHo3Te5
_symmetry_space_group_name_H-M   'P 1'
_cell_length_a   4.40546700
_cell_length_b   13.22937800
_cell_length_c   23.53148300
_cell_angle_alpha   90.00000000
_cell_angle_beta   90.00000000
_cell_angle_gamma   90.00000000
_symmetry_Int_Tables_number   1
_chemical_formula_structural   RbHo3Te5
_chemical_formula_sum   'Rb4 Ho12 Te20'
_cell_volume   1371.45220217
_cell_formula_units_Z   4
loop_
 _symmetry_equiv_pos_site_id
 _symmetry_equiv_pos_as_xyz
  1  'x, y, z'
loop_
 _atom_site_type_symbol
 _atom_site_label
 _atom_site_symmetry_multiplicity
 _atom_site_fract_x
 _atom_site_fract_y
 _atom_site_fract_z
 _atom_site_occupancy
  Rb  Rb0  1  0.250000  0.351074  0.091204  1
  Rb  Rb1  1  0.750000  0.648926  0.908796  1
  Rb  Rb2  1  0.750000  0.851074  0.408796  1
  Rb  Rb3  1  0.250000  0.148926  0.591204  1
  Ho  Ho4  1  0.250000  0.453791  0.698234  1
  Ho  Ho5  1  0.750000  0.546209  0.301766  1
  Ho  Ho6  1  0.750000  0.953791  0.801766  1
  Ho  Ho7  1  0.250000  0.046209  0.198234  1
  Ho  Ho8  1  0.250000  0.798278  0.673807  1
  Ho  Ho9  1  0.750000  0.201722  0.326193  1
  Ho  Ho10  1  0.750000  0.298278  0.826193  1
  Ho  Ho11  1  0.250000  0.701722  0.173807  1
  Ho  Ho12  1  0.250000  0.391404  0.444583  1
  Ho  Ho13  1  0.750000  0.608596  0.555417  1
  Ho  Ho14  1  0.750000  0.891404  0.055417  1
  Ho  Ho15  1  0.250000  0.108596  0.944583  1
  Te  Te16  1  0.250000  0.443792  0.569289  1
  Te  Te17  1  0.750000  0.556208  0.430711  1
  Te  Te18  1  0.750000  0.943792  0.930711  1
  Te  Te19  1  0.250000  0.056208  0.069289  1
  Te  Te20  1  0.250000  0.769925  0.544397  1
  Te  Te21  1  0.750000  0.230075  0.455603  1
  Te  Te22  1  0.750000  0.269925  0.955603  1
  Te  Te23  1  0.250000  0.730075  0.044397  1
  Te  Te24  1  0.250000  0.797370  0.803463  1
  Te  Te25  1  0.750000  0.202630  0.196537  1
  Te  Te26  1  0.750000  0.297370  0.696537  1
  Te  Te27  1  0.250000  0.702630  0.303463  1
  Te  Te28  1  0.250000  0.456527  0.828323  1
  Te  Te29  1  0.750000  0.543473  0.171677  1
  Te  Te30  1  0.750000  0.956527  0.671677  1
  Te  Te31  1  0.250000  0.043473  0.328323  1
  Te  Te32  1  0.250000  0.374172  0.312989  1
  Te  Te33  1  0.750000  0.625828  0.687011  1
  Te  Te34  1  0.750000  0.874172  0.187011  1
  Te  Te35  1  0.250000  0.125828  0.812989  1
