# generated using pymatgen
data_HoUSbN2
_symmetry_space_group_name_H-M   'P 1'
_cell_length_a   6.72010231
_cell_length_b   6.72010157
_cell_length_c   6.72010217
_cell_angle_alpha   146.22778769
_cell_angle_beta   146.22777537
_cell_angle_gamma   48.50855829
_symmetry_Int_Tables_number   1
_chemical_formula_structural   HoUSbN2
_chemical_formula_sum   'Ho1 U1 Sb1 N2'
_cell_volume   93.38082356
_cell_formula_units_Z   1
loop_
 _symmetry_equiv_pos_site_id
 _symmetry_equiv_pos_as_xyz
  1  'x, y, z'
loop_
 _atom_site_type_symbol
 _atom_site_label
 _atom_site_symmetry_multiplicity
 _atom_site_fract_x
 _atom_site_fract_y
 _atom_site_fract_z
 _atom_site_occupancy
  Ho  Ho0  1  0.341518  0.341518  0.000000  1
  U  U1  1  0.667366  0.667366  0.000000  1
  Sb  Sb2  1  0.007237  0.007237  0.000000  1
  N  N3  1  0.741939  0.241939  0.500000  1
  N  N4  1  0.241939  0.741939  0.500000  1
