# generated using pymatgen
data_ScTa3Pb4O13
_symmetry_space_group_name_H-M   'P 1'
_cell_length_a   7.56703677
_cell_length_b   7.56703729
_cell_length_c   7.56703604
_cell_angle_alpha   60.00031653
_cell_angle_beta   60.00031742
_cell_angle_gamma   60.00031631
_symmetry_Int_Tables_number   1
_chemical_formula_structural   ScTa3Pb4O13
_chemical_formula_sum   'Sc1 Ta3 Pb4 O13'
_cell_volume   306.38368976
_cell_formula_units_Z   1
loop_
 _symmetry_equiv_pos_site_id
 _symmetry_equiv_pos_as_xyz
  1  'x, y, z'
loop_
 _atom_site_type_symbol
 _atom_site_label
 _atom_site_symmetry_multiplicity
 _atom_site_fract_x
 _atom_site_fract_y
 _atom_site_fract_z
 _atom_site_occupancy
  Sc  Sc0  1  0.500132  0.500132  0.500132  1
  Ta  Ta1  1  0.001293  0.500171  0.500171  1
  Ta  Ta2  1  0.500171  0.500171  0.001293  1
  Ta  Ta3  1  0.500171  0.001293  0.500171  1
  Pb  Pb4  1  0.999712  0.999712  0.999712  1
  Pb  Pb5  1  0.500538  0.001489  0.001489  1
  Pb  Pb6  1  0.001489  0.001489  0.500538  1
  Pb  Pb7  1  0.001489  0.500538  0.001489  1
  O  O8  1  0.838279  0.422838  0.422838  1
  O  O9  1  0.428274  0.814786  0.814786  1
  O  O10  1  0.422838  0.422838  0.838279  1
  O  O11  1  0.814786  0.814786  0.428274  1
  O  O12  1  0.814786  0.428274  0.814786  1
  O  O13  1  0.422838  0.838279  0.422838  1
  O  O14  1  0.167414  0.572179  0.572179  1
  O  O15  1  0.570325  0.186834  0.186834  1
  O  O16  1  0.572179  0.572179  0.167414  1
  O  O17  1  0.186834  0.186834  0.570325  1
  O  O18  1  0.186834  0.570325  0.186834  1
  O  O19  1  0.572179  0.167414  0.572179  1
  O  O20  1  0.122439  0.122439  0.122439  1
