# generated using pymatgen
data_Tb5Y2Ho13Sn16
_symmetry_space_group_name_H-M   'P 1'
_cell_length_a   8.03764405
_cell_length_b   8.17011040
_cell_length_c   15.44521537
_cell_angle_alpha   90.00131535
_cell_angle_beta   90.05247357
_cell_angle_gamma   89.95803636
_symmetry_Int_Tables_number   1
_chemical_formula_structural   Tb5Y2Ho13Sn16
_chemical_formula_sum   'Tb5 Y2 Ho13 Sn16'
_cell_volume   1014.26248844
_cell_formula_units_Z   1
loop_
 _symmetry_equiv_pos_site_id
 _symmetry_equiv_pos_as_xyz
  1  'x, y, z'
loop_
 _atom_site_type_symbol
 _atom_site_label
 _atom_site_symmetry_multiplicity
 _atom_site_fract_x
 _atom_site_fract_y
 _atom_site_fract_z
 _atom_site_occupancy
  Tb  Tb0  1  0.020515  0.179310  0.597422  1
  Tb  Tb1  1  0.479405  0.679059  0.402673  1
  Tb  Tb2  1  0.979067  0.820984  0.097297  1
  Tb  Tb3  1  0.479000  0.678923  0.097330  1
  Tb  Tb4  1  0.979287  0.820886  0.402717  1
  Y  Y5  1  0.520830  0.321296  0.597253  1
  Y  Y6  1  0.021276  0.179079  0.902471  1
  Ho  Ho7  1  0.367375  0.837246  0.877678  1
  Ho  Ho8  1  0.867096  0.662522  0.622405  1
  Ho  Ho9  1  0.632727  0.162969  0.377651  1
  Ho  Ho10  1  0.132187  0.337026  0.122283  1
  Ho  Ho11  1  0.632144  0.163013  0.122011  1
  Ho  Ho12  1  0.132782  0.336845  0.377795  1
  Ho  Ho13  1  0.367295  0.837542  0.622633  1
  Ho  Ho14  1  0.867454  0.662566  0.877691  1
  Ho  Ho15  1  0.521459  0.321181  0.902486  1
  Ho  Ho16  1  0.199030  0.503147  0.750191  1
  Ho  Ho17  1  0.698934  0.996917  0.750267  1
  Ho  Ho18  1  0.800810  0.496657  0.249912  1
  Ho  Ho19  1  0.300979  0.003299  0.249965  1
  Sn  Sn20  1  0.292951  0.037039  0.042018  1
  Sn  Sn21  1  0.793607  0.462619  0.458013  1
  Sn  Sn22  1  0.705758  0.962772  0.542272  1
  Sn  Sn23  1  0.206723  0.536178  0.958168  1
  Sn  Sn24  1  0.706857  0.963263  0.957741  1
  Sn  Sn25  1  0.206827  0.538201  0.541884  1
  Sn  Sn26  1  0.294182  0.036283  0.457875  1
  Sn  Sn27  1  0.793000  0.462854  0.041942  1
  Sn  Sn28  1  0.564911  0.619587  0.749769  1
  Sn  Sn29  1  0.065289  0.879358  0.749924  1
  Sn  Sn30  1  0.434091  0.380470  0.249748  1
  Sn  Sn31  1  0.934282  0.119588  0.249655  1
  Sn  Sn32  1  0.331191  0.148286  0.750412  1
  Sn  Sn33  1  0.830357  0.352901  0.750348  1
  Sn  Sn34  1  0.670429  0.853271  0.250087  1
  Sn  Sn35  1  0.169895  0.646868  0.250013  1
