# generated using pymatgen
data_Er8Lu4ZnInCo4
_symmetry_space_group_name_H-M   'P 1'
_cell_length_a   8.20536370
_cell_length_b   8.20536347
_cell_length_c   8.20536421
_cell_angle_alpha   111.54364615
_cell_angle_beta   110.29214549
_cell_angle_gamma   106.61762338
_symmetry_Int_Tables_number   1
_chemical_formula_structural   Er8Lu4ZnInCo4
_chemical_formula_sum   'Er8 Lu4 Zn1 In1 Co4'
_cell_volume   424.43710023
_cell_formula_units_Z   1
loop_
 _symmetry_equiv_pos_site_id
 _symmetry_equiv_pos_as_xyz
  1  'x, y, z'
loop_
 _atom_site_type_symbol
 _atom_site_label
 _atom_site_symmetry_multiplicity
 _atom_site_fract_x
 _atom_site_fract_y
 _atom_site_fract_z
 _atom_site_occupancy
  Er  Er0  1  0.429883  0.226408  0.203475  1
  Er  Er1  1  0.570117  0.773592  0.796525  1
  Er  Er2  1  0.022934  0.226408  0.796525  1
  Er  Er3  1  0.977066  0.773592  0.203475  1
  Er  Er4  1  0.184866  0.285663  0.470530  1
  Er  Er5  1  0.815134  0.714337  0.529470  1
  Er  Er6  1  0.184866  0.714337  0.899204  1
  Er  Er7  1  0.815134  0.285663  0.100796  1
  Lu  Lu8  1  0.316511  0.621648  0.305135  1
  Lu  Lu9  1  0.683489  0.378352  0.694865  1
  Lu  Lu10  1  0.316511  0.011375  0.694865  1
  Lu  Lu11  1  0.683489  0.988625  0.305135  1
  Zn  Zn12  1  0.000000  0.000000  0.000000  1
  In  In13  1  0.500000  0.500000  0.000000  1
  Co  Co14  1  0.374502  0.000000  0.374502  1
  Co  Co15  1  0.625498  0.000000  0.625498  1
  Co  Co16  1  0.114139  0.614139  0.500000  1
  Co  Co17  1  0.885861  0.385861  0.500000  1
