# generated using pymatgen
data_Sc20Ga3(Si2Sb)3
_symmetry_space_group_name_H-M   'P 1'
_cell_length_a   5.90864600
_cell_length_b   8.05518386
_cell_length_c   14.05690802
_cell_angle_alpha   90.02355472
_cell_angle_beta   90.00000000
_cell_angle_gamma   90.00000000
_symmetry_Int_Tables_number   1
_chemical_formula_structural   Sc20Ga3(Si2Sb)3
_chemical_formula_sum   'Sc20 Ga3 Si6 Sb3'
_cell_volume   669.04171239
_cell_formula_units_Z   1
loop_
 _symmetry_equiv_pos_site_id
 _symmetry_equiv_pos_as_xyz
  1  'x, y, z'
loop_
 _atom_site_type_symbol
 _atom_site_label
 _atom_site_symmetry_multiplicity
 _atom_site_fract_x
 _atom_site_fract_y
 _atom_site_fract_z
 _atom_site_occupancy
  Sc  Sc0  1  0.743129  0.011295  0.332678  1
  Sc  Sc1  1  0.746668  0.502743  0.825307  1
  Sc  Sc2  1  0.742842  0.489001  0.172041  1
  Sc  Sc3  1  0.746411  0.003730  0.672964  1
  Sc  Sc4  1  0.257158  0.489001  0.172041  1
  Sc  Sc5  1  0.253589  0.003730  0.672964  1
  Sc  Sc6  1  0.256871  0.011295  0.332678  1
  Sc  Sc7  1  0.253332  0.502743  0.825307  1
  Sc  Sc8  1  0.000000  0.268664  0.501645  1
  Sc  Sc9  1  0.000000  0.769552  0.991517  1
  Sc  Sc10  1  0.000000  0.607478  0.380894  1
  Sc  Sc11  1  0.000000  0.113780  0.872652  1
  Sc  Sc12  1  0.000000  0.126553  0.124592  1
  Sc  Sc13  1  0.000000  0.613143  0.626491  1
  Sc  Sc14  1  0.500000  0.737201  0.500950  1
  Sc  Sc15  1  0.500000  0.237292  0.999758  1
  Sc  Sc16  1  0.500000  0.879727  0.118653  1
  Sc  Sc17  1  0.500000  0.379904  0.622568  1
  Sc  Sc18  1  0.500000  0.377588  0.379173  1
  Sc  Sc19  1  0.500000  0.877935  0.876647  1
  Ga  Ga20  1  0.500000  0.604265  0.999239  1
  Ga  Ga21  1  0.500000  0.106631  0.502622  1
  Ga  Ga22  1  0.500000  0.698652  0.304130  1
  Si  Si23  1  0.000000  0.301838  0.697633  1
  Si  Si24  1  0.000000  0.301111  0.303843  1
  Si  Si25  1  0.000000  0.802340  0.799929  1
  Si  Si26  1  0.500000  0.198364  0.804532  1
  Si  Si27  1  0.500000  0.193186  0.195438  1
  Si  Si28  1  0.500000  0.699117  0.695424  1
  Sb  Sb29  1  0.000000  0.893740  0.501571  1
  Sb  Sb30  1  0.000000  0.397465  0.997373  1
  Sb  Sb31  1  0.000000  0.800864  0.196732  1
