# generated using pymatgen
data_Ga12Re2IrRh
_symmetry_space_group_name_H-M   'P 1'
_cell_length_a   6.57889034
_cell_length_b   6.57888954
_cell_length_c   6.84374800
_cell_angle_alpha   90.00000000
_cell_angle_beta   90.00000000
_cell_angle_gamma   89.53160414
_symmetry_Int_Tables_number   1
_chemical_formula_structural   Ga12Re2IrRh
_chemical_formula_sum   'Ga12 Re2 Ir1 Rh1'
_cell_volume   296.19978527
_cell_formula_units_Z   1
loop_
 _symmetry_equiv_pos_site_id
 _symmetry_equiv_pos_as_xyz
  1  'x, y, z'
loop_
 _atom_site_type_symbol
 _atom_site_label
 _atom_site_symmetry_multiplicity
 _atom_site_fract_x
 _atom_site_fract_y
 _atom_site_fract_z
 _atom_site_occupancy
  Ga  Ga0  1  0.000038  0.499904  0.500000  1
  Ga  Ga1  1  0.499547  0.001026  0.000000  1
  Ga  Ga2  1  0.499904  0.000038  0.500000  1
  Ga  Ga3  1  0.001026  0.499547  0.000000  1
  Ga  Ga4  1  0.347029  0.653032  0.238111  1
  Ga  Ga5  1  0.653032  0.347029  0.238111  1
  Ga  Ga6  1  0.157838  0.157838  0.731411  1
  Ga  Ga7  1  0.842434  0.842434  0.731193  1
  Ga  Ga8  1  0.653032  0.347029  0.761889  1
  Ga  Ga9  1  0.347029  0.653032  0.761889  1
  Ga  Ga10  1  0.842434  0.842434  0.268807  1
  Ga  Ga11  1  0.157838  0.157838  0.268589  1
  Re  Re12  1  0.161154  0.838418  0.500000  1
  Re  Re13  1  0.838418  0.161154  0.500000  1
  Ir  Ir14  1  0.657982  0.657982  0.000000  1
  Rh  Rh15  1  0.341267  0.341267  0.000000  1
