# generated using pymatgen
data_LiH5F6
_symmetry_space_group_name_H-M   'P 1'
_cell_length_a   3.18363001
_cell_length_b   5.40858729
_cell_length_c   7.97030716
_cell_angle_alpha   59.95143064
_cell_angle_beta   84.34721600
_cell_angle_gamma   92.18927347
_symmetry_Int_Tables_number   1
_chemical_formula_structural   LiH5F6
_chemical_formula_sum   'Li1 H5 F6'
_cell_volume   117.60582274
_cell_formula_units_Z   1
loop_
 _symmetry_equiv_pos_site_id
 _symmetry_equiv_pos_as_xyz
  1  'x, y, z'
loop_
 _atom_site_type_symbol
 _atom_site_label
 _atom_site_symmetry_multiplicity
 _atom_site_fract_x
 _atom_site_fract_y
 _atom_site_fract_z
 _atom_site_occupancy
  Li  Li0  1  0.137969  0.322110  0.167135  1
  H  H1  1  0.893737  0.821791  0.486547  1
  H  H2  1  0.390042  0.821065  0.849486  1
  H  H3  1  0.648690  0.319869  0.668601  1
  H  H4  1  0.646487  0.123142  0.983440  1
  H  H5  1  0.625106  0.521664  0.352940  1
  F  F6  1  0.609429  0.105750  0.814994  1
  F  F7  1  0.240058  0.637394  0.885917  1
  F  F8  1  0.033961  0.009018  0.448217  1
  F  F9  1  0.655594  0.133432  0.104877  1
  F  F10  1  0.687143  0.533594  0.522624  1
  F  F11  1  0.606089  0.516773  0.230474  1
