# generated using pymatgen
data_Pr13Gd7Rh16
_symmetry_space_group_name_H-M   'P 1'
_cell_length_a   7.62145610
_cell_length_b   7.73274913
_cell_length_c   15.05890700
_cell_angle_alpha   90.00500141
_cell_angle_beta   90.00950237
_cell_angle_gamma   90.00905358
_symmetry_Int_Tables_number   1
_chemical_formula_structural   Pr13Gd7Rh16
_chemical_formula_sum   'Pr13 Gd7 Rh16'
_cell_volume   887.49376657
_cell_formula_units_Z   1
loop_
 _symmetry_equiv_pos_site_id
 _symmetry_equiv_pos_as_xyz
  1  'x, y, z'
loop_
 _atom_site_type_symbol
 _atom_site_label
 _atom_site_symmetry_multiplicity
 _atom_site_fract_x
 _atom_site_fract_y
 _atom_site_fract_z
 _atom_site_occupancy
  Pr  Pr0  1  0.835728  0.668253  0.377108  1
  Pr  Pr1  1  0.335960  0.831432  0.376404  1
  Pr  Pr2  1  0.835764  0.668330  0.121966  1
  Pr  Pr3  1  0.663986  0.168117  0.878272  1
  Pr  Pr4  1  0.163560  0.331153  0.622720  1
  Pr  Pr5  1  0.515417  0.682198  0.594972  1
  Pr  Pr6  1  0.016502  0.817872  0.906035  1
  Pr  Pr7  1  0.484492  0.318048  0.094386  1
  Pr  Pr8  1  0.984722  0.181762  0.404458  1
  Pr  Pr9  1  0.486323  0.318108  0.405683  1
  Pr  Pr10  1  0.988201  0.180340  0.093641  1
  Pr  Pr11  1  0.512627  0.680377  0.907142  1
  Pr  Pr12  1  0.013604  0.819849  0.594903  1
  Gd  Gd13  1  0.663586  0.168061  0.623353  1
  Gd  Gd14  1  0.164323  0.331857  0.877799  1
  Gd  Gd15  1  0.335735  0.831830  0.122509  1
  Gd  Gd16  1  0.824510  0.511521  0.750828  1
  Gd  Gd17  1  0.324817  0.988453  0.750552  1
  Gd  Gd18  1  0.176347  0.487817  0.248949  1
  Gd  Gd19  1  0.674595  0.013122  0.248470  1
  Rh  Rh20  1  0.674345  0.972810  0.458586  1
  Rh  Rh21  1  0.178899  0.532150  0.041728  1
  Rh  Rh22  1  0.321344  0.032870  0.960272  1
  Rh  Rh23  1  0.821910  0.465090  0.543539  1
  Rh  Rh24  1  0.330314  0.030903  0.543474  1
  Rh  Rh25  1  0.832424  0.468598  0.956393  1
  Rh  Rh26  1  0.667802  0.968563  0.045385  1
  Rh  Rh27  1  0.174032  0.529591  0.455785  1
  Rh  Rh28  1  0.460649  0.392895  0.751552  1
  Rh  Rh29  1  0.961264  0.106529  0.750188  1
  Rh  Rh30  1  0.535114  0.604226  0.247719  1
  Rh  Rh31  1  0.040848  0.896971  0.247360  1
  Rh  Rh32  1  0.697585  0.858842  0.748806  1
  Rh  Rh33  1  0.198432  0.642578  0.752712  1
  Rh  Rh34  1  0.303193  0.143583  0.247102  1
  Rh  Rh35  1  0.801041  0.355296  0.249251  1
