# generated using pymatgen
data_DyLu5Co17P12Os
_symmetry_space_group_name_H-M   'P 1'
_cell_length_a   3.67343100
_cell_length_b   10.45929900
_cell_length_c   12.14624400
_cell_angle_alpha   90.00000000
_cell_angle_beta   90.00000000
_cell_angle_gamma   90.00000000
_symmetry_Int_Tables_number   1
_chemical_formula_structural   DyLu5Co17P12Os
_chemical_formula_sum   'Dy1 Lu5 Co17 P12 Os1'
_cell_volume   466.67707399
_cell_formula_units_Z   1
loop_
 _symmetry_equiv_pos_site_id
 _symmetry_equiv_pos_as_xyz
  1  'x, y, z'
loop_
 _atom_site_type_symbol
 _atom_site_label
 _atom_site_symmetry_multiplicity
 _atom_site_fract_x
 _atom_site_fract_y
 _atom_site_fract_z
 _atom_site_occupancy
  Dy  Dy0  1  0.500000  0.000000  0.477718  1
  Lu  Lu1  1  0.000000  0.500000  0.525264  1
  Lu  Lu2  1  0.500000  0.817774  0.207021  1
  Lu  Lu3  1  0.500000  0.182226  0.207021  1
  Lu  Lu4  1  0.000000  0.682517  0.793791  1
  Lu  Lu5  1  0.000000  0.317483  0.793791  1
  Co  Co6  1  0.000000  0.000000  0.840285  1
  Co  Co7  1  0.500000  0.500000  0.703078  1
  Co  Co8  1  0.000000  0.000000  0.294777  1
  Co  Co9  1  0.000000  0.500000  0.987560  1
  Co  Co10  1  0.500000  0.000000  0.015120  1
  Co  Co11  1  0.500000  0.332561  0.990626  1
  Co  Co12  1  0.500000  0.667439  0.990626  1
  Co  Co13  1  0.000000  0.167039  0.006245  1
  Co  Co14  1  0.000000  0.832961  0.006245  1
  Co  Co15  1  0.500000  0.298276  0.430328  1
  Co  Co16  1  0.500000  0.701724  0.430328  1
  Co  Co17  1  0.000000  0.203806  0.568879  1
  Co  Co18  1  0.000000  0.796194  0.568879  1
  Co  Co19  1  0.500000  0.877794  0.709666  1
  Co  Co20  1  0.500000  0.122206  0.709666  1
  Co  Co21  1  0.000000  0.621257  0.290918  1
  Co  Co22  1  0.000000  0.378743  0.290918  1
  P  P23  1  0.500000  0.500000  0.879411  1
  P  P24  1  0.000000  0.000000  0.118199  1
  P  P25  1  0.500000  0.500000  0.352616  1
  P  P26  1  0.000000  0.000000  0.655432  1
  P  P27  1  0.500000  0.312726  0.617159  1
  P  P28  1  0.500000  0.687274  0.617159  1
  P  P29  1  0.000000  0.187662  0.382744  1
  P  P30  1  0.000000  0.812338  0.382744  1
  P  P31  1  0.500000  0.848422  0.891382  1
  P  P32  1  0.500000  0.151578  0.891382  1
  P  P33  1  0.000000  0.656478  0.107035  1
  P  P34  1  0.000000  0.343522  0.107035  1
  Os  Os35  1  0.500000  0.500000  0.158953  1
