# generated using pymatgen
data_Dy16ZnIn(AgRh2)2
_symmetry_space_group_name_H-M   'P 1'
_cell_length_a   9.55296594
_cell_length_b   9.55296482
_cell_length_c   9.53525961
_cell_angle_alpha   60.04371808
_cell_angle_beta   60.04371164
_cell_angle_gamma   60.12317532
_symmetry_Int_Tables_number   1
_chemical_formula_structural   Dy16ZnIn(AgRh2)2
_chemical_formula_sum   'Dy16 Zn1 In1 Ag2 Rh4'
_cell_volume   616.28807412
_cell_formula_units_Z   1
loop_
 _symmetry_equiv_pos_site_id
 _symmetry_equiv_pos_as_xyz
  1  'x, y, z'
loop_
 _atom_site_type_symbol
 _atom_site_label
 _atom_site_symmetry_multiplicity
 _atom_site_fract_x
 _atom_site_fract_y
 _atom_site_fract_z
 _atom_site_occupancy
  Dy  Dy0  1  0.690602  0.310414  0.310874  1
  Dy  Dy1  1  0.691009  0.691009  0.309038  1
  Dy  Dy2  1  0.310414  0.690602  0.310874  1
  Dy  Dy3  1  0.935058  0.935058  0.557316  1
  Dy  Dy4  1  0.148250  0.148250  0.552986  1
  Dy  Dy5  1  0.564985  0.936105  0.561909  1
  Dy  Dy6  1  0.148197  0.148197  0.149042  1
  Dy  Dy7  1  0.312079  0.312079  0.689066  1
  Dy  Dy8  1  0.936105  0.564985  0.561909  1
  Dy  Dy9  1  0.562514  0.562514  0.936859  1
  Dy  Dy10  1  0.560138  0.936226  0.935522  1
  Dy  Dy11  1  0.936226  0.560138  0.935522  1
  Dy  Dy12  1  0.146461  0.554814  0.149971  1
  Dy  Dy13  1  0.310295  0.690480  0.689833  1
  Dy  Dy14  1  0.690480  0.310295  0.689833  1
  Dy  Dy15  1  0.554814  0.146461  0.149971  1
  Zn  Zn16  1  0.918456  0.918456  0.248147  1
  In  In17  1  0.921567  0.921567  0.921691  1
  Ag  Ag18  1  0.246567  0.916880  0.920194  1
  Ag  Ag19  1  0.916880  0.246567  0.920194  1
  Rh  Rh20  1  0.357550  0.357550  0.357368  1
  Rh  Rh21  1  0.928612  0.356634  0.355853  1
  Rh  Rh22  1  0.356104  0.356104  0.930172  1
  Rh  Rh23  1  0.356634  0.928612  0.355853  1
