# generated using pymatgen
data_CeLuMnC4
_symmetry_space_group_name_H-M   'P 1'
_cell_length_a   6.46578796
_cell_length_b   6.77581199
_cell_length_c   6.77581154
_cell_angle_alpha   136.68401770
_cell_angle_beta   110.98701110
_cell_angle_gamma   85.83232071
_symmetry_Int_Tables_number   1
_chemical_formula_structural   CeLuMnC4
_chemical_formula_sum   'Ce2 Lu2 Mn2 C8'
_cell_volume   181.77222842
_cell_formula_units_Z   2
loop_
 _symmetry_equiv_pos_site_id
 _symmetry_equiv_pos_as_xyz
  1  'x, y, z'
loop_
 _atom_site_type_symbol
 _atom_site_label
 _atom_site_symmetry_multiplicity
 _atom_site_fract_x
 _atom_site_fract_y
 _atom_site_fract_z
 _atom_site_occupancy
  Ce  Ce0  1  0.500145  0.349996  0.150149  1
  Ce  Ce1  1  0.499855  0.650004  0.849851  1
  Lu  Lu2  1  0.193750  0.860059  0.333691  1
  Lu  Lu3  1  0.806250  0.139941  0.666309  1
  Mn  Mn4  1  0.000000  0.251876  0.251876  1
  Mn  Mn5  1  0.000000  0.748124  0.748124  1
  C  C6  1  0.251220  0.074096  0.177125  1
  C  C7  1  0.748780  0.925904  0.822875  1
  C  C8  1  0.925319  0.583765  0.341554  1
  C  C9  1  0.074681  0.416235  0.658446  1
  C  C10  1  0.476804  0.121543  0.355260  1
  C  C11  1  0.523196  0.878457  0.644740  1
  C  C12  1  0.800103  0.631333  0.168771  1
  C  C13  1  0.199897  0.368667  0.831229  1
