# generated using pymatgen
data_Tb2Lu6Hf9Si16Mo3
_symmetry_space_group_name_H-M   'P 1'
_cell_length_a   7.15721528
_cell_length_b   7.15324145
_cell_length_c   13.07181904
_cell_angle_alpha   90.10866016
_cell_angle_beta   90.10912198
_cell_angle_gamma   90.10720293
_symmetry_Int_Tables_number   1
_chemical_formula_structural   Tb2Lu6Hf9Si16Mo3
_chemical_formula_sum   'Tb2 Lu6 Hf9 Si16 Mo3'
_cell_volume   669.23810432
_cell_formula_units_Z   1
loop_
 _symmetry_equiv_pos_site_id
 _symmetry_equiv_pos_as_xyz
  1  'x, y, z'
loop_
 _atom_site_type_symbol
 _atom_site_label
 _atom_site_symmetry_multiplicity
 _atom_site_fract_x
 _atom_site_fract_y
 _atom_site_fract_z
 _atom_site_occupancy
  Tb  Tb0  1  0.344311  0.994426  0.785193  1
  Tb  Tb1  1  0.654698  0.002255  0.284508  1
  Lu  Lu2  1  0.999310  0.345940  0.215333  1
  Lu  Lu3  1  0.004042  0.654994  0.714624  1
  Lu  Lu4  1  0.153824  0.500747  0.464242  1
  Lu  Lu5  1  0.498852  0.846218  0.036117  1
  Lu  Lu6  1  0.847007  0.501219  0.968140  1
  Lu  Lu7  1  0.498920  0.153008  0.532022  1
  Hf  Hf8  1  0.676933  0.324119  0.749822  1
  Hf  Hf9  1  0.144630  0.993958  0.374040  1
  Hf  Hf10  1  0.856475  0.003809  0.877066  1
  Hf  Hf11  1  0.505861  0.646379  0.621678  1
  Hf  Hf12  1  0.353408  0.494937  0.878295  1
  Hf  Hf13  1  0.492546  0.355087  0.125903  1
  Hf  Hf14  1  0.645053  0.506358  0.373750  1
  Hf  Hf15  1  0.996883  0.143920  0.622752  1
  Hf  Hf16  1  0.005395  0.854744  0.125989  1
  Si  Si17  1  0.355901  0.298453  0.318038  1
  Si  Si18  1  0.643366  0.703368  0.818383  1
  Si  Si19  1  0.204039  0.858112  0.566825  1
  Si  Si20  1  0.139606  0.793455  0.934069  1
  Si  Si21  1  0.796453  0.142011  0.068383  1
  Si  Si22  1  0.860553  0.206427  0.432334  1
  Si  Si23  1  0.294599  0.360258  0.680768  1
  Si  Si24  1  0.704086  0.640226  0.180964  1
  Si  Si25  1  0.294881  0.052391  0.183650  1
  Si  Si26  1  0.705209  0.946597  0.681571  1
  Si  Si27  1  0.446734  0.796157  0.433069  1
  Si  Si28  1  0.201668  0.551138  0.067621  1
  Si  Si29  1  0.549641  0.201862  0.936842  1
  Si  Si30  1  0.800054  0.452825  0.563758  1
  Si  Si31  1  0.051998  0.298326  0.817744  1
  Si  Si32  1  0.949752  0.701240  0.315845  1
  Mo  Mo33  1  0.176560  0.176822  0.001776  1
  Mo  Mo34  1  0.825141  0.822390  0.498852  1
  Mo  Mo35  1  0.321611  0.675823  0.250033  1
