# generated using pymatgen
data_Tb8Ta3Si16W9
_symmetry_space_group_name_H-M   'P 1'
_cell_length_a   6.92129220
_cell_length_b   6.92129232
_cell_length_c   12.91708038
_cell_angle_alpha   90.01184857
_cell_angle_beta   89.98815333
_cell_angle_gamma   89.68540353
_symmetry_Int_Tables_number   1
_chemical_formula_structural   Tb8Ta3Si16W9
_chemical_formula_sum   'Tb8 Ta3 Si16 W9'
_cell_volume   618.77416561
_cell_formula_units_Z   1
loop_
 _symmetry_equiv_pos_site_id
 _symmetry_equiv_pos_as_xyz
  1  'x, y, z'
loop_
 _atom_site_type_symbol
 _atom_site_label
 _atom_site_symmetry_multiplicity
 _atom_site_fract_x
 _atom_site_fract_y
 _atom_site_fract_z
 _atom_site_occupancy
  Tb  Tb0  1  0.336623  0.000042  0.468804  1
  Tb  Tb1  1  0.499130  0.836731  0.719686  1
  Tb  Tb2  1  0.498936  0.164484  0.218720  1
  Tb  Tb3  1  0.836731  0.499130  0.280314  1
  Tb  Tb4  1  0.164484  0.498936  0.781280  1
  Tb  Tb5  1  0.662200  0.001144  0.968824  1
  Tb  Tb6  1  0.000042  0.336623  0.531196  1
  Tb  Tb7  1  0.001144  0.662200  0.031176  1
  Ta  Ta8  1  0.168165  0.832989  0.248309  1
  Ta  Ta9  1  0.832989  0.168165  0.751691  1
  Ta  Ta10  1  0.666534  0.666534  0.500000  1
  Si  Si11  1  0.204126  0.125849  0.683556  1
  Si  Si12  1  0.375956  0.698036  0.934908  1
  Si  Si13  1  0.626292  0.296931  0.433498  1
  Si  Si14  1  0.698036  0.375956  0.065092  1
  Si  Si15  1  0.296931  0.626292  0.566502  1
  Si  Si16  1  0.794856  0.873840  0.183572  1
  Si  Si17  1  0.125849  0.204126  0.316444  1
  Si  Si18  1  0.873840  0.794856  0.816428  1
  Si  Si19  1  0.288268  0.968113  0.060137  1
  Si  Si20  1  0.538010  0.790650  0.313296  1
  Si  Si21  1  0.459748  0.211446  0.815551  1
  Si  Si22  1  0.790650  0.538010  0.686704  1
  Si  Si23  1  0.211446  0.459748  0.184449  1
  Si  Si24  1  0.708950  0.037912  0.562865  1
  Si  Si25  1  0.968113  0.288268  0.939863  1
  Si  Si26  1  0.037912  0.708950  0.437135  1
  W  W27  1  0.333983  0.333983  0.000000  1
  W  W28  1  0.160406  0.000691  0.872073  1
  W  W29  1  0.496574  0.669951  0.125140  1
  W  W30  1  0.503142  0.336124  0.624523  1
  W  W31  1  0.669951  0.496574  0.874860  1
  W  W32  1  0.336124  0.503142  0.375477  1
  W  W33  1  0.837986  0.995184  0.374339  1
  W  W34  1  0.000691  0.160406  0.127927  1
  W  W35  1  0.995184  0.837986  0.625661  1
