# generated using pymatgen
data_TbYHf3Co9As7
_symmetry_space_group_name_H-M   'P 1'
_cell_length_a   3.81210000
_cell_length_b   9.69358400
_cell_length_c   9.69358400
_cell_angle_alpha   119.99999999
_cell_angle_beta   90.00000000
_cell_angle_gamma   90.00000000
_symmetry_Int_Tables_number   1
_chemical_formula_structural   TbYHf3Co9As7
_chemical_formula_sum   'Tb1 Y1 Hf3 Co9 As7'
_cell_volume   310.21562778
_cell_formula_units_Z   1
loop_
 _symmetry_equiv_pos_site_id
 _symmetry_equiv_pos_as_xyz
  1  'x, y, z'
loop_
 _atom_site_type_symbol
 _atom_site_label
 _atom_site_symmetry_multiplicity
 _atom_site_fract_x
 _atom_site_fract_y
 _atom_site_fract_z
 _atom_site_occupancy
  Tb  Tb0  1  0.000000  0.666667  0.333333  1
  Y  Y1  1  0.500000  0.333333  0.666667  1
  Hf  Hf2  1  0.500000  0.768731  0.888062  1
  Hf  Hf3  1  0.500000  0.119330  0.231269  1
  Hf  Hf4  1  0.500000  0.111938  0.880670  1
  Co  Co5  1  0.000000  0.577324  0.935978  1
  Co  Co6  1  0.000000  0.358654  0.422676  1
  Co  Co7  1  0.000000  0.064022  0.641346  1
  Co  Co8  1  0.000000  0.878413  0.162943  1
  Co  Co9  1  0.000000  0.284530  0.121587  1
  Co  Co10  1  0.000000  0.837057  0.715470  1
  Co  Co11  1  0.500000  0.948292  0.390614  1
  Co  Co12  1  0.500000  0.442322  0.051708  1
  Co  Co13  1  0.500000  0.609386  0.557678  1
  As  As14  1  0.000000  0.000000  0.000000  1
  As  As15  1  0.500000  0.713100  0.132730  1
  As  As16  1  0.500000  0.419630  0.286900  1
  As  As17  1  0.500000  0.867270  0.580370  1
  As  As18  1  0.000000  0.572741  0.681317  1
  As  As19  1  0.000000  0.108577  0.427259  1
  As  As20  1  0.000000  0.318683  0.891423  1
