# generated using pymatgen
data_Dy5TiCo5
_symmetry_space_group_name_H-M   'P 1'
_cell_length_a   5.69778145
_cell_length_b   5.69778102
_cell_length_c   20.73657500
_cell_angle_alpha   90.00000000
_cell_angle_beta   90.00000000
_cell_angle_gamma   140.30205212
_symmetry_Int_Tables_number   1
_chemical_formula_structural   Dy5TiCo5
_chemical_formula_sum   'Dy10 Ti2 Co10'
_cell_volume   430.00435964
_cell_formula_units_Z   2
loop_
 _symmetry_equiv_pos_site_id
 _symmetry_equiv_pos_as_xyz
  1  'x, y, z'
loop_
 _atom_site_type_symbol
 _atom_site_label
 _atom_site_symmetry_multiplicity
 _atom_site_fract_x
 _atom_site_fract_y
 _atom_site_fract_z
 _atom_site_occupancy
  Dy  Dy0  1  0.284288  0.715712  0.250000  1
  Dy  Dy1  1  0.289698  0.710302  0.067711  1
  Dy  Dy2  1  0.995728  0.004272  0.840232  1
  Dy  Dy3  1  0.715712  0.284288  0.750000  1
  Dy  Dy4  1  0.710302  0.289698  0.567711  1
  Dy  Dy5  1  0.004272  0.995728  0.340232  1
  Dy  Dy6  1  0.995728  0.004272  0.659768  1
  Dy  Dy7  1  0.710302  0.289698  0.932289  1
  Dy  Dy8  1  0.004272  0.995728  0.159768  1
  Dy  Dy9  1  0.289698  0.710302  0.432289  1
  Ti  Ti10  1  0.000000  0.000000  0.500000  1
  Ti  Ti11  1  0.000000  0.000000  0.000000  1
  Co  Co12  1  0.299066  0.700934  0.653130  1
  Co  Co13  1  0.575232  0.424768  0.441078  1
  Co  Co14  1  0.412658  0.587342  0.750000  1
  Co  Co15  1  0.424768  0.575232  0.941078  1
  Co  Co16  1  0.587342  0.412658  0.250000  1
  Co  Co17  1  0.424768  0.575232  0.558922  1
  Co  Co18  1  0.700934  0.299066  0.346870  1
  Co  Co19  1  0.700934  0.299066  0.153130  1
  Co  Co20  1  0.575232  0.424768  0.058922  1
  Co  Co21  1  0.299066  0.700934  0.846870  1
