# generated using pymatgen
data_Lu12ZnGaNi4
_symmetry_space_group_name_H-M   'P 1'
_cell_length_a   8.11032940
_cell_length_b   8.11032957
_cell_length_c   8.11032873
_cell_angle_alpha   112.33628120
_cell_angle_beta   109.58649918
_cell_angle_gamma   106.54261336
_symmetry_Int_Tables_number   1
_chemical_formula_structural   Lu12ZnGaNi4
_chemical_formula_sum   'Lu12 Zn1 Ga1 Ni4'
_cell_volume   409.62168762
_cell_formula_units_Z   1
loop_
 _symmetry_equiv_pos_site_id
 _symmetry_equiv_pos_as_xyz
  1  'x, y, z'
loop_
 _atom_site_type_symbol
 _atom_site_label
 _atom_site_symmetry_multiplicity
 _atom_site_fract_x
 _atom_site_fract_y
 _atom_site_fract_z
 _atom_site_occupancy
  Lu  Lu0  1  0.431992  0.235581  0.196411  1
  Lu  Lu1  1  0.568008  0.764419  0.803589  1
  Lu  Lu2  1  0.039170  0.235581  0.803589  1
  Lu  Lu3  1  0.960830  0.764419  0.196411  1
  Lu  Lu4  1  0.180267  0.286221  0.466487  1
  Lu  Lu5  1  0.819733  0.713779  0.533513  1
  Lu  Lu6  1  0.180267  0.713779  0.894046  1
  Lu  Lu7  1  0.819733  0.286221  0.105954  1
  Lu  Lu8  1  0.327189  0.630757  0.303568  1
  Lu  Lu9  1  0.672811  0.369243  0.696432  1
  Lu  Lu10  1  0.327189  0.023621  0.696432  1
  Lu  Lu11  1  0.672811  0.976379  0.303568  1
  Zn  Zn12  1  0.000000  0.000000  0.000000  1
  Ga  Ga13  1  0.500000  0.500000  0.000000  1
  Ni  Ni14  1  0.348842  0.000000  0.348842  1
  Ni  Ni15  1  0.651158  0.000000  0.651158  1
  Ni  Ni16  1  0.126869  0.626869  0.500000  1
  Ni  Ni17  1  0.873131  0.373131  0.500000  1
