# generated using pymatgen
data_Zr3Re3Si2Ge
_symmetry_space_group_name_H-M   'P 1'
_cell_length_a   7.04158800
_cell_length_b   7.04158756
_cell_length_c   3.44583400
_cell_angle_alpha   90.00000000
_cell_angle_beta   90.00000000
_cell_angle_gamma   120.00001149
_symmetry_Int_Tables_number   1
_chemical_formula_structural   Zr3Re3Si2Ge
_chemical_formula_sum   'Zr3 Re3 Si2 Ge1'
_cell_volume   147.96742909
_cell_formula_units_Z   1
loop_
 _symmetry_equiv_pos_site_id
 _symmetry_equiv_pos_as_xyz
  1  'x, y, z'
loop_
 _atom_site_type_symbol
 _atom_site_label
 _atom_site_symmetry_multiplicity
 _atom_site_fract_x
 _atom_site_fract_y
 _atom_site_fract_z
 _atom_site_occupancy
  Zr  Zr0  1  0.406114  0.005767  0.500000  1
  Zr  Zr1  1  0.994233  0.400347  0.500000  1
  Zr  Zr2  1  0.599653  0.593886  0.500000  1
  Re  Re3  1  0.749863  0.004622  0.000000  1
  Re  Re4  1  0.995378  0.745241  0.000000  1
  Re  Re5  1  0.254759  0.250137  0.000000  1
  Si  Si6  1  0.666667  0.333333  0.000000  1
  Si  Si7  1  0.000000  0.000000  0.500000  1
  Ge  Ge8  1  0.333333  0.666667  0.000000  1
