# generated using pymatgen
data_Mn4Cr16Ge(WC3)2
_symmetry_space_group_name_H-M   'P 1'
_cell_length_a   7.51698528
_cell_length_b   7.51698572
_cell_length_c   7.51698600
_cell_angle_alpha   59.99999875
_cell_angle_beta   59.99999681
_cell_angle_gamma   59.99999727
_symmetry_Int_Tables_number   1
_chemical_formula_structural   Mn4Cr16Ge(WC3)2
_chemical_formula_sum   'Mn4 Cr16 Ge1 W2 C6'
_cell_volume   300.34205264
_cell_formula_units_Z   1
loop_
 _symmetry_equiv_pos_site_id
 _symmetry_equiv_pos_as_xyz
  1  'x, y, z'
loop_
 _atom_site_type_symbol
 _atom_site_label
 _atom_site_symmetry_multiplicity
 _atom_site_fract_x
 _atom_site_fract_y
 _atom_site_fract_z
 _atom_site_occupancy
  Mn  Mn0  1  0.616642  0.616642  0.150074  1
  Mn  Mn1  1  0.616642  0.150073  0.616642  1
  Mn  Mn2  1  0.150074  0.616642  0.616642  1
  Mn  Mn3  1  0.616642  0.616642  0.616642  1
  Cr  Cr4  1  0.385694  0.385694  0.842916  1
  Cr  Cr5  1  0.385694  0.842916  0.385694  1
  Cr  Cr6  1  0.842916  0.385694  0.385694  1
  Cr  Cr7  1  0.385694  0.385694  0.385694  1
  Cr  Cr8  1  0.998789  0.998789  0.343806  1
  Cr  Cr9  1  0.658615  0.998789  0.343806  1
  Cr  Cr10  1  0.998789  0.658615  0.343806  1
  Cr  Cr11  1  0.658615  0.343806  0.998789  1
  Cr  Cr12  1  0.998789  0.343806  0.998789  1
  Cr  Cr13  1  0.998789  0.343806  0.658615  1
  Cr  Cr14  1  0.343806  0.658615  0.998789  1
  Cr  Cr15  1  0.343806  0.998789  0.658615  1
  Cr  Cr16  1  0.343806  0.998789  0.998789  1
  Cr  Cr17  1  0.998789  0.998789  0.658615  1
  Cr  Cr18  1  0.998789  0.658615  0.998789  1
  Cr  Cr19  1  0.658615  0.998789  0.998789  1
  Ge  Ge20  1  0.000000  0.000000  0.000000  1
  W  W21  1  0.750000  0.750000  0.750000  1
  W  W22  1  0.250000  0.250000  0.250000  1
  C  C23  1  0.720327  0.720327  0.279673  1
  C  C24  1  0.279673  0.720327  0.279673  1
  C  C25  1  0.720327  0.279673  0.279673  1
  C  C26  1  0.279673  0.279673  0.720327  1
  C  C27  1  0.720327  0.279673  0.720327  1
  C  C28  1  0.279673  0.720327  0.720327  1
