# generated using pymatgen
data_Rb6FeSe4Cl
_symmetry_space_group_name_H-M   'P 1'
_cell_length_a   10.75575200
_cell_length_b   10.75575023
_cell_length_c   8.07536500
_cell_angle_alpha   90.00000000
_cell_angle_beta   90.00000000
_cell_angle_gamma   119.99999930
_symmetry_Int_Tables_number   1
_chemical_formula_structural   Rb6FeSe4Cl
_chemical_formula_sum   'Rb12 Fe2 Se8 Cl2'
_cell_volume   809.04799198
_cell_formula_units_Z   2
loop_
 _symmetry_equiv_pos_site_id
 _symmetry_equiv_pos_as_xyz
  1  'x, y, z'
loop_
 _atom_site_type_symbol
 _atom_site_label
 _atom_site_symmetry_multiplicity
 _atom_site_fract_x
 _atom_site_fract_y
 _atom_site_fract_z
 _atom_site_occupancy
  Rb  Rb0  1  0.133804  0.866196  0.514795  1
  Rb  Rb1  1  0.732392  0.866196  0.514795  1
  Rb  Rb2  1  0.948409  0.474205  0.319661  1
  Rb  Rb3  1  0.525795  0.474205  0.319661  1
  Rb  Rb4  1  0.866196  0.732392  0.014795  1
  Rb  Rb5  1  0.267608  0.133804  0.014795  1
  Rb  Rb6  1  0.525795  0.051591  0.319661  1
  Rb  Rb7  1  0.133804  0.267608  0.514795  1
  Rb  Rb8  1  0.866196  0.133804  0.014795  1
  Rb  Rb9  1  0.051591  0.525795  0.819661  1
  Rb  Rb10  1  0.474205  0.948409  0.819661  1
  Rb  Rb11  1  0.474205  0.525795  0.819661  1
  Fe  Fe12  1  0.666667  0.333333  0.709737  1
  Fe  Fe13  1  0.333333  0.666667  0.209737  1
  Se  Se14  1  0.420320  0.210160  0.613076  1
  Se  Se15  1  0.579680  0.789840  0.113076  1
  Se  Se16  1  0.666667  0.333333  0.015022  1
  Se  Se17  1  0.789840  0.579680  0.613076  1
  Se  Se18  1  0.210160  0.420320  0.113076  1
  Se  Se19  1  0.333333  0.666667  0.515022  1
  Se  Se20  1  0.210160  0.789840  0.113076  1
  Se  Se21  1  0.789840  0.210160  0.613076  1
  Cl  Cl22  1  0.000000  0.000000  0.273246  1
  Cl  Cl23  1  0.000000  0.000000  0.773246  1
