# generated using pymatgen
data_Tb5Y5(Si3O)2
_symmetry_space_group_name_H-M   'P 1'
_cell_length_a   8.43832810
_cell_length_b   8.43832693
_cell_length_c   6.24796900
_cell_angle_alpha   90.00000000
_cell_angle_beta   90.00000000
_cell_angle_gamma   119.98278621
_symmetry_Int_Tables_number   1
_chemical_formula_structural   Tb5Y5(Si3O)2
_chemical_formula_sum   'Tb5 Y5 Si6 O2'
_cell_volume   385.35194756
_cell_formula_units_Z   1
loop_
 _symmetry_equiv_pos_site_id
 _symmetry_equiv_pos_as_xyz
  1  'x, y, z'
loop_
 _atom_site_type_symbol
 _atom_site_label
 _atom_site_symmetry_multiplicity
 _atom_site_fract_x
 _atom_site_fract_y
 _atom_site_fract_z
 _atom_site_occupancy
  Tb  Tb0  1  0.231962  0.000014  0.750000  1
  Tb  Tb1  1  0.768030  0.000009  0.250000  1
  Tb  Tb2  1  0.000014  0.231962  0.750000  1
  Tb  Tb3  1  0.000009  0.768030  0.250000  1
  Tb  Tb4  1  0.768029  0.768029  0.750000  1
  Y  Y5  1  0.232104  0.232104  0.250000  1
  Y  Y6  1  0.333318  0.666638  0.499986  1
  Y  Y7  1  0.666638  0.333318  0.499986  1
  Y  Y8  1  0.666638  0.333318  0.000014  1
  Y  Y9  1  0.333318  0.666638  0.000014  1
  Si  Si10  1  0.601170  0.000003  0.750000  1
  Si  Si11  1  0.398764  0.000064  0.250000  1
  Si  Si12  1  0.000003  0.601170  0.750000  1
  Si  Si13  1  0.000064  0.398764  0.250000  1
  Si  Si14  1  0.398857  0.398857  0.750000  1
  Si  Si15  1  0.601132  0.601132  0.250000  1
  O  O16  1  0.999975  0.999975  0.499997  1
  O  O17  1  0.999975  0.999975  0.000003  1
