# generated using pymatgen
data_Dy8Tm3Lu5(Ga3Co)2
_symmetry_space_group_name_H-M   'P 1'
_cell_length_a   9.88228200
_cell_length_b   9.88228264
_cell_length_c   6.94489000
_cell_angle_alpha   90.00000000
_cell_angle_beta   90.00000000
_cell_angle_gamma   119.99999785
_symmetry_Int_Tables_number   1
_chemical_formula_structural   Dy8Tm3Lu5(Ga3Co)2
_chemical_formula_sum   'Dy8 Tm3 Lu5 Ga6 Co2'
_cell_volume   587.36832965
_cell_formula_units_Z   1
loop_
 _symmetry_equiv_pos_site_id
 _symmetry_equiv_pos_as_xyz
  1  'x, y, z'
loop_
 _atom_site_type_symbol
 _atom_site_label
 _atom_site_symmetry_multiplicity
 _atom_site_fract_x
 _atom_site_fract_y
 _atom_site_fract_z
 _atom_site_occupancy
  Dy  Dy0  1  0.464199  0.535801  0.207987  1
  Dy  Dy1  1  0.071600  0.535801  0.207987  1
  Dy  Dy2  1  0.464199  0.928400  0.207987  1
  Dy  Dy3  1  0.535969  0.464031  0.708755  1
  Dy  Dy4  1  0.928063  0.464031  0.708755  1
  Dy  Dy5  1  0.535969  0.071937  0.708755  1
  Dy  Dy6  1  0.000000  0.000000  0.230851  1
  Dy  Dy7  1  0.000000  0.000000  0.732323  1
  Tm  Tm8  1  0.173730  0.826270  0.512836  1
  Tm  Tm9  1  0.652540  0.826270  0.512836  1
  Tm  Tm10  1  0.173730  0.347460  0.512836  1
  Lu  Lu11  1  0.826148  0.173852  0.012853  1
  Lu  Lu12  1  0.347703  0.173852  0.012853  1
  Lu  Lu13  1  0.826148  0.652297  0.012853  1
  Lu  Lu14  1  0.333333  0.666667  0.825779  1
  Lu  Lu15  1  0.666667  0.333333  0.324956  1
  Ga  Ga16  1  0.163652  0.836348  0.956735  1
  Ga  Ga17  1  0.672696  0.836348  0.956735  1
  Ga  Ga18  1  0.163652  0.327304  0.956735  1
  Ga  Ga19  1  0.836074  0.163926  0.456147  1
  Ga  Ga20  1  0.327853  0.163926  0.456147  1
  Ga  Ga21  1  0.836074  0.672147  0.456147  1
  Co  Co22  1  0.333333  0.666667  0.447397  1
  Co  Co23  1  0.666667  0.333333  0.947586  1
