# generated using pymatgen
data_MnFe4PbBr16
_symmetry_space_group_name_H-M   'P 1'
_cell_length_a   10.88538860
_cell_length_b   10.88538927
_cell_length_c   13.05150326
_cell_angle_alpha   55.04908558
_cell_angle_beta   55.04908545
_cell_angle_gamma   49.34745566
_symmetry_Int_Tables_number   1
_chemical_formula_structural   MnFe4PbBr16
_chemical_formula_sum   'Mn1 Fe4 Pb1 Br16'
_cell_volume   910.75533102
_cell_formula_units_Z   1
loop_
 _symmetry_equiv_pos_site_id
 _symmetry_equiv_pos_as_xyz
  1  'x, y, z'
loop_
 _atom_site_type_symbol
 _atom_site_label
 _atom_site_symmetry_multiplicity
 _atom_site_fract_x
 _atom_site_fract_y
 _atom_site_fract_z
 _atom_site_occupancy
  Mn  Mn0  1  0.009291  0.990709  0.750000  1
  Fe  Fe1  1  0.327737  0.841535  0.478389  1
  Fe  Fe2  1  0.158465  0.672263  0.021611  1
  Fe  Fe3  1  0.672105  0.157184  0.545295  1
  Fe  Fe4  1  0.842816  0.327895  0.954705  1
  Pb  Pb5  1  0.003248  0.996752  0.250000  1
  Br  Br6  1  0.605967  0.702197  0.467851  1
  Br  Br7  1  0.297803  0.394033  0.032149  1
  Br  Br8  1  0.389391  0.301730  0.563629  1
  Br  Br9  1  0.698270  0.610609  0.936371  1
  Br  Br10  1  0.169333  0.121720  0.495629  1
  Br  Br11  1  0.878280  0.830667  0.004371  1
  Br  Br12  1  0.806502  0.878169  0.539029  1
  Br  Br13  1  0.121831  0.193498  0.960971  1
  Br  Br14  1  0.337458  0.849141  0.287848  1
  Br  Br15  1  0.150859  0.662542  0.212152  1
  Br  Br16  1  0.698332  0.138358  0.724526  1
  Br  Br17  1  0.861642  0.301668  0.775474  1
  Br  Br18  1  0.159721  0.716438  0.679211  1
  Br  Br19  1  0.283562  0.840279  0.820789  1
  Br  Br20  1  0.823142  0.295755  0.338353  1
  Br  Br21  1  0.704245  0.176858  0.161647  1
