# generated using pymatgen
data_CsEr3CI6
_symmetry_space_group_name_H-M   'P 1'
_cell_length_a   9.33553488
_cell_length_b   9.41035541
_cell_length_c   9.89658048
_cell_angle_alpha   71.57724977
_cell_angle_beta   84.51775668
_cell_angle_gamma   89.37786200
_symmetry_Int_Tables_number   1
_chemical_formula_structural   CsEr3CI6
_chemical_formula_sum   'Cs2 Er6 C2 I12'
_cell_volume   820.91907531
_cell_formula_units_Z   2
loop_
 _symmetry_equiv_pos_site_id
 _symmetry_equiv_pos_as_xyz
  1  'x, y, z'
loop_
 _atom_site_type_symbol
 _atom_site_label
 _atom_site_symmetry_multiplicity
 _atom_site_fract_x
 _atom_site_fract_y
 _atom_site_fract_z
 _atom_site_occupancy
  Cs  Cs0  1  0.464693  0.368313  0.328103  1
  Cs  Cs1  1  0.535308  0.631687  0.671897  1
  Er  Er2  1  0.920854  0.760557  0.003764  1
  Er  Er3  1  0.079146  0.239443  0.996235  1
  Er  Er4  1  0.758061  0.080651  0.001276  1
  Er  Er5  1  0.241938  0.919349  0.998725  1
  Er  Er6  1  0.973223  0.896383  0.309181  1
  Er  Er7  1  0.026776  0.103617  0.690820  1
  C  C8  1  0.006621  0.024825  0.923661  1
  C  C9  1  0.993378  0.975175  0.076339  1
  I  I10  1  0.074004  0.199376  0.328511  1
  I  I11  1  0.925996  0.800624  0.671489  1
  I  I12  1  0.202240  0.596484  0.999891  1
  I  I13  1  0.797761  0.403516  0.000109  1
  I  I14  1  0.401298  0.198768  0.001725  1
  I  I15  1  0.598701  0.801233  0.998274  1
  I  I16  1  0.664848  0.001975  0.326499  1
  I  I17  1  0.335152  0.998025  0.673501  1
  I  I18  1  0.278201  0.779118  0.322632  1
  I  I19  1  0.721799  0.220882  0.677368  1
  I  I20  1  0.853396  0.592141  0.326812  1
  I  I21  1  0.146603  0.407859  0.673188  1
