# generated using pymatgen
data_Tb8Hf7Zr4Si16Tc
_symmetry_space_group_name_H-M   'P 1'
_cell_length_a   7.28759580
_cell_length_b   7.28710805
_cell_length_c   13.34645571
_cell_angle_alpha   89.99648501
_cell_angle_beta   90.11999951
_cell_angle_gamma   90.04787885
_symmetry_Int_Tables_number   1
_chemical_formula_structural   Tb8Hf7Zr4Si16Tc
_chemical_formula_sum   'Tb8 Hf7 Zr4 Si16 Tc1'
_cell_volume   708.76837438
_cell_formula_units_Z   1
loop_
 _symmetry_equiv_pos_site_id
 _symmetry_equiv_pos_as_xyz
  1  'x, y, z'
loop_
 _atom_site_type_symbol
 _atom_site_label
 _atom_site_symmetry_multiplicity
 _atom_site_fract_x
 _atom_site_fract_y
 _atom_site_fract_z
 _atom_site_occupancy
  Tb  Tb0  1  0.999148  0.343398  0.211282  1
  Tb  Tb1  1  0.004627  0.655404  0.717318  1
  Tb  Tb2  1  0.156223  0.495818  0.465042  1
  Tb  Tb3  1  0.501103  0.845954  0.033679  1
  Tb  Tb4  1  0.845941  0.500885  0.966124  1
  Tb  Tb5  1  0.495673  0.156089  0.535249  1
  Tb  Tb6  1  0.343257  0.998956  0.788439  1
  Tb  Tb7  1  0.654731  0.004634  0.282983  1
  Hf  Hf8  1  0.853768  0.005347  0.878118  1
  Hf  Hf9  1  0.503981  0.647393  0.625694  1
  Hf  Hf10  1  0.350687  0.493675  0.877020  1
  Hf  Hf11  1  0.494039  0.350807  0.122763  1
  Hf  Hf12  1  0.647614  0.503800  0.374549  1
  Hf  Hf13  1  0.996434  0.147525  0.627426  1
  Hf  Hf14  1  0.005268  0.853314  0.121692  1
  Zr  Zr15  1  0.824796  0.824872  0.500188  1
  Zr  Zr16  1  0.324322  0.675383  0.247980  1
  Zr  Zr17  1  0.675230  0.324176  0.751926  1
  Zr  Zr18  1  0.147677  0.997243  0.372850  1
  Si  Si19  1  0.362864  0.295145  0.315131  1
  Si  Si20  1  0.636961  0.706587  0.818481  1
  Si  Si21  1  0.207070  0.862238  0.568101  1
  Si  Si22  1  0.136455  0.794619  0.932206  1
  Si  Si23  1  0.794850  0.136396  0.067567  1
  Si  Si24  1  0.861055  0.207444  0.433363  1
  Si  Si25  1  0.293716  0.362240  0.684304  1
  Si  Si26  1  0.706699  0.637005  0.181541  1
  Si  Si27  1  0.293206  0.054864  0.180463  1
  Si  Si28  1  0.704358  0.949998  0.687320  1
  Si  Si29  1  0.449913  0.795291  0.436378  1
  Si  Si30  1  0.205182  0.547500  0.062887  1
  Si  Si31  1  0.547523  0.205136  0.936937  1
  Si  Si32  1  0.795815  0.448648  0.564088  1
  Si  Si33  1  0.054373  0.292776  0.818790  1
  Si  Si34  1  0.949071  0.703093  0.312397  1
  Tc  Tc35  1  0.176368  0.176349  0.999723  1
