# generated using pymatgen
data_Tb4Tm6SiBi5
_symmetry_space_group_name_H-M   'P 1'
_cell_length_a   8.08120700
_cell_length_b   9.32177500
_cell_length_c   11.96925500
_cell_angle_alpha   90.00000000
_cell_angle_beta   90.00000000
_cell_angle_gamma   90.00000000
_symmetry_Int_Tables_number   1
_chemical_formula_structural   Tb4Tm6SiBi5
_chemical_formula_sum   'Tb8 Tm12 Si2 Bi10'
_cell_volume   901.65826305
_cell_formula_units_Z   2
loop_
 _symmetry_equiv_pos_site_id
 _symmetry_equiv_pos_as_xyz
  1  'x, y, z'
loop_
 _atom_site_type_symbol
 _atom_site_label
 _atom_site_symmetry_multiplicity
 _atom_site_fract_x
 _atom_site_fract_y
 _atom_site_fract_z
 _atom_site_occupancy
  Tb  Tb0  1  0.168695  0.750000  0.710210  1
  Tb  Tb1  1  0.668695  0.750000  0.789790  1
  Tb  Tb2  1  0.813922  0.250000  0.280052  1
  Tb  Tb3  1  0.313922  0.250000  0.219948  1
  Tb  Tb4  1  0.350632  0.750000  0.205479  1
  Tb  Tb5  1  0.850632  0.750000  0.294521  1
  Tb  Tb6  1  0.651905  0.250000  0.783186  1
  Tb  Tb7  1  0.151905  0.250000  0.716814  1
  Tm  Tm8  1  0.039235  0.750000  0.987987  1
  Tm  Tm9  1  0.539235  0.750000  0.512013  1
  Tm  Tm10  1  0.982419  0.250000  0.008299  1
  Tm  Tm11  1  0.482419  0.250000  0.491701  1
  Tm  Tm12  1  0.312226  0.453663  0.939697  1
  Tm  Tm13  1  0.812226  0.046337  0.560303  1
  Tm  Tm14  1  0.683191  0.927799  0.054805  1
  Tm  Tm15  1  0.183191  0.572201  0.445195  1
  Tm  Tm16  1  0.683191  0.572201  0.054805  1
  Tm  Tm17  1  0.183191  0.927799  0.445195  1
  Tm  Tm18  1  0.312226  0.046337  0.939697  1
  Tm  Tm19  1  0.812226  0.453663  0.560303  1
  Si  Si20  1  0.413855  0.750000  0.966824  1
  Si  Si21  1  0.913855  0.750000  0.533176  1
  Bi  Bi22  1  0.435795  0.000996  0.673599  1
  Bi  Bi23  1  0.935795  0.499004  0.826401  1
  Bi  Bi24  1  0.560917  0.504153  0.326298  1
  Bi  Bi25  1  0.060917  0.995847  0.173702  1
  Bi  Bi26  1  0.560917  0.995847  0.326298  1
  Bi  Bi27  1  0.060917  0.504153  0.173702  1
  Bi  Bi28  1  0.435795  0.499004  0.673599  1
  Bi  Bi29  1  0.935795  0.000996  0.826401  1
  Bi  Bi30  1  0.595080  0.250000  0.041498  1
  Bi  Bi31  1  0.095080  0.250000  0.458502  1
