# generated using pymatgen
data_Y2Al9Os2Pd
_symmetry_space_group_name_H-M   'P 1'
_cell_length_a   7.58855590
_cell_length_b   7.58855574
_cell_length_c   9.56396800
_cell_angle_alpha   90.00000000
_cell_angle_beta   90.00000000
_cell_angle_gamma   119.44444489
_symmetry_Int_Tables_number   1
_chemical_formula_structural   Y2Al9Os2Pd
_chemical_formula_sum   'Y4 Al18 Os4 Pd2'
_cell_volume   479.61320740
_cell_formula_units_Z   2
loop_
 _symmetry_equiv_pos_site_id
 _symmetry_equiv_pos_as_xyz
  1  'x, y, z'
loop_
 _atom_site_type_symbol
 _atom_site_label
 _atom_site_symmetry_multiplicity
 _atom_site_fract_x
 _atom_site_fract_y
 _atom_site_fract_z
 _atom_site_occupancy
  Y  Y0  1  0.997627  0.669835  0.250000  1
  Y  Y1  1  0.002373  0.330165  0.750000  1
  Y  Y2  1  0.669835  0.997627  0.250000  1
  Y  Y3  1  0.330165  0.002373  0.750000  1
  Al  Al4  1  0.132393  0.132393  0.250000  1
  Al  Al5  1  0.867607  0.867607  0.750000  1
  Al  Al6  1  0.002831  0.340060  0.071809  1
  Al  Al7  1  0.997169  0.659940  0.928191  1
  Al  Al8  1  0.997169  0.659940  0.571809  1
  Al  Al9  1  0.340060  0.002831  0.428191  1
  Al  Al10  1  0.002831  0.340060  0.428191  1
  Al  Al11  1  0.659940  0.997169  0.571809  1
  Al  Al12  1  0.659940  0.997169  0.928191  1
  Al  Al13  1  0.340060  0.002831  0.071809  1
  Al  Al14  1  0.339383  0.339383  0.548743  1
  Al  Al15  1  0.660617  0.660617  0.451257  1
  Al  Al16  1  0.660617  0.660617  0.048743  1
  Al  Al17  1  0.339383  0.339383  0.951257  1
  Al  Al18  1  0.336123  0.548809  0.250000  1
  Al  Al19  1  0.663877  0.451191  0.750000  1
  Al  Al20  1  0.548809  0.336123  0.250000  1
  Al  Al21  1  0.451191  0.663877  0.750000  1
  Os  Os22  1  0.672592  0.327408  0.000000  1
  Os  Os23  1  0.327408  0.672592  0.000000  1
  Os  Os24  1  0.327408  0.672592  0.500000  1
  Os  Os25  1  0.672592  0.327408  0.500000  1
  Pd  Pd26  1  0.000000  0.000000  0.000000  1
  Pd  Pd27  1  0.000000  0.000000  0.500000  1
