# generated using pymatgen
data_Tm7Sc9(Ga3Fe)2
_symmetry_space_group_name_H-M   'P 1'
_cell_length_a   9.46004075
_cell_length_b   9.46001045
_cell_length_c   6.78617061
_cell_angle_alpha   89.93257498
_cell_angle_beta   90.06748728
_cell_angle_gamma   120.00901110
_symmetry_Int_Tables_number   1
_chemical_formula_structural   Tm7Sc9(Ga3Fe)2
_chemical_formula_sum   'Tm7 Sc9 Ga6 Fe2'
_cell_volume   525.89638515
_cell_formula_units_Z   1
loop_
 _symmetry_equiv_pos_site_id
 _symmetry_equiv_pos_as_xyz
  1  'x, y, z'
loop_
 _atom_site_type_symbol
 _atom_site_label
 _atom_site_symmetry_multiplicity
 _atom_site_fract_x
 _atom_site_fract_y
 _atom_site_fract_z
 _atom_site_occupancy
  Tm  Tm0  1  0.931916  0.465594  0.787548  1
  Tm  Tm1  1  0.534406  0.068084  0.787547  1
  Tm  Tm2  1  0.466152  0.931854  0.289167  1
  Tm  Tm3  1  0.068147  0.533848  0.289167  1
  Tm  Tm4  1  0.533329  0.466671  0.788284  1
  Tm  Tm5  1  0.000078  0.999925  0.270952  1
  Tm  Tm6  1  0.999373  0.000626  0.771001  1
  Sc  Sc7  1  0.175460  0.824541  0.987963  1
  Sc  Sc8  1  0.350377  0.178006  0.483754  1
  Sc  Sc9  1  0.821995  0.649622  0.483752  1
  Sc  Sc10  1  0.177959  0.351444  0.992122  1
  Sc  Sc11  1  0.648554  0.822040  0.992122  1
  Sc  Sc12  1  0.826279  0.173720  0.485788  1
  Sc  Sc13  1  0.334175  0.665826  0.672184  1
  Sc  Sc14  1  0.664698  0.335301  0.176110  1
  Sc  Sc15  1  0.463582  0.536418  0.288999  1
  Ga  Ga16  1  0.163619  0.836383  0.549919  1
  Ga  Ga17  1  0.328489  0.163698  0.048896  1
  Ga  Ga18  1  0.836302  0.671512  0.048896  1
  Ga  Ga19  1  0.167250  0.331155  0.546635  1
  Ga  Ga20  1  0.668844  0.832750  0.546636  1
  Ga  Ga21  1  0.835763  0.164237  0.049737  1
  Fe  Fe22  1  0.335808  0.664194  0.046344  1
  Fe  Fe23  1  0.667445  0.332553  0.540488  1
