# generated using pymatgen
data_Hf6Co16MoP12W
_symmetry_space_group_name_H-M   'P 1'
_cell_length_a   11.92877827
_cell_length_b   11.92992238
_cell_length_c   3.64383500
_cell_angle_alpha   90.00000000
_cell_angle_beta   90.00000000
_cell_angle_gamma   119.96719811
_symmetry_Int_Tables_number   1
_chemical_formula_structural   Hf6Co16MoP12W
_chemical_formula_sum   'Hf6 Co16 Mo1 P12 W1'
_cell_volume   449.22753989
_cell_formula_units_Z   1
loop_
 _symmetry_equiv_pos_site_id
 _symmetry_equiv_pos_as_xyz
  1  'x, y, z'
loop_
 _atom_site_type_symbol
 _atom_site_label
 _atom_site_symmetry_multiplicity
 _atom_site_fract_x
 _atom_site_fract_y
 _atom_site_fract_z
 _atom_site_occupancy
  Hf  Hf0  1  0.821076  0.819701  0.500000  1
  Hf  Hf1  1  0.000082  0.174810  0.500000  1
  Hf  Hf2  1  0.334429  0.667870  0.000000  1
  Hf  Hf3  1  0.665834  0.333462  0.000000  1
  Hf  Hf4  1  0.000023  0.556224  0.000000  1
  Hf  Hf5  1  0.179220  0.998704  0.500000  1
  Co  Co6  1  0.625689  0.821718  0.000000  1
  Co  Co7  1  0.374227  0.196168  0.000000  1
  Co  Co8  1  0.000021  0.721648  0.500000  1
  Co  Co9  1  0.279966  0.279518  0.500000  1
  Co  Co10  1  0.870722  0.351880  0.500000  1
  Co  Co11  1  0.720332  0.999516  0.500000  1
  Co  Co12  1  0.817022  0.626765  0.000000  1
  Co  Co13  1  0.183041  0.809782  0.000000  1
  Co  Co14  1  0.357847  0.874700  0.500000  1
  Co  Co15  1  0.129487  0.481273  0.500000  1
  Co  Co16  1  0.641358  0.516190  0.500000  1
  Co  Co17  1  0.999760  0.999520  0.000000  1
  Co  Co18  1  0.513526  0.645494  0.500000  1
  Co  Co19  1  0.485982  0.132243  0.500000  1
  Co  Co20  1  0.195105  0.370530  0.000000  1
  Co  Co21  1  0.805000  0.175633  0.000000  1
  Mo  Mo22  1  0.552192  0.001679  0.000000  1
  P  P23  1  0.999878  0.345111  0.000000  1
  P  P24  1  0.825216  0.516536  0.500000  1
  P  P25  1  0.685946  0.167041  0.500000  1
  P  P26  1  0.176169  0.173688  0.000000  1
  P  P27  1  0.643366  0.646972  0.000000  1
  P  P28  1  0.823356  0.997572  0.000000  1
  P  P29  1  0.518216  0.833491  0.500000  1
  P  P30  1  0.174810  0.691300  0.500000  1
  P  P31  1  0.357466  0.003509  0.000000  1
  P  P32  1  0.481826  0.314926  0.500000  1
  P  P33  1  0.000072  0.824094  0.000000  1
  P  P34  1  0.313807  0.481172  0.500000  1
  W  W35  1  0.447928  0.449564  0.000000  1
