# generated using pymatgen
data_Tb3Ni29(Ge2B5)2
_symmetry_space_group_name_H-M   'P 1'
_cell_length_a   11.12821700
_cell_length_b   11.12821700
_cell_length_c   7.81931600
_cell_angle_alpha   90.00000000
_cell_angle_beta   90.00000000
_cell_angle_gamma   90.00000000
_symmetry_Int_Tables_number   1
_chemical_formula_structural   Tb3Ni29(Ge2B5)2
_chemical_formula_sum   'Tb6 Ni58 Ge8 B20'
_cell_volume   968.32230569
_cell_formula_units_Z   2
loop_
 _symmetry_equiv_pos_site_id
 _symmetry_equiv_pos_as_xyz
  1  'x, y, z'
loop_
 _atom_site_type_symbol
 _atom_site_label
 _atom_site_symmetry_multiplicity
 _atom_site_fract_x
 _atom_site_fract_y
 _atom_site_fract_z
 _atom_site_occupancy
  Tb  Tb0  1  0.250000  0.750000  0.000000  1
  Tb  Tb1  1  0.250000  0.250000  0.000000  1
  Tb  Tb2  1  0.750000  0.750000  0.000000  1
  Tb  Tb3  1  0.750000  0.250000  0.000000  1
  Tb  Tb4  1  0.000000  0.000000  0.500000  1
  Tb  Tb5  1  0.500000  0.500000  0.500000  1
  Ni  Ni6  1  0.340461  0.675660  0.335739  1
  Ni  Ni7  1  0.271544  0.000000  0.524627  1
  Ni  Ni8  1  0.500000  0.771544  0.524627  1
  Ni  Ni9  1  0.500000  0.228456  0.524627  1
  Ni  Ni10  1  0.834385  0.500000  0.969013  1
  Ni  Ni11  1  0.000000  0.665615  0.969013  1
  Ni  Ni12  1  0.000000  0.334385  0.969013  1
  Ni  Ni13  1  0.165615  0.500000  0.969013  1
  Ni  Ni14  1  0.665615  0.000000  0.030987  1
  Ni  Ni15  1  0.334385  0.000000  0.030987  1
  Ni  Ni16  1  0.500000  0.834385  0.030987  1
  Ni  Ni17  1  0.500000  0.165615  0.030987  1
  Ni  Ni18  1  0.883216  0.383216  0.248057  1
  Ni  Ni19  1  0.883216  0.616784  0.248057  1
  Ni  Ni20  1  0.116784  0.383216  0.248057  1
  Ni  Ni21  1  0.116784  0.616784  0.248057  1
  Ni  Ni22  1  0.616784  0.883216  0.751943  1
  Ni  Ni23  1  0.383216  0.116784  0.751943  1
  Ni  Ni24  1  0.383216  0.883216  0.751943  1
  Ni  Ni25  1  0.616784  0.116784  0.751943  1
  Ni  Ni26  1  0.889964  0.389964  0.699932  1
  Ni  Ni27  1  0.889964  0.610036  0.699932  1
  Ni  Ni28  1  0.110036  0.389964  0.699932  1
  Ni  Ni29  1  0.110036  0.610036  0.699932  1
  Ni  Ni30  1  0.610036  0.889964  0.300068  1
  Ni  Ni31  1  0.389964  0.110036  0.300068  1
  Ni  Ni32  1  0.389964  0.889964  0.300068  1
  Ni  Ni33  1  0.610036  0.110036  0.300068  1
  Ni  Ni34  1  0.340461  0.324340  0.335739  1
  Ni  Ni35  1  0.824340  0.159539  0.335739  1
  Ni  Ni36  1  0.175660  0.840461  0.335739  1
  Ni  Ni37  1  0.659539  0.675660  0.335739  1
  Ni  Ni38  1  0.159539  0.824340  0.664261  1
  Ni  Ni39  1  0.840461  0.175660  0.664261  1
  Ni  Ni40  1  0.324340  0.340461  0.664261  1
  Ni  Ni41  1  0.611242  0.500000  0.885559  1
  Ni  Ni42  1  0.159539  0.175660  0.664261  1
  Ni  Ni43  1  0.675660  0.340461  0.664261  1
  Ni  Ni44  1  0.324340  0.659539  0.664261  1
  Ni  Ni45  1  0.840461  0.824340  0.664261  1
  Ni  Ni46  1  0.728456  0.000000  0.524627  1
  Ni  Ni47  1  0.000000  0.888758  0.885559  1
  Ni  Ni48  1  0.175660  0.159539  0.335739  1
  Ni  Ni49  1  0.824340  0.840461  0.335739  1
  Ni  Ni50  1  0.000000  0.111242  0.885559  1
  Ni  Ni51  1  0.388758  0.500000  0.885559  1
  Ni  Ni52  1  0.500000  0.000000  0.534999  1
  Ni  Ni53  1  0.000000  0.500000  0.465001  1
  Ni  Ni54  1  0.111242  0.000000  0.114441  1
  Ni  Ni55  1  0.228456  0.500000  0.475373  1
  Ni  Ni56  1  0.000000  0.271544  0.475373  1
  Ni  Ni57  1  0.000000  0.728456  0.475373  1
  Ni  Ni58  1  0.771544  0.500000  0.475373  1
  Ni  Ni59  1  0.500000  0.611242  0.114441  1
  Ni  Ni60  1  0.500000  0.388758  0.114441  1
  Ni  Ni61  1  0.888758  0.000000  0.114441  1
  Ni  Ni62  1  0.675660  0.659539  0.664261  1
  Ni  Ni63  1  0.659539  0.324340  0.335739  1
  Ge  Ge64  1  0.500000  0.684891  0.822264  1
  Ge  Ge65  1  0.315109  0.500000  0.177736  1
  Ge  Ge66  1  0.000000  0.184891  0.177736  1
  Ge  Ge67  1  0.000000  0.815109  0.177736  1
  Ge  Ge68  1  0.684891  0.500000  0.177736  1
  Ge  Ge69  1  0.184891  0.000000  0.822264  1
  Ge  Ge70  1  0.815109  0.000000  0.822264  1
  Ge  Ge71  1  0.500000  0.315109  0.822264  1
  B  B72  1  0.687186  0.187186  0.518436  1
  B  B73  1  0.312814  0.812814  0.518436  1
  B  B74  1  0.312814  0.187186  0.518436  1
  B  B75  1  0.687186  0.812814  0.518436  1
  B  B76  1  0.187186  0.687186  0.481564  1
  B  B77  1  0.187186  0.312814  0.481564  1
  B  B78  1  0.500000  0.253723  0.263637  1
  B  B79  1  0.500000  0.746277  0.263637  1
  B  B80  1  0.246277  0.000000  0.263637  1
  B  B81  1  0.753723  0.000000  0.263637  1
  B  B82  1  0.253723  0.500000  0.736363  1
  B  B83  1  0.000000  0.246277  0.736363  1
  B  B84  1  0.000000  0.753723  0.736363  1
  B  B85  1  0.746277  0.500000  0.736363  1
  B  B86  1  0.500000  0.000000  0.144444  1
  B  B87  1  0.000000  0.500000  0.855556  1
  B  B88  1  0.500000  0.000000  0.895350  1
  B  B89  1  0.000000  0.500000  0.104650  1
  B  B90  1  0.812814  0.687186  0.481564  1
  B  B91  1  0.812814  0.312814  0.481564  1
