# generated using pymatgen
data_Nd4Zn10GaPb
_symmetry_space_group_name_H-M   'P 1'
_cell_length_a   8.52967411
_cell_length_b   8.52967607
_cell_length_c   9.04363900
_cell_angle_alpha   90.00000000
_cell_angle_beta   90.00000000
_cell_angle_gamma   149.43738680
_symmetry_Int_Tables_number   1
_chemical_formula_structural   Nd4Zn10GaPb
_chemical_formula_sum   'Nd4 Zn10 Ga1 Pb1'
_cell_volume   334.56597740
_cell_formula_units_Z   1
loop_
 _symmetry_equiv_pos_site_id
 _symmetry_equiv_pos_as_xyz
  1  'x, y, z'
loop_
 _atom_site_type_symbol
 _atom_site_label
 _atom_site_symmetry_multiplicity
 _atom_site_fract_x
 _atom_site_fract_y
 _atom_site_fract_z
 _atom_site_occupancy
  Nd  Nd0  1  0.201160  0.798840  0.250000  1
  Nd  Nd1  1  0.795459  0.204541  0.750000  1
  Nd  Nd2  1  0.000417  0.999583  0.485667  1
  Nd  Nd3  1  0.000417  0.999583  0.014333  1
  Zn  Zn4  1  0.812762  0.187238  0.390692  1
  Zn  Zn5  1  0.186199  0.813801  0.606186  1
  Zn  Zn6  1  0.812762  0.187238  0.109308  1
  Zn  Zn7  1  0.186199  0.813801  0.893814  1
  Zn  Zn8  1  0.649931  0.350069  0.477439  1
  Zn  Zn9  1  0.343023  0.656977  0.510781  1
  Zn  Zn10  1  0.649931  0.350069  0.022561  1
  Zn  Zn11  1  0.343023  0.656977  0.989219  1
  Zn  Zn12  1  0.404300  0.595700  0.250000  1
  Zn  Zn13  1  0.609757  0.390243  0.750000  1
  Ga  Ga14  1  0.557774  0.442226  0.250000  1
  Pb  Pb15  1  0.446884  0.553116  0.750000  1
