# generated using pymatgen
data_Er7Zr(Si4Tc3)4
_symmetry_space_group_name_H-M   'P 1'
_cell_length_a   6.75858132
_cell_length_b   6.75645491
_cell_length_c   12.62719181
_cell_angle_alpha   89.85098539
_cell_angle_beta   90.01429275
_cell_angle_gamma   90.25127860
_symmetry_Int_Tables_number   1
_chemical_formula_structural   Er7Zr(Si4Tc3)4
_chemical_formula_sum   'Er7 Zr1 Si16 Tc12'
_cell_volume   576.60120607
_cell_formula_units_Z   1
loop_
 _symmetry_equiv_pos_site_id
 _symmetry_equiv_pos_as_xyz
  1  'x, y, z'
loop_
 _atom_site_type_symbol
 _atom_site_label
 _atom_site_symmetry_multiplicity
 _atom_site_fract_x
 _atom_site_fract_y
 _atom_site_fract_z
 _atom_site_occupancy
  Er  Er0  1  0.002767  0.661557  0.029709  1
  Er  Er1  1  0.997075  0.338680  0.530331  1
  Er  Er2  1  0.659742  0.004733  0.969006  1
  Er  Er3  1  0.161643  0.492797  0.780691  1
  Er  Er4  1  0.837614  0.506977  0.282052  1
  Er  Er5  1  0.493084  0.162626  0.218927  1
  Er  Er6  1  0.505596  0.837327  0.719147  1
  Zr  Zr7  1  0.340656  0.993030  0.468064  1
  Si  Si8  1  0.024662  0.731552  0.437704  1
  Si  Si9  1  0.981083  0.268348  0.938611  1
  Si  Si10  1  0.727009  0.021978  0.562101  1
  Si  Si11  1  0.218529  0.476252  0.186969  1
  Si  Si12  1  0.775615  0.520739  0.686760  1
  Si  Si13  1  0.479466  0.225020  0.810951  1
  Si  Si14  1  0.524171  0.782276  0.315564  1
  Si  Si15  1  0.269007  0.980021  0.062263  1
  Si  Si16  1  0.885486  0.804649  0.814322  1
  Si  Si17  1  0.118444  0.194489  0.317473  1
  Si  Si18  1  0.804179  0.884438  0.185477  1
  Si  Si19  1  0.308252  0.615987  0.562889  1
  Si  Si20  1  0.691902  0.384970  0.063877  1
  Si  Si21  1  0.614297  0.305202  0.436531  1
  Si  Si22  1  0.385880  0.690565  0.937110  1
  Si  Si23  1  0.195471  0.114220  0.682699  1
  Tc  Tc24  1  0.322746  0.484630  0.376635  1
  Tc  Tc25  1  0.813437  0.026362  0.369614  1
  Tc  Tc26  1  0.974532  0.188199  0.132951  1
  Tc  Tc27  1  0.027141  0.813085  0.629185  1
  Tc  Tc28  1  0.685396  0.516547  0.879098  1
  Tc  Tc29  1  0.477926  0.312237  0.618108  1
  Tc  Tc30  1  0.512811  0.679140  0.125589  1
  Tc  Tc31  1  0.188269  0.975325  0.868623  1
  Tc  Tc32  1  0.664704  0.671899  0.499804  1
  Tc  Tc33  1  0.833659  0.164224  0.748227  1
  Tc  Tc34  1  0.164967  0.837508  0.252709  1
  Tc  Tc35  1  0.332782  0.332413  0.000230  1
