# generated using pymatgen
data_Sr20(HgAu3)3
_symmetry_space_group_name_H-M   'P 1'
_cell_length_a   8.45879600
_cell_length_b   8.45879600
_cell_length_c   15.57569500
_cell_angle_alpha   90.00000000
_cell_angle_beta   90.00000000
_cell_angle_gamma   90.00000000
_symmetry_Int_Tables_number   1
_chemical_formula_structural   Sr20(HgAu3)3
_chemical_formula_sum   'Sr20 Hg3 Au9'
_cell_volume   1114.46013177
_cell_formula_units_Z   1
loop_
 _symmetry_equiv_pos_site_id
 _symmetry_equiv_pos_as_xyz
  1  'x, y, z'
loop_
 _atom_site_type_symbol
 _atom_site_label
 _atom_site_symmetry_multiplicity
 _atom_site_fract_x
 _atom_site_fract_y
 _atom_site_fract_z
 _atom_site_occupancy
  Sr  Sr0  1  0.000000  0.000000  0.755296  1
  Sr  Sr1  1  0.500000  0.500000  0.250297  1
  Sr  Sr2  1  0.000000  0.000000  0.244704  1
  Sr  Sr3  1  0.500000  0.500000  0.749703  1
  Sr  Sr4  1  0.172257  0.659770  0.106867  1
  Sr  Sr5  1  0.666104  0.165879  0.610428  1
  Sr  Sr6  1  0.827743  0.340230  0.106867  1
  Sr  Sr7  1  0.333896  0.834121  0.610428  1
  Sr  Sr8  1  0.340230  0.172257  0.106867  1
  Sr  Sr9  1  0.834121  0.666104  0.610428  1
  Sr  Sr10  1  0.659770  0.827743  0.106867  1
  Sr  Sr11  1  0.165879  0.333896  0.610428  1
  Sr  Sr12  1  0.340230  0.827743  0.893133  1
  Sr  Sr13  1  0.834121  0.333896  0.389572  1
  Sr  Sr14  1  0.659770  0.172257  0.893133  1
  Sr  Sr15  1  0.165879  0.666104  0.389572  1
  Sr  Sr16  1  0.172257  0.340230  0.893133  1
  Sr  Sr17  1  0.666104  0.834121  0.389572  1
  Sr  Sr18  1  0.827743  0.659770  0.893133  1
  Sr  Sr19  1  0.333896  0.165879  0.389572  1
  Hg  Hg20  1  0.000000  0.000000  0.500000  1
  Hg  Hg21  1  0.000000  0.000000  0.000000  1
  Hg  Hg22  1  0.500000  0.500000  0.500000  1
  Au  Au23  1  0.627888  0.128292  0.248447  1
  Au  Au24  1  0.128292  0.627888  0.751553  1
  Au  Au25  1  0.871708  0.372112  0.751553  1
  Au  Au26  1  0.372112  0.871708  0.248447  1
  Au  Au27  1  0.372112  0.128292  0.751553  1
  Au  Au28  1  0.871708  0.627888  0.248447  1
  Au  Au29  1  0.128292  0.372112  0.248447  1
  Au  Au30  1  0.627888  0.871708  0.751553  1
  Au  Au31  1  0.500000  0.500000  0.000000  1
