# generated using pymatgen
data_AcLa2RuI3
_symmetry_space_group_name_H-M   'P 1'
_cell_length_a   4.46072100
_cell_length_b   9.90007726
_cell_length_c   12.57368204
_cell_angle_alpha   86.26151674
_cell_angle_beta   90.00000000
_cell_angle_gamma   90.00000000
_symmetry_Int_Tables_number   1
_chemical_formula_structural   AcLa2RuI3
_chemical_formula_sum   'Ac2 La4 Ru2 I6'
_cell_volume   554.09084737
_cell_formula_units_Z   2
loop_
 _symmetry_equiv_pos_site_id
 _symmetry_equiv_pos_as_xyz
  1  'x, y, z'
loop_
 _atom_site_type_symbol
 _atom_site_label
 _atom_site_symmetry_multiplicity
 _atom_site_fract_x
 _atom_site_fract_y
 _atom_site_fract_z
 _atom_site_occupancy
  Ac  Ac0  1  0.250000  0.317585  0.878857  1
  Ac  Ac1  1  0.750000  0.682415  0.121143  1
  La  La2  1  0.750000  0.115252  0.670070  1
  La  La3  1  0.250000  0.884748  0.329930  1
  La  La4  1  0.750000  0.093631  0.102869  1
  La  La5  1  0.250000  0.906369  0.897131  1
  Ru  Ru6  1  0.750000  0.109394  0.867517  1
  Ru  Ru7  1  0.250000  0.890606  0.132483  1
  I  I8  1  0.750000  0.122851  0.377855  1
  I  I9  1  0.250000  0.877149  0.622145  1
  I  I10  1  0.250000  0.357368  0.611240  1
  I  I11  1  0.750000  0.642632  0.388760  1
  I  I12  1  0.750000  0.613762  0.856527  1
  I  I13  1  0.250000  0.386238  0.143473  1
