# generated using pymatgen
data_Dy6GaCuTc
_symmetry_space_group_name_H-M   'P 1'
_cell_length_a   8.45107422
_cell_length_b   8.45107482
_cell_length_c   8.45107400
_cell_angle_alpha   104.18822295
_cell_angle_beta   110.95844408
_cell_angle_gamma   113.40332018
_symmetry_Int_Tables_number   1
_chemical_formula_structural   Dy6GaCuTc
_chemical_formula_sum   'Dy12 Ga2 Cu2 Tc2'
_cell_volume   461.47849814
_cell_formula_units_Z   2
loop_
 _symmetry_equiv_pos_site_id
 _symmetry_equiv_pos_as_xyz
  1  'x, y, z'
loop_
 _atom_site_type_symbol
 _atom_site_label
 _atom_site_symmetry_multiplicity
 _atom_site_fract_x
 _atom_site_fract_y
 _atom_site_fract_z
 _atom_site_occupancy
  Dy  Dy0  1  0.690674  0.259275  0.949949  1
  Dy  Dy1  1  0.309326  0.740725  0.050051  1
  Dy  Dy2  1  0.690674  0.740725  0.431400  1
  Dy  Dy3  1  0.309326  0.259275  0.568600  1
  Dy  Dy4  1  0.811574  0.148287  0.336713  1
  Dy  Dy5  1  0.811574  0.474861  0.663287  1
  Dy  Dy6  1  0.188426  0.851713  0.663287  1
  Dy  Dy7  1  0.188426  0.525139  0.336713  1
  Dy  Dy8  1  0.593458  0.775334  0.818122  1
  Dy  Dy9  1  0.957211  0.775334  0.181878  1
  Dy  Dy10  1  0.042789  0.224666  0.818122  1
  Dy  Dy11  1  0.406542  0.224666  0.181878  1
  Ga  Ga12  1  0.500000  0.500000  0.000000  1
  Ga  Ga13  1  0.500000  0.000000  0.500000  1
  Cu  Cu14  1  0.000000  0.119337  0.119337  1
  Cu  Cu15  1  0.000000  0.880663  0.880663  1
  Tc  Tc16  1  0.823075  0.500000  0.323075  1
  Tc  Tc17  1  0.176925  0.500000  0.676925  1
