# generated using pymatgen
data_Y7HfNb12Si15Ge
_symmetry_space_group_name_H-M   'P 1'
_cell_length_a   6.86525007
_cell_length_b   7.06905555
_cell_length_c   13.40444842
_cell_angle_alpha   90.13287205
_cell_angle_beta   90.05137846
_cell_angle_gamma   90.06392869
_symmetry_Int_Tables_number   1
_chemical_formula_structural   Y7HfNb12Si15Ge
_chemical_formula_sum   'Y7 Hf1 Nb12 Si15 Ge1'
_cell_volume   650.52664489
_cell_formula_units_Z   1
loop_
 _symmetry_equiv_pos_site_id
 _symmetry_equiv_pos_as_xyz
  1  'x, y, z'
loop_
 _atom_site_type_symbol
 _atom_site_label
 _atom_site_symmetry_multiplicity
 _atom_site_fract_x
 _atom_site_fract_y
 _atom_site_fract_z
 _atom_site_occupancy
  Y  Y0  1  0.501333  0.672374  0.595553  1
  Y  Y1  1  0.003354  0.828493  0.903689  1
  Y  Y2  1  0.495911  0.329460  0.095790  1
  Y  Y3  1  0.999024  0.169181  0.407548  1
  Y  Y4  1  0.495222  0.328225  0.405842  1
  Y  Y5  1  0.998671  0.170277  0.094518  1
  Y  Y6  1  0.502758  0.672065  0.902226  1
  Hf  Hf7  1  0.002266  0.824258  0.599979  1
  Nb  Nb8  1  0.664876  0.172668  0.624393  1
  Nb  Nb9  1  0.161746  0.325200  0.872057  1
  Nb  Nb10  1  0.337851  0.825535  0.125620  1
  Nb  Nb11  1  0.839918  0.680229  0.376802  1
  Nb  Nb12  1  0.336797  0.825552  0.375274  1
  Nb  Nb13  1  0.837178  0.676827  0.125678  1
  Nb  Nb14  1  0.664815  0.173977  0.872594  1
  Nb  Nb15  1  0.161989  0.324793  0.624631  1
  Nb  Nb16  1  0.838114  0.493416  0.747810  1
  Nb  Nb17  1  0.335866  0.006389  0.747933  1
  Nb  Nb18  1  0.164648  0.510379  0.251089  1
  Nb  Nb19  1  0.662255  0.989587  0.251170  1
  Si  Si20  1  0.665363  0.962608  0.461512  1
  Si  Si21  1  0.161594  0.537470  0.040624  1
  Si  Si22  1  0.338377  0.038219  0.958298  1
  Si  Si23  1  0.839331  0.468430  0.541953  1
  Si  Si24  1  0.328212  0.032727  0.541809  1
  Si  Si25  1  0.836600  0.462538  0.958890  1
  Si  Si26  1  0.662091  0.963112  0.040193  1
  Si  Si27  1  0.161560  0.541853  0.462038  1
  Si  Si28  1  0.458587  0.375242  0.748649  1
  Si  Si29  1  0.959728  0.119907  0.747530  1
  Si  Si30  1  0.540346  0.625208  0.250822  1
  Si  Si31  1  0.042066  0.877218  0.249954  1
  Si  Si32  1  0.706354  0.871830  0.747930  1
  Si  Si33  1  0.201371  0.629547  0.747681  1
  Si  Si34  1  0.296183  0.127473  0.250709  1
  Ge  Ge35  1  0.797644  0.367729  0.251214  1
