# generated using pymatgen
data_TbPrSn5Pt3
_symmetry_space_group_name_H-M   'P 1'
_cell_length_a   13.68583991
_cell_length_b   13.68584096
_cell_length_c   7.49498000
_cell_angle_alpha   90.00000000
_cell_angle_beta   90.00000000
_cell_angle_gamma   160.93756408
_symmetry_Int_Tables_number   1
_chemical_formula_structural   TbPrSn5Pt3
_chemical_formula_sum   'Tb2 Pr2 Sn10 Pt6'
_cell_volume   458.48734026
_cell_formula_units_Z   2
loop_
 _symmetry_equiv_pos_site_id
 _symmetry_equiv_pos_as_xyz
  1  'x, y, z'
loop_
 _atom_site_type_symbol
 _atom_site_label
 _atom_site_symmetry_multiplicity
 _atom_site_fract_x
 _atom_site_fract_y
 _atom_site_fract_z
 _atom_site_occupancy
  Tb  Tb0  1  0.477176  0.522824  0.739399  1
  Tb  Tb1  1  0.522824  0.477176  0.239399  1
  Pr  Pr2  1  0.172423  0.827577  0.752731  1
  Pr  Pr3  1  0.827577  0.172423  0.252731  1
  Sn  Sn4  1  0.880318  0.119682  0.735004  1
  Sn  Sn5  1  0.119682  0.880318  0.235004  1
  Sn  Sn6  1  0.702101  0.297899  0.047575  1
  Sn  Sn7  1  0.297899  0.702101  0.547575  1
  Sn  Sn8  1  0.597577  0.402423  0.608940  1
  Sn  Sn9  1  0.402423  0.597577  0.108940  1
  Sn  Sn10  1  0.953440  0.046560  0.396389  1
  Sn  Sn11  1  0.046560  0.953440  0.896389  1
  Sn  Sn12  1  0.289769  0.710231  0.976598  1
  Sn  Sn13  1  0.710231  0.289769  0.476598  1
  Pt  Pt14  1  0.049928  0.950072  0.517213  1
  Pt  Pt15  1  0.950072  0.049928  0.017213  1
  Pt  Pt16  1  0.776674  0.223326  0.769933  1
  Pt  Pt17  1  0.223326  0.776674  0.269933  1
  Pt  Pt18  1  0.398917  0.601083  0.484215  1
  Pt  Pt19  1  0.601083  0.398917  0.984215  1
