# generated using pymatgen
data_Hf3NbSi2(PIr2)2
_symmetry_space_group_name_H-M   'P 1'
_cell_length_a   3.85239500
_cell_length_b   6.49160983
_cell_length_c   7.38652339
_cell_angle_alpha   89.73814890
_cell_angle_beta   90.00000000
_cell_angle_gamma   90.00000000
_symmetry_Int_Tables_number   1
_chemical_formula_structural   Hf3NbSi2(PIr2)2
_chemical_formula_sum   'Hf3 Nb1 Si2 P2 Ir4'
_cell_volume   184.72205939
_cell_formula_units_Z   1
loop_
 _symmetry_equiv_pos_site_id
 _symmetry_equiv_pos_as_xyz
  1  'x, y, z'
loop_
 _atom_site_type_symbol
 _atom_site_label
 _atom_site_symmetry_multiplicity
 _atom_site_fract_x
 _atom_site_fract_y
 _atom_site_fract_z
 _atom_site_occupancy
  Hf  Hf0  1  0.750000  0.522529  0.823821  1
  Hf  Hf1  1  0.250000  0.975970  0.322232  1
  Hf  Hf2  1  0.750000  0.025296  0.677784  1
  Nb  Nb3  1  0.250000  0.474037  0.173427  1
  Si  Si4  1  0.750000  0.762594  0.124236  1
  Si  Si5  1  0.750000  0.274781  0.372379  1
  P  P6  1  0.250000  0.235733  0.883121  1
  P  P7  1  0.250000  0.735486  0.620743  1
  Ir  Ir8  1  0.250000  0.852139  0.932814  1
  Ir  Ir9  1  0.250000  0.351125  0.566635  1
  Ir  Ir10  1  0.750000  0.648911  0.441239  1
  Ir  Ir11  1  0.750000  0.141401  0.061571  1
