# generated using pymatgen
data_YHo3(NbOs3)2
_symmetry_space_group_name_H-M   'P 1'
_cell_length_a   5.54142900
_cell_length_b   5.54142764
_cell_length_c   8.56730000
_cell_angle_alpha   90.00000000
_cell_angle_beta   90.00000000
_cell_angle_gamma   120.00000218
_symmetry_Int_Tables_number   1
_chemical_formula_structural   YHo3(NbOs3)2
_chemical_formula_sum   'Y1 Ho3 Nb2 Os6'
_cell_volume   227.83373842
_cell_formula_units_Z   1
loop_
 _symmetry_equiv_pos_site_id
 _symmetry_equiv_pos_as_xyz
  1  'x, y, z'
loop_
 _atom_site_type_symbol
 _atom_site_label
 _atom_site_symmetry_multiplicity
 _atom_site_fract_x
 _atom_site_fract_y
 _atom_site_fract_z
 _atom_site_occupancy
  Y  Y0  1  0.333333  0.666667  0.066344  1
  Ho  Ho1  1  0.333333  0.666667  0.434064  1
  Ho  Ho2  1  0.666667  0.333333  0.566212  1
  Ho  Ho3  1  0.666667  0.333333  0.933681  1
  Nb  Nb4  1  0.000000  0.000000  0.499937  1
  Nb  Nb5  1  0.000000  0.000000  0.999976  1
  Os  Os6  1  0.825876  0.174124  0.250251  1
  Os  Os7  1  0.825876  0.651752  0.250251  1
  Os  Os8  1  0.348248  0.174124  0.250251  1
  Os  Os9  1  0.173978  0.826022  0.749678  1
  Os  Os10  1  0.173978  0.347956  0.749678  1
  Os  Os11  1  0.652044  0.826022  0.749678  1
