# generated using pymatgen
data_Pu3Th(AlSi2)2
_symmetry_space_group_name_H-M   'P 1'
_cell_length_a   6.84329217
_cell_length_b   6.84329217
_cell_length_c   4.44085400
_cell_angle_alpha   90.00000000
_cell_angle_beta   90.00000000
_cell_angle_gamma   91.19831739
_symmetry_Int_Tables_number   1
_chemical_formula_structural   Pu3Th(AlSi2)2
_chemical_formula_sum   'Pu3 Th1 Al2 Si4'
_cell_volume   207.92258628
_cell_formula_units_Z   1
loop_
 _symmetry_equiv_pos_site_id
 _symmetry_equiv_pos_as_xyz
  1  'x, y, z'
loop_
 _atom_site_type_symbol
 _atom_site_label
 _atom_site_symmetry_multiplicity
 _atom_site_fract_x
 _atom_site_fract_y
 _atom_site_fract_z
 _atom_site_occupancy
  Pu  Pu0  1  0.669960  0.175894  0.500000  1
  Pu  Pu1  1  0.324106  0.830040  0.500000  1
  Pu  Pu2  1  0.180136  0.319864  0.500000  1
  Th  Th3  1  0.823819  0.676181  0.500000  1
  Al  Al4  1  0.498122  0.499177  0.000000  1
  Al  Al5  1  0.000823  0.001878  0.000000  1
  Si  Si6  1  0.129761  0.620999  0.000000  1
  Si  Si7  1  0.879001  0.370239  0.000000  1
  Si  Si8  1  0.620159  0.879841  0.000000  1
  Si  Si9  1  0.374114  0.125886  0.000000  1
