# generated using pymatgen
data_HoEr2(TmTl2)2
_symmetry_space_group_name_H-M   'P 1'
_cell_length_a   9.19789100
_cell_length_b   9.20300141
_cell_length_c   6.63385800
_cell_angle_alpha   90.00000000
_cell_angle_beta   90.00000000
_cell_angle_gamma   119.98162900
_symmetry_Int_Tables_number   1
_chemical_formula_structural   HoEr2(TmTl2)2
_chemical_formula_sum   'Ho2 Er4 Tm4 Tl8'
_cell_volume   486.40151166
_cell_formula_units_Z   2
loop_
 _symmetry_equiv_pos_site_id
 _symmetry_equiv_pos_as_xyz
  1  'x, y, z'
loop_
 _atom_site_type_symbol
 _atom_site_label
 _atom_site_symmetry_multiplicity
 _atom_site_fract_x
 _atom_site_fract_y
 _atom_site_fract_z
 _atom_site_occupancy
  Ho  Ho0  1  0.289663  0.000000  0.750000  1
  Ho  Ho1  1  0.710337  0.000000  0.250000  1
  Er  Er2  1  0.000027  0.289362  0.750000  1
  Er  Er3  1  0.999973  0.710638  0.250000  1
  Er  Er4  1  0.710666  0.710638  0.750000  1
  Er  Er5  1  0.289334  0.289362  0.250000  1
  Tm  Tm6  1  0.333221  0.666443  0.500000  1
  Tm  Tm7  1  0.666779  0.333557  0.500000  1
  Tm  Tm8  1  0.666779  0.333557  0.000000  1
  Tm  Tm9  1  0.333221  0.666443  0.000000  1
  Tl  Tl10  1  0.000000  0.000000  0.500000  1
  Tl  Tl11  1  0.000000  0.000000  0.000000  1
  Tl  Tl12  1  0.628450  0.000000  0.750000  1
  Tl  Tl13  1  0.371550  0.000000  0.250000  1
  Tl  Tl14  1  0.999473  0.627066  0.750000  1
  Tl  Tl15  1  0.000527  0.372934  0.250000  1
  Tl  Tl16  1  0.372407  0.372934  0.750000  1
  Tl  Tl17  1  0.627593  0.627066  0.250000  1
