# generated using pymatgen
data_HoSc4Bi3
_symmetry_space_group_name_H-M   'P 1'
_cell_length_a   7.86686600
_cell_length_b   9.05084400
_cell_length_c   11.52861600
_cell_angle_alpha   90.00000000
_cell_angle_beta   90.00000000
_cell_angle_gamma   90.00000000
_symmetry_Int_Tables_number   1
_chemical_formula_structural   HoSc4Bi3
_chemical_formula_sum   'Ho4 Sc16 Bi12'
_cell_volume   820.85794480
_cell_formula_units_Z   4
loop_
 _symmetry_equiv_pos_site_id
 _symmetry_equiv_pos_as_xyz
  1  'x, y, z'
loop_
 _atom_site_type_symbol
 _atom_site_label
 _atom_site_symmetry_multiplicity
 _atom_site_fract_x
 _atom_site_fract_y
 _atom_site_fract_z
 _atom_site_occupancy
  Ho  Ho0  1  0.315551  0.250000  0.218849  1
  Ho  Ho1  1  0.815551  0.250000  0.281151  1
  Ho  Ho2  1  0.684449  0.750000  0.781151  1
  Ho  Ho3  1  0.184449  0.750000  0.718849  1
  Sc  Sc4  1  0.350415  0.750000  0.219858  1
  Sc  Sc5  1  0.850415  0.750000  0.280142  1
  Sc  Sc6  1  0.649585  0.250000  0.780142  1
  Sc  Sc7  1  0.149585  0.250000  0.719858  1
  Sc  Sc8  1  0.693467  0.567260  0.061414  1
  Sc  Sc9  1  0.193467  0.932740  0.438586  1
  Sc  Sc10  1  0.306533  0.067260  0.938586  1
  Sc  Sc11  1  0.806533  0.432740  0.561414  1
  Sc  Sc12  1  0.306533  0.432740  0.938586  1
  Sc  Sc13  1  0.806533  0.067260  0.561414  1
  Sc  Sc14  1  0.693467  0.932740  0.061414  1
  Sc  Sc15  1  0.193467  0.567260  0.438586  1
  Sc  Sc16  1  0.481207  0.250000  0.489338  1
  Sc  Sc17  1  0.981207  0.250000  0.010662  1
  Sc  Sc18  1  0.518793  0.750000  0.510662  1
  Sc  Sc19  1  0.018793  0.750000  0.989338  1
  Bi  Bi20  1  0.402241  0.750000  0.965925  1
  Bi  Bi21  1  0.902241  0.750000  0.534075  1
  Bi  Bi22  1  0.597759  0.250000  0.034075  1
  Bi  Bi23  1  0.097759  0.250000  0.465925  1
  Bi  Bi24  1  0.564450  0.990560  0.328162  1
  Bi  Bi25  1  0.064450  0.509440  0.171838  1
  Bi  Bi26  1  0.435550  0.490560  0.671838  1
  Bi  Bi27  1  0.935550  0.009440  0.828162  1
  Bi  Bi28  1  0.435550  0.009440  0.671838  1
  Bi  Bi29  1  0.935550  0.490560  0.828162  1
  Bi  Bi30  1  0.564450  0.509440  0.328162  1
  Bi  Bi31  1  0.064450  0.990560  0.171838  1
