# generated using pymatgen
data_Dy10Cd7InNi4
_symmetry_space_group_name_H-M   'P 1'
_cell_length_a   3.59033300
_cell_length_b   7.90696362
_cell_length_c   18.22428084
_cell_angle_alpha   89.70978577
_cell_angle_beta   90.00000000
_cell_angle_gamma   90.00000000
_symmetry_Int_Tables_number   1
_chemical_formula_structural   Dy10Cd7InNi4
_chemical_formula_sum   'Dy10 Cd7 In1 Ni4'
_cell_volume   517.35577316
_cell_formula_units_Z   1
loop_
 _symmetry_equiv_pos_site_id
 _symmetry_equiv_pos_as_xyz
  1  'x, y, z'
loop_
 _atom_site_type_symbol
 _atom_site_label
 _atom_site_symmetry_multiplicity
 _atom_site_fract_x
 _atom_site_fract_y
 _atom_site_fract_z
 _atom_site_occupancy
  Dy  Dy0  1  0.500000  0.387537  0.588681  1
  Dy  Dy1  1  0.500000  0.885896  0.910866  1
  Dy  Dy2  1  0.500000  0.112081  0.088894  1
  Dy  Dy3  1  0.500000  0.751188  0.721405  1
  Dy  Dy4  1  0.500000  0.250323  0.778538  1
  Dy  Dy5  1  0.500000  0.498555  0.001188  1
  Dy  Dy6  1  0.500000  0.751093  0.221350  1
  Dy  Dy7  1  0.500000  0.247723  0.279283  1
  Dy  Dy8  1  0.500000  0.001805  0.499817  1
  Dy  Dy9  1  0.500000  0.613619  0.411049  1
  Cd  Cd10  1  0.000000  0.788955  0.069578  1
  Cd  Cd11  1  0.000000  0.930471  0.349169  1
  Cd  Cd12  1  0.000000  0.068589  0.650938  1
  Cd  Cd13  1  0.000000  0.567428  0.849100  1
  Cd  Cd14  1  0.000000  0.712416  0.569633  1
  Cd  Cd15  1  0.000000  0.209926  0.930329  1
  Cd  Cd16  1  0.000000  0.290110  0.430029  1
  In  In17  1  0.000000  0.431967  0.151971  1
  Ni  Ni18  1  0.000000  0.971354  0.803462  1
  Ni  Ni19  1  0.000000  0.527303  0.302850  1
  Ni  Ni20  1  0.000000  0.472330  0.695511  1
  Ni  Ni21  1  0.000000  0.029330  0.196357  1
