# generated using pymatgen
data_Hf4Al2SiMoN
_symmetry_space_group_name_H-M   'P 1'
_cell_length_a   7.90514692
_cell_length_b   7.90514847
_cell_length_c   5.45635695
_cell_angle_alpha   90.05995900
_cell_angle_beta   90.05995501
_cell_angle_gamma   119.84928916
_symmetry_Int_Tables_number   1
_chemical_formula_structural   Hf4Al2SiMoN
_chemical_formula_sum   'Hf8 Al4 Si2 Mo2 N2'
_cell_volume   295.73994071
_cell_formula_units_Z   2
loop_
 _symmetry_equiv_pos_site_id
 _symmetry_equiv_pos_as_xyz
  1  'x, y, z'
loop_
 _atom_site_type_symbol
 _atom_site_label
 _atom_site_symmetry_multiplicity
 _atom_site_fract_x
 _atom_site_fract_y
 _atom_site_fract_z
 _atom_site_occupancy
  Hf  Hf0  1  0.229968  0.995964  0.251618  1
  Hf  Hf1  1  0.995964  0.229968  0.251618  1
  Hf  Hf2  1  0.770654  0.770654  0.250568  1
  Hf  Hf3  1  0.670982  0.332131  0.499105  1
  Hf  Hf4  1  0.332131  0.670982  0.499105  1
  Hf  Hf5  1  0.768899  0.999767  0.750205  1
  Hf  Hf6  1  0.999767  0.768899  0.750205  1
  Hf  Hf7  1  0.226920  0.226920  0.746193  1
  Al  Al8  1  0.411206  0.411206  0.227373  1
  Al  Al9  1  0.411974  0.002707  0.774287  1
  Al  Al10  1  0.002707  0.411974  0.774287  1
  Al  Al11  1  0.586044  0.586044  0.772046  1
  Si  Si12  1  0.588624  0.999895  0.225208  1
  Si  Si13  1  0.999895  0.588624  0.225208  1
  Mo  Mo14  1  0.672637  0.333327  0.002687  1
  Mo  Mo15  1  0.333327  0.672637  0.002687  1
  N  N16  1  0.999711  0.999711  0.999559  1
  N  N17  1  0.998591  0.998591  0.498041  1
