# generated using pymatgen
data_Nd8NiHg2Ir
_symmetry_space_group_name_H-M   'P 1'
_cell_length_a   9.86269241
_cell_length_b   9.86269227
_cell_length_c   9.83804700
_cell_angle_alpha   60.08262987
_cell_angle_beta   60.08263034
_cell_angle_gamma   60.41109749
_symmetry_Int_Tables_number   1
_chemical_formula_structural   Nd8NiHg2Ir
_chemical_formula_sum   'Nd16 Ni2 Hg4 Ir2'
_cell_volume   679.61145857
_cell_formula_units_Z   2
loop_
 _symmetry_equiv_pos_site_id
 _symmetry_equiv_pos_as_xyz
  1  'x, y, z'
loop_
 _atom_site_type_symbol
 _atom_site_label
 _atom_site_symmetry_multiplicity
 _atom_site_fract_x
 _atom_site_fract_y
 _atom_site_fract_z
 _atom_site_occupancy
  Nd  Nd0  1  0.348441  0.348441  0.353163  1
  Nd  Nd1  1  0.348441  0.348441  0.949955  1
  Nd  Nd2  1  0.348313  0.948874  0.351406  1
  Nd  Nd3  1  0.948874  0.348313  0.351406  1
  Nd  Nd4  1  0.811426  0.190867  0.189899  1
  Nd  Nd5  1  0.190867  0.811426  0.807807  1
  Nd  Nd6  1  0.190867  0.811426  0.189899  1
  Nd  Nd7  1  0.811426  0.190867  0.807807  1
  Nd  Nd8  1  0.190754  0.190754  0.809246  1
  Nd  Nd9  1  0.809738  0.809738  0.190262  1
  Nd  Nd10  1  0.939409  0.563549  0.559697  1
  Nd  Nd11  1  0.563549  0.939409  0.937345  1
  Nd  Nd12  1  0.563549  0.939409  0.559697  1
  Nd  Nd13  1  0.939409  0.563549  0.937345  1
  Nd  Nd14  1  0.559544  0.559544  0.940456  1
  Nd  Nd15  1  0.936548  0.936548  0.563452  1
  Ni  Ni16  1  0.141443  0.141443  0.144636  1
  Ni  Ni17  1  0.141443  0.141443  0.572476  1
  Hg  Hg18  1  0.584357  0.584357  0.582282  1
  Hg  Hg19  1  0.584357  0.584357  0.249003  1
  Hg  Hg20  1  0.584724  0.247744  0.583766  1
  Hg  Hg21  1  0.247744  0.584724  0.583766  1
  Ir  Ir22  1  0.142757  0.572015  0.142613  1
  Ir  Ir23  1  0.572015  0.142757  0.142613  1
