# generated using pymatgen
data_Dy15Er3(TmSn8)2
_symmetry_space_group_name_H-M   'P 1'
_cell_length_a   8.01782308
_cell_length_b   8.15209908
_cell_length_c   15.43076205
_cell_angle_alpha   90.00579145
_cell_angle_beta   90.00658003
_cell_angle_gamma   90.01515132
_symmetry_Int_Tables_number   1
_chemical_formula_structural   Dy15Er3(TmSn8)2
_chemical_formula_sum   'Dy15 Er3 Tm2 Sn16'
_cell_volume   1008.58678263
_cell_formula_units_Z   1
loop_
 _symmetry_equiv_pos_site_id
 _symmetry_equiv_pos_as_xyz
  1  'x, y, z'
loop_
 _atom_site_type_symbol
 _atom_site_label
 _atom_site_symmetry_multiplicity
 _atom_site_fract_x
 _atom_site_fract_y
 _atom_site_fract_z
 _atom_site_occupancy
  Dy  Dy0  1  0.867601  0.662722  0.622487  1
  Dy  Dy1  1  0.632345  0.162805  0.378022  1
  Dy  Dy2  1  0.132364  0.337192  0.121917  1
  Dy  Dy3  1  0.632379  0.162855  0.121999  1
  Dy  Dy4  1  0.132344  0.337183  0.378019  1
  Dy  Dy5  1  0.367654  0.837268  0.622511  1
  Dy  Dy6  1  0.867696  0.662706  0.877555  1
  Dy  Dy7  1  0.520687  0.320703  0.902486  1
  Dy  Dy8  1  0.020703  0.179208  0.597540  1
  Dy  Dy9  1  0.479459  0.679233  0.402812  1
  Dy  Dy10  1  0.979411  0.820741  0.097200  1
  Dy  Dy11  1  0.479398  0.679268  0.097078  1
  Dy  Dy12  1  0.979464  0.820784  0.402799  1
  Dy  Dy13  1  0.520690  0.320782  0.597546  1
  Dy  Dy14  1  0.020779  0.179184  0.902449  1
  Er  Er15  1  0.367582  0.837356  0.877462  1
  Er  Er16  1  0.801084  0.497029  0.250053  1
  Er  Er17  1  0.301079  0.002926  0.250013  1
  Tm  Tm18  1  0.198857  0.503187  0.750091  1
  Tm  Tm19  1  0.698641  0.996906  0.750056  1
  Sn  Sn20  1  0.293005  0.036512  0.041393  1
  Sn  Sn21  1  0.792895  0.463231  0.458352  1
  Sn  Sn22  1  0.707349  0.963624  0.542449  1
  Sn  Sn23  1  0.207640  0.536800  0.957458  1
  Sn  Sn24  1  0.706892  0.963518  0.957488  1
  Sn  Sn25  1  0.207326  0.536373  0.542451  1
  Sn  Sn26  1  0.292886  0.036781  0.458345  1
  Sn  Sn27  1  0.792863  0.463228  0.041650  1
  Sn  Sn28  1  0.564240  0.618514  0.750115  1
  Sn  Sn29  1  0.064703  0.881663  0.750119  1
  Sn  Sn30  1  0.434905  0.381138  0.249986  1
  Sn  Sn31  1  0.934899  0.118862  0.249992  1
  Sn  Sn32  1  0.330184  0.148775  0.750099  1
  Sn  Sn33  1  0.830159  0.350975  0.750006  1
  Sn  Sn34  1  0.669938  0.851899  0.249997  1
  Sn  Sn35  1  0.169901  0.648069  0.250004  1
