# generated using pymatgen
data_Dy9Ho7In4(RuRh)2
_symmetry_space_group_name_H-M   'P 1'
_cell_length_a   9.63767574
_cell_length_b   9.66319833
_cell_length_c   9.63676819
_cell_angle_alpha   59.90923957
_cell_angle_beta   59.80111124
_cell_angle_gamma   59.91236595
_symmetry_Int_Tables_number   1
_chemical_formula_structural   Dy9Ho7In4(RuRh)2
_chemical_formula_sum   'Dy9 Ho7 In4 Ru2 Rh2'
_cell_volume   632.80149051
_cell_formula_units_Z   1
loop_
 _symmetry_equiv_pos_site_id
 _symmetry_equiv_pos_as_xyz
  1  'x, y, z'
loop_
 _atom_site_type_symbol
 _atom_site_label
 _atom_site_symmetry_multiplicity
 _atom_site_fract_x
 _atom_site_fract_y
 _atom_site_fract_z
 _atom_site_occupancy
  Dy  Dy0  1  0.188746  0.190710  0.807692  1
  Dy  Dy1  1  0.597543  0.597718  0.207022  1
  Dy  Dy2  1  0.440691  0.059295  0.440719  1
  Dy  Dy3  1  0.439854  0.442797  0.060181  1
  Dy  Dy4  1  0.812762  0.187325  0.812588  1
  Dy  Dy5  1  0.190959  0.808560  0.191922  1
  Dy  Dy6  1  0.439854  0.057169  0.060181  1
  Dy  Dy7  1  0.188746  0.812851  0.807692  1
  Dy  Dy8  1  0.057335  0.442389  0.057887  1
  Ho  Ho9  1  0.808025  0.812963  0.189031  1
  Ho  Ho10  1  0.206392  0.598084  0.597440  1
  Ho  Ho11  1  0.059752  0.443056  0.440046  1
  Ho  Ho12  1  0.059752  0.057147  0.440046  1
  Ho  Ho13  1  0.808025  0.189982  0.189031  1
  Ho  Ho14  1  0.598747  0.204305  0.598194  1
  Ho  Ho15  1  0.598747  0.598754  0.598194  1
  In  In16  1  0.832189  0.832443  0.831812  1
  In  In17  1  0.832938  0.833193  0.500678  1
  In  In18  1  0.501985  0.832899  0.832220  1
  In  In19  1  0.832189  0.503556  0.831812  1
  Ru  Ru20  1  0.391676  0.828512  0.392542  1
  Ru  Ru21  1  0.391676  0.387269  0.392542  1
  Rh  Rh22  1  0.828571  0.389199  0.393030  1
  Rh  Rh23  1  0.392850  0.389823  0.827505  1
