# generated using pymatgen
data_Nd2Er2Al15(GaIr2)3
_symmetry_space_group_name_H-M   'P 1'
_cell_length_a   7.55955000
_cell_length_b   7.55857441
_cell_length_c   9.59539600
_cell_angle_alpha   90.00000000
_cell_angle_beta   90.00000000
_cell_angle_gamma   119.37171512
_symmetry_Int_Tables_number   1
_chemical_formula_structural   Nd2Er2Al15(GaIr2)3
_chemical_formula_sum   'Nd2 Er2 Al15 Ga3 Ir6'
_cell_volume   477.79788996
_cell_formula_units_Z   1
loop_
 _symmetry_equiv_pos_site_id
 _symmetry_equiv_pos_as_xyz
  1  'x, y, z'
loop_
 _atom_site_type_symbol
 _atom_site_label
 _atom_site_symmetry_multiplicity
 _atom_site_fract_x
 _atom_site_fract_y
 _atom_site_fract_z
 _atom_site_occupancy
  Nd  Nd0  1  0.998083  0.674702  0.250000  1
  Nd  Nd1  1  0.669789  0.990912  0.250000  1
  Er  Er2  1  0.006094  0.324715  0.750000  1
  Er  Er3  1  0.323591  0.003931  0.750000  1
  Al  Al4  1  0.002651  0.335211  0.068154  1
  Al  Al5  1  0.998968  0.663605  0.923111  1
  Al  Al6  1  0.998968  0.663605  0.576889  1
  Al  Al7  1  0.336333  0.004946  0.431575  1
  Al  Al8  1  0.002651  0.335211  0.431846  1
  Al  Al9  1  0.663780  0.999570  0.576722  1
  Al  Al10  1  0.663780  0.999570  0.923278  1
  Al  Al11  1  0.336333  0.004946  0.068425  1
  Al  Al12  1  0.333905  0.334037  0.558221  1
  Al  Al13  1  0.665479  0.664935  0.455129  1
  Al  Al14  1  0.665479  0.664935  0.044871  1
  Al  Al15  1  0.333905  0.334037  0.941779  1
  Al  Al16  1  0.661609  0.448746  0.750000  1
  Al  Al17  1  0.548063  0.339551  0.250000  1
  Al  Al18  1  0.449339  0.661556  0.750000  1
  Ga  Ga19  1  0.134518  0.135022  0.250000  1
  Ga  Ga20  1  0.865381  0.865232  0.750000  1
  Ga  Ga21  1  0.338826  0.543894  0.250000  1
  Ir  Ir22  1  0.670856  0.329179  0.998031  1
  Ir  Ir23  1  0.328503  0.672107  0.995917  1
  Ir  Ir24  1  0.328503  0.672107  0.504083  1
  Ir  Ir25  1  0.670856  0.329179  0.501969  1
  Ir  Ir26  1  0.001877  0.002281  0.996888  1
  Ir  Ir27  1  0.001877  0.002281  0.503112  1
