# generated using pymatgen
data_Yb2Ga18CuNi5
_symmetry_space_group_name_H-M   'P 1'
_cell_length_a   10.10176215
_cell_length_b   10.10880650
_cell_length_c   10.10347200
_cell_angle_alpha   42.44562368
_cell_angle_beta   42.43009766
_cell_angle_gamma   42.42468698
_symmetry_Int_Tables_number   1
_chemical_formula_structural   Yb2Ga18CuNi5
_chemical_formula_sum   'Yb2 Ga18 Cu1 Ni5'
_cell_volume   425.25880577
_cell_formula_units_Z   1
loop_
 _symmetry_equiv_pos_site_id
 _symmetry_equiv_pos_as_xyz
  1  'x, y, z'
loop_
 _atom_site_type_symbol
 _atom_site_label
 _atom_site_symmetry_multiplicity
 _atom_site_fract_x
 _atom_site_fract_y
 _atom_site_fract_z
 _atom_site_occupancy
  Yb  Yb0  1  0.168993  0.166709  0.165236  1
  Yb  Yb1  1  0.831589  0.835344  0.833324  1
  Ga  Ga2  1  0.100564  0.438919  0.764218  1
  Ga  Ga3  1  0.434145  0.757304  0.111785  1
  Ga  Ga4  1  0.566924  0.896090  0.236534  1
  Ga  Ga5  1  0.948214  0.948630  0.948256  1
  Ga  Ga6  1  0.046420  0.050628  0.054224  1
  Ga  Ga7  1  0.288848  0.710570  0.500106  1
  Ga  Ga8  1  0.897942  0.236265  0.566363  1
  Ga  Ga9  1  0.384759  0.386938  0.382933  1
  Ga  Ga10  1  0.501732  0.296701  0.706676  1
  Ga  Ga11  1  0.235617  0.567597  0.897271  1
  Ga  Ga12  1  0.720741  0.713570  0.716520  1
  Ga  Ga13  1  0.613045  0.614093  0.613794  1
  Ga  Ga14  1  0.333642  0.998028  0.666110  1
  Ga  Ga15  1  0.711706  0.499685  0.288940  1
  Ga  Ga16  1  0.665519  0.333590  0.999646  1
  Ga  Ga17  1  0.282377  0.281499  0.281999  1
  Ga  Ga18  1  0.999276  0.665922  0.333028  1
  Ga  Ga19  1  0.768923  0.105438  0.429429  1
  Cu  Cu20  1  0.419541  0.076730  0.762225  1
  Ni  Ni21  1  0.581964  0.241729  0.922894  1
  Ni  Ni22  1  0.076358  0.757244  0.418215  1
  Ni  Ni23  1  0.757850  0.417447  0.077150  1
  Ni  Ni24  1  0.922262  0.581512  0.241917  1
  Ni  Ni25  1  0.241047  0.921817  0.581210  1
