# generated using pymatgen
data_Sm2GaNiI
_symmetry_space_group_name_H-M   'P 1'
_cell_length_a   4.24406000
_cell_length_b   4.24406106
_cell_length_c   16.61354700
_cell_angle_alpha   90.00000000
_cell_angle_beta   90.00000000
_cell_angle_gamma   119.99999173
_symmetry_Int_Tables_number   1
_chemical_formula_structural   Sm2GaNiI
_chemical_formula_sum   'Sm4 Ga2 Ni2 I2'
_cell_volume   259.15295842
_cell_formula_units_Z   2
loop_
 _symmetry_equiv_pos_site_id
 _symmetry_equiv_pos_as_xyz
  1  'x, y, z'
loop_
 _atom_site_type_symbol
 _atom_site_label
 _atom_site_symmetry_multiplicity
 _atom_site_fract_x
 _atom_site_fract_y
 _atom_site_fract_z
 _atom_site_occupancy
  Sm  Sm0  1  0.000000  0.000000  0.604091  1
  Sm  Sm1  1  0.000000  0.000000  0.397472  1
  Sm  Sm2  1  0.000000  0.000000  0.104091  1
  Sm  Sm3  1  0.000000  0.000000  0.897472  1
  Ga  Ga4  1  0.666667  0.333333  0.502759  1
  Ga  Ga5  1  0.333333  0.666667  0.002759  1
  Ni  Ni6  1  0.666667  0.333333  0.996820  1
  Ni  Ni7  1  0.333333  0.666667  0.496820  1
  I  I8  1  0.666667  0.333333  0.248857  1
  I  I9  1  0.333333  0.666667  0.748857  1
