# generated using pymatgen
data_Tb6Er10Cd4Os3Pt
_symmetry_space_group_name_H-M   'P 1'
_cell_length_a   9.54665887
_cell_length_b   9.69506531
_cell_length_c   9.69506700
_cell_angle_alpha   59.99999765
_cell_angle_beta   59.48441429
_cell_angle_gamma   59.48441299
_symmetry_Int_Tables_number   1
_chemical_formula_structural   Tb6Er10Cd4Os3Pt
_chemical_formula_sum   'Tb6 Er10 Cd4 Os3 Pt1'
_cell_volume   629.51941537
_cell_formula_units_Z   1
loop_
 _symmetry_equiv_pos_site_id
 _symmetry_equiv_pos_as_xyz
  1  'x, y, z'
loop_
 _atom_site_type_symbol
 _atom_site_label
 _atom_site_symmetry_multiplicity
 _atom_site_fract_x
 _atom_site_fract_y
 _atom_site_fract_z
 _atom_site_occupancy
  Tb  Tb0  1  0.935300  0.562318  0.562318  1
  Tb  Tb1  1  0.554460  0.940141  0.940141  1
  Tb  Tb2  1  0.554460  0.940141  0.565260  1
  Tb  Tb3  1  0.935300  0.562318  0.940063  1
  Tb  Tb4  1  0.554460  0.565260  0.940141  1
  Tb  Tb5  1  0.935300  0.940063  0.562318  1
  Er  Er6  1  0.345646  0.350254  0.350254  1
  Er  Er7  1  0.345646  0.350254  0.953845  1
  Er  Er8  1  0.345646  0.953845  0.350254  1
  Er  Er9  1  0.970336  0.343221  0.343221  1
  Er  Er10  1  0.814950  0.189321  0.189321  1
  Er  Er11  1  0.186081  0.811088  0.811088  1
  Er  Er12  1  0.186081  0.811088  0.191742  1
  Er  Er13  1  0.814950  0.189321  0.806410  1
  Er  Er14  1  0.186081  0.191742  0.811088  1
  Er  Er15  1  0.814950  0.806410  0.189321  1
  Cd  Cd16  1  0.580445  0.578997  0.578997  1
  Cd  Cd17  1  0.580445  0.578997  0.261560  1
  Cd  Cd18  1  0.580445  0.261560  0.578997  1
  Cd  Cd19  1  0.256741  0.581086  0.581086  1
  Os  Os20  1  0.148720  0.136353  0.136353  1
  Os  Os21  1  0.148720  0.136353  0.578575  1
  Os  Os22  1  0.148720  0.578575  0.136353  1
  Pt  Pt23  1  0.576115  0.141296  0.141296  1
