# generated using pymatgen
data_Rb4Ti2CuTe8Au3
_symmetry_space_group_name_H-M   'P 1'
_cell_length_a   6.34245400
_cell_length_b   6.38232300
_cell_length_c   15.07653300
_cell_angle_alpha   90.00000000
_cell_angle_beta   90.00000000
_cell_angle_gamma   90.00000000
_symmetry_Int_Tables_number   1
_chemical_formula_structural   Rb4Ti2CuTe8Au3
_chemical_formula_sum   'Rb4 Ti2 Cu1 Te8 Au3'
_cell_volume   610.29187507
_cell_formula_units_Z   1
loop_
 _symmetry_equiv_pos_site_id
 _symmetry_equiv_pos_as_xyz
  1  'x, y, z'
loop_
 _atom_site_type_symbol
 _atom_site_label
 _atom_site_symmetry_multiplicity
 _atom_site_fract_x
 _atom_site_fract_y
 _atom_site_fract_z
 _atom_site_occupancy
  Rb  Rb0  1  0.748945  0.752695  0.001073  1
  Rb  Rb1  1  0.251055  0.752695  0.498927  1
  Rb  Rb2  1  0.748945  0.247305  0.498927  1
  Rb  Rb3  1  0.251055  0.247305  0.001073  1
  Ti  Ti4  1  0.500000  0.500000  0.250000  1
  Ti  Ti5  1  0.500000  0.500000  0.750000  1
  Cu  Cu6  1  0.000000  0.500000  0.250000  1
  Te  Te7  1  0.752107  0.269476  0.148610  1
  Te  Te8  1  0.752107  0.730524  0.351390  1
  Te  Te9  1  0.263598  0.263594  0.642877  1
  Te  Te10  1  0.736402  0.736406  0.642877  1
  Te  Te11  1  0.247893  0.269476  0.351390  1
  Te  Te12  1  0.736402  0.263594  0.857123  1
  Te  Te13  1  0.263598  0.736406  0.857123  1
  Te  Te14  1  0.247893  0.730524  0.148610  1
  Au  Au15  1  0.000000  0.500000  0.750000  1
  Au  Au16  1  0.500000  0.000000  0.750000  1
  Au  Au17  1  0.500000  0.000000  0.250000  1
