# generated using pymatgen
data_Sr(PPd3)2
_symmetry_space_group_name_H-M   'P 1'
_cell_length_a   8.58604300
_cell_length_b   8.58604300
_cell_length_c   8.58604300
_cell_angle_alpha   90.00000000
_cell_angle_beta   90.00000000
_cell_angle_gamma   90.00000000
_symmetry_Int_Tables_number   1
_chemical_formula_structural   Sr(PPd3)2
_chemical_formula_sum   'Sr4 P8 Pd24'
_cell_volume   632.96424391
_cell_formula_units_Z   4
loop_
 _symmetry_equiv_pos_site_id
 _symmetry_equiv_pos_as_xyz
  1  'x, y, z'
loop_
 _atom_site_type_symbol
 _atom_site_label
 _atom_site_symmetry_multiplicity
 _atom_site_fract_x
 _atom_site_fract_y
 _atom_site_fract_z
 _atom_site_occupancy
  Sr  Sr0  1  0.500000  0.500000  0.000000  1
  Sr  Sr1  1  0.500000  0.000000  0.500000  1
  Sr  Sr2  1  0.000000  0.500000  0.500000  1
  Sr  Sr3  1  0.000000  0.000000  0.000000  1
  P  P4  1  0.807471  0.307471  0.192529  1
  P  P5  1  0.192529  0.807471  0.307471  1
  P  P6  1  0.692529  0.692529  0.692529  1
  P  P7  1  0.307471  0.192529  0.807471  1
  P  P8  1  0.192529  0.692529  0.807471  1
  P  P9  1  0.807471  0.192529  0.692529  1
  P  P10  1  0.307471  0.307471  0.307471  1
  P  P11  1  0.692529  0.807471  0.192529  1
  Pd  Pd12  1  0.421810  0.847160  0.162001  1
  Pd  Pd13  1  0.578190  0.347160  0.337999  1
  Pd  Pd14  1  0.078190  0.152840  0.662001  1
  Pd  Pd15  1  0.921810  0.652840  0.837999  1
  Pd  Pd16  1  0.162001  0.421810  0.847160  1
  Pd  Pd17  1  0.337999  0.578190  0.347160  1
  Pd  Pd18  1  0.662001  0.078190  0.152840  1
  Pd  Pd19  1  0.837999  0.921810  0.652840  1
  Pd  Pd20  1  0.847160  0.162001  0.421810  1
  Pd  Pd21  1  0.347160  0.337999  0.578190  1
  Pd  Pd22  1  0.152840  0.662001  0.078190  1
  Pd  Pd23  1  0.652840  0.837999  0.921810  1
  Pd  Pd24  1  0.578190  0.152840  0.837999  1
  Pd  Pd25  1  0.421810  0.652840  0.662001  1
  Pd  Pd26  1  0.921810  0.847160  0.337999  1
  Pd  Pd27  1  0.078190  0.347160  0.162001  1
  Pd  Pd28  1  0.837999  0.578190  0.152840  1
  Pd  Pd29  1  0.662001  0.421810  0.652840  1
  Pd  Pd30  1  0.337999  0.921810  0.847160  1
  Pd  Pd31  1  0.162001  0.078190  0.347160  1
  Pd  Pd32  1  0.152840  0.837999  0.578190  1
  Pd  Pd33  1  0.652840  0.662001  0.421810  1
  Pd  Pd34  1  0.847160  0.337999  0.921810  1
  Pd  Pd35  1  0.347160  0.162001  0.078190  1
