# generated using pymatgen
data_ErTm3Pd3PtO14
_symmetry_space_group_name_H-M   'P 1'
_cell_length_a   7.20941925
_cell_length_b   7.20302018
_cell_length_c   7.20941900
_cell_angle_alpha   59.97060461
_cell_angle_beta   59.99999656
_cell_angle_gamma   59.97060576
_symmetry_Int_Tables_number   1
_chemical_formula_structural   ErTm3Pd3PtO14
_chemical_formula_sum   'Er1 Tm3 Pd3 Pt1 O14'
_cell_volume   264.61049803
_cell_formula_units_Z   1
loop_
 _symmetry_equiv_pos_site_id
 _symmetry_equiv_pos_as_xyz
  1  'x, y, z'
loop_
 _atom_site_type_symbol
 _atom_site_label
 _atom_site_symmetry_multiplicity
 _atom_site_fract_x
 _atom_site_fract_y
 _atom_site_fract_z
 _atom_site_occupancy
  Er  Er0  1  0.625000  0.125000  0.625000  1
  Tm  Tm1  1  0.625000  0.625000  0.125000  1
  Tm  Tm2  1  0.625000  0.625000  0.625000  1
  Tm  Tm3  1  0.125000  0.625000  0.625000  1
  Pd  Pd4  1  0.125000  0.125000  0.125000  1
  Pd  Pd5  1  0.625000  0.125000  0.125000  1
  Pd  Pd6  1  0.125000  0.125000  0.625000  1
  Pt  Pt7  1  0.125000  0.625000  0.125000  1
  O  O8  1  0.032004  0.469044  0.466947  1
  O  O9  1  0.783053  0.780956  0.217996  1
  O  O10  1  0.782830  0.217654  0.216686  1
  O  O11  1  0.467170  0.032346  0.467170  1
  O  O12  1  0.033314  0.032346  0.467170  1
  O  O13  1  0.032004  0.469044  0.032004  1
  O  O14  1  0.750649  0.748053  0.750649  1
  O  O15  1  0.499351  0.501947  0.499351  1
  O  O16  1  0.782830  0.217654  0.782830  1
  O  O17  1  0.217996  0.780956  0.217996  1
  O  O18  1  0.216686  0.217654  0.782830  1
  O  O19  1  0.467170  0.032346  0.033314  1
  O  O20  1  0.466947  0.469044  0.032004  1
  O  O21  1  0.217996  0.780956  0.783053  1
