# generated using pymatgen
data_DyTm9CuIrPb6
_symmetry_space_group_name_H-M   'P 1'
_cell_length_a   9.10544700
_cell_length_b   9.10544689
_cell_length_c   6.66963700
_cell_angle_alpha   90.00000000
_cell_angle_beta   90.00000000
_cell_angle_gamma   120.00000403
_symmetry_Int_Tables_number   1
_chemical_formula_structural   DyTm9CuIrPb6
_chemical_formula_sum   'Dy1 Tm9 Cu1 Ir1 Pb6'
_cell_volume   478.88953674
_cell_formula_units_Z   1
loop_
 _symmetry_equiv_pos_site_id
 _symmetry_equiv_pos_as_xyz
  1  'x, y, z'
loop_
 _atom_site_type_symbol
 _atom_site_label
 _atom_site_symmetry_multiplicity
 _atom_site_fract_x
 _atom_site_fract_y
 _atom_site_fract_z
 _atom_site_occupancy
  Dy  Dy0  1  0.333333  0.666667  0.000000  1
  Tm  Tm1  1  0.244123  0.000166  0.739470  1
  Tm  Tm2  1  0.756044  0.000166  0.260530  1
  Tm  Tm3  1  0.999834  0.243956  0.739470  1
  Tm  Tm4  1  0.999834  0.755877  0.260530  1
  Tm  Tm5  1  0.756044  0.755877  0.739470  1
  Tm  Tm6  1  0.244123  0.243956  0.260530  1
  Tm  Tm7  1  0.333333  0.666667  0.500000  1
  Tm  Tm8  1  0.666667  0.333333  0.500000  1
  Tm  Tm9  1  0.666667  0.333333  0.000000  1
  Cu  Cu10  1  0.000000  0.000000  0.000000  1
  Ir  Ir11  1  0.000000  0.000000  0.500000  1
  Pb  Pb12  1  0.602626  0.000603  0.751777  1
  Pb  Pb13  1  0.397976  0.000603  0.248223  1
  Pb  Pb14  1  0.999397  0.602024  0.751777  1
  Pb  Pb15  1  0.999397  0.397374  0.248223  1
  Pb  Pb16  1  0.397976  0.397374  0.751777  1
  Pb  Pb17  1  0.602626  0.602024  0.248223  1
