# generated using pymatgen
data_HfZr9ZnSn2AsPb4
_symmetry_space_group_name_H-M   'P 1'
_cell_length_a   8.70454700
_cell_length_b   8.70454826
_cell_length_c   5.90977100
_cell_angle_alpha   90.00000000
_cell_angle_beta   90.00000000
_cell_angle_gamma   119.99999900
_symmetry_Int_Tables_number   1
_chemical_formula_structural   HfZr9ZnSn2AsPb4
_chemical_formula_sum   'Hf1 Zr9 Zn1 Sn2 As1 Pb4'
_cell_volume   387.78740621
_cell_formula_units_Z   1
loop_
 _symmetry_equiv_pos_site_id
 _symmetry_equiv_pos_as_xyz
  1  'x, y, z'
loop_
 _atom_site_type_symbol
 _atom_site_label
 _atom_site_symmetry_multiplicity
 _atom_site_fract_x
 _atom_site_fract_y
 _atom_site_fract_z
 _atom_site_occupancy
  Hf  Hf0  1  0.667102  0.331011  0.002168  1
  Zr  Zr1  1  0.331201  0.667126  0.001801  1
  Zr  Zr2  1  0.331271  0.666941  0.498237  1
  Zr  Zr3  1  0.666947  0.331366  0.498341  1
  Zr  Zr4  1  0.737485  0.737380  0.746094  1
  Zr  Zr5  1  0.263685  0.999973  0.746860  1
  Zr  Zr6  1  0.999713  0.263497  0.746851  1
  Zr  Zr7  1  0.262346  0.262196  0.253469  1
  Zr  Zr8  1  0.736783  0.004130  0.253312  1
  Zr  Zr9  1  0.003829  0.736648  0.253434  1
  Zn  Zn10  1  0.999672  0.999653  0.000660  1
  Sn  Sn11  1  0.389952  0.000808  0.245781  1
  Sn  Sn12  1  0.999844  0.389514  0.245774  1
  As  As13  1  0.999570  0.999555  0.499242  1
  Pb  Pb14  1  0.389979  0.389585  0.753977  1
  Pb  Pb15  1  0.610023  0.999466  0.754063  1
  Pb  Pb16  1  0.998646  0.609590  0.754077  1
  Pb  Pb17  1  0.611951  0.611561  0.245859  1
