# generated using pymatgen
data_Ce2Pr3Tm3(CdRu)2
_symmetry_space_group_name_H-M   'P 1'
_cell_length_a   9.69939038
_cell_length_b   9.69939077
_cell_length_c   9.69939000
_cell_angle_alpha   59.99999580
_cell_angle_beta   59.99999447
_cell_angle_gamma   59.99999568
_symmetry_Int_Tables_number   1
_chemical_formula_structural   Ce2Pr3Tm3(CdRu)2
_chemical_formula_sum   'Ce4 Pr6 Tm6 Cd4 Ru4'
_cell_volume   645.23552972
_cell_formula_units_Z   2
loop_
 _symmetry_equiv_pos_site_id
 _symmetry_equiv_pos_as_xyz
  1  'x, y, z'
loop_
 _atom_site_type_symbol
 _atom_site_label
 _atom_site_symmetry_multiplicity
 _atom_site_fract_x
 _atom_site_fract_y
 _atom_site_fract_z
 _atom_site_occupancy
  Ce  Ce0  1  0.345624  0.345624  0.963129  1
  Ce  Ce1  1  0.345624  0.963129  0.345624  1
  Ce  Ce2  1  0.963129  0.345624  0.345624  1
  Ce  Ce3  1  0.345624  0.345624  0.345624  1
  Pr  Pr4  1  0.557682  0.557682  0.942318  1
  Pr  Pr5  1  0.942318  0.557682  0.942318  1
  Pr  Pr6  1  0.557682  0.942318  0.942318  1
  Pr  Pr7  1  0.942318  0.942318  0.557682  1
  Pr  Pr8  1  0.557682  0.942318  0.557682  1
  Pr  Pr9  1  0.942318  0.557682  0.557682  1
  Tm  Tm10  1  0.184977  0.184977  0.815023  1
  Tm  Tm11  1  0.815023  0.184977  0.815023  1
  Tm  Tm12  1  0.184976  0.815024  0.815023  1
  Tm  Tm13  1  0.815023  0.815024  0.184977  1
  Tm  Tm14  1  0.184976  0.815023  0.184976  1
  Tm  Tm15  1  0.815023  0.184977  0.184977  1
  Cd  Cd16  1  0.579131  0.579131  0.262606  1
  Cd  Cd17  1  0.579131  0.262606  0.579131  1
  Cd  Cd18  1  0.262606  0.579131  0.579131  1
  Cd  Cd19  1  0.579131  0.579131  0.579131  1
  Ru  Ru20  1  0.143933  0.143933  0.568202  1
  Ru  Ru21  1  0.143933  0.568202  0.143933  1
  Ru  Ru22  1  0.568202  0.143933  0.143933  1
  Ru  Ru23  1  0.143933  0.143933  0.143933  1
