# generated using pymatgen
data_Y2Ho2Fe5Si10Rh
_symmetry_space_group_name_H-M   'P 1'
_cell_length_a   8.01392111
_cell_length_b   8.01405008
_cell_length_c   8.01404944
_cell_angle_alpha   140.38746497
_cell_angle_beta   108.14306393
_cell_angle_gamma   85.31021932
_symmetry_Int_Tables_number   1
_chemical_formula_structural   Y2Ho2Fe5Si10Rh
_chemical_formula_sum   'Y2 Ho2 Fe5 Si10 Rh1'
_cell_volume   301.04187527
_cell_formula_units_Z   1
loop_
 _symmetry_equiv_pos_site_id
 _symmetry_equiv_pos_as_xyz
  1  'x, y, z'
loop_
 _atom_site_type_symbol
 _atom_site_label
 _atom_site_symmetry_multiplicity
 _atom_site_fract_x
 _atom_site_fract_y
 _atom_site_fract_z
 _atom_site_occupancy
  Y  Y0  1  0.631718  0.868103  0.776273  1
  Y  Y1  1  0.368282  0.144554  0.236385  1
  Ho  Ho2  1  0.091590  0.355259  0.723575  1
  Ho  Ho3  1  0.908410  0.631985  0.263668  1
  Fe  Fe4  1  0.233274  0.643570  0.589217  1
  Fe  Fe5  1  0.766726  0.355943  0.410296  1
  Fe  Fe6  1  0.053720  0.144281  0.910105  1
  Fe  Fe7  1  0.946280  0.856383  0.090560  1
  Fe  Fe8  1  0.500000  0.749979  0.249979  1
  Si  Si9  1  0.285033  0.035460  0.749750  1
  Si  Si10  1  0.711922  0.961507  0.250221  1
  Si  Si11  1  0.714967  0.464716  0.750426  1
  Si  Si12  1  0.288078  0.538299  0.249586  1
  Si  Si13  1  0.423239  0.609809  0.838986  1
  Si  Si14  1  0.576761  0.415746  0.186569  1
  Si  Si15  1  0.771285  0.084582  0.661024  1
  Si  Si16  1  0.228715  0.889740  0.313298  1
  Si  Si17  1  0.000000  0.749731  0.749731  1
  Si  Si18  1  0.000000  0.250305  0.250305  1
  Rh  Rh19  1  0.500000  0.250047  0.750047  1
