# generated using pymatgen
data_Tm4Ga3Sb3Rh7
_symmetry_space_group_name_H-M   'P 1'
_cell_length_a   7.41256498
_cell_length_b   7.42708437
_cell_length_c   7.41256578
_cell_angle_alpha   109.51090467
_cell_angle_beta   109.43151446
_cell_angle_gamma   109.51089801
_symmetry_Int_Tables_number   1
_chemical_formula_structural   Tm4Ga3Sb3Rh7
_chemical_formula_sum   'Tm4 Ga3 Sb3 Rh7'
_cell_volume   313.99346337
_cell_formula_units_Z   1
loop_
 _symmetry_equiv_pos_site_id
 _symmetry_equiv_pos_as_xyz
  1  'x, y, z'
loop_
 _atom_site_type_symbol
 _atom_site_label
 _atom_site_symmetry_multiplicity
 _atom_site_fract_x
 _atom_site_fract_y
 _atom_site_fract_z
 _atom_site_occupancy
  Tm  Tm0  1  0.481969  0.983019  0.000000  1
  Tm  Tm1  1  0.000000  0.535732  0.000000  1
  Tm  Tm2  1  0.000000  0.983019  0.481969  1
  Tm  Tm3  1  0.518031  0.501050  0.518031  1
  Ga  Ga4  1  0.323280  0.003889  0.323280  1
  Ga  Ga5  1  0.000000  0.680609  0.676720  1
  Ga  Ga6  1  0.676720  0.680609  0.000000  1
  Sb  Sb7  1  0.687664  0.001553  0.687664  1
  Sb  Sb8  1  0.000000  0.313889  0.312336  1
  Sb  Sb9  1  0.312336  0.313889  0.000000  1
  Rh  Rh10  1  0.251695  0.505197  0.752521  1
  Rh  Rh11  1  0.500827  0.253502  0.748305  1
  Rh  Rh12  1  0.748305  0.253502  0.500827  1
  Rh  Rh13  1  0.499173  0.752676  0.247479  1
  Rh  Rh14  1  0.000000  0.979994  0.000000  1
  Rh  Rh15  1  0.247479  0.752676  0.499173  1
  Rh  Rh16  1  0.752521  0.505197  0.251695  1
