# generated using pymatgen
data_Dy2Si7Pt12
_symmetry_space_group_name_H-M   'P 1'
_cell_length_a   9.95860300
_cell_length_b   9.95860172
_cell_length_c   3.95247200
_cell_angle_alpha   90.00000000
_cell_angle_beta   90.00000000
_cell_angle_gamma   120.00000092
_symmetry_Int_Tables_number   1
_chemical_formula_structural   Dy2Si7Pt12
_chemical_formula_sum   'Dy2 Si7 Pt12'
_cell_volume   339.46594539
_cell_formula_units_Z   1
loop_
 _symmetry_equiv_pos_site_id
 _symmetry_equiv_pos_as_xyz
  1  'x, y, z'
loop_
 _atom_site_type_symbol
 _atom_site_label
 _atom_site_symmetry_multiplicity
 _atom_site_fract_x
 _atom_site_fract_y
 _atom_site_fract_z
 _atom_site_occupancy
  Dy  Dy0  1  0.333333  0.666667  0.749755  1
  Dy  Dy1  1  0.666667  0.333333  0.250245  1
  Si  Si2  1  0.000000  0.000000  0.500000  1
  Si  Si3  1  0.404901  0.288553  0.748832  1
  Si  Si4  1  0.711447  0.116349  0.748832  1
  Si  Si5  1  0.883651  0.595099  0.748832  1
  Si  Si6  1  0.595099  0.711447  0.251168  1
  Si  Si7  1  0.288553  0.883651  0.251168  1
  Si  Si8  1  0.116349  0.404901  0.251168  1
  Pt  Pt9  1  0.453987  0.074530  0.749779  1
  Pt  Pt10  1  0.925470  0.379458  0.749779  1
  Pt  Pt11  1  0.620542  0.546013  0.749779  1
  Pt  Pt12  1  0.546013  0.925470  0.250221  1
  Pt  Pt13  1  0.074530  0.620542  0.250221  1
  Pt  Pt14  1  0.379458  0.453987  0.250221  1
  Pt  Pt15  1  0.146785  0.260592  0.755964  1
  Pt  Pt16  1  0.739408  0.886195  0.755964  1
  Pt  Pt17  1  0.113805  0.853215  0.755964  1
  Pt  Pt18  1  0.853215  0.739408  0.244036  1
  Pt  Pt19  1  0.260592  0.113805  0.244036  1
  Pt  Pt20  1  0.886195  0.146785  0.244036  1
