# generated using pymatgen
data_Nd3Lu13(ZrIr3)4
_symmetry_space_group_name_H-M   'P 1'
_cell_length_a   10.76227430
_cell_length_b   10.75353625
_cell_length_c   6.20770164
_cell_angle_alpha   90.00901452
_cell_angle_beta   90.19995267
_cell_angle_gamma   90.10142463
_symmetry_Int_Tables_number   1
_chemical_formula_structural   Nd3Lu13(ZrIr3)4
_chemical_formula_sum   'Nd3 Lu13 Zr4 Ir12'
_cell_volume   718.42736270
_cell_formula_units_Z   1
loop_
 _symmetry_equiv_pos_site_id
 _symmetry_equiv_pos_as_xyz
  1  'x, y, z'
loop_
 _atom_site_type_symbol
 _atom_site_label
 _atom_site_symmetry_multiplicity
 _atom_site_fract_x
 _atom_site_fract_y
 _atom_site_fract_z
 _atom_site_occupancy
  Nd  Nd0  1  0.907923  0.285139  0.635502  1
  Nd  Nd1  1  0.214702  0.409520  0.635520  1
  Nd  Nd2  1  0.785530  0.593960  0.636960  1
  Lu  Lu3  1  0.087165  0.291625  0.130995  1
  Lu  Lu4  1  0.790038  0.414055  0.129931  1
  Lu  Lu5  1  0.209237  0.590327  0.131322  1
  Lu  Lu6  1  0.915042  0.711962  0.132553  1
  Lu  Lu7  1  0.414740  0.791402  0.371723  1
  Lu  Lu8  1  0.585557  0.208678  0.370171  1
  Lu  Lu9  1  0.291125  0.084991  0.368273  1
  Lu  Lu10  1  0.708868  0.915061  0.374084  1
  Lu  Lu11  1  0.417942  0.205377  0.874788  1
  Lu  Lu12  1  0.707253  0.081093  0.875864  1
  Lu  Lu13  1  0.290589  0.914394  0.870242  1
  Lu  Lu14  1  0.580607  0.793840  0.873530  1
  Lu  Lu15  1  0.089167  0.709577  0.630998  1
  Zr  Zr16  1  0.001834  0.000102  0.998687  1
  Zr  Zr17  1  0.498147  0.501213  0.993749  1
  Zr  Zr18  1  0.500110  0.500679  0.489879  1
  Zr  Zr19  1  0.003025  0.995743  0.494994  1
  Ir  Ir20  1  0.150452  0.850746  0.250130  1
  Ir  Ir21  1  0.354206  0.350478  0.239189  1
  Ir  Ir22  1  0.645003  0.650472  0.239038  1
  Ir  Ir23  1  0.851292  0.145177  0.241880  1
  Ir  Ir24  1  0.354064  0.651706  0.747422  1
  Ir  Ir25  1  0.152748  0.139932  0.753730  1
  Ir  Ir26  1  0.854138  0.857029  0.751003  1
  Ir  Ir27  1  0.638600  0.348559  0.751760  1
  Ir  Ir28  1  0.001165  0.503760  0.379976  1
  Ir  Ir29  1  0.499422  0.999479  0.117785  1
  Ir  Ir30  1  0.498955  0.000058  0.613439  1
  Ir  Ir31  1  0.001354  0.503864  0.894883  1
