# generated using pymatgen
data_Tb4Fe3Ni13(P3W)4
_symmetry_space_group_name_H-M   'P 1'
_cell_length_a   3.70716500
_cell_length_b   10.50334743
_cell_length_c   12.09564395
_cell_angle_alpha   89.89554263
_cell_angle_beta   90.00000000
_cell_angle_gamma   90.00000000
_symmetry_Int_Tables_number   1
_chemical_formula_structural   Tb4Fe3Ni13(P3W)4
_chemical_formula_sum   'Tb4 Fe3 Ni13 P12 W4'
_cell_volume   470.97507087
_cell_formula_units_Z   1
loop_
 _symmetry_equiv_pos_site_id
 _symmetry_equiv_pos_as_xyz
  1  'x, y, z'
loop_
 _atom_site_type_symbol
 _atom_site_label
 _atom_site_symmetry_multiplicity
 _atom_site_fract_x
 _atom_site_fract_y
 _atom_site_fract_z
 _atom_site_occupancy
  Tb  Tb0  1  0.250000  0.582446  0.706299  1
  Tb  Tb1  1  0.250000  0.917292  0.207031  1
  Tb  Tb2  1  0.750000  0.418587  0.294456  1
  Tb  Tb3  1  0.750000  0.082736  0.792159  1
  Fe  Fe4  1  0.250000  0.035577  0.434813  1
  Fe  Fe5  1  0.750000  0.532642  0.066378  1
  Fe  Fe6  1  0.750000  0.964557  0.564732  1
  Ni  Ni7  1  0.250000  0.409540  0.489878  1
  Ni  Ni8  1  0.250000  0.091766  0.988653  1
  Ni  Ni9  1  0.750000  0.590395  0.511627  1
  Ni  Ni10  1  0.750000  0.909103  0.011785  1
  Ni  Ni11  1  0.250000  0.222253  0.177814  1
  Ni  Ni12  1  0.250000  0.275346  0.675833  1
  Ni  Ni13  1  0.750000  0.779826  0.822742  1
  Ni  Ni14  1  0.750000  0.723914  0.322702  1
  Ni  Ni15  1  0.250000  0.884827  0.701108  1
  Ni  Ni16  1  0.250000  0.617785  0.202452  1
  Ni  Ni17  1  0.750000  0.115168  0.298918  1
  Ni  Ni18  1  0.750000  0.382707  0.797079  1
  Ni  Ni19  1  0.250000  0.463763  0.932260  1
  P  P20  1  0.250000  0.422844  0.115233  1
  P  P21  1  0.250000  0.076182  0.612339  1
  P  P22  1  0.750000  0.579609  0.885920  1
  P  P23  1  0.750000  0.923087  0.387254  1
  P  P24  1  0.250000  0.265415  0.866833  1
  P  P25  1  0.250000  0.233662  0.367950  1
  P  P26  1  0.750000  0.732561  0.132430  1
  P  P27  1  0.750000  0.766290  0.632117  1
  P  P28  1  0.250000  0.599248  0.390518  1
  P  P29  1  0.250000  0.902450  0.890129  1
  P  P30  1  0.750000  0.400293  0.610255  1
  P  P31  1  0.750000  0.098347  0.110624  1
  W  W32  1  0.250000  0.706257  0.988705  1
  W  W33  1  0.250000  0.794650  0.490419  1
  W  W34  1  0.750000  0.293606  0.011392  1
  W  W35  1  0.750000  0.205266  0.509165  1
