# generated using pymatgen
data_Bi6Sb(RhO9)2
_symmetry_space_group_name_H-M   'P 1'
_cell_length_a   9.25914800
_cell_length_b   9.25914803
_cell_length_c   5.22632700
_cell_angle_alpha   90.00000000
_cell_angle_beta   90.00000000
_cell_angle_gamma   119.99999893
_symmetry_Int_Tables_number   1
_chemical_formula_structural   Bi6Sb(RhO9)2
_chemical_formula_sum   'Bi6 Sb1 Rh2 O18'
_cell_volume   388.03354285
_cell_formula_units_Z   1
loop_
 _symmetry_equiv_pos_site_id
 _symmetry_equiv_pos_as_xyz
  1  'x, y, z'
loop_
 _atom_site_type_symbol
 _atom_site_label
 _atom_site_symmetry_multiplicity
 _atom_site_fract_x
 _atom_site_fract_y
 _atom_site_fract_z
 _atom_site_occupancy
  Bi  Bi0  1  0.003264  0.375725  0.502282  1
  Bi  Bi1  1  0.284685  0.290489  0.002473  1
  Bi  Bi2  1  0.005804  0.715315  0.002473  1
  Bi  Bi3  1  0.624275  0.627539  0.502282  1
  Bi  Bi4  1  0.372461  0.996736  0.502282  1
  Bi  Bi5  1  0.709511  0.994196  0.002473  1
  Sb  Sb6  1  0.666667  0.333333  0.001076  1
  Rh  Rh7  1  0.000000  0.000000  0.494014  1
  Rh  Rh8  1  0.333333  0.666667  0.002806  1
  O  O9  1  0.082733  0.201092  0.711675  1
  O  O10  1  0.224819  0.462252  0.219245  1
  O  O11  1  0.131676  0.596654  0.789326  1
  O  O12  1  0.403346  0.535021  0.789326  1
  O  O13  1  0.237434  0.775181  0.219245  1
  O  O14  1  0.118359  0.917267  0.711675  1
  O  O15  1  0.537748  0.762566  0.219245  1
  O  O16  1  0.201972  0.080112  0.276124  1
  O  O17  1  0.464979  0.868324  0.789326  1
  O  O18  1  0.798908  0.881641  0.711675  1
  O  O19  1  0.457356  0.230254  0.782492  1
  O  O20  1  0.595310  0.128799  0.217086  1
  O  O21  1  0.533488  0.404690  0.217086  1
  O  O22  1  0.769746  0.227102  0.782492  1
  O  O23  1  0.919888  0.121859  0.276124  1
  O  O24  1  0.772898  0.542644  0.782492  1
  O  O25  1  0.871201  0.466512  0.217086  1
  O  O26  1  0.878141  0.798028  0.276124  1
