# generated using pymatgen
data_CeSmAlRu2
_symmetry_space_group_name_H-M   'P 1'
_cell_length_a   5.85176483
_cell_length_b   5.85176564
_cell_length_c   6.98390220
_cell_angle_alpha   86.52889783
_cell_angle_beta   93.47110317
_cell_angle_gamma   119.08169388
_symmetry_Int_Tables_number   1
_chemical_formula_structural   CeSmAlRu2
_chemical_formula_sum   'Ce2 Sm2 Al2 Ru4'
_cell_volume   208.48433726
_cell_formula_units_Z   2
loop_
 _symmetry_equiv_pos_site_id
 _symmetry_equiv_pos_as_xyz
  1  'x, y, z'
loop_
 _atom_site_type_symbol
 _atom_site_label
 _atom_site_symmetry_multiplicity
 _atom_site_fract_x
 _atom_site_fract_y
 _atom_site_fract_z
 _atom_site_occupancy
  Ce  Ce0  1  0.167336  0.832664  0.575796  1
  Ce  Ce1  1  0.832664  0.167336  0.424204  1
  Sm  Sm2  1  0.344451  0.655549  0.084926  1
  Sm  Sm3  1  0.655549  0.344451  0.915074  1
  Al  Al4  1  0.000000  0.000000  0.000000  1
  Al  Al5  1  0.500000  0.500000  0.500000  1
  Ru  Ru6  1  0.868876  0.640986  0.269064  1
  Ru  Ru7  1  0.640986  0.868876  0.730936  1
  Ru  Ru8  1  0.131124  0.359014  0.730936  1
  Ru  Ru9  1  0.359014  0.131124  0.269064  1
