# generated using pymatgen
data_LiHf(B4Ir3)2
_symmetry_space_group_name_H-M   'P 1'
_cell_length_a   7.55594400
_cell_length_b   7.55594361
_cell_length_c   3.47721400
_cell_angle_alpha   90.00000000
_cell_angle_beta   90.00000000
_cell_angle_gamma   120.00000172
_symmetry_Int_Tables_number   1
_chemical_formula_structural   LiHf(B4Ir3)2
_chemical_formula_sum   'Li1 Hf1 B8 Ir6'
_cell_volume   171.92517782
_cell_formula_units_Z   1
loop_
 _symmetry_equiv_pos_site_id
 _symmetry_equiv_pos_as_xyz
  1  'x, y, z'
loop_
 _atom_site_type_symbol
 _atom_site_label
 _atom_site_symmetry_multiplicity
 _atom_site_fract_x
 _atom_site_fract_y
 _atom_site_fract_z
 _atom_site_occupancy
  Li  Li0  1  0.333333  0.666667  0.250000  1
  Hf  Hf1  1  0.666667  0.333333  0.750000  1
  B  B2  1  0.062678  0.600842  0.750000  1
  B  B3  1  0.538163  0.937322  0.750000  1
  B  B4  1  0.399158  0.461837  0.750000  1
  B  B5  1  0.964316  0.410153  0.250000  1
  B  B6  1  0.445837  0.035684  0.250000  1
  B  B7  1  0.589847  0.554163  0.250000  1
  B  B8  1  0.000000  0.000000  0.001097  1
  B  B9  1  0.000000  0.000000  0.498903  1
  Ir  Ir10  1  0.251138  0.926231  0.750000  1
  Ir  Ir11  1  0.675094  0.748862  0.750000  1
  Ir  Ir12  1  0.073769  0.324906  0.750000  1
  Ir  Ir13  1  0.747476  0.077077  0.250000  1
  Ir  Ir14  1  0.329600  0.252524  0.250000  1
  Ir  Ir15  1  0.922923  0.670400  0.250000  1
