# generated using pymatgen
data_CsScVF6
_symmetry_space_group_name_H-M   'P 1'
_cell_length_a   7.72798291
_cell_length_b   7.72798340
_cell_length_c   7.72798254
_cell_angle_alpha   120.27021634
_cell_angle_beta   119.56103667
_cell_angle_gamma   90.14730028
_symmetry_Int_Tables_number   1
_chemical_formula_structural   CsScVF6
_chemical_formula_sum   'Cs2 Sc2 V2 F12'
_cell_volume   326.74930607
_cell_formula_units_Z   2
loop_
 _symmetry_equiv_pos_site_id
 _symmetry_equiv_pos_as_xyz
  1  'x, y, z'
loop_
 _atom_site_type_symbol
 _atom_site_label
 _atom_site_symmetry_multiplicity
 _atom_site_fract_x
 _atom_site_fract_y
 _atom_site_fract_z
 _atom_site_occupancy
  Cs  Cs0  1  0.868077  0.618077  0.250000  1
  Cs  Cs1  1  0.131923  0.381923  0.750000  1
  Sc  Sc2  1  0.500000  0.000000  0.500000  1
  Sc  Sc3  1  0.000000  0.000000  0.000000  1
  V  V4  1  0.500000  0.000000  0.000000  1
  V  V5  1  0.500000  0.500000  0.500000  1
  F  F6  1  0.814261  0.064261  0.750000  1
  F  F7  1  0.423197  0.673197  0.750000  1
  F  F8  1  0.825635  0.688362  0.758908  1
  F  F9  1  0.429453  0.066726  0.741092  1
  F  F10  1  0.825635  0.066726  0.137273  1
  F  F11  1  0.429453  0.688362  0.362727  1
  F  F12  1  0.185739  0.935739  0.250000  1
  F  F13  1  0.576803  0.326803  0.250000  1
  F  F14  1  0.174365  0.311638  0.241092  1
  F  F15  1  0.570547  0.933274  0.258908  1
  F  F16  1  0.174365  0.933274  0.862727  1
  F  F17  1  0.570547  0.311638  0.637273  1
