# generated using pymatgen
data_HoTh2Sn3Ir2Rh
_symmetry_space_group_name_H-M   'P 1'
_cell_length_a   7.56821873
_cell_length_b   7.56821823
_cell_length_c   4.06258100
_cell_angle_alpha   90.00000000
_cell_angle_beta   90.00000000
_cell_angle_gamma   120.20897885
_symmetry_Int_Tables_number   1
_chemical_formula_structural   HoTh2Sn3Ir2Rh
_chemical_formula_sum   'Ho1 Th2 Sn3 Ir2 Rh1'
_cell_volume   201.09514622
_cell_formula_units_Z   1
loop_
 _symmetry_equiv_pos_site_id
 _symmetry_equiv_pos_as_xyz
  1  'x, y, z'
loop_
 _atom_site_type_symbol
 _atom_site_label
 _atom_site_symmetry_multiplicity
 _atom_site_fract_x
 _atom_site_fract_y
 _atom_site_fract_z
 _atom_site_occupancy
  Ho  Ho0  1  0.408005  0.408005  0.500000  1
  Th  Th1  1  0.586492  0.999627  0.500000  1
  Th  Th2  1  0.999627  0.586492  0.500000  1
  Sn  Sn3  1  0.738759  0.738759  0.000000  1
  Sn  Sn4  1  0.253351  0.010121  0.000000  1
  Sn  Sn5  1  0.010121  0.253351  0.000000  1
  Ir  Ir6  1  0.675637  0.332311  0.000000  1
  Ir  Ir7  1  0.332311  0.675637  0.000000  1
  Rh  Rh8  1  0.995698  0.995698  0.500000  1
