# generated using pymatgen
data_K3Sr(PuTe3)2
_symmetry_space_group_name_H-M   'P 1'
_cell_length_a   8.08491397
_cell_length_b   8.08491335
_cell_length_c   8.91180600
_cell_angle_alpha   81.19747739
_cell_angle_beta   81.19747807
_cell_angle_gamma   120.18640724
_symmetry_Int_Tables_number   1
_chemical_formula_structural   K3Sr(PuTe3)2
_chemical_formula_sum   'K3 Sr1 Pu2 Te6'
_cell_volume   479.22990958
_cell_formula_units_Z   1
loop_
 _symmetry_equiv_pos_site_id
 _symmetry_equiv_pos_as_xyz
  1  'x, y, z'
loop_
 _atom_site_type_symbol
 _atom_site_label
 _atom_site_symmetry_multiplicity
 _atom_site_fract_x
 _atom_site_fract_y
 _atom_site_fract_z
 _atom_site_occupancy
  K  K0  1  0.658885  0.341115  0.500000  1
  K  K1  1  0.341115  0.658885  0.500000  1
  K  K2  1  0.000000  0.000000  0.500000  1
  Sr  Sr3  1  0.500000  0.500000  0.000000  1
  Pu  Pu4  1  0.832220  0.167780  0.000000  1
  Pu  Pu5  1  0.167780  0.832220  0.000000  1
  Te  Te6  1  0.785056  0.785056  0.204416  1
  Te  Te7  1  0.214944  0.214944  0.795584  1
  Te  Te8  1  0.430040  0.074980  0.206171  1
  Te  Te9  1  0.569960  0.925020  0.793829  1
  Te  Te10  1  0.925020  0.569960  0.793829  1
  Te  Te11  1  0.074980  0.430040  0.206171  1
