# generated using pymatgen
data_Ce3Sm2Tm3(AlRu)8
_symmetry_space_group_name_H-M   'P 1'
_cell_length_a   4.03173900
_cell_length_b   7.14393468
_cell_length_c   15.96885090
_cell_angle_alpha   91.54677389
_cell_angle_beta   90.00000000
_cell_angle_gamma   90.00000000
_symmetry_Int_Tables_number   1
_chemical_formula_structural   Ce3Sm2Tm3(AlRu)8
_chemical_formula_sum   'Ce3 Sm2 Tm3 Al8 Ru8'
_cell_volume   459.77491694
_cell_formula_units_Z   1
loop_
 _symmetry_equiv_pos_site_id
 _symmetry_equiv_pos_as_xyz
  1  'x, y, z'
loop_
 _atom_site_type_symbol
 _atom_site_label
 _atom_site_symmetry_multiplicity
 _atom_site_fract_x
 _atom_site_fract_y
 _atom_site_fract_z
 _atom_site_occupancy
  Ce  Ce0  1  0.750000  0.465150  0.281405  1
  Ce  Ce1  1  0.750000  0.328862  0.063807  1
  Ce  Ce2  1  0.250000  0.537606  0.718165  1
  Sm  Sm3  1  0.250000  0.664635  0.938474  1
  Sm  Sm4  1  0.250000  0.039848  0.778986  1
  Tm  Tm5  1  0.750000  0.959199  0.221681  1
  Tm  Tm6  1  0.250000  0.160461  0.559202  1
  Tm  Tm7  1  0.750000  0.843185  0.439068  1
  Al  Al8  1  0.750000  0.504782  0.560143  1
  Al  Al9  1  0.750000  0.362330  0.852081  1
  Al  Al10  1  0.750000  0.993160  0.936020  1
  Al  Al11  1  0.750000  0.873058  0.646751  1
  Al  Al12  1  0.250000  0.495929  0.437336  1
  Al  Al13  1  0.250000  0.995254  0.068848  1
  Al  Al14  1  0.250000  0.642278  0.153216  1
  Al  Al15  1  0.250000  0.125250  0.348141  1
  Ru  Ru16  1  0.750000  0.728119  0.803944  1
  Ru  Ru17  1  0.250000  0.231969  0.941857  1
  Ru  Ru18  1  0.750000  0.259565  0.432222  1
  Ru  Ru19  1  0.250000  0.741271  0.318745  1
  Ru  Ru20  1  0.750000  0.767193  0.069065  1
  Ru  Ru21  1  0.750000  0.268704  0.681830  1
  Ru  Ru22  1  0.250000  0.269174  0.187322  1
  Ru  Ru23  1  0.250000  0.743018  0.561688  1
