# generated using pymatgen
data_Dy5P12Os10Rh9
_symmetry_space_group_name_H-M   'P 1'
_cell_length_a   12.60807622
_cell_length_b   12.57215026
_cell_length_c   3.96646300
_cell_angle_alpha   90.00000000
_cell_angle_beta   90.00000000
_cell_angle_gamma   119.79486942
_symmetry_Int_Tables_number   1
_chemical_formula_structural   Dy5P12Os10Rh9
_chemical_formula_sum   'Dy5 P12 Os10 Rh9'
_cell_volume   545.61515186
_cell_formula_units_Z   1
loop_
 _symmetry_equiv_pos_site_id
 _symmetry_equiv_pos_as_xyz
  1  'x, y, z'
loop_
 _atom_site_type_symbol
 _atom_site_label
 _atom_site_symmetry_multiplicity
 _atom_site_fract_x
 _atom_site_fract_y
 _atom_site_fract_z
 _atom_site_occupancy
  Dy  Dy0  1  0.666341  0.332550  0.000000  1
  Dy  Dy1  1  0.333760  0.667348  0.000000  1
  Dy  Dy2  1  0.812366  0.000386  0.500000  1
  Dy  Dy3  1  0.184750  0.186735  0.500000  1
  Dy  Dy4  1  0.999911  0.813698  0.500000  1
  P  P5  1  0.632615  0.997421  0.000000  1
  P  P6  1  0.364772  0.370729  0.000000  1
  P  P7  1  0.006688  0.635779  0.000000  1
  P  P8  1  0.687892  0.518595  0.500000  1
  P  P9  1  0.828148  0.306677  0.500000  1
  P  P10  1  0.313120  0.829857  0.500000  1
  P  P11  1  0.517137  0.687222  0.500000  1
  P  P12  1  0.179872  0.001958  0.000000  1
  P  P13  1  0.820759  0.819818  0.000000  1
  P  P14  1  0.995631  0.179077  0.000000  1
  P  P15  1  0.479713  0.167278  0.500000  1
  P  P16  1  0.171157  0.484066  0.500000  1
  Os  Os17  1  0.127365  0.640337  0.500000  1
  Os  Os18  1  0.361621  0.488200  0.500000  1
  Os  Os19  1  0.511162  0.871297  0.500000  1
  Os  Os20  1  0.714400  0.713142  0.500000  1
  Os  Os21  1  0.001493  0.288264  0.500000  1
  Os  Os22  1  0.452229  0.003095  0.000000  1
  Os  Os23  1  0.552516  0.546353  0.000000  1
  Os  Os24  1  0.000167  0.450538  0.000000  1
  Os  Os25  1  0.816857  0.195524  0.000000  1
  Os  Os26  1  0.285964  0.000891  0.500000  1
  Rh  Rh27  1  0.625349  0.804431  0.000000  1
  Rh  Rh28  1  0.180784  0.374875  0.000000  1
  Rh  Rh29  1  0.375495  0.184508  0.000000  1
  Rh  Rh30  1  0.195479  0.821890  0.000000  1
  Rh  Rh31  1  0.808981  0.623698  0.000000  1
  Rh  Rh32  1  0.869085  0.505446  0.500000  1
  Rh  Rh33  1  0.491426  0.360136  0.500000  1
  Rh  Rh34  1  0.635498  0.128011  0.500000  1
  Rh  Rh35  1  0.999500  0.000167  0.000000  1
