# generated using pymatgen
data_Tb8Ho2Ga3NiBi2
_symmetry_space_group_name_H-M   'P 1'
_cell_length_a   8.61478247
_cell_length_b   8.61478276
_cell_length_c   8.78033203
_cell_angle_alpha   124.53911502
_cell_angle_beta   124.53911870
_cell_angle_gamma   81.04096741
_symmetry_Int_Tables_number   1
_chemical_formula_structural   Tb8Ho2Ga3NiBi2
_chemical_formula_sum   'Tb8 Ho2 Ga3 Ni1 Bi2'
_cell_volume   428.76927727
_cell_formula_units_Z   1
loop_
 _symmetry_equiv_pos_site_id
 _symmetry_equiv_pos_as_xyz
  1  'x, y, z'
loop_
 _atom_site_type_symbol
 _atom_site_label
 _atom_site_symmetry_multiplicity
 _atom_site_fract_x
 _atom_site_fract_y
 _atom_site_fract_z
 _atom_site_occupancy
  Tb  Tb0  1  0.779790  0.296526  0.796076  1
  Tb  Tb1  1  0.203474  0.720210  0.203924  1
  Tb  Tb2  1  0.483713  0.000450  0.203924  1
  Tb  Tb3  1  0.303697  0.458410  0.500000  1
  Tb  Tb4  1  0.041590  0.196303  0.500000  1
  Tb  Tb5  1  0.499550  0.016287  0.796076  1
  Tb  Tb6  1  0.705174  0.516458  0.500000  1
  Tb  Tb7  1  0.983542  0.794826  0.500000  1
  Ho  Ho8  1  0.994030  0.996511  0.990542  1
  Ho  Ho9  1  0.503489  0.505970  0.009458  1
  Ga  Ga10  1  0.148295  0.645206  0.793499  1
  Ga  Ga11  1  0.854794  0.351705  0.206501  1
  Ga  Ga12  1  0.634276  0.865724  0.500000  1
  Ni  Ni13  1  0.375902  0.124098  0.500000  1
  Bi  Bi14  1  0.244340  0.255660  0.000000  1
  Bi  Bi15  1  0.744340  0.755660  0.000000  1
