# generated using pymatgen
data_Nd6Th2MgCdIr2
_symmetry_space_group_name_H-M   'P 1'
_cell_length_a   10.01728319
_cell_length_b   10.01728387
_cell_length_c   10.01677800
_cell_angle_alpha   60.00167049
_cell_angle_beta   60.00166827
_cell_angle_gamma   60.03452658
_symmetry_Int_Tables_number   1
_chemical_formula_structural   Nd6Th2MgCdIr2
_chemical_formula_sum   'Nd12 Th4 Mg2 Cd2 Ir4'
_cell_volume   710.94686131
_cell_formula_units_Z   2
loop_
 _symmetry_equiv_pos_site_id
 _symmetry_equiv_pos_as_xyz
  1  'x, y, z'
loop_
 _atom_site_type_symbol
 _atom_site_label
 _atom_site_symmetry_multiplicity
 _atom_site_fract_x
 _atom_site_fract_y
 _atom_site_fract_z
 _atom_site_occupancy
  Nd  Nd0  1  0.809933  0.190052  0.189902  1
  Nd  Nd1  1  0.190052  0.809933  0.810113  1
  Nd  Nd2  1  0.190052  0.809933  0.189902  1
  Nd  Nd3  1  0.809933  0.190052  0.810113  1
  Nd  Nd4  1  0.192034  0.192034  0.807966  1
  Nd  Nd5  1  0.811431  0.811431  0.188569  1
  Nd  Nd6  1  0.940305  0.561714  0.562761  1
  Nd  Nd7  1  0.561714  0.940305  0.935220  1
  Nd  Nd8  1  0.561714  0.940305  0.562761  1
  Nd  Nd9  1  0.940305  0.561714  0.935220  1
  Nd  Nd10  1  0.563134  0.563134  0.936866  1
  Nd  Nd11  1  0.938427  0.938427  0.561573  1
  Th  Th12  1  0.345497  0.345497  0.346026  1
  Th  Th13  1  0.345497  0.345497  0.962980  1
  Th  Th14  1  0.345652  0.961615  0.346367  1
  Th  Th15  1  0.961615  0.345652  0.346367  1
  Mg  Mg16  1  0.576595  0.576595  0.579402  1
  Mg  Mg17  1  0.576595  0.576595  0.267406  1
  Cd  Cd18  1  0.581098  0.258949  0.579975  1
  Cd  Cd19  1  0.258949  0.581098  0.579975  1
  Ir  Ir20  1  0.145427  0.145427  0.145733  1
  Ir  Ir21  1  0.145427  0.145427  0.563412  1
  Ir  Ir22  1  0.145413  0.563197  0.145694  1
  Ir  Ir23  1  0.563197  0.145413  0.145694  1
