# generated using pymatgen
data_Y4MnAl18CoPd4
_symmetry_space_group_name_H-M   'P 1'
_cell_length_a   7.55507843
_cell_length_b   7.55507784
_cell_length_c   9.46726198
_cell_angle_alpha   90.09218317
_cell_angle_beta   90.09218231
_cell_angle_gamma   119.41258914
_symmetry_Int_Tables_number   1
_chemical_formula_structural   Y4MnAl18CoPd4
_chemical_formula_sum   'Y4 Mn1 Al18 Co1 Pd4'
_cell_volume   470.72913137
_cell_formula_units_Z   1
loop_
 _symmetry_equiv_pos_site_id
 _symmetry_equiv_pos_as_xyz
  1  'x, y, z'
loop_
 _atom_site_type_symbol
 _atom_site_label
 _atom_site_symmetry_multiplicity
 _atom_site_fract_x
 _atom_site_fract_y
 _atom_site_fract_z
 _atom_site_occupancy
  Y  Y0  1  0.996236  0.674058  0.249760  1
  Y  Y1  1  0.006173  0.327135  0.750760  1
  Y  Y2  1  0.672865  0.993827  0.249240  1
  Y  Y3  1  0.325942  0.003764  0.750240  1
  Mn  Mn4  1  0.328931  0.671069  0.000000  1
  Al  Al5  1  0.135812  0.135131  0.250363  1
  Al  Al6  1  0.864869  0.864188  0.749637  1
  Al  Al7  1  0.340870  0.333503  0.551399  1
  Al  Al8  1  0.657618  0.666520  0.050608  1
  Al  Al9  1  0.333480  0.342382  0.949392  1
  Al  Al10  1  0.666497  0.659130  0.448601  1
  Al  Al11  1  0.340143  0.552236  0.242596  1
  Al  Al12  1  0.660242  0.447175  0.742257  1
  Al  Al13  1  0.552825  0.339758  0.257743  1
  Al  Al14  1  0.447764  0.659857  0.757404  1
  Al  Al15  1  0.010118  0.346493  0.074251  1
  Al  Al16  1  0.991098  0.655252  0.574353  1
  Al  Al17  1  0.344748  0.008902  0.425647  1
  Al  Al18  1  0.653507  0.989882  0.925749  1
  Al  Al19  1  0.009956  0.664371  0.925407  1
  Al  Al20  1  0.988811  0.334418  0.424695  1
  Al  Al21  1  0.665582  0.011189  0.575305  1
  Al  Al22  1  0.335629  0.990044  0.074593  1
  Co  Co23  1  0.670410  0.329590  0.500000  1
  Pd  Pd24  1  0.000085  0.999915  0.000000  1
  Pd  Pd25  1  0.999838  0.000162  0.500000  1
  Pd  Pd26  1  0.672052  0.327948  0.000000  1
  Pd  Pd27  1  0.327897  0.672103  0.500000  1
