# generated using pymatgen
data_SnBSe3
_symmetry_space_group_name_H-M   'P 1'
_cell_length_a   6.33618807
_cell_length_b   6.33618932
_cell_length_c   8.07583469
_cell_angle_alpha   66.90274243
_cell_angle_beta   66.90273727
_cell_angle_gamma   60.00001292
_symmetry_Int_Tables_number   1
_chemical_formula_structural   SnBSe3
_chemical_formula_sum   'Sn2 B2 Se6'
_cell_volume   250.32571022
_cell_formula_units_Z   2
loop_
 _symmetry_equiv_pos_site_id
 _symmetry_equiv_pos_as_xyz
  1  'x, y, z'
loop_
 _atom_site_type_symbol
 _atom_site_label
 _atom_site_symmetry_multiplicity
 _atom_site_fract_x
 _atom_site_fract_y
 _atom_site_fract_z
 _atom_site_occupancy
  Sn  Sn0  1  0.166726  0.166727  0.499822  1
  Sn  Sn1  1  0.833274  0.833274  0.500179  1
  B  B2  1  0.539790  0.539792  0.380630  1
  B  B3  1  0.460209  0.460211  0.619370  1
  Se  Se4  1  0.576845  0.272731  0.268872  1
  Se  Se5  1  0.881552  0.576847  0.268872  1
  Se  Se6  1  0.272729  0.881554  0.268872  1
  Se  Se7  1  0.727272  0.118446  0.731126  1
  Se  Se8  1  0.118448  0.423155  0.731126  1
  Se  Se9  1  0.423156  0.727269  0.731126  1
