# generated using pymatgen
data_ErTaReB6
_symmetry_space_group_name_H-M   'P 1'
_cell_length_a   3.54245000
_cell_length_b   8.92217500
_cell_length_c   11.26929000
_cell_angle_alpha   90.00000000
_cell_angle_beta   90.00000000
_cell_angle_gamma   90.00000000
_symmetry_Int_Tables_number   1
_chemical_formula_structural   ErTaReB6
_chemical_formula_sum   'Er4 Ta4 Re4 B24'
_cell_volume   356.18122349
_cell_formula_units_Z   4
loop_
 _symmetry_equiv_pos_site_id
 _symmetry_equiv_pos_as_xyz
  1  'x, y, z'
loop_
 _atom_site_type_symbol
 _atom_site_label
 _atom_site_symmetry_multiplicity
 _atom_site_fract_x
 _atom_site_fract_y
 _atom_site_fract_z
 _atom_site_occupancy
  Er  Er0  1  0.000000  0.322296  0.413046  1
  Er  Er1  1  0.000000  0.677704  0.586954  1
  Er  Er2  1  0.000000  0.822296  0.086954  1
  Er  Er3  1  0.000000  0.177704  0.913046  1
  Ta  Ta4  1  0.000000  0.945482  0.374664  1
  Ta  Ta5  1  0.000000  0.054518  0.625336  1
  Ta  Ta6  1  0.000000  0.445482  0.125336  1
  Ta  Ta7  1  0.000000  0.554518  0.874664  1
  Re  Re8  1  0.000000  0.642841  0.318092  1
  Re  Re9  1  0.000000  0.357159  0.681908  1
  Re  Re10  1  0.000000  0.142841  0.181908  1
  Re  Re11  1  0.000000  0.857159  0.818092  1
  B  B12  1  0.500000  0.554083  0.434272  1
  B  B13  1  0.500000  0.445917  0.565728  1
  B  B14  1  0.500000  0.054083  0.065728  1
  B  B15  1  0.500000  0.945917  0.934272  1
  B  B16  1  0.500000  0.754296  0.419013  1
  B  B17  1  0.500000  0.245704  0.580987  1
  B  B18  1  0.500000  0.254296  0.080987  1
  B  B19  1  0.500000  0.745704  0.919013  1
  B  B20  1  0.500000  0.796839  0.263257  1
  B  B21  1  0.500000  0.203161  0.736743  1
  B  B22  1  0.500000  0.296839  0.236743  1
  B  B23  1  0.500000  0.703161  0.763257  1
  B  B24  1  0.500000  0.629164  0.181449  1
  B  B25  1  0.500000  0.370836  0.818551  1
  B  B26  1  0.500000  0.129164  0.318551  1
  B  B27  1  0.500000  0.870836  0.681449  1
  B  B28  1  0.500000  0.980595  0.213693  1
  B  B29  1  0.500000  0.019405  0.786307  1
  B  B30  1  0.500000  0.480595  0.286307  1
  B  B31  1  0.500000  0.519405  0.713693  1
  B  B32  1  0.500000  0.599298  0.026786  1
  B  B33  1  0.500000  0.400702  0.973214  1
  B  B34  1  0.500000  0.099298  0.473214  1
  B  B35  1  0.500000  0.900702  0.526786  1
