# generated using pymatgen
data_V4SnB4Pb3O16
_symmetry_space_group_name_H-M   'P 1'
_cell_length_a   6.11474800
_cell_length_b   7.33295250
_cell_length_c   8.24159247
_cell_angle_alpha   89.78397696
_cell_angle_beta   90.00000000
_cell_angle_gamma   90.00000000
_symmetry_Int_Tables_number   1
_chemical_formula_structural   V4SnB4Pb3O16
_chemical_formula_sum   'V4 Sn1 B4 Pb3 O16'
_cell_volume   369.54342913
_cell_formula_units_Z   1
loop_
 _symmetry_equiv_pos_site_id
 _symmetry_equiv_pos_as_xyz
  1  'x, y, z'
loop_
 _atom_site_type_symbol
 _atom_site_label
 _atom_site_symmetry_multiplicity
 _atom_site_fract_x
 _atom_site_fract_y
 _atom_site_fract_z
 _atom_site_occupancy
  V  V0  1  0.999700  0.500089  0.501232  1
  V  V1  1  0.500300  0.500089  0.501232  1
  V  V2  1  0.499508  0.997903  0.999703  1
  V  V3  1  0.000492  0.997903  0.999703  1
  Sn  Sn4  1  0.250000  0.592498  0.149847  1
  B  B5  1  0.250000  0.781516  0.729904  1
  B  B6  1  0.250000  0.279933  0.770025  1
  B  B7  1  0.750000  0.716556  0.226875  1
  B  B8  1  0.750000  0.216202  0.270619  1
  Pb  Pb9  1  0.750000  0.423038  0.864679  1
  Pb  Pb10  1  0.250000  0.086131  0.362268  1
  Pb  Pb11  1  0.750000  0.924194  0.638460  1
  O  O12  1  0.053916  0.333693  0.697430  1
  O  O13  1  0.552905  0.662745  0.298731  1
  O  O14  1  0.446378  0.835887  0.800862  1
  O  O15  1  0.945785  0.160918  0.199165  1
  O  O16  1  0.250000  0.172228  0.907897  1
  O  O17  1  0.750000  0.322126  0.408945  1
  O  O18  1  0.750000  0.821261  0.088031  1
  O  O19  1  0.250000  0.677151  0.590508  1
  O  O20  1  0.250000  0.891988  0.124982  1
  O  O21  1  0.750000  0.103489  0.880216  1
  O  O22  1  0.250000  0.404947  0.372796  1
  O  O23  1  0.750000  0.604271  0.619700  1
  O  O24  1  0.053622  0.835887  0.800862  1
  O  O25  1  0.554215  0.160918  0.199165  1
  O  O26  1  0.446084  0.333693  0.697430  1
  O  O27  1  0.947095  0.662745  0.298731  1
