# generated using pymatgen
data_TmLu3Al15(GaIr2)3
_symmetry_space_group_name_H-M   'P 1'
_cell_length_a   7.50545211
_cell_length_b   7.50717638
_cell_length_c   9.46753300
_cell_angle_alpha   90.00000000
_cell_angle_beta   90.00000000
_cell_angle_gamma   119.41663630
_symmetry_Int_Tables_number   1
_chemical_formula_structural   TmLu3Al15(GaIr2)3
_chemical_formula_sum   'Tm1 Lu3 Al15 Ga3 Ir6'
_cell_volume   464.66929822
_cell_formula_units_Z   1
loop_
 _symmetry_equiv_pos_site_id
 _symmetry_equiv_pos_as_xyz
  1  'x, y, z'
loop_
 _atom_site_type_symbol
 _atom_site_label
 _atom_site_symmetry_multiplicity
 _atom_site_fract_x
 _atom_site_fract_y
 _atom_site_fract_z
 _atom_site_occupancy
  Tm  Tm0  1  0.998331  0.676742  0.250000  1
  Lu  Lu1  1  0.005209  0.324367  0.750000  1
  Lu  Lu2  1  0.671630  0.991206  0.250000  1
  Lu  Lu3  1  0.322954  0.003398  0.750000  1
  Al  Al4  1  0.001174  0.335561  0.073894  1
  Al  Al5  1  0.998936  0.663830  0.925202  1
  Al  Al6  1  0.998936  0.663830  0.574798  1
  Al  Al7  1  0.336536  0.002951  0.425970  1
  Al  Al8  1  0.001174  0.335561  0.426106  1
  Al  Al9  1  0.663932  0.999691  0.574410  1
  Al  Al10  1  0.663932  0.999691  0.925590  1
  Al  Al11  1  0.336536  0.002951  0.074030  1
  Al  Al12  1  0.333487  0.333661  0.558522  1
  Al  Al13  1  0.666639  0.666339  0.446571  1
  Al  Al14  1  0.666639  0.666339  0.053429  1
  Al  Al15  1  0.333487  0.333661  0.941478  1
  Al  Al16  1  0.662010  0.448417  0.750000  1
  Al  Al17  1  0.552720  0.340074  0.250000  1
  Al  Al18  1  0.448784  0.662331  0.750000  1
  Ga  Ga19  1  0.132249  0.132747  0.250000  1
  Ga  Ga20  1  0.863837  0.864265  0.750000  1
  Ga  Ga21  1  0.340384  0.547548  0.250000  1
  Ir  Ir22  1  0.671922  0.328717  0.000191  1
  Ir  Ir23  1  0.328079  0.673235  0.997999  1
  Ir  Ir24  1  0.328079  0.673235  0.502001  1
  Ir  Ir25  1  0.671922  0.328717  0.499809  1
  Ir  Ir26  1  0.000239  0.000467  0.999705  1
  Ir  Ir27  1  0.000239  0.000467  0.500295  1
