# generated using pymatgen
data_Y4Co6P12Ir11Ru3
_symmetry_space_group_name_H-M   'P 1'
_cell_length_a   3.87892400
_cell_length_b   10.64768665
_cell_length_c   12.25707154
_cell_angle_alpha   90.21591224
_cell_angle_beta   90.00000000
_cell_angle_gamma   90.00000000
_symmetry_Int_Tables_number   1
_chemical_formula_structural   Y4Co6P12Ir11Ru3
_chemical_formula_sum   'Y4 Co6 P12 Ir11 Ru3'
_cell_volume   506.23267052
_cell_formula_units_Z   1
loop_
 _symmetry_equiv_pos_site_id
 _symmetry_equiv_pos_as_xyz
  1  'x, y, z'
loop_
 _atom_site_type_symbol
 _atom_site_label
 _atom_site_symmetry_multiplicity
 _atom_site_fract_x
 _atom_site_fract_y
 _atom_site_fract_z
 _atom_site_occupancy
  Y  Y0  1  0.250000  0.918359  0.212086  1
  Y  Y1  1  0.750000  0.082928  0.788639  1
  Y  Y2  1  0.750000  0.410382  0.291617  1
  Y  Y3  1  0.250000  0.588205  0.707418  1
  Co  Co4  1  0.750000  0.115971  0.302633  1
  Co  Co5  1  0.250000  0.884257  0.697588  1
  Co  Co6  1  0.250000  0.037448  0.434018  1
  Co  Co7  1  0.750000  0.962649  0.566090  1
  Co  Co8  1  0.750000  0.538652  0.066825  1
  Co  Co9  1  0.250000  0.461432  0.933814  1
  P  P10  1  0.250000  0.065546  0.609636  1
  P  P11  1  0.750000  0.934569  0.390361  1
  P  P12  1  0.750000  0.577066  0.894229  1
  P  P13  1  0.250000  0.421142  0.105938  1
  P  P14  1  0.250000  0.224698  0.371646  1
  P  P15  1  0.750000  0.774818  0.627741  1
  P  P16  1  0.750000  0.730192  0.129111  1
  P  P17  1  0.250000  0.269380  0.872887  1
  P  P18  1  0.250000  0.904127  0.876865  1
  P  P19  1  0.750000  0.099252  0.121191  1
  P  P20  1  0.750000  0.400433  0.610777  1
  P  P21  1  0.250000  0.599555  0.389199  1
  Ir  Ir22  1  0.250000  0.723008  0.983912  1
  Ir  Ir23  1  0.250000  0.089953  0.979030  1
  Ir  Ir24  1  0.750000  0.909834  0.022608  1
  Ir  Ir25  1  0.750000  0.593032  0.517881  1
  Ir  Ir26  1  0.250000  0.406377  0.481594  1
  Ir  Ir27  1  0.250000  0.265628  0.678602  1
  Ir  Ir28  1  0.750000  0.733797  0.322503  1
  Ir  Ir29  1  0.750000  0.774321  0.818795  1
  Ir  Ir30  1  0.250000  0.223196  0.180266  1
  Ir  Ir31  1  0.250000  0.611104  0.200394  1
  Ir  Ir32  1  0.750000  0.388292  0.799631  1
  Ru  Ru33  1  0.250000  0.783085  0.490176  1
  Ru  Ru34  1  0.750000  0.216991  0.510405  1
  Ru  Ru35  1  0.750000  0.280322  0.013895  1
