# generated using pymatgen
data_TaIrS4
_symmetry_space_group_name_H-M   'P 1'
_cell_length_a   3.49820900
_cell_length_b   11.37688300
_cell_length_c   13.31255101
_cell_angle_alpha   90.00347708
_cell_angle_beta   90.00000000
_cell_angle_gamma   90.00000000
_symmetry_Int_Tables_number   1
_chemical_formula_structural   TaIrS4
_chemical_formula_sum   'Ta4 Ir4 S16'
_cell_volume   529.82241607
_cell_formula_units_Z   4
loop_
 _symmetry_equiv_pos_site_id
 _symmetry_equiv_pos_as_xyz
  1  'x, y, z'
loop_
 _atom_site_type_symbol
 _atom_site_label
 _atom_site_symmetry_multiplicity
 _atom_site_fract_x
 _atom_site_fract_y
 _atom_site_fract_z
 _atom_site_occupancy
  Ta  Ta0  1  0.000000  0.045045  0.000700  1
  Ta  Ta1  1  0.000000  0.262395  0.493652  1
  Ta  Ta2  1  0.500000  0.954960  0.500699  1
  Ta  Ta3  1  0.500000  0.737600  0.993654  1
  Ir  Ir4  1  0.000000  0.747260  0.494982  1
  Ir  Ir5  1  0.500000  0.470547  0.498298  1
  Ir  Ir6  1  0.500000  0.252745  0.994981  1
  Ir  Ir7  1  0.000000  0.529458  0.998306  1
  S  S8  1  0.000000  0.346231  0.087885  1
  S  S9  1  0.000000  0.843619  0.094294  1
  S  S10  1  0.500000  0.587166  0.114784  1
  S  S11  1  0.500000  0.100701  0.121738  1
  S  S12  1  0.500000  0.317548  0.372551  1
  S  S13  1  0.500000  0.805467  0.378694  1
  S  S14  1  0.000000  0.060968  0.400222  1
  S  S15  1  0.000000  0.563984  0.405236  1
  S  S16  1  0.500000  0.653782  0.587893  1
  S  S17  1  0.500000  0.156380  0.594289  1
  S  S18  1  0.000000  0.412824  0.614797  1
  S  S19  1  0.000000  0.899303  0.621731  1
  S  S20  1  0.000000  0.682436  0.872550  1
  S  S21  1  0.000000  0.194527  0.878702  1
  S  S22  1  0.500000  0.939035  0.900224  1
  S  S23  1  0.500000  0.436022  0.905250  1
