# generated using pymatgen
data_La7Tb(CdRu)2
_symmetry_space_group_name_H-M   'P 1'
_cell_length_a   10.01415118
_cell_length_b   10.09985482
_cell_length_c   10.01415239
_cell_angle_alpha   59.71649155
_cell_angle_beta   60.56702282
_cell_angle_gamma   59.71649389
_symmetry_Int_Tables_number   1
_chemical_formula_structural   La7Tb(CdRu)2
_chemical_formula_sum   'La14 Tb2 Cd4 Ru4'
_cell_volume   716.08458767
_cell_formula_units_Z   2
loop_
 _symmetry_equiv_pos_site_id
 _symmetry_equiv_pos_as_xyz
  1  'x, y, z'
loop_
 _atom_site_type_symbol
 _atom_site_label
 _atom_site_symmetry_multiplicity
 _atom_site_fract_x
 _atom_site_fract_y
 _atom_site_fract_z
 _atom_site_occupancy
  La  La0  1  0.440139  0.440139  0.059861  1
  La  La1  1  0.059861  0.059861  0.440139  1
  La  La2  1  0.440139  0.059861  0.059861  1
  La  La3  1  0.844578  0.849654  0.844578  1
  La  La4  1  0.686729  0.313271  0.313271  1
  La  La5  1  0.059861  0.440139  0.440139  1
  La  La6  1  0.313271  0.686729  0.686729  1
  La  La7  1  0.313271  0.313271  0.686729  1
  La  La8  1  0.849654  0.844578  0.461190  1
  La  La9  1  0.686729  0.686729  0.313271  1
  La  La10  1  0.461190  0.844578  0.849654  1
  La  La11  1  0.058090  0.441910  0.058090  1
  La  La12  1  0.844578  0.461190  0.844578  1
  La  La13  1  0.441910  0.058090  0.441910  1
  Tb  Tb14  1  0.309527  0.690473  0.309527  1
  Tb  Tb15  1  0.690473  0.309527  0.690473  1
  Cd  Cd16  1  0.080122  0.763301  0.080122  1
  Cd  Cd17  1  0.076456  0.080122  0.763301  1
  Cd  Cd18  1  0.763301  0.080122  0.076456  1
  Cd  Cd19  1  0.080122  0.076456  0.080122  1
  Ru  Ru20  1  0.636032  0.088157  0.636032  1
  Ru  Ru21  1  0.636032  0.639777  0.636032  1
  Ru  Ru22  1  0.639777  0.636032  0.088157  1
  Ru  Ru23  1  0.088157  0.636032  0.639777  1
