# generated using pymatgen
data_Na3H4O7
_symmetry_space_group_name_H-M   'P 1'
_cell_length_a   8.25840933
_cell_length_b   5.00090364
_cell_length_c   5.89509772
_cell_angle_alpha   69.68540079
_cell_angle_beta   45.82445913
_cell_angle_gamma   75.69445000
_symmetry_Int_Tables_number   1
_chemical_formula_structural   Na3H4O7
_chemical_formula_sum   'Na3 H4 O7'
_cell_volume   163.74905220
_cell_formula_units_Z   1
loop_
 _symmetry_equiv_pos_site_id
 _symmetry_equiv_pos_as_xyz
  1  'x, y, z'
loop_
 _atom_site_type_symbol
 _atom_site_label
 _atom_site_symmetry_multiplicity
 _atom_site_fract_x
 _atom_site_fract_y
 _atom_site_fract_z
 _atom_site_occupancy
  Na  Na0  1  0.988692  0.685468  0.655093  1
  Na  Na1  1  0.716002  0.319135  0.692512  1
  Na  Na2  1  0.543944  0.973053  0.435082  1
  H  H3  1  0.282689  0.185311  0.195430  1
  H  H4  1  0.109147  0.114008  0.589310  1
  H  H5  1  0.540345  0.814510  0.938857  1
  H  H6  1  0.939417  0.167493  0.997846  1
  O  O7  1  0.676326  0.843782  0.707358  1
  O  O8  1  0.994715  0.549678  0.106853  1
  O  O9  1  0.889896  0.185375  0.884069  1
  O  O10  1  0.286653  0.372605  0.710760  1
  O  O11  1  0.402021  0.482510  0.729253  1
  O  O12  1  0.261793  0.045655  0.377766  1
  O  O13  1  0.127798  0.651768  0.097021  1
