# generated using pymatgen
data_Tb2SmBi(Rh2O7)2
_symmetry_space_group_name_H-M   'P 1'
_cell_length_a   7.27697370
_cell_length_b   7.30295433
_cell_length_c   7.28199958
_cell_angle_alpha   60.11250796
_cell_angle_beta   60.02282411
_cell_angle_gamma   60.11761187
_symmetry_Int_Tables_number   1
_chemical_formula_structural   Tb2SmBi(Rh2O7)2
_chemical_formula_sum   'Tb2 Sm1 Bi1 Rh4 O14'
_cell_volume   274.16579143
_cell_formula_units_Z   1
loop_
 _symmetry_equiv_pos_site_id
 _symmetry_equiv_pos_as_xyz
  1  'x, y, z'
loop_
 _atom_site_type_symbol
 _atom_site_label
 _atom_site_symmetry_multiplicity
 _atom_site_fract_x
 _atom_site_fract_y
 _atom_site_fract_z
 _atom_site_occupancy
  Tb  Tb0  1  0.125000  0.125000  0.125000  1
  Tb  Tb1  1  0.625000  0.125000  0.125000  1
  Sm  Sm2  1  0.125000  0.125000  0.625000  1
  Bi  Bi3  1  0.125000  0.625000  0.125000  1
  Rh  Rh4  1  0.625000  0.625000  0.625000  1
  Rh  Rh5  1  0.625000  0.625000  0.125000  1
  Rh  Rh6  1  0.125000  0.625000  0.625000  1
  Rh  Rh7  1  0.625000  0.125000  0.625000  1
  O  O8  1  0.253717  0.246048  0.246516  1
  O  O9  1  0.290272  0.712650  0.290437  1
  O  O10  1  0.960898  0.960548  0.537212  1
  O  O11  1  0.541340  0.960548  0.537212  1
  O  O12  1  0.706639  0.712650  0.290437  1
  O  O13  1  0.958947  0.539885  0.542222  1
  O  O14  1  0.708660  0.289452  0.712788  1
  O  O15  1  0.289102  0.289452  0.712788  1
  O  O16  1  0.710992  0.289142  0.288874  1
  O  O17  1  0.291053  0.710115  0.707778  1
  O  O18  1  0.959728  0.537350  0.959563  1
  O  O19  1  0.543361  0.537350  0.959563  1
  O  O20  1  0.996283  0.003952  0.003484  1
  O  O21  1  0.539008  0.960858  0.961126  1
