# generated using pymatgen
data_DyZn2AgPt2
_symmetry_space_group_name_H-M   'P 1'
_cell_length_a   5.25514476
_cell_length_b   5.23591557
_cell_length_c   5.23591600
_cell_angle_alpha   63.96710229
_cell_angle_beta   59.87844192
_cell_angle_gamma   59.87843323
_symmetry_Int_Tables_number   1
_chemical_formula_structural   DyZn2AgPt2
_chemical_formula_sum   'Dy1 Zn2 Ag1 Pt2'
_cell_volume   104.36362737
_cell_formula_units_Z   1
loop_
 _symmetry_equiv_pos_site_id
 _symmetry_equiv_pos_as_xyz
  1  'x, y, z'
loop_
 _atom_site_type_symbol
 _atom_site_label
 _atom_site_symmetry_multiplicity
 _atom_site_fract_x
 _atom_site_fract_y
 _atom_site_fract_z
 _atom_site_occupancy
  Dy  Dy0  1  0.990069  0.009931  0.009931  1
  Zn  Zn1  1  0.131941  0.617613  0.617613  1
  Zn  Zn2  1  0.632832  0.617613  0.617613  1
  Ag  Ag3  1  0.239130  0.260870  0.260870  1
  Pt  Pt4  1  0.628013  0.622579  0.121396  1
  Pt  Pt5  1  0.628013  0.121396  0.622579  1
