# generated using pymatgen
data_Ti5Sn2Sb
_symmetry_space_group_name_H-M   'P 1'
_cell_length_a   7.05150100
_cell_length_b   8.51230500
_cell_length_c   10.28281100
_cell_angle_alpha   90.00000000
_cell_angle_beta   90.00000000
_cell_angle_gamma   90.00000000
_symmetry_Int_Tables_number   1
_chemical_formula_structural   Ti5Sn2Sb
_chemical_formula_sum   'Ti20 Sn8 Sb4'
_cell_volume   617.22086877
_cell_formula_units_Z   4
loop_
 _symmetry_equiv_pos_site_id
 _symmetry_equiv_pos_as_xyz
  1  'x, y, z'
loop_
 _atom_site_type_symbol
 _atom_site_label
 _atom_site_symmetry_multiplicity
 _atom_site_fract_x
 _atom_site_fract_y
 _atom_site_fract_z
 _atom_site_occupancy
  Ti  Ti0  1  0.811798  0.935047  0.942838  1
  Ti  Ti1  1  0.311798  0.064953  0.557162  1
  Ti  Ti2  1  0.188202  0.435047  0.057162  1
  Ti  Ti3  1  0.688202  0.564953  0.442838  1
  Ti  Ti4  1  0.188202  0.064953  0.057162  1
  Ti  Ti5  1  0.688202  0.935047  0.442838  1
  Ti  Ti6  1  0.811798  0.564953  0.942838  1
  Ti  Ti7  1  0.311798  0.435047  0.557162  1
  Ti  Ti8  1  0.169681  0.750000  0.773583  1
  Ti  Ti9  1  0.669681  0.250000  0.726417  1
  Ti  Ti10  1  0.830319  0.250000  0.226417  1
  Ti  Ti11  1  0.330319  0.750000  0.273583  1
  Ti  Ti12  1  0.496019  0.750000  0.996396  1
  Ti  Ti13  1  0.996019  0.250000  0.503604  1
  Ti  Ti14  1  0.503981  0.250000  0.003604  1
  Ti  Ti15  1  0.003981  0.750000  0.496396  1
  Ti  Ti16  1  0.680524  0.750000  0.719930  1
  Ti  Ti17  1  0.180524  0.250000  0.780070  1
  Ti  Ti18  1  0.319476  0.250000  0.280070  1
  Ti  Ti19  1  0.819476  0.750000  0.219930  1
  Sn  Sn20  1  0.938529  0.503709  0.676021  1
  Sn  Sn21  1  0.438529  0.496291  0.823979  1
  Sn  Sn22  1  0.061471  0.003709  0.323979  1
  Sn  Sn23  1  0.561471  0.996291  0.176021  1
  Sn  Sn24  1  0.061471  0.496291  0.323979  1
  Sn  Sn25  1  0.561471  0.503709  0.176021  1
  Sn  Sn26  1  0.938529  0.996291  0.676021  1
  Sn  Sn27  1  0.438529  0.003709  0.823979  1
  Sb  Sb28  1  0.394094  0.750000  0.536322  1
  Sb  Sb29  1  0.894094  0.250000  0.963678  1
  Sb  Sb30  1  0.605906  0.250000  0.463678  1
  Sb  Sb31  1  0.105906  0.750000  0.036322  1
