# generated using pymatgen
data_Nd17Ho2TmSn16
_symmetry_space_group_name_H-M   'P 1'
_cell_length_a   8.25622000
_cell_length_b   8.40457760
_cell_length_c   15.94868500
_cell_angle_alpha   90.00000000
_cell_angle_beta   90.00000000
_cell_angle_gamma   89.96476367
_symmetry_Int_Tables_number   1
_chemical_formula_structural   Nd17Ho2TmSn16
_chemical_formula_sum   'Nd17 Ho2 Tm1 Sn16'
_cell_volume   1106.67970733
_cell_formula_units_Z   1
loop_
 _symmetry_equiv_pos_site_id
 _symmetry_equiv_pos_as_xyz
  1  'x, y, z'
loop_
 _atom_site_type_symbol
 _atom_site_label
 _atom_site_symmetry_multiplicity
 _atom_site_fract_x
 _atom_site_fract_y
 _atom_site_fract_z
 _atom_site_occupancy
  Nd  Nd0  1  0.018042  0.181023  0.401439  1
  Nd  Nd1  1  0.366996  0.837898  0.120751  1
  Nd  Nd2  1  0.133591  0.336984  0.620693  1
  Nd  Nd3  1  0.481378  0.681803  0.902013  1
  Nd  Nd4  1  0.866763  0.662199  0.122004  1
  Nd  Nd5  1  0.133591  0.336984  0.879307  1
  Nd  Nd6  1  0.481378  0.681803  0.597987  1
  Nd  Nd7  1  0.632029  0.162214  0.620208  1
  Nd  Nd8  1  0.803378  0.498087  0.750000  1
  Nd  Nd9  1  0.866763  0.662199  0.377996  1
  Nd  Nd10  1  0.018042  0.181023  0.098561  1
  Nd  Nd11  1  0.982270  0.819705  0.901864  1
  Nd  Nd12  1  0.632029  0.162214  0.879792  1
  Nd  Nd13  1  0.518343  0.319015  0.099192  1
  Nd  Nd14  1  0.366996  0.837898  0.379249  1
  Nd  Nd15  1  0.982270  0.819705  0.598136  1
  Nd  Nd16  1  0.518343  0.319015  0.400808  1
  Ho  Ho17  1  0.198462  0.502320  0.250000  1
  Ho  Ho18  1  0.698740  0.997830  0.250000  1
  Tm  Tm19  1  0.301424  0.002954  0.750000  1
  Sn  Sn20  1  0.792400  0.463560  0.541409  1
  Sn  Sn21  1  0.708038  0.964935  0.455611  1
  Sn  Sn22  1  0.674083  0.857876  0.750000  1
  Sn  Sn23  1  0.207333  0.534445  0.455672  1
  Sn  Sn24  1  0.292355  0.034535  0.955765  1
  Sn  Sn25  1  0.824723  0.352311  0.250000  1
  Sn  Sn26  1  0.792400  0.463560  0.958591  1
  Sn  Sn27  1  0.563197  0.617087  0.250000  1
  Sn  Sn28  1  0.207333  0.534445  0.044328  1
  Sn  Sn29  1  0.432714  0.382092  0.750000  1
  Sn  Sn30  1  0.178147  0.648792  0.750000  1
  Sn  Sn31  1  0.937648  0.114330  0.750000  1
  Sn  Sn32  1  0.292355  0.034535  0.544235  1
  Sn  Sn33  1  0.708038  0.964935  0.044389  1
  Sn  Sn34  1  0.324022  0.146455  0.250000  1
  Sn  Sn35  1  0.064389  0.883238  0.250000  1
