# generated using pymatgen
data_Hf5Zr5(AlSn3)2
_symmetry_space_group_name_H-M   'P 1'
_cell_length_a   8.70930500
_cell_length_b   8.70263045
_cell_length_c   5.88167500
_cell_angle_alpha   90.00000000
_cell_angle_beta   90.00000000
_cell_angle_gamma   120.02537780
_symmetry_Int_Tables_number   1
_chemical_formula_structural   Hf5Zr5(AlSn3)2
_chemical_formula_sum   'Hf5 Zr5 Al2 Sn6'
_cell_volume   385.97091610
_cell_formula_units_Z   1
loop_
 _symmetry_equiv_pos_site_id
 _symmetry_equiv_pos_as_xyz
  1  'x, y, z'
loop_
 _atom_site_type_symbol
 _atom_site_label
 _atom_site_symmetry_multiplicity
 _atom_site_fract_x
 _atom_site_fract_y
 _atom_site_fract_z
 _atom_site_occupancy
  Hf  Hf0  1  0.333163  0.666843  0.000244  1
  Hf  Hf1  1  0.666321  0.333157  0.499756  1
  Hf  Hf2  1  0.666321  0.333157  0.000244  1
  Hf  Hf3  1  0.333163  0.666843  0.499756  1
  Hf  Hf4  1  0.271970  0.000000  0.250000  1
  Zr  Zr5  1  0.270130  0.269451  0.750000  1
  Zr  Zr6  1  0.000679  0.730549  0.750000  1
  Zr  Zr7  1  0.999232  0.270454  0.250000  1
  Zr  Zr8  1  0.728778  0.729546  0.250000  1
  Zr  Zr9  1  0.729995  0.000000  0.750000  1
  Al  Al10  1  0.000475  0.000000  0.001280  1
  Al  Al11  1  0.000475  0.000000  0.498720  1
  Sn  Sn12  1  0.612933  0.000000  0.250000  1
  Sn  Sn13  1  0.613531  0.613638  0.750000  1
  Sn  Sn14  1  0.999892  0.386362  0.750000  1
  Sn  Sn15  1  0.000494  0.614828  0.250000  1
  Sn  Sn16  1  0.385666  0.385172  0.250000  1
  Sn  Sn17  1  0.386781  0.000000  0.750000  1
