# generated using pymatgen
data_Y5Tm(Ni3As2)6
_symmetry_space_group_name_H-M   'P 1'
_cell_length_a   3.89478700
_cell_length_b   10.87977390
_cell_length_c   12.74699163
_cell_angle_alpha   89.94765171
_cell_angle_beta   90.00000000
_cell_angle_gamma   90.00000000
_symmetry_Int_Tables_number   1
_chemical_formula_structural   Y5Tm(Ni3As2)6
_chemical_formula_sum   'Y5 Tm1 Ni18 As12'
_cell_volume   540.14592182
_cell_formula_units_Z   1
loop_
 _symmetry_equiv_pos_site_id
 _symmetry_equiv_pos_as_xyz
  1  'x, y, z'
loop_
 _atom_site_type_symbol
 _atom_site_label
 _atom_site_symmetry_multiplicity
 _atom_site_fract_x
 _atom_site_fract_y
 _atom_site_fract_z
 _atom_site_occupancy
  Y  Y0  1  0.000000  0.500019  0.523292  1
  Y  Y1  1  0.500000  0.999705  0.476366  1
  Y  Y2  1  0.500000  0.183067  0.206202  1
  Y  Y3  1  0.000000  0.683957  0.793430  1
  Y  Y4  1  0.000000  0.316178  0.793971  1
  Tm  Tm5  1  0.500000  0.816953  0.206553  1
  Ni  Ni6  1  0.500000  0.499941  0.156631  1
  Ni  Ni7  1  0.000000  0.999857  0.843618  1
  Ni  Ni8  1  0.500000  0.500119  0.699651  1
  Ni  Ni9  1  0.000000  0.999209  0.300140  1
  Ni  Ni10  1  0.000000  0.501016  0.983495  1
  Ni  Ni11  1  0.500000  0.998853  0.017916  1
  Ni  Ni12  1  0.500000  0.333144  0.997422  1
  Ni  Ni13  1  0.500000  0.667841  0.998355  1
  Ni  Ni14  1  0.000000  0.166460  0.003033  1
  Ni  Ni15  1  0.000000  0.832959  0.002821  1
  Ni  Ni16  1  0.500000  0.302672  0.426727  1
  Ni  Ni17  1  0.500000  0.697204  0.425636  1
  Ni  Ni18  1  0.000000  0.196991  0.573060  1
  Ni  Ni19  1  0.000000  0.802912  0.572465  1
  Ni  Ni20  1  0.500000  0.879929  0.707315  1
  Ni  Ni21  1  0.500000  0.120085  0.707738  1
  Ni  Ni22  1  0.000000  0.621436  0.291798  1
  Ni  Ni23  1  0.000000  0.379966  0.292536  1
  As  As24  1  0.500000  0.500448  0.877129  1
  As  As25  1  0.000000  0.998654  0.123700  1
  As  As26  1  0.500000  0.499833  0.344892  1
  As  As27  1  0.000000  0.999855  0.654738  1
  As  As28  1  0.500000  0.314299  0.613893  1
  As  As29  1  0.500000  0.685862  0.613174  1
  As  As30  1  0.000000  0.185271  0.386112  1
  As  As31  1  0.000000  0.814117  0.385263  1
  As  As32  1  0.500000  0.847413  0.890393  1
  As  As33  1  0.500000  0.152291  0.891122  1
  As  As34  1  0.000000  0.654238  0.110017  1
  As  As35  1  0.000000  0.347249  0.109395  1
