# generated using pymatgen
data_Tb16In3Co4Au
_symmetry_space_group_name_H-M   'P 1'
_cell_length_a   9.53070474
_cell_length_b   9.53070383
_cell_length_c   9.53070447
_cell_angle_alpha   60.15137622
_cell_angle_beta   60.15138158
_cell_angle_gamma   60.15137503
_symmetry_Int_Tables_number   1
_chemical_formula_structural   Tb16In3Co4Au
_chemical_formula_sum   'Tb16 In3 Co4 Au1'
_cell_volume   614.25197909
_cell_formula_units_Z   1
loop_
 _symmetry_equiv_pos_site_id
 _symmetry_equiv_pos_as_xyz
  1  'x, y, z'
loop_
 _atom_site_type_symbol
 _atom_site_label
 _atom_site_symmetry_multiplicity
 _atom_site_fract_x
 _atom_site_fract_y
 _atom_site_fract_z
 _atom_site_occupancy
  Tb  Tb0  1  0.097805  0.708096  0.097805  1
  Tb  Tb1  1  0.940250  0.940250  0.558702  1
  Tb  Tb2  1  0.940250  0.558702  0.940250  1
  Tb  Tb3  1  0.310189  0.684122  0.310189  1
  Tb  Tb4  1  0.937016  0.560199  0.560199  1
  Tb  Tb5  1  0.310189  0.310189  0.684122  1
  Tb  Tb6  1  0.096227  0.096227  0.096227  1
  Tb  Tb7  1  0.560199  0.560199  0.937016  1
  Tb  Tb8  1  0.097805  0.097805  0.708096  1
  Tb  Tb9  1  0.689167  0.310089  0.689167  1
  Tb  Tb10  1  0.689167  0.689167  0.310089  1
  Tb  Tb11  1  0.684122  0.310189  0.310189  1
  Tb  Tb12  1  0.310089  0.689167  0.689167  1
  Tb  Tb13  1  0.560199  0.937016  0.560199  1
  Tb  Tb14  1  0.708096  0.097805  0.097805  1
  Tb  Tb15  1  0.558702  0.940250  0.940250  1
  In  In16  1  0.006942  0.332236  0.332236  1
  In  In17  1  0.332236  0.006942  0.332236  1
  In  In18  1  0.332236  0.332236  0.006942  1
  Co  Co19  1  0.891573  0.891573  0.891573  1
  Co  Co20  1  0.890995  0.890995  0.328388  1
  Co  Co21  1  0.328388  0.890995  0.890995  1
  Co  Co22  1  0.890995  0.328388  0.890995  1
  Au  Au23  1  0.337162  0.337162  0.337162  1
