# generated using pymatgen
data_Pa4MoPd3Pb2
_symmetry_space_group_name_H-M   'P 1'
_cell_length_a   7.95381549
_cell_length_b   7.95381549
_cell_length_c   3.60142200
_cell_angle_alpha   90.00000000
_cell_angle_beta   90.00000000
_cell_angle_gamma   89.32623283
_symmetry_Int_Tables_number   1
_chemical_formula_structural   Pa4MoPd3Pb2
_chemical_formula_sum   'Pa4 Mo1 Pd3 Pb2'
_cell_volume   227.82165803
_cell_formula_units_Z   1
loop_
 _symmetry_equiv_pos_site_id
 _symmetry_equiv_pos_as_xyz
  1  'x, y, z'
loop_
 _atom_site_type_symbol
 _atom_site_label
 _atom_site_symmetry_multiplicity
 _atom_site_fract_x
 _atom_site_fract_y
 _atom_site_fract_z
 _atom_site_occupancy
  Pa  Pa0  1  0.332140  0.832140  0.500000  1
  Pa  Pa1  1  0.678801  0.178801  0.500000  1
  Pa  Pa2  1  0.158925  0.327902  0.500000  1
  Pa  Pa3  1  0.827902  0.658925  0.500000  1
  Mo  Mo4  1  0.870130  0.370130  0.000000  1
  Pd  Pd5  1  0.626249  0.873180  0.000000  1
  Pd  Pd6  1  0.373180  0.126249  0.000000  1
  Pd  Pd7  1  0.133224  0.633224  0.000000  1
  Pb  Pb8  1  0.500918  0.498531  0.000000  1
  Pb  Pb9  1  0.998531  0.000918  0.000000  1
