# generated using pymatgen
data_Sm2B8Ru7
_symmetry_space_group_name_H-M   'P 1'
_cell_length_a   6.45558000
_cell_length_b   6.45558000
_cell_length_c   10.05478800
_cell_angle_alpha   90.00000000
_cell_angle_beta   90.00000000
_cell_angle_gamma   90.00000000
_symmetry_Int_Tables_number   1
_chemical_formula_structural   Sm2B8Ru7
_chemical_formula_sum   'Sm4 B16 Ru14'
_cell_volume   419.02839459
_cell_formula_units_Z   2
loop_
 _symmetry_equiv_pos_site_id
 _symmetry_equiv_pos_as_xyz
  1  'x, y, z'
loop_
 _atom_site_type_symbol
 _atom_site_label
 _atom_site_symmetry_multiplicity
 _atom_site_fract_x
 _atom_site_fract_y
 _atom_site_fract_z
 _atom_site_occupancy
  Sm  Sm0  1  0.735283  0.874986  0.000000  1
  Sm  Sm1  1  0.125014  0.735283  0.500000  1
  Sm  Sm2  1  0.874986  0.264717  0.500000  1
  Sm  Sm3  1  0.264717  0.125014  0.000000  1
  B  B4  1  0.500000  0.000000  0.588769  1
  B  B5  1  0.500000  0.000000  0.411231  1
  B  B6  1  0.897805  0.274035  0.168385  1
  B  B7  1  0.102195  0.725965  0.831615  1
  B  B8  1  0.500000  0.500000  0.341005  1
  B  B9  1  0.500000  0.500000  0.841005  1
  B  B10  1  0.274035  0.102195  0.668385  1
  B  B11  1  0.102195  0.725965  0.168385  1
  B  B12  1  0.274035  0.102195  0.331615  1
  B  B13  1  0.897805  0.274035  0.831615  1
  B  B14  1  0.500000  0.500000  0.658995  1
  B  B15  1  0.500000  0.500000  0.158995  1
  B  B16  1  0.000000  0.500000  0.911231  1
  B  B17  1  0.725965  0.897805  0.668385  1
  B  B18  1  0.725965  0.897805  0.331615  1
  B  B19  1  0.000000  0.500000  0.088769  1
  Ru  Ru20  1  0.203591  0.399212  0.751843  1
  Ru  Ru21  1  0.399192  0.287236  0.500000  1
  Ru  Ru22  1  0.399212  0.796409  0.251843  1
  Ru  Ru23  1  0.203591  0.399212  0.248157  1
  Ru  Ru24  1  0.600808  0.712764  0.500000  1
  Ru  Ru25  1  0.600788  0.203591  0.748157  1
  Ru  Ru26  1  0.287236  0.600808  0.000000  1
  Ru  Ru27  1  0.712764  0.399192  0.000000  1
  Ru  Ru28  1  0.796409  0.600788  0.248157  1
  Ru  Ru29  1  0.796409  0.600788  0.751843  1
  Ru  Ru30  1  0.399212  0.796409  0.748157  1
  Ru  Ru31  1  0.000000  0.000000  0.250000  1
  Ru  Ru32  1  0.600788  0.203591  0.251843  1
  Ru  Ru33  1  0.000000  0.000000  0.750000  1
