# generated using pymatgen
data_CaSmRh2O7
_symmetry_space_group_name_H-M   'P 1'
_cell_length_a   7.29046687
_cell_length_b   7.29046611
_cell_length_c   7.29046727
_cell_angle_alpha   120.38477182
_cell_angle_beta   119.58161017
_cell_angle_gamma   90.03051966
_symmetry_Int_Tables_number   1
_chemical_formula_structural   CaSmRh2O7
_chemical_formula_sum   'Ca2 Sm2 Rh4 O14'
_cell_volume   274.05304002
_cell_formula_units_Z   2
loop_
 _symmetry_equiv_pos_site_id
 _symmetry_equiv_pos_as_xyz
  1  'x, y, z'
loop_
 _atom_site_type_symbol
 _atom_site_label
 _atom_site_symmetry_multiplicity
 _atom_site_fract_x
 _atom_site_fract_y
 _atom_site_fract_z
 _atom_site_occupancy
  Ca  Ca0  1  0.500000  0.500000  0.500000  1
  Ca  Ca1  1  0.500000  0.000000  0.000000  1
  Sm  Sm2  1  0.500000  0.500000  0.000000  1
  Sm  Sm3  1  0.000000  0.500000  0.500000  1
  Rh  Rh4  1  0.000000  0.000000  0.500000  1
  Rh  Rh5  1  0.000000  0.500000  0.000000  1
  Rh  Rh6  1  0.000000  0.000000  0.000000  1
  Rh  Rh7  1  0.500000  0.000000  0.500000  1
  O  O8  1  0.374130  0.624130  0.750000  1
  O  O9  1  0.625870  0.375870  0.250000  1
  O  O10  1  0.324492  0.074492  0.250000  1
  O  O11  1  0.918604  0.668604  0.250000  1
  O  O12  1  0.327434  0.670698  0.245854  1
  O  O13  1  0.924843  0.081580  0.254146  1
  O  O14  1  0.327434  0.081580  0.656737  1
  O  O15  1  0.924843  0.670698  0.843263  1
  O  O16  1  0.675508  0.925508  0.750000  1
  O  O17  1  0.081396  0.331396  0.750000  1
  O  O18  1  0.672566  0.329302  0.754146  1
  O  O19  1  0.075157  0.918420  0.745854  1
  O  O20  1  0.672566  0.918420  0.343263  1
  O  O21  1  0.075157  0.329302  0.156737  1
