# generated using pymatgen
data_La5U2O12
_symmetry_space_group_name_H-M   'P 1'
_cell_length_a   6.85833328
_cell_length_b   6.94072416
_cell_length_c   6.84994831
_cell_angle_alpha   99.75694571
_cell_angle_beta   98.58873535
_cell_angle_gamma   98.57777812
_symmetry_Int_Tables_number   1
_chemical_formula_structural   La5U2O12
_chemical_formula_sum   'La5 U2 O12'
_cell_volume   312.61609057
_cell_formula_units_Z   1
loop_
 _symmetry_equiv_pos_site_id
 _symmetry_equiv_pos_as_xyz
  1  'x, y, z'
loop_
 _atom_site_type_symbol
 _atom_site_label
 _atom_site_symmetry_multiplicity
 _atom_site_fract_x
 _atom_site_fract_y
 _atom_site_fract_z
 _atom_site_occupancy
  La  La0  1  0.602246  0.141115  0.302748  1
  La  La1  1  0.397341  0.863932  0.694386  1
  La  La2  1  0.697339  0.395106  0.860683  1
  La  La3  1  0.854851  0.696294  0.393601  1
  La  La4  1  0.138647  0.300436  0.604472  1
  U  U5  1  0.299918  0.601292  0.138394  1
  U  U6  1  0.004119  0.998116  0.003278  1
  O  O7  1  0.439712  0.181089  0.596438  1
  O  O8  1  0.942610  0.689556  0.055003  1
  O  O9  1  0.188161  0.582691  0.414226  1
  O  O10  1  0.825998  0.416638  0.563350  1
  O  O11  1  0.551202  0.817405  0.391422  1
  O  O12  1  0.566727  0.437830  0.176078  1
  O  O13  1  0.399698  0.574327  0.844206  1
  O  O14  1  0.947952  0.064484  0.305898  1
  O  O15  1  0.053515  0.932910  0.694242  1
  O  O16  1  0.701084  0.053147  0.929167  1
  O  O17  1  0.084670  0.311249  0.964056  1
  O  O18  1  0.304207  0.942385  0.068352  1
