# generated using pymatgen
data_LuThNi2Hg
_symmetry_space_group_name_H-M   'P 1'
_cell_length_a   7.44093303
_cell_length_b   7.44093305
_cell_length_c   3.62207400
_cell_angle_alpha   90.00000000
_cell_angle_beta   90.00000000
_cell_angle_gamma   92.86696459
_symmetry_Int_Tables_number   1
_chemical_formula_structural   LuThNi2Hg
_chemical_formula_sum   'Lu2 Th2 Ni4 Hg2'
_cell_volume   200.29411609
_cell_formula_units_Z   2
loop_
 _symmetry_equiv_pos_site_id
 _symmetry_equiv_pos_as_xyz
  1  'x, y, z'
loop_
 _atom_site_type_symbol
 _atom_site_label
 _atom_site_symmetry_multiplicity
 _atom_site_fract_x
 _atom_site_fract_y
 _atom_site_fract_z
 _atom_site_occupancy
  Lu  Lu0  1  0.172923  0.327077  0.500000  1
  Lu  Lu1  1  0.827077  0.672923  0.500000  1
  Th  Th2  1  0.677205  0.177205  0.500000  1
  Th  Th3  1  0.322795  0.822795  0.500000  1
  Ni  Ni4  1  0.118700  0.618700  0.000000  1
  Ni  Ni5  1  0.881300  0.381300  0.000000  1
  Ni  Ni6  1  0.621482  0.878518  0.000000  1
  Ni  Ni7  1  0.378518  0.121482  0.000000  1
  Hg  Hg8  1  0.500000  0.500000  0.000000  1
  Hg  Hg9  1  0.000000  0.000000  0.000000  1
