# generated using pymatgen
data_CsBa7(USe6)2
_symmetry_space_group_name_H-M   'P 1'
_cell_length_a   9.18296751
_cell_length_b   9.18296718
_cell_length_c   9.08349883
_cell_angle_alpha   90.15897069
_cell_angle_beta   90.15897171
_cell_angle_gamma   88.58220299
_symmetry_Int_Tables_number   1
_chemical_formula_structural   CsBa7(USe6)2
_chemical_formula_sum   'Cs1 Ba7 U2 Se12'
_cell_volume   765.74294389
_cell_formula_units_Z   1
loop_
 _symmetry_equiv_pos_site_id
 _symmetry_equiv_pos_as_xyz
  1  'x, y, z'
loop_
 _atom_site_type_symbol
 _atom_site_label
 _atom_site_symmetry_multiplicity
 _atom_site_fract_x
 _atom_site_fract_y
 _atom_site_fract_z
 _atom_site_occupancy
  Cs  Cs0  1  0.876513  0.623487  0.250000  1
  Ba  Ba1  1  0.249693  0.878090  0.621348  1
  Ba  Ba2  1  0.621910  0.250307  0.878652  1
  Ba  Ba3  1  0.747831  0.120373  0.374547  1
  Ba  Ba4  1  0.379627  0.752169  0.125453  1
  Ba  Ba5  1  0.125379  0.374621  0.750000  1
  Ba  Ba6  1  0.245098  0.254902  0.250000  1
  Ba  Ba7  1  0.749925  0.750075  0.750000  1
  U  U8  1  0.501992  0.498220  0.505060  1
  U  U9  1  0.001780  0.998008  0.994940  1
  Se  Se10  1  0.213057  0.560748  0.434608  1
  Se  Se11  1  0.423363  0.207940  0.562884  1
  Se  Se12  1  0.551213  0.413106  0.211240  1
  Se  Se13  1  0.922308  0.056689  0.699921  1
  Se  Se14  1  0.705616  0.935694  0.053777  1
  Se  Se15  1  0.070387  0.711515  0.907222  1
  Se  Se16  1  0.788485  0.429613  0.592778  1
  Se  Se17  1  0.564306  0.794384  0.446223  1
  Se  Se18  1  0.443311  0.577692  0.800079  1
  Se  Se19  1  0.086894  0.948787  0.288760  1
  Se  Se20  1  0.292060  0.076637  0.937116  1
  Se  Se21  1  0.939252  0.286943  0.065392  1
