# generated using pymatgen
data_Li2Eu2As7Rh10
_symmetry_space_group_name_H-M   'P 1'
_cell_length_a   10.02280603
_cell_length_b   9.99893833
_cell_length_c   4.00563100
_cell_angle_alpha   89.91216767
_cell_angle_beta   90.08103771
_cell_angle_gamma   119.54208495
_symmetry_Int_Tables_number   1
_chemical_formula_structural   Li2Eu2As7Rh10
_chemical_formula_sum   'Li2 Eu2 As7 Rh10'
_cell_volume   349.24456842
_cell_formula_units_Z   1
loop_
 _symmetry_equiv_pos_site_id
 _symmetry_equiv_pos_as_xyz
  1  'x, y, z'
loop_
 _atom_site_type_symbol
 _atom_site_label
 _atom_site_symmetry_multiplicity
 _atom_site_fract_x
 _atom_site_fract_y
 _atom_site_fract_z
 _atom_site_occupancy
  Li  Li0  1  0.781566  0.550610  0.770685  1
  Li  Li1  1  0.449826  0.227237  0.764554  1
  Eu  Eu2  1  0.998669  0.000787  0.763766  1
  Eu  Eu3  1  0.331168  0.662102  0.263075  1
  As  As4  1  0.672602  0.329680  0.266871  1
  As  As5  1  0.069135  0.628492  0.760939  1
  As  As6  1  0.376704  0.441498  0.765082  1
  As  As7  1  0.554511  0.930772  0.763438  1
  As  As8  1  0.253780  0.039026  0.262615  1
  As  As9  1  0.959375  0.218518  0.261758  1
  As  As10  1  0.783555  0.745116  0.266197  1
  Rh  Rh11  1  0.754675  0.208457  0.762046  1
  Rh  Rh12  1  0.509323  0.057348  0.262624  1
  Rh  Rh13  1  0.945141  0.454055  0.259452  1
  Rh  Rh14  1  0.550042  0.488048  0.267788  1
  Rh  Rh15  1  0.103164  0.386750  0.760704  1
  Rh  Rh16  1  0.620440  0.719578  0.766147  1
  Rh  Rh17  1  0.285004  0.903820  0.763013  1
  Rh  Rh18  1  0.228241  0.273105  0.262144  1
  Rh  Rh19  1  0.729701  0.961865  0.264530  1
  Rh  Rh20  1  0.043380  0.773133  0.262507  1
