# generated using pymatgen
data_Y10Bi3P2Pb3
_symmetry_space_group_name_H-M   'P 1'
_cell_length_a   9.15790600
_cell_length_b   9.15790542
_cell_length_c   6.81832300
_cell_angle_alpha   90.00000000
_cell_angle_beta   90.00000000
_cell_angle_gamma   120.00000930
_symmetry_Int_Tables_number   1
_chemical_formula_structural   Y10Bi3P2Pb3
_chemical_formula_sum   'Y10 Bi3 P2 Pb3'
_cell_volume   495.22264746
_cell_formula_units_Z   1
loop_
 _symmetry_equiv_pos_site_id
 _symmetry_equiv_pos_as_xyz
  1  'x, y, z'
loop_
 _atom_site_type_symbol
 _atom_site_label
 _atom_site_symmetry_multiplicity
 _atom_site_fract_x
 _atom_site_fract_y
 _atom_site_fract_z
 _atom_site_occupancy
  Y  Y0  1  0.763129  0.763129  0.750000  1
  Y  Y1  1  0.236871  0.000000  0.750000  1
  Y  Y2  1  0.000000  0.236871  0.750000  1
  Y  Y3  1  0.237731  0.237731  0.250000  1
  Y  Y4  1  0.762269  0.000000  0.250000  1
  Y  Y5  1  0.000000  0.762269  0.250000  1
  Y  Y6  1  0.666667  0.333333  0.002934  1
  Y  Y7  1  0.333333  0.666667  0.002934  1
  Y  Y8  1  0.333333  0.666667  0.497066  1
  Y  Y9  1  0.666667  0.333333  0.497066  1
  Bi  Bi10  1  0.401694  0.401694  0.750000  1
  Bi  Bi11  1  0.598306  0.000000  0.750000  1
  Bi  Bi12  1  0.000000  0.598306  0.750000  1
  P  P13  1  0.000000  0.000000  0.999390  1
  P  P14  1  0.000000  0.000000  0.500610  1
  Pb  Pb15  1  0.600702  0.600702  0.250000  1
  Pb  Pb16  1  0.399298  0.000000  0.250000  1
  Pb  Pb17  1  0.000000  0.399298  0.250000  1
