# generated using pymatgen
data_Hf8Be8TlHg3
_symmetry_space_group_name_H-M   'P 1'
_cell_length_a   6.36642200
_cell_length_b   6.36641800
_cell_length_c   7.89212100
_cell_angle_alpha   90.00000000
_cell_angle_beta   90.00000000
_cell_angle_gamma   90.00007200
_symmetry_Int_Tables_number   1
_chemical_formula_structural   Hf8Be8TlHg3
_chemical_formula_sum   'Hf8 Be8 Tl1 Hg3'
_cell_volume   319.87795243
_cell_formula_units_Z   1
loop_
 _symmetry_equiv_pos_site_id
 _symmetry_equiv_pos_as_xyz
  1  'x, y, z'
loop_
 _atom_site_type_symbol
 _atom_site_label
 _atom_site_symmetry_multiplicity
 _atom_site_fract_x
 _atom_site_fract_y
 _atom_site_fract_z
 _atom_site_occupancy
  Hf  Hf0  1  0.167411  0.831063  0.501337  1
  Hf  Hf1  1  0.331064  0.332589  0.998663  1
  Hf  Hf2  1  0.668746  0.667220  0.501302  1
  Hf  Hf3  1  0.832589  0.168937  0.501337  1
  Hf  Hf4  1  0.167220  0.831254  0.998697  1
  Hf  Hf5  1  0.331254  0.332780  0.501302  1
  Hf  Hf6  1  0.668936  0.667411  0.998663  1
  Hf  Hf7  1  0.832780  0.168746  0.998697  1
  Be  Be8  1  0.116248  0.124145  0.250359  1
  Be  Be9  1  0.878180  0.878434  0.749774  1
  Be  Be10  1  0.883752  0.875855  0.250359  1
  Be  Be11  1  0.121820  0.121566  0.749774  1
  Be  Be12  1  0.375854  0.616248  0.249639  1
  Be  Be13  1  0.621566  0.378180  0.750228  1
  Be  Be14  1  0.378434  0.621820  0.750228  1
  Be  Be15  1  0.624146  0.383752  0.249639  1
  Tl  Tl16  1  0.500000  0.000000  0.250000  1
  Hg  Hg17  1  0.500000  0.000000  0.750000  1
  Hg  Hg18  1  0.000000  0.500000  0.250000  1
  Hg  Hg19  1  0.000000  0.500000  0.750000  1
