# generated using pymatgen
data_Be8FeMoOs2
_symmetry_space_group_name_H-M   'P 1'
_cell_length_a   4.33976500
_cell_length_b   4.33976498
_cell_length_c   7.06703500
_cell_angle_alpha   90.00000000
_cell_angle_beta   90.00000000
_cell_angle_gamma   119.99999254
_symmetry_Int_Tables_number   1
_chemical_formula_structural   Be8FeMoOs2
_chemical_formula_sum   'Be8 Fe1 Mo1 Os2'
_cell_volume   115.26576321
_cell_formula_units_Z   1
loop_
 _symmetry_equiv_pos_site_id
 _symmetry_equiv_pos_as_xyz
  1  'x, y, z'
loop_
 _atom_site_type_symbol
 _atom_site_label
 _atom_site_symmetry_multiplicity
 _atom_site_fract_x
 _atom_site_fract_y
 _atom_site_fract_z
 _atom_site_occupancy
  Be  Be0  1  0.000000  0.000000  0.004116  1
  Be  Be1  1  0.000000  0.000000  0.497833  1
  Be  Be2  1  0.830759  0.661518  0.258179  1
  Be  Be3  1  0.169256  0.830744  0.740540  1
  Be  Be4  1  0.661488  0.830744  0.740540  1
  Be  Be5  1  0.338482  0.169241  0.258179  1
  Be  Be6  1  0.830759  0.169241  0.258179  1
  Be  Be7  1  0.169256  0.338512  0.740540  1
  Fe  Fe8  1  0.333333  0.666667  0.435592  1
  Mo  Mo9  1  0.666667  0.333333  0.938996  1
  Os  Os10  1  0.333333  0.666667  0.060847  1
  Os  Os11  1  0.666667  0.333333  0.566463  1
