# generated using pymatgen
data_SrCa3P2(BrO4)2
_symmetry_space_group_name_H-M   'P 1'
_cell_length_a   6.27185900
_cell_length_b   7.19096200
_cell_length_c   11.42128500
_cell_angle_alpha   90.00000000
_cell_angle_beta   90.00000000
_cell_angle_gamma   90.00000000
_symmetry_Int_Tables_number   1
_chemical_formula_structural   SrCa3P2(BrO4)2
_chemical_formula_sum   'Sr2 Ca6 P4 Br4 O16'
_cell_volume   515.10794541
_cell_formula_units_Z   2
loop_
 _symmetry_equiv_pos_site_id
 _symmetry_equiv_pos_as_xyz
  1  'x, y, z'
loop_
 _atom_site_type_symbol
 _atom_site_label
 _atom_site_symmetry_multiplicity
 _atom_site_fract_x
 _atom_site_fract_y
 _atom_site_fract_z
 _atom_site_occupancy
  Sr  Sr0  1  0.104226  0.024920  0.750000  1
  Sr  Sr1  1  0.104226  0.475080  0.250000  1
  Ca  Ca2  1  0.362583  0.750000  0.500000  1
  Ca  Ca3  1  0.637297  0.250000  0.500000  1
  Ca  Ca4  1  0.637297  0.250000  0.000000  1
  Ca  Ca5  1  0.898563  0.524149  0.750000  1
  Ca  Ca6  1  0.362583  0.750000  0.000000  1
  Ca  Ca7  1  0.898563  0.975851  0.250000  1
  P  P8  1  0.857113  0.750000  0.000000  1
  P  P9  1  0.138166  0.250000  0.500000  1
  P  P10  1  0.138166  0.250000  0.000000  1
  P  P11  1  0.857113  0.750000  0.500000  1
  Br  Br12  1  0.524636  0.217043  0.250000  1
  Br  Br13  1  0.524636  0.282957  0.750000  1
  Br  Br14  1  0.495758  0.725173  0.250000  1
  Br  Br15  1  0.495758  0.774827  0.750000  1
  O  O16  1  0.989530  0.218272  0.108955  1
  O  O17  1  0.282142  0.420500  0.474462  1
  O  O18  1  0.007570  0.744997  0.389648  1
  O  O19  1  0.711587  0.923231  0.490530  1
  O  O20  1  0.007570  0.755003  0.610352  1
  O  O21  1  0.711587  0.576769  0.509470  1
  O  O22  1  0.989530  0.218272  0.391045  1
  O  O23  1  0.989530  0.281728  0.891045  1
  O  O24  1  0.711587  0.923231  0.009470  1
  O  O25  1  0.989530  0.281728  0.608955  1
  O  O26  1  0.711587  0.576769  0.990530  1
  O  O27  1  0.282142  0.420500  0.025538  1
  O  O28  1  0.007570  0.744997  0.110352  1
  O  O29  1  0.007570  0.755003  0.889648  1
  O  O30  1  0.282142  0.079500  0.525538  1
  O  O31  1  0.282142  0.079500  0.974462  1
