# generated using pymatgen
data_Cs2Al(GaAu2)3
_symmetry_space_group_name_H-M   'P 1'
_cell_length_a   5.74006895
_cell_length_b   7.25765531
_cell_length_c   13.72243900
_cell_angle_alpha   90.00000000
_cell_angle_beta   90.00000000
_cell_angle_gamma   89.81797256
_symmetry_Int_Tables_number   1
_chemical_formula_structural   Cs2Al(GaAu2)3
_chemical_formula_sum   'Cs4 Al2 Ga6 Au12'
_cell_volume   571.66626463
_cell_formula_units_Z   2
loop_
 _symmetry_equiv_pos_site_id
 _symmetry_equiv_pos_as_xyz
  1  'x, y, z'
loop_
 _atom_site_type_symbol
 _atom_site_label
 _atom_site_symmetry_multiplicity
 _atom_site_fract_x
 _atom_site_fract_y
 _atom_site_fract_z
 _atom_site_occupancy
  Cs  Cs0  1  0.248390  0.094421  0.069994  1
  Cs  Cs1  1  0.251610  0.405579  0.569994  1
  Cs  Cs2  1  0.750020  0.905203  0.929937  1
  Cs  Cs3  1  0.749980  0.594797  0.429937  1
  Al  Al4  1  0.997683  0.909957  0.657856  1
  Al  Al5  1  0.502317  0.590043  0.157856  1
  Ga  Ga6  1  0.498257  0.092994  0.343526  1
  Ga  Ga7  1  0.001743  0.407006  0.843526  1
  Ga  Ga8  1  0.002840  0.092919  0.342334  1
  Ga  Ga9  1  0.497160  0.407081  0.842334  1
  Ga  Ga10  1  0.503200  0.905698  0.656494  1
  Ga  Ga11  1  0.996800  0.594302  0.156494  1
  Au  Au12  1  0.247744  0.119885  0.782744  1
  Au  Au13  1  0.252256  0.380115  0.282744  1
  Au  Au14  1  0.744745  0.875116  0.214979  1
  Au  Au15  1  0.755255  0.624884  0.714979  1
  Au  Au16  1  0.245409  0.711281  0.790415  1
  Au  Au17  1  0.254591  0.788719  0.290415  1
  Au  Au18  1  0.746710  0.291189  0.208632  1
  Au  Au19  1  0.753290  0.208811  0.708632  1
  Au  Au20  1  0.256284  0.580074  0.996879  1
  Au  Au21  1  0.243716  0.919926  0.496879  1
  Au  Au22  1  0.747731  0.422098  0.006211  1
  Au  Au23  1  0.752269  0.077902  0.506211  1
