# generated using pymatgen
data_Tm4NpSiRu6
_symmetry_space_group_name_H-M   'P 1'
_cell_length_a   5.62667608
_cell_length_b   5.62667507
_cell_length_c   7.98323900
_cell_angle_alpha   89.99030589
_cell_angle_beta   90.00969410
_cell_angle_gamma   120.00982548
_symmetry_Int_Tables_number   1
_chemical_formula_structural   Tm4NpSiRu6
_chemical_formula_sum   'Tm4 Np1 Si1 Ru6'
_cell_volume   218.86206750
_cell_formula_units_Z   1
loop_
 _symmetry_equiv_pos_site_id
 _symmetry_equiv_pos_as_xyz
  1  'x, y, z'
loop_
 _atom_site_type_symbol
 _atom_site_label
 _atom_site_symmetry_multiplicity
 _atom_site_fract_x
 _atom_site_fract_y
 _atom_site_fract_z
 _atom_site_occupancy
  Tm  Tm0  1  0.666687  0.333313  0.552201  1
  Tm  Tm1  1  0.333313  0.666687  0.447799  1
  Tm  Tm2  1  0.333325  0.666675  0.068371  1
  Tm  Tm3  1  0.666675  0.333325  0.931629  1
  Np  Np4  1  0.000000  0.000000  0.000000  1
  Si  Si5  1  0.000000  0.000000  0.500000  1
  Ru  Ru6  1  0.167046  0.333939  0.752157  1
  Ru  Ru7  1  0.166971  0.833029  0.752122  1
  Ru  Ru8  1  0.666061  0.832954  0.752157  1
  Ru  Ru9  1  0.832954  0.666061  0.247843  1
  Ru  Ru10  1  0.833029  0.166971  0.247878  1
  Ru  Ru11  1  0.333939  0.167046  0.247843  1
