# generated using pymatgen
data_NaLi4Eu3P4
_symmetry_space_group_name_H-M   'P 1'
_cell_length_a   4.28726100
_cell_length_b   7.17848478
_cell_length_c   7.63827444
_cell_angle_alpha   89.82108133
_cell_angle_beta   90.00000000
_cell_angle_gamma   90.00000000
_symmetry_Int_Tables_number   1
_chemical_formula_structural   NaLi4Eu3P4
_chemical_formula_sum   'Na1 Li4 Eu3 P4'
_cell_volume   235.07467712
_cell_formula_units_Z   1
loop_
 _symmetry_equiv_pos_site_id
 _symmetry_equiv_pos_as_xyz
  1  'x, y, z'
loop_
 _atom_site_type_symbol
 _atom_site_label
 _atom_site_symmetry_multiplicity
 _atom_site_fract_x
 _atom_site_fract_y
 _atom_site_fract_z
 _atom_site_occupancy
  Na  Na0  1  0.250000  0.011572  0.303322  1
  Li  Li1  1  0.250000  0.146980  0.941000  1
  Li  Li2  1  0.250000  0.661175  0.568747  1
  Li  Li3  1  0.750000  0.863132  0.085769  1
  Li  Li4  1  0.750000  0.331538  0.421329  1
  Eu  Eu5  1  0.250000  0.510228  0.204339  1
  Eu  Eu6  1  0.750000  0.989624  0.690990  1
  Eu  Eu7  1  0.750000  0.490817  0.791268  1
  P  P8  1  0.250000  0.274953  0.601876  1
  P  P9  1  0.250000  0.773431  0.894955  1
  P  P10  1  0.750000  0.711125  0.406174  1
  P  P11  1  0.750000  0.235424  0.090231  1
