# generated using pymatgen
data_TbDy4(SiHg)2
_symmetry_space_group_name_H-M   'P 1'
_cell_length_a   8.79682417
_cell_length_b   8.79249685
_cell_length_c   7.57600777
_cell_angle_alpha   89.94860942
_cell_angle_beta   90.02961548
_cell_angle_gamma   129.19755960
_symmetry_Int_Tables_number   1
_chemical_formula_structural   TbDy4(SiHg)2
_chemical_formula_sum   'Tb2 Dy8 Si4 Hg4'
_cell_volume   454.11311861
_cell_formula_units_Z   2
loop_
 _symmetry_equiv_pos_site_id
 _symmetry_equiv_pos_as_xyz
  1  'x, y, z'
loop_
 _atom_site_type_symbol
 _atom_site_label
 _atom_site_symmetry_multiplicity
 _atom_site_fract_x
 _atom_site_fract_y
 _atom_site_fract_z
 _atom_site_occupancy
  Tb  Tb0  1  0.055906  0.311131  0.323266  1
  Tb  Tb1  1  0.944094  0.688869  0.676734  1
  Dy  Dy2  1  0.444265  0.189444  0.823572  1
  Dy  Dy3  1  0.810567  0.555800  0.176409  1
  Dy  Dy4  1  0.555735  0.810556  0.176428  1
  Dy  Dy5  1  0.189433  0.444200  0.823591  1
  Dy  Dy6  1  0.689183  0.944034  0.676697  1
  Dy  Dy7  1  0.310817  0.055966  0.323303  1
  Dy  Dy8  1  0.000000  0.000000  0.000000  1
  Dy  Dy9  1  0.500000  0.500000  0.500000  1
  Si  Si10  1  0.382411  0.382083  0.120975  1
  Si  Si11  1  0.617589  0.617917  0.879025  1
  Si  Si12  1  0.118296  0.118298  0.621643  1
  Si  Si13  1  0.881704  0.881702  0.378357  1
  Hg  Hg14  1  0.781579  0.218049  0.999677  1
  Hg  Hg15  1  0.218421  0.781951  0.000323  1
  Hg  Hg16  1  0.717393  0.281286  0.499973  1
  Hg  Hg17  1  0.282607  0.718714  0.500027  1
