# generated using pymatgen
data_Cs12K3Rb3(TlSb4)2
_symmetry_space_group_name_H-M   'P 1'
_cell_length_a   11.27885869
_cell_length_b   11.31840748
_cell_length_c   11.97227700
_cell_angle_alpha   90.00000000
_cell_angle_beta   90.00000000
_cell_angle_gamma   119.61799039
_symmetry_Int_Tables_number   1
_chemical_formula_structural   Cs12K3Rb3(TlSb4)2
_chemical_formula_sum   'Cs12 K3 Rb3 Tl2 Sb8'
_cell_volume   1328.66898311
_cell_formula_units_Z   1
loop_
 _symmetry_equiv_pos_site_id
 _symmetry_equiv_pos_as_xyz
  1  'x, y, z'
loop_
 _atom_site_type_symbol
 _atom_site_label
 _atom_site_symmetry_multiplicity
 _atom_site_fract_x
 _atom_site_fract_y
 _atom_site_fract_z
 _atom_site_occupancy
  Cs  Cs0  1  0.582949  0.792101  0.543785  1
  Cs  Cs1  1  0.791845  0.582641  0.043420  1
  Cs  Cs2  1  0.208143  0.416363  0.544406  1
  Cs  Cs3  1  0.208301  0.792914  0.542326  1
  Cs  Cs4  1  0.791810  0.208098  0.041130  1
  Cs  Cs5  1  0.415683  0.207235  0.041804  1
  Cs  Cs6  1  0.791845  0.582641  0.456581  1
  Cs  Cs7  1  0.791810  0.208098  0.458870  1
  Cs  Cs8  1  0.415683  0.207235  0.458197  1
  Cs  Cs9  1  0.582949  0.792101  0.956215  1
  Cs  Cs10  1  0.208301  0.792914  0.957674  1
  Cs  Cs11  1  0.208143  0.416363  0.955594  1
  K  K12  1  0.120076  0.880713  0.250000  1
  K  K13  1  0.881800  0.119466  0.750000  1
  K  K14  1  0.239152  0.119862  0.750000  1
  Rb  Rb15  1  0.120166  0.239641  0.250000  1
  Rb  Rb16  1  0.880717  0.761059  0.750000  1
  Rb  Rb17  1  0.762768  0.881349  0.250000  1
  Tl  Tl18  1  0.333162  0.666636  0.250000  1
  Tl  Tl19  1  0.666369  0.333104  0.750000  1
  Sb  Sb20  1  0.003040  0.001745  0.997453  1
  Sb  Sb21  1  0.003040  0.001745  0.502547  1
  Sb  Sb22  1  0.483361  0.518455  0.250000  1
  Sb  Sb23  1  0.513138  0.477803  0.750000  1
  Sb  Sb24  1  0.477171  0.963002  0.250000  1
  Sb  Sb25  1  0.035803  0.523377  0.250000  1
  Sb  Sb26  1  0.963291  0.476279  0.750000  1
  Sb  Sb27  1  0.519487  0.037062  0.750000  1
