# generated using pymatgen
data_Rb2YbP2O7
_symmetry_space_group_name_H-M   'P 1'
_cell_length_a   5.84014431
_cell_length_b   5.84014414
_cell_length_c   7.39343629
_cell_angle_alpha   66.80477846
_cell_angle_beta   66.80477671
_cell_angle_gamma   60.39128840
_symmetry_Int_Tables_number   1
_chemical_formula_structural   Rb2YbP2O7
_chemical_formula_sum   'Rb2 Yb1 P2 O7'
_cell_volume   195.15458318
_cell_formula_units_Z   1
loop_
 _symmetry_equiv_pos_site_id
 _symmetry_equiv_pos_as_xyz
  1  'x, y, z'
loop_
 _atom_site_type_symbol
 _atom_site_label
 _atom_site_symmetry_multiplicity
 _atom_site_fract_x
 _atom_site_fract_y
 _atom_site_fract_z
 _atom_site_occupancy
  Rb  Rb0  1  0.775529  0.775529  0.688200  1
  Rb  Rb1  1  0.229448  0.229448  0.315082  1
  Yb  Yb2  1  0.003229  0.003229  0.001091  1
  P  P3  1  0.426038  0.426038  0.740701  1
  P  P4  1  0.582210  0.582210  0.259027  1
  O  O5  1  0.249955  0.685775  0.815616  1
  O  O6  1  0.685775  0.249955  0.815616  1
  O  O7  1  0.734652  0.296171  0.221772  1
  O  O8  1  0.296171  0.734652  0.221772  1
  O  O9  1  0.266293  0.266293  0.765725  1
  O  O10  1  0.751627  0.751627  0.159355  1
  O  O11  1  0.543572  0.543572  0.498643  1
