# generated using pymatgen
data_Tb4Y4TlCdIrPd
_symmetry_space_group_name_H-M   'P 1'
_cell_length_a   9.70544340
_cell_length_b   9.70544339
_cell_length_c   9.68528300
_cell_angle_alpha   60.06868687
_cell_angle_beta   60.06868691
_cell_angle_gamma   60.32570740
_symmetry_Int_Tables_number   1
_chemical_formula_structural   Tb4Y4TlCdIrPd
_chemical_formula_sum   'Tb8 Y8 Tl2 Cd2 Ir2 Pd2'
_cell_volume   647.34835954
_cell_formula_units_Z   2
loop_
 _symmetry_equiv_pos_site_id
 _symmetry_equiv_pos_as_xyz
  1  'x, y, z'
loop_
 _atom_site_type_symbol
 _atom_site_label
 _atom_site_symmetry_multiplicity
 _atom_site_fract_x
 _atom_site_fract_y
 _atom_site_fract_z
 _atom_site_occupancy
  Tb  Tb0  1  0.351945  0.351945  0.346013  1
  Tb  Tb1  1  0.351945  0.351945  0.950100  1
  Tb  Tb2  1  0.361227  0.938496  0.350138  1
  Tb  Tb3  1  0.938496  0.361227  0.350138  1
  Tb  Tb4  1  0.806494  0.189123  0.189266  1
  Tb  Tb5  1  0.189123  0.806494  0.815115  1
  Tb  Tb6  1  0.189123  0.806494  0.189266  1
  Tb  Tb7  1  0.806494  0.189123  0.815115  1
  Y  Y8  1  0.189844  0.189844  0.810156  1
  Y  Y9  1  0.810252  0.810252  0.189748  1
  Y  Y10  1  0.940547  0.566451  0.559358  1
  Y  Y11  1  0.566451  0.940547  0.933644  1
  Y  Y12  1  0.566451  0.940547  0.559358  1
  Y  Y13  1  0.940547  0.566451  0.933644  1
  Y  Y14  1  0.562466  0.562466  0.937534  1
  Y  Y15  1  0.937888  0.937888  0.562112  1
  Tl  Tl16  1  0.583143  0.583143  0.588483  1
  Tl  Tl17  1  0.583143  0.583143  0.245233  1
  Cd  Cd18  1  0.578869  0.251217  0.584958  1
  Cd  Cd19  1  0.251217  0.578869  0.584958  1
  Ir  Ir20  1  0.140427  0.570538  0.144519  1
  Ir  Ir21  1  0.570538  0.140427  0.144519  1
  Pd  Pd22  1  0.141686  0.141686  0.149434  1
  Pd  Pd23  1  0.141686  0.141686  0.567193  1
