# generated using pymatgen
data_SrU2F11
_symmetry_space_group_name_H-M   'P 1'
_cell_length_a   8.93136330
_cell_length_b   8.93136404
_cell_length_c   8.93136496
_cell_angle_alpha   122.65915379
_cell_angle_beta   107.48235558
_cell_angle_gamma   99.20386030
_symmetry_Int_Tables_number   1
_chemical_formula_structural   SrU2F11
_chemical_formula_sum   'Sr2 U4 F22'
_cell_volume   524.07248347
_cell_formula_units_Z   2
loop_
 _symmetry_equiv_pos_site_id
 _symmetry_equiv_pos_as_xyz
  1  'x, y, z'
loop_
 _atom_site_type_symbol
 _atom_site_label
 _atom_site_symmetry_multiplicity
 _atom_site_fract_x
 _atom_site_fract_y
 _atom_site_fract_z
 _atom_site_occupancy
  Sr  Sr0  1  0.750000  0.250000  0.500000  1
  Sr  Sr1  1  0.250000  0.750000  0.500000  1
  U  U2  1  0.681104  0.649812  0.330917  1
  U  U3  1  0.318896  0.350188  0.669083  1
  U  U4  1  0.181104  0.850188  0.031292  1
  U  U5  1  0.818896  0.149812  0.968708  1
  F  F6  1  0.703834  0.895678  0.339746  1
  F  F7  1  0.296166  0.104322  0.660254  1
  F  F8  1  0.555931  0.364087  0.660254  1
  F  F9  1  0.944069  0.604322  0.808155  1
  F  F10  1  0.444069  0.635913  0.339746  1
  F  F11  1  0.055931  0.395678  0.191845  1
  F  F12  1  0.796166  0.135913  0.191845  1
  F  F13  1  0.203834  0.864087  0.808155  1
  F  F14  1  0.500000  0.500000  0.000000  1
  F  F15  1  0.000000  0.000000  0.000000  1
  F  F16  1  0.783837  0.868605  0.652441  1
  F  F17  1  0.216163  0.131395  0.347559  1
  F  F18  1  0.283837  0.631395  0.915232  1
  F  F19  1  0.716163  0.368605  0.084768  1
  F  F20  1  0.946166  0.727464  0.406336  1
  F  F21  1  0.053834  0.272536  0.593664  1
  F  F22  1  0.321129  0.539831  0.593664  1
  F  F23  1  0.178871  0.772536  0.218701  1
  F  F24  1  0.678871  0.460169  0.406336  1
  F  F25  1  0.821129  0.227464  0.781299  1
  F  F26  1  0.553834  0.960169  0.781299  1
  F  F27  1  0.446166  0.039831  0.218701  1
