# generated using pymatgen
data_Tb2Sm(P2Rh3)3
_symmetry_space_group_name_H-M   'P 1'
_cell_length_a   3.94070500
_cell_length_b   11.23653700
_cell_length_c   12.83583100
_cell_angle_alpha   90.00000000
_cell_angle_beta   90.00000000
_cell_angle_gamma   90.00000000
_symmetry_Int_Tables_number   1
_chemical_formula_structural   Tb2Sm(P2Rh3)3
_chemical_formula_sum   'Tb4 Sm2 P12 Rh18'
_cell_volume   568.36902479
_cell_formula_units_Z   2
loop_
 _symmetry_equiv_pos_site_id
 _symmetry_equiv_pos_as_xyz
  1  'x, y, z'
loop_
 _atom_site_type_symbol
 _atom_site_label
 _atom_site_symmetry_multiplicity
 _atom_site_fract_x
 _atom_site_fract_y
 _atom_site_fract_z
 _atom_site_occupancy
  Tb  Tb0  1  0.500000  0.814293  0.204583  1
  Tb  Tb1  1  0.500000  0.185707  0.204583  1
  Tb  Tb2  1  0.000000  0.685707  0.795417  1
  Tb  Tb3  1  0.000000  0.314293  0.795417  1
  Sm  Sm4  1  0.000000  0.500000  0.521450  1
  Sm  Sm5  1  0.500000  0.000000  0.478550  1
  P  P6  1  0.500000  0.500000  0.878822  1
  P  P7  1  0.000000  0.000000  0.121178  1
  P  P8  1  0.500000  0.500000  0.349736  1
  P  P9  1  0.000000  0.000000  0.650264  1
  P  P10  1  0.500000  0.314204  0.618937  1
  P  P11  1  0.500000  0.685796  0.618937  1
  P  P12  1  0.000000  0.185796  0.381063  1
  P  P13  1  0.000000  0.814204  0.381063  1
  P  P14  1  0.500000  0.846811  0.893234  1
  P  P15  1  0.500000  0.153189  0.893234  1
  P  P16  1  0.000000  0.653189  0.106766  1
  P  P17  1  0.000000  0.346811  0.106766  1
  Rh  Rh18  1  0.500000  0.500000  0.169340  1
  Rh  Rh19  1  0.000000  0.000000  0.830660  1
  Rh  Rh20  1  0.500000  0.500000  0.702466  1
  Rh  Rh21  1  0.000000  0.000000  0.297534  1
  Rh  Rh22  1  0.000000  0.500000  0.979025  1
  Rh  Rh23  1  0.500000  0.000000  0.020975  1
  Rh  Rh24  1  0.500000  0.334340  0.994167  1
  Rh  Rh25  1  0.500000  0.665660  0.994167  1
  Rh  Rh26  1  0.000000  0.165660  0.005833  1
  Rh  Rh27  1  0.000000  0.834340  0.005833  1
  Rh  Rh28  1  0.500000  0.293557  0.430408  1
  Rh  Rh29  1  0.500000  0.706443  0.430408  1
  Rh  Rh30  1  0.000000  0.206443  0.569592  1
  Rh  Rh31  1  0.000000  0.793557  0.569592  1
  Rh  Rh32  1  0.500000  0.873320  0.711624  1
  Rh  Rh33  1  0.500000  0.126680  0.711624  1
  Rh  Rh34  1  0.000000  0.626680  0.288376  1
  Rh  Rh35  1  0.000000  0.373320  0.288376  1
