# generated using pymatgen
data_Be2FeSi2(BiO5)2
_symmetry_space_group_name_H-M   'P 1'
_cell_length_a   7.79402000
_cell_length_b   4.86979436
_cell_length_c   10.25382382
_cell_angle_alpha   90.05028627
_cell_angle_beta   90.00000000
_cell_angle_gamma   90.00000000
_symmetry_Int_Tables_number   1
_chemical_formula_structural   Be2FeSi2(BiO5)2
_chemical_formula_sum   'Be4 Fe2 Si4 Bi4 O20'
_cell_volume   389.18654891
_cell_formula_units_Z   2
loop_
 _symmetry_equiv_pos_site_id
 _symmetry_equiv_pos_as_xyz
  1  'x, y, z'
loop_
 _atom_site_type_symbol
 _atom_site_label
 _atom_site_symmetry_multiplicity
 _atom_site_fract_x
 _atom_site_fract_y
 _atom_site_fract_z
 _atom_site_occupancy
  Be  Be0  1  0.914167  0.530709  0.837597  1
  Be  Be1  1  0.414167  0.469291  0.662403  1
  Be  Be2  1  0.085833  0.469291  0.162403  1
  Be  Be3  1  0.585833  0.530709  0.337597  1
  Fe  Fe4  1  0.000000  0.000000  0.000000  1
  Fe  Fe5  1  0.500000  0.000000  0.500000  1
  Si  Si6  1  0.775079  0.477008  0.577915  1
  Si  Si7  1  0.275079  0.522992  0.922085  1
  Si  Si8  1  0.224921  0.522992  0.422085  1
  Si  Si9  1  0.724921  0.477008  0.077915  1
  Bi  Bi10  1  0.590186  0.996211  0.826809  1
  Bi  Bi11  1  0.090186  0.003789  0.673191  1
  Bi  Bi12  1  0.409814  0.003789  0.173191  1
  Bi  Bi13  1  0.909814  0.996211  0.326809  1
  O  O14  1  0.602182  0.319794  0.634985  1
  O  O15  1  0.102182  0.680206  0.865015  1
  O  O16  1  0.397818  0.680206  0.365015  1
  O  O17  1  0.897818  0.319794  0.134985  1
  O  O18  1  0.423211  0.796914  0.664108  1
  O  O19  1  0.923211  0.203086  0.835892  1
  O  O20  1  0.576789  0.203086  0.335892  1
  O  O21  1  0.214363  0.336515  0.048305  1
  O  O22  1  0.589804  0.235361  0.034159  1
  O  O23  1  0.089804  0.764639  0.465841  1
  O  O24  1  0.854483  0.671989  0.695692  1
  O  O25  1  0.910196  0.235361  0.534159  1
  O  O26  1  0.714363  0.663485  0.451695  1
  O  O27  1  0.410196  0.764639  0.965841  1
  O  O28  1  0.285637  0.336515  0.548305  1
  O  O29  1  0.785637  0.663485  0.951695  1
  O  O30  1  0.645517  0.671989  0.195692  1
  O  O31  1  0.145517  0.328011  0.304308  1
  O  O32  1  0.354483  0.328011  0.804308  1
  O  O33  1  0.076789  0.796914  0.164108  1
