# generated using pymatgen
data_ZnFe3Mo12(PtN)4
_symmetry_space_group_name_H-M   'P 1'
_cell_length_a   6.81136820
_cell_length_b   6.80671336
_cell_length_c   6.81523749
_cell_angle_alpha   89.74497858
_cell_angle_beta   90.30185404
_cell_angle_gamma   90.38646558
_symmetry_Int_Tables_number   1
_chemical_formula_structural   ZnFe3Mo12(PtN)4
_chemical_formula_sum   'Zn1 Fe3 Mo12 Pt4 N4'
_cell_volume   315.96041384
_cell_formula_units_Z   1
loop_
 _symmetry_equiv_pos_site_id
 _symmetry_equiv_pos_as_xyz
  1  'x, y, z'
loop_
 _atom_site_type_symbol
 _atom_site_label
 _atom_site_symmetry_multiplicity
 _atom_site_fract_x
 _atom_site_fract_y
 _atom_site_fract_z
 _atom_site_occupancy
  Zn  Zn0  1  0.184538  0.815229  0.315501  1
  Fe  Fe1  1  0.314159  0.183817  0.813949  1
  Fe  Fe2  1  0.816750  0.314398  0.185556  1
  Fe  Fe3  1  0.684543  0.684999  0.683545  1
  Mo  Mo4  1  0.797985  0.966203  0.371306  1
  Mo  Mo5  1  0.691898  0.041048  0.870420  1
  Mo  Mo6  1  0.200230  0.449754  0.124415  1
  Mo  Mo7  1  0.306362  0.533708  0.632413  1
  Mo  Mo8  1  0.961943  0.370162  0.806025  1
  Mo  Mo9  1  0.038615  0.875018  0.704692  1
  Mo  Mo10  1  0.463220  0.132073  0.193410  1
  Mo  Mo11  1  0.548127  0.626179  0.302303  1
  Mo  Mo12  1  0.373692  0.802880  0.951122  1
  Mo  Mo13  1  0.867534  0.693503  0.034955  1
  Mo  Mo14  1  0.127006  0.202828  0.465692  1
  Mo  Mo15  1  0.627338  0.304277  0.542262  1
  Pt  Pt16  1  0.561930  0.436092  0.936819  1
  Pt  Pt17  1  0.435303  0.938049  0.563862  1
  Pt  Pt18  1  0.936104  0.565082  0.437346  1
  Pt  Pt19  1  0.063283  0.063918  0.063352  1
  N  N20  1  0.873147  0.126649  0.626989  1
  N  N21  1  0.624111  0.874583  0.123408  1
  N  N22  1  0.125988  0.623712  0.876082  1
  N  N23  1  0.376193  0.375843  0.374577  1
