# generated using pymatgen
data_Ba4Mn3GaF20
_symmetry_space_group_name_H-M   'P 1'
_cell_length_a   5.25777847
_cell_length_b   5.80838175
_cell_length_c   14.28486035
_cell_angle_alpha   90.93794965
_cell_angle_beta   90.32411720
_cell_angle_gamma   90.22552905
_symmetry_Int_Tables_number   1
_chemical_formula_structural   Ba4Mn3GaF20
_chemical_formula_sum   'Ba4 Mn3 Ga1 F20'
_cell_volume   436.17901250
_cell_formula_units_Z   1
loop_
 _symmetry_equiv_pos_site_id
 _symmetry_equiv_pos_as_xyz
  1  'x, y, z'
loop_
 _atom_site_type_symbol
 _atom_site_label
 _atom_site_symmetry_multiplicity
 _atom_site_fract_x
 _atom_site_fract_y
 _atom_site_fract_z
 _atom_site_occupancy
  Ba  Ba0  1  0.744055  0.643587  0.659543  1
  Ba  Ba1  1  0.239598  0.845197  0.339308  1
  Ba  Ba2  1  0.253814  0.148906  0.843742  1
  Ba  Ba3  1  0.754854  0.356386  0.157433  1
  Mn  Mn4  1  0.314172  0.128679  0.587121  1
  Mn  Mn5  1  0.813545  0.363558  0.412741  1
  Mn  Mn6  1  0.687737  0.642451  0.914261  1
  Ga  Ga7  1  0.183137  0.868762  0.087434  1
  F  F8  1  0.964316  0.614519  0.475823  1
  F  F9  1  0.459754  0.875563  0.524798  1
  F  F10  1  0.040682  0.121789  0.024213  1
  F  F11  1  0.554920  0.389640  0.976211  1
  F  F12  1  0.632450  0.580602  0.320118  1
  F  F13  1  0.127529  0.921373  0.681665  1
  F  F14  1  0.370038  0.064146  0.172681  1
  F  F15  1  0.876824  0.430833  0.821904  1
  F  F16  1  0.186101  0.391519  0.648758  1
  F  F17  1  0.675047  0.107145  0.349105  1
  F  F18  1  0.803683  0.900745  0.851193  1
  F  F19  1  0.303443  0.602412  0.148635  1
  F  F20  1  0.583035  0.130889  0.678259  1
  F  F21  1  0.080502  0.359297  0.321609  1
  F  F22  1  0.415505  0.626487  0.823376  1
  F  F23  1  0.913485  0.874338  0.177800  1
  F  F24  1  0.558473  0.361050  0.507822  1
  F  F25  1  0.056543  0.130052  0.491397  1
  F  F26  1  0.444956  0.866292  0.994199  1
  F  F27  1  0.961804  0.653783  0.008851  1
