# generated using pymatgen
data_Pr2Y9In9Ru4
_symmetry_space_group_name_H-M   'P 1'
_cell_length_a   12.84845670
_cell_length_b   12.84845652
_cell_length_c   3.94660000
_cell_angle_alpha   90.00000000
_cell_angle_beta   90.00000000
_cell_angle_gamma   113.43433005
_symmetry_Int_Tables_number   1
_chemical_formula_structural   Pr2Y9In9Ru4
_chemical_formula_sum   'Pr2 Y9 In9 Ru4'
_cell_volume   597.77661240
_cell_formula_units_Z   1
loop_
 _symmetry_equiv_pos_site_id
 _symmetry_equiv_pos_as_xyz
  1  'x, y, z'
loop_
 _atom_site_type_symbol
 _atom_site_label
 _atom_site_symmetry_multiplicity
 _atom_site_fract_x
 _atom_site_fract_y
 _atom_site_fract_z
 _atom_site_occupancy
  Pr  Pr0  1  0.335134  0.664866  0.500000  1
  Pr  Pr1  1  0.664866  0.335134  0.500000  1
  Y  Y2  1  0.500000  0.500000  0.500000  1
  Y  Y3  1  0.802332  0.802332  0.500000  1
  Y  Y4  1  0.197668  0.197668  0.500000  1
  Y  Y5  1  0.588348  0.918025  0.500000  1
  Y  Y6  1  0.411652  0.081975  0.500000  1
  Y  Y7  1  0.918025  0.588348  0.500000  1
  Y  Y8  1  0.081975  0.411652  0.500000  1
  Y  Y9  1  0.132201  0.867799  0.500000  1
  Y  Y10  1  0.867799  0.132201  0.500000  1
  In  In11  1  0.346573  0.873604  0.000000  1
  In  In12  1  0.653427  0.126396  0.000000  1
  In  In13  1  0.873604  0.346573  0.000000  1
  In  In14  1  0.126396  0.653427  0.000000  1
  In  In15  1  0.573343  0.719537  0.000000  1
  In  In16  1  0.426657  0.280463  0.000000  1
  In  In17  1  0.719537  0.573343  0.000000  1
  In  In18  1  0.280463  0.426657  0.000000  1
  In  In19  1  0.000000  0.000000  0.000000  1
  Ru  Ru20  1  0.767665  0.952747  0.000000  1
  Ru  Ru21  1  0.232335  0.047253  0.000000  1
  Ru  Ru22  1  0.952747  0.767665  0.000000  1
  Ru  Ru23  1  0.047253  0.232335  0.000000  1
