# generated using pymatgen
data_ErLu9CoBi5
_symmetry_space_group_name_H-M   'P 1'
_cell_length_a   7.91572600
_cell_length_b   9.28893100
_cell_length_c   11.91180200
_cell_angle_alpha   90.00000000
_cell_angle_beta   90.00000000
_cell_angle_gamma   90.00000000
_symmetry_Int_Tables_number   1
_chemical_formula_structural   ErLu9CoBi5
_chemical_formula_sum   'Er2 Lu18 Co2 Bi10'
_cell_volume   875.85851321
_cell_formula_units_Z   2
loop_
 _symmetry_equiv_pos_site_id
 _symmetry_equiv_pos_as_xyz
  1  'x, y, z'
loop_
 _atom_site_type_symbol
 _atom_site_label
 _atom_site_symmetry_multiplicity
 _atom_site_fract_x
 _atom_site_fract_y
 _atom_site_fract_z
 _atom_site_occupancy
  Er  Er0  1  0.090118  0.500000  0.718846  1
  Er  Er1  1  0.909882  0.500000  0.218846  1
  Lu  Lu2  1  0.427725  0.173810  0.562967  1
  Lu  Lu3  1  0.572275  0.826190  0.062967  1
  Lu  Lu4  1  0.070424  0.730494  0.436575  1
  Lu  Lu5  1  0.929576  0.269506  0.936575  1
  Lu  Lu6  1  0.070424  0.269506  0.436575  1
  Lu  Lu7  1  0.929576  0.730494  0.936575  1
  Lu  Lu8  1  0.427725  0.826190  0.562967  1
  Lu  Lu9  1  0.572275  0.173810  0.062967  1
  Lu  Lu10  1  0.572123  0.500000  0.771702  1
  Lu  Lu11  1  0.427877  0.500000  0.271702  1
  Lu  Lu12  1  0.907581  0.000000  0.200435  1
  Lu  Lu13  1  0.092419  0.000000  0.700435  1
  Lu  Lu14  1  0.258971  0.500000  0.993408  1
  Lu  Lu15  1  0.741029  0.500000  0.493408  1
  Lu  Lu16  1  0.196555  0.000000  0.996973  1
  Lu  Lu17  1  0.803445  0.000000  0.496973  1
  Lu  Lu18  1  0.370395  0.000000  0.309824  1
  Lu  Lu19  1  0.629605  0.000000  0.809824  1
  Co  Co20  1  0.171543  0.000000  0.488203  1
  Co  Co21  1  0.828457  0.000000  0.988203  1
  Bi  Bi22  1  0.811925  0.741031  0.672177  1
  Bi  Bi23  1  0.188075  0.258969  0.172177  1
  Bi  Bi24  1  0.679313  0.241350  0.325488  1
  Bi  Bi25  1  0.320687  0.758650  0.825488  1
  Bi  Bi26  1  0.679313  0.758650  0.325488  1
  Bi  Bi27  1  0.320687  0.241350  0.825488  1
  Bi  Bi28  1  0.811925  0.258969  0.672177  1
  Bi  Bi29  1  0.188075  0.741031  0.172177  1
  Bi  Bi30  1  0.347835  0.500000  0.526195  1
  Bi  Bi31  1  0.652165  0.500000  0.026195  1
