# generated using pymatgen
data_Eu5SnIr2
_symmetry_space_group_name_H-M   'P 1'
_cell_length_a   9.24124113
_cell_length_b   9.24124042
_cell_length_c   9.24124221
_cell_angle_alpha   128.90154617
_cell_angle_beta   128.90154193
_cell_angle_gamma   75.16904555
_symmetry_Int_Tables_number   1
_chemical_formula_structural   Eu5SnIr2
_chemical_formula_sum   'Eu10 Sn2 Ir4'
_cell_volume   465.32544603
_cell_formula_units_Z   2
loop_
 _symmetry_equiv_pos_site_id
 _symmetry_equiv_pos_as_xyz
  1  'x, y, z'
loop_
 _atom_site_type_symbol
 _atom_site_label
 _atom_site_symmetry_multiplicity
 _atom_site_fract_x
 _atom_site_fract_y
 _atom_site_fract_z
 _atom_site_occupancy
  Eu  Eu0  1  0.538205  0.038205  0.839316  1
  Eu  Eu1  1  0.198888  0.698888  0.160684  1
  Eu  Eu2  1  0.038205  0.198888  0.500000  1
  Eu  Eu3  1  0.698888  0.538205  0.500000  1
  Eu  Eu4  1  0.461795  0.961795  0.160684  1
  Eu  Eu5  1  0.801112  0.301112  0.839316  1
  Eu  Eu6  1  0.961795  0.801112  0.500000  1
  Eu  Eu7  1  0.301112  0.461795  0.500000  1
  Eu  Eu8  1  0.500000  0.500000  0.000000  1
  Eu  Eu9  1  0.000000  0.000000  0.000000  1
  Sn  Sn10  1  0.250000  0.250000  0.000000  1
  Sn  Sn11  1  0.750000  0.750000  0.000000  1
  Ir  Ir12  1  0.873966  0.373966  0.247931  1
  Ir  Ir13  1  0.126034  0.626034  0.752069  1
  Ir  Ir14  1  0.373966  0.126034  0.500000  1
  Ir  Ir15  1  0.626034  0.873966  0.500000  1
