# generated using pymatgen
data_Ce4Hf5TaGe8
_symmetry_space_group_name_H-M   'P 1'
_cell_length_a   7.26986700
_cell_length_b   7.38289400
_cell_length_c   13.98745900
_cell_angle_alpha   90.00000000
_cell_angle_beta   90.00000000
_cell_angle_gamma   90.00000000
_symmetry_Int_Tables_number   1
_chemical_formula_structural   Ce4Hf5TaGe8
_chemical_formula_sum   'Ce8 Hf10 Ta2 Ge16'
_cell_volume   750.74409557
_cell_formula_units_Z   2
loop_
 _symmetry_equiv_pos_site_id
 _symmetry_equiv_pos_as_xyz
  1  'x, y, z'
loop_
 _atom_site_type_symbol
 _atom_site_label
 _atom_site_symmetry_multiplicity
 _atom_site_fract_x
 _atom_site_fract_y
 _atom_site_fract_z
 _atom_site_occupancy
  Ce  Ce0  1  0.498285  0.672345  0.594147  1
  Ce  Ce1  1  0.998285  0.827655  0.905853  1
  Ce  Ce2  1  0.502079  0.327342  0.096689  1
  Ce  Ce3  1  0.002079  0.172658  0.403311  1
  Ce  Ce4  1  0.502079  0.327342  0.403311  1
  Ce  Ce5  1  0.002079  0.172658  0.096689  1
  Ce  Ce6  1  0.498285  0.672345  0.905853  1
  Ce  Ce7  1  0.998285  0.827655  0.594147  1
  Hf  Hf8  1  0.660410  0.166667  0.624195  1
  Hf  Hf9  1  0.160410  0.333333  0.875805  1
  Hf  Hf10  1  0.339992  0.833160  0.126548  1
  Hf  Hf11  1  0.839992  0.666840  0.373452  1
  Hf  Hf12  1  0.339992  0.833160  0.373452  1
  Hf  Hf13  1  0.839992  0.666840  0.126548  1
  Hf  Hf14  1  0.660410  0.166667  0.875805  1
  Hf  Hf15  1  0.160410  0.333333  0.624195  1
  Hf  Hf16  1  0.829961  0.501032  0.750000  1
  Hf  Hf17  1  0.329961  0.998968  0.750000  1
  Ta  Ta18  1  0.168231  0.502349  0.250000  1
  Ta  Ta19  1  0.668231  0.997651  0.250000  1
  Ge  Ge20  1  0.675873  0.960034  0.452827  1
  Ge  Ge21  1  0.175873  0.539966  0.047173  1
  Ge  Ge22  1  0.324253  0.040364  0.956232  1
  Ge  Ge23  1  0.824253  0.459636  0.543768  1
  Ge  Ge24  1  0.324253  0.040364  0.543768  1
  Ge  Ge25  1  0.824253  0.459636  0.956232  1
  Ge  Ge26  1  0.675873  0.960034  0.047173  1
  Ge  Ge27  1  0.175873  0.539966  0.452827  1
  Ge  Ge28  1  0.459557  0.370014  0.750000  1
  Ge  Ge29  1  0.959557  0.129986  0.750000  1
  Ge  Ge30  1  0.539317  0.627298  0.250000  1
  Ge  Ge31  1  0.039317  0.872702  0.250000  1
  Ge  Ge32  1  0.692289  0.862506  0.750000  1
  Ge  Ge33  1  0.192289  0.637494  0.750000  1
  Ge  Ge34  1  0.308865  0.139423  0.250000  1
  Ge  Ge35  1  0.808865  0.360577  0.250000  1
