# generated using pymatgen
data_MgScCo12Si4P3
_symmetry_space_group_name_H-M   'P 1'
_cell_length_a   9.01357200
_cell_length_b   9.01356985
_cell_length_c   3.50827500
_cell_angle_alpha   90.00000000
_cell_angle_beta   90.00000000
_cell_angle_gamma   119.99999322
_symmetry_Int_Tables_number   1
_chemical_formula_structural   MgScCo12Si4P3
_chemical_formula_sum   'Mg1 Sc1 Co12 Si4 P3'
_cell_volume   246.84142832
_cell_formula_units_Z   1
loop_
 _symmetry_equiv_pos_site_id
 _symmetry_equiv_pos_as_xyz
  1  'x, y, z'
loop_
 _atom_site_type_symbol
 _atom_site_label
 _atom_site_symmetry_multiplicity
 _atom_site_fract_x
 _atom_site_fract_y
 _atom_site_fract_z
 _atom_site_occupancy
  Mg  Mg0  1  0.333333  0.666667  0.500000  1
  Sc  Sc1  1  0.000000  0.000000  0.000000  1
  Co  Co2  1  0.046928  0.774576  0.500000  1
  Co  Co3  1  0.727650  0.953072  0.500000  1
  Co  Co4  1  0.896024  0.433995  0.500000  1
  Co  Co5  1  0.537971  0.103976  0.500000  1
  Co  Co6  1  0.566005  0.462029  0.500000  1
  Co  Co7  1  0.384549  0.205795  0.000000  1
  Co  Co8  1  0.794205  0.178754  0.000000  1
  Co  Co9  1  0.821246  0.615451  0.000000  1
  Co  Co10  1  0.610979  0.715371  0.000000  1
  Co  Co11  1  0.284629  0.895607  0.000000  1
  Co  Co12  1  0.104393  0.389021  0.000000  1
  Co  Co13  1  0.225424  0.272350  0.500000  1
  Si  Si14  1  0.380683  0.451555  0.000000  1
  Si  Si15  1  0.548445  0.929128  0.000000  1
  Si  Si16  1  0.070872  0.619317  0.000000  1
  Si  Si17  1  0.666667  0.333333  0.000000  1
  P  P18  1  0.261571  0.040768  0.500000  1
  P  P19  1  0.959232  0.220804  0.500000  1
  P  P20  1  0.779196  0.738429  0.500000  1
