# generated using pymatgen
data_CaMn3NiAs3
_symmetry_space_group_name_H-M   'P 1'
_cell_length_a   3.80577700
_cell_length_b   11.58627270
_cell_length_c   11.99288468
_cell_angle_alpha   90.07744632
_cell_angle_beta   90.00000000
_cell_angle_gamma   90.00000000
_symmetry_Int_Tables_number   1
_chemical_formula_structural   CaMn3NiAs3
_chemical_formula_sum   'Ca4 Mn12 Ni4 As12'
_cell_volume   528.82301056
_cell_formula_units_Z   4
loop_
 _symmetry_equiv_pos_site_id
 _symmetry_equiv_pos_as_xyz
  1  'x, y, z'
loop_
 _atom_site_type_symbol
 _atom_site_label
 _atom_site_symmetry_multiplicity
 _atom_site_fract_x
 _atom_site_fract_y
 _atom_site_fract_z
 _atom_site_occupancy
  Ca  Ca0  1  0.250000  0.072500  0.840467  1
  Ca  Ca1  1  0.750000  0.927401  0.159469  1
  Ca  Ca2  1  0.750000  0.572709  0.659520  1
  Ca  Ca3  1  0.250000  0.427397  0.340422  1
  Mn  Mn4  1  0.250000  0.380525  0.808611  1
  Mn  Mn5  1  0.750000  0.619445  0.191256  1
  Mn  Mn6  1  0.750000  0.880666  0.691317  1
  Mn  Mn7  1  0.250000  0.119382  0.308560  1
  Mn  Mn8  1  0.250000  0.308938  0.026679  1
  Mn  Mn9  1  0.750000  0.691084  0.973425  1
  Mn  Mn10  1  0.750000  0.808989  0.473331  1
  Mn  Mn11  1  0.250000  0.190991  0.526760  1
  Mn  Mn12  1  0.250000  0.531491  0.065830  1
  Mn  Mn13  1  0.750000  0.468554  0.934257  1
  Mn  Mn14  1  0.750000  0.031429  0.434224  1
  Mn  Mn15  1  0.250000  0.968494  0.565872  1
  Ni  Ni16  1  0.250000  0.781670  0.816310  1
  Ni  Ni17  1  0.750000  0.218358  0.183702  1
  Ni  Ni18  1  0.750000  0.281773  0.683659  1
  Ni  Ni19  1  0.250000  0.718197  0.316320  1
  As  As20  1  0.250000  0.583587  0.866981  1
  As  As21  1  0.750000  0.416461  0.133053  1
  As  As22  1  0.750000  0.083534  0.633075  1
  As  As23  1  0.250000  0.916415  0.366948  1
  As  As24  1  0.250000  0.768517  0.617181  1
  As  As25  1  0.750000  0.231621  0.382808  1
  As  As26  1  0.750000  0.268345  0.882668  1
  As  As27  1  0.250000  0.731508  0.117315  1
  As  As28  1  0.250000  0.381706  0.606798  1
  As  As29  1  0.750000  0.618339  0.393188  1
  As  As30  1  0.750000  0.881600  0.893290  1
  As  As31  1  0.250000  0.118377  0.106702  1
