# generated using pymatgen
data_Cs2NbF7
_symmetry_space_group_name_H-M   'P 1'
_cell_length_a   6.21324500
_cell_length_b   6.27998600
_cell_length_c   11.23854500
_cell_angle_alpha   90.00000000
_cell_angle_beta   90.00000000
_cell_angle_gamma   90.00000000
_symmetry_Int_Tables_number   1
_chemical_formula_structural   Cs2NbF7
_chemical_formula_sum   'Cs4 Nb2 F14'
_cell_volume   438.51781697
_cell_formula_units_Z   2
loop_
 _symmetry_equiv_pos_site_id
 _symmetry_equiv_pos_as_xyz
  1  'x, y, z'
loop_
 _atom_site_type_symbol
 _atom_site_label
 _atom_site_symmetry_multiplicity
 _atom_site_fract_x
 _atom_site_fract_y
 _atom_site_fract_z
 _atom_site_occupancy
  Cs  Cs0  1  0.000000  0.500000  0.364366  1
  Cs  Cs1  1  0.500000  0.000000  0.635634  1
  Cs  Cs2  1  0.500000  0.500000  0.997784  1
  Cs  Cs3  1  0.000000  0.000000  0.002216  1
  Nb  Nb4  1  0.000000  0.500000  0.755578  1
  Nb  Nb5  1  0.500000  0.000000  0.244422  1
  F  F6  1  0.208033  0.269345  0.794621  1
  F  F7  1  0.291967  0.230655  0.205379  1
  F  F8  1  0.708033  0.769345  0.205379  1
  F  F9  1  0.791967  0.730655  0.794621  1
  F  F10  1  0.208033  0.730655  0.794621  1
  F  F11  1  0.708033  0.230655  0.205379  1
  F  F12  1  0.291967  0.769345  0.205379  1
  F  F13  1  0.791967  0.269345  0.794621  1
  F  F14  1  0.000000  0.500000  0.938328  1
  F  F15  1  0.500000  0.000000  0.061672  1
  F  F16  1  0.195244  0.500000  0.615428  1
  F  F17  1  0.804756  0.500000  0.615428  1
  F  F18  1  0.304756  0.000000  0.384572  1
  F  F19  1  0.695244  0.000000  0.384572  1
