# generated using pymatgen
data_TaTi5Co16Si6Ge
_symmetry_space_group_name_H-M   'P 1'
_cell_length_a   7.88368152
_cell_length_b   7.88578483
_cell_length_c   7.88492023
_cell_angle_alpha   59.98597728
_cell_angle_beta   59.86622724
_cell_angle_gamma   60.00156658
_symmetry_Int_Tables_number   1
_chemical_formula_structural   TaTi5Co16Si6Ge
_chemical_formula_sum   'Ta1 Ti5 Co16 Si6 Ge1'
_cell_volume   346.23780598
_cell_formula_units_Z   1
loop_
 _symmetry_equiv_pos_site_id
 _symmetry_equiv_pos_as_xyz
  1  'x, y, z'
loop_
 _atom_site_type_symbol
 _atom_site_label
 _atom_site_symmetry_multiplicity
 _atom_site_fract_x
 _atom_site_fract_y
 _atom_site_fract_z
 _atom_site_occupancy
  Ta  Ta0  1  0.697727  0.701256  0.302273  1
  Ti  Ti1  1  0.698474  0.297433  0.301526  1
  Ti  Ti2  1  0.700176  0.299172  0.700913  1
  Ti  Ti3  1  0.300980  0.702286  0.699020  1
  Ti  Ti4  1  0.299087  0.700262  0.299824  1
  Ti  Ti5  1  0.301171  0.296935  0.698829  1
  Co  Co6  1  0.878473  0.885628  0.879379  1
  Co  Co7  1  0.999698  0.331524  0.337838  1
  Co  Co8  1  0.119884  0.118821  0.642432  1
  Co  Co9  1  0.662162  0.669058  0.000302  1
  Co  Co10  1  0.338659  0.330792  0.000738  1
  Co  Co11  1  0.666187  0.667412  0.665919  1
  Co  Co12  1  0.334068  0.332946  0.333176  1
  Co  Co13  1  0.879973  0.881323  0.356914  1
  Co  Co14  1  0.334081  0.999519  0.333813  1
  Co  Co15  1  0.121441  0.113888  0.121728  1
  Co  Co16  1  0.878272  0.357057  0.878559  1
  Co  Co17  1  0.643086  0.118212  0.120027  1
  Co  Co18  1  0.120621  0.643481  0.121527  1
  Co  Co19  1  0.666824  0.000189  0.665932  1
  Co  Co20  1  0.357568  0.881136  0.880116  1
  Co  Co21  1  0.999262  0.670188  0.661341  1
  Si  Si22  1  0.500158  0.500543  0.999718  1
  Si  Si23  1  0.000612  0.000447  0.999388  1
  Si  Si24  1  0.498363  0.001768  0.501637  1
  Si  Si25  1  0.000282  0.000419  0.499842  1
  Si  Si26  1  0.001658  0.498517  0.501395  1
  Si  Si27  1  0.498605  0.001570  0.998342  1
  Ge  Ge28  1  0.002451  0.498220  0.997549  1
