# generated using pymatgen
data_HoEr5Tm2(Sc3Si4)4
_symmetry_space_group_name_H-M   'P 1'
_cell_length_a   7.06513600
_cell_length_b   7.35491821
_cell_length_c   13.93520801
_cell_angle_alpha   90.01021861
_cell_angle_beta   89.99843705
_cell_angle_gamma   90.01045649
_symmetry_Int_Tables_number   1
_chemical_formula_structural   HoEr5Tm2(Sc3Si4)4
_chemical_formula_sum   'Ho1 Er5 Tm2 Sc12 Si16'
_cell_volume   724.12212203
_cell_formula_units_Z   1
loop_
 _symmetry_equiv_pos_site_id
 _symmetry_equiv_pos_as_xyz
  1  'x, y, z'
loop_
 _atom_site_type_symbol
 _atom_site_label
 _atom_site_symmetry_multiplicity
 _atom_site_fract_x
 _atom_site_fract_y
 _atom_site_fract_z
 _atom_site_occupancy
  Ho  Ho0  1  0.012008  0.175736  0.096414  1
  Er  Er1  1  0.988013  0.823991  0.596676  1
  Er  Er2  1  0.512002  0.324226  0.096621  1
  Er  Er3  1  0.011989  0.175992  0.403169  1
  Er  Er4  1  0.511987  0.324030  0.403337  1
  Er  Er5  1  0.487974  0.676008  0.596654  1
  Tm  Tm6  1  0.987908  0.823729  0.903073  1
  Tm  Tm7  1  0.488071  0.676230  0.903114  1
  Sc  Sc8  1  0.160664  0.503190  0.750074  1
  Sc  Sc9  1  0.839308  0.497063  0.250051  1
  Sc  Sc10  1  0.339441  0.002865  0.250045  1
  Sc  Sc11  1  0.660675  0.996767  0.750097  1
  Sc  Sc12  1  0.330760  0.176864  0.625300  1
  Sc  Sc13  1  0.669204  0.823049  0.374841  1
  Sc  Sc14  1  0.169248  0.676904  0.374868  1
  Sc  Sc15  1  0.668995  0.822924  0.125173  1
  Sc  Sc16  1  0.830713  0.323107  0.625287  1
  Sc  Sc17  1  0.330890  0.176846  0.874847  1
  Sc  Sc18  1  0.830664  0.323298  0.874850  1
  Sc  Sc19  1  0.169156  0.676833  0.125146  1
  Si  Si20  1  0.032909  0.114922  0.750139  1
  Si  Si21  1  0.966879  0.884481  0.250040  1
  Si  Si22  1  0.466954  0.615172  0.250005  1
  Si  Si23  1  0.532907  0.385171  0.750109  1
  Si  Si24  1  0.285110  0.871561  0.750360  1
  Si  Si25  1  0.714509  0.128005  0.250167  1
  Si  Si26  1  0.214968  0.372110  0.250142  1
  Si  Si27  1  0.785155  0.628482  0.750351  1
  Si  Si28  1  0.158813  0.464991  0.539470  1
  Si  Si29  1  0.841195  0.534867  0.460581  1
  Si  Si30  1  0.341063  0.965145  0.460623  1
  Si  Si31  1  0.840933  0.535667  0.039141  1
  Si  Si32  1  0.658809  0.034962  0.539464  1
  Si  Si33  1  0.159329  0.466004  0.960231  1
  Si  Si34  1  0.659092  0.034315  0.960348  1
  Si  Si35  1  0.341712  0.964491  0.039193  1
