# generated using pymatgen
data_Lu16Mg4Co3As
_symmetry_space_group_name_H-M   'P 1'
_cell_length_a   9.49504226
_cell_length_b   9.49504241
_cell_length_c   9.49504300
_cell_angle_alpha   58.49430293
_cell_angle_beta   58.49430235
_cell_angle_gamma   58.49429687
_symmetry_Int_Tables_number   1
_chemical_formula_structural   Lu16Mg4Co3As
_chemical_formula_sum   'Lu16 Mg4 Co3 As1'
_cell_volume   584.45711039
_cell_formula_units_Z   1
loop_
 _symmetry_equiv_pos_site_id
 _symmetry_equiv_pos_as_xyz
  1  'x, y, z'
loop_
 _atom_site_type_symbol
 _atom_site_label
 _atom_site_symmetry_multiplicity
 _atom_site_fract_x
 _atom_site_fract_y
 _atom_site_fract_z
 _atom_site_occupancy
  Lu  Lu0  1  0.434747  0.434747  0.048522  1
  Lu  Lu1  1  0.592746  0.592746  0.592746  1
  Lu  Lu2  1  0.185273  0.816118  0.816118  1
  Lu  Lu3  1  0.062797  0.062797  0.435607  1
  Lu  Lu4  1  0.435607  0.062797  0.062797  1
  Lu  Lu5  1  0.816118  0.185273  0.816118  1
  Lu  Lu6  1  0.434747  0.048522  0.434747  1
  Lu  Lu7  1  0.604414  0.215948  0.604414  1
  Lu  Lu8  1  0.816118  0.816118  0.185273  1
  Lu  Lu9  1  0.215948  0.604414  0.604414  1
  Lu  Lu10  1  0.811574  0.188028  0.188028  1
  Lu  Lu11  1  0.048522  0.434747  0.434747  1
  Lu  Lu12  1  0.188028  0.811574  0.188028  1
  Lu  Lu13  1  0.604414  0.604414  0.215948  1
  Lu  Lu14  1  0.188028  0.188028  0.811574  1
  Lu  Lu15  1  0.062797  0.435607  0.062797  1
  Mg  Mg16  1  0.828784  0.828784  0.511110  1
  Mg  Mg17  1  0.829802  0.829802  0.829802  1
  Mg  Mg18  1  0.511110  0.828784  0.828784  1
  Mg  Mg19  1  0.828784  0.511110  0.828784  1
  Co  Co20  1  0.827041  0.391364  0.391364  1
  Co  Co21  1  0.391364  0.827041  0.391364  1
  Co  Co22  1  0.391364  0.391364  0.827041  1
  As  As23  1  0.389869  0.389869  0.389869  1
