# generated using pymatgen
data_Er3Tm3Sc2(Co4P3)4
_symmetry_space_group_name_H-M   'P 1'
_cell_length_a   3.70524300
_cell_length_b   10.62779400
_cell_length_c   12.30772300
_cell_angle_alpha   90.00047487
_cell_angle_beta   90.00000000
_cell_angle_gamma   90.00000000
_symmetry_Int_Tables_number   1
_chemical_formula_structural   Er3Tm3Sc2(Co4P3)4
_chemical_formula_sum   'Er3 Tm3 Sc2 Co16 P12'
_cell_volume   484.66040029
_cell_formula_units_Z   1
loop_
 _symmetry_equiv_pos_site_id
 _symmetry_equiv_pos_as_xyz
  1  'x, y, z'
loop_
 _atom_site_type_symbol
 _atom_site_label
 _atom_site_symmetry_multiplicity
 _atom_site_fract_x
 _atom_site_fract_y
 _atom_site_fract_z
 _atom_site_occupancy
  Er  Er0  1  0.000000  0.500079  0.528302  1
  Er  Er1  1  0.500000  0.000072  0.471995  1
  Er  Er2  1  0.500000  0.823021  0.205617  1
  Tm  Tm3  1  0.500000  0.177086  0.205462  1
  Tm  Tm4  1  0.000000  0.676970  0.794572  1
  Tm  Tm5  1  0.000000  0.322899  0.794396  1
  Sc  Sc6  1  0.500000  0.499880  0.157702  1
  Sc  Sc7  1  0.000000  0.999932  0.842156  1
  Co  Co8  1  0.500000  0.499898  0.705505  1
  Co  Co9  1  0.000000  0.000451  0.294702  1
  Co  Co10  1  0.000000  0.499839  0.987458  1
  Co  Co11  1  0.500000  0.000184  0.012159  1
  Co  Co12  1  0.500000  0.331130  0.994536  1
  Co  Co13  1  0.500000  0.668706  0.994413  1
  Co  Co14  1  0.000000  0.168865  0.005129  1
  Co  Co15  1  0.000000  0.831246  0.005131  1
  Co  Co16  1  0.500000  0.295384  0.433125  1
  Co  Co17  1  0.500000  0.704616  0.433457  1
  Co  Co18  1  0.000000  0.204754  0.566968  1
  Co  Co19  1  0.000000  0.795291  0.567248  1
  Co  Co20  1  0.500000  0.877180  0.702874  1
  Co  Co21  1  0.500000  0.122764  0.702699  1
  Co  Co22  1  0.000000  0.622575  0.297464  1
  Co  Co23  1  0.000000  0.377173  0.297108  1
  P  P24  1  0.500000  0.499866  0.885139  1
  P  P25  1  0.000000  0.000345  0.114573  1
  P  P26  1  0.500000  0.500078  0.361098  1
  P  P27  1  0.000000  0.000035  0.638874  1
  P  P28  1  0.500000  0.310618  0.616244  1
  P  P29  1  0.500000  0.689312  0.616475  1
  P  P30  1  0.000000  0.189519  0.383801  1
  P  P31  1  0.000000  0.810536  0.384250  1
  P  P32  1  0.500000  0.838604  0.891622  1
  P  P33  1  0.500000  0.161363  0.891465  1
  P  P34  1  0.000000  0.661158  0.108001  1
  P  P35  1  0.000000  0.338570  0.108277  1
