# generated using pymatgen
data_CsLiS2O7
_symmetry_space_group_name_H-M   'P 1'
_cell_length_a   5.48919965
_cell_length_b   8.12760781
_cell_length_c   8.27301526
_cell_angle_alpha   99.29428176
_cell_angle_beta   91.97307294
_cell_angle_gamma   94.39359511
_symmetry_Int_Tables_number   1
_chemical_formula_structural   CsLiS2O7
_chemical_formula_sum   'Cs2 Li2 S4 O14'
_cell_volume   362.76584111
_cell_formula_units_Z   2
loop_
 _symmetry_equiv_pos_site_id
 _symmetry_equiv_pos_as_xyz
  1  'x, y, z'
loop_
 _atom_site_type_symbol
 _atom_site_label
 _atom_site_symmetry_multiplicity
 _atom_site_fract_x
 _atom_site_fract_y
 _atom_site_fract_z
 _atom_site_occupancy
  Cs  Cs0  1  0.209486  0.778002  0.417271  1
  Cs  Cs1  1  0.790514  0.221998  0.582729  1
  Li  Li2  1  0.205367  0.598204  0.891930  1
  Li  Li3  1  0.794633  0.401796  0.108070  1
  S  S4  1  0.719224  0.719185  0.729383  1
  S  S5  1  0.692077  0.773662  0.081831  1
  S  S6  1  0.307923  0.226338  0.918169  1
  S  S7  1  0.280776  0.280815  0.270617  1
  O  O8  1  0.738777  0.848103  0.907938  1
  O  O9  1  0.566505  0.286938  0.927710  1
  O  O10  1  0.857820  0.639098  0.079456  1
  O  O11  1  0.508960  0.387033  0.274457  1
  O  O12  1  0.261223  0.151897  0.092062  1
  O  O13  1  0.433495  0.713062  0.072290  1
  O  O14  1  0.142180  0.360902  0.920544  1
  O  O15  1  0.491040  0.612967  0.725543  1
  O  O16  1  0.061499  0.373517  0.273669  1
  O  O17  1  0.279245  0.163890  0.386486  1
  O  O18  1  0.241625  0.081636  0.794377  1
  O  O19  1  0.720755  0.836110  0.613514  1
  O  O20  1  0.938501  0.626483  0.726331  1
  O  O21  1  0.758375  0.918364  0.205623  1
