# generated using pymatgen
data_Tm6Nb3Al13Os7
_symmetry_space_group_name_H-M   'P 1'
_cell_length_a   9.01007918
_cell_length_b   9.01007994
_cell_length_c   9.01007868
_cell_angle_alpha   59.72186275
_cell_angle_beta   59.72186049
_cell_angle_gamma   59.72186302
_symmetry_Int_Tables_number   1
_chemical_formula_structural   Tm6Nb3Al13Os7
_chemical_formula_sum   'Tm6 Nb3 Al13 Os7'
_cell_volume   513.94741699
_cell_formula_units_Z   1
loop_
 _symmetry_equiv_pos_site_id
 _symmetry_equiv_pos_as_xyz
  1  'x, y, z'
loop_
 _atom_site_type_symbol
 _atom_site_label
 _atom_site_symmetry_multiplicity
 _atom_site_fract_x
 _atom_site_fract_y
 _atom_site_fract_z
 _atom_site_occupancy
  Tm  Tm0  1  0.710562  0.710562  0.282099  1
  Tm  Tm1  1  0.292892  0.709253  0.292892  1
  Tm  Tm2  1  0.709253  0.292892  0.292892  1
  Tm  Tm3  1  0.292892  0.292892  0.709253  1
  Tm  Tm4  1  0.710562  0.282099  0.710562  1
  Tm  Tm5  1  0.282099  0.710562  0.710562  1
  Nb  Nb6  1  0.877348  0.877348  0.361787  1
  Nb  Nb7  1  0.877348  0.361787  0.877348  1
  Nb  Nb8  1  0.361787  0.877348  0.877348  1
  Al  Al9  1  0.881242  0.881242  0.881242  1
  Al  Al10  1  0.120926  0.120926  0.639510  1
  Al  Al11  1  0.120926  0.639510  0.120926  1
  Al  Al12  1  0.639510  0.120926  0.120926  1
  Al  Al13  1  0.120792  0.120792  0.120792  1
  Al  Al14  1  0.669957  0.669957  0.995251  1
  Al  Al15  1  0.669957  0.995251  0.669957  1
  Al  Al16  1  0.995251  0.669957  0.669957  1
  Al  Al17  1  0.664960  0.664960  0.664960  1
  Al  Al18  1  0.331948  0.331948  0.006431  1
  Al  Al19  1  0.331948  0.006431  0.331948  1
  Al  Al20  1  0.006431  0.331948  0.331948  1
  Al  Al21  1  0.332347  0.332347  0.332347  1
  Os  Os22  1  0.001992  0.001992  0.001992  1
  Os  Os23  1  0.998840  0.998840  0.498232  1
  Os  Os24  1  0.502151  0.996854  0.502151  1
  Os  Os25  1  0.996854  0.502151  0.502151  1
  Os  Os26  1  0.502151  0.502151  0.996854  1
  Os  Os27  1  0.998840  0.498232  0.998840  1
  Os  Os28  1  0.498232  0.998840  0.998840  1
