# generated using pymatgen
data_B3Ir3RhAu2
_symmetry_space_group_name_H-M   'P 1'
_cell_length_a   14.18957729
_cell_length_b   14.18957816
_cell_length_c   2.79227200
_cell_angle_alpha   90.00000000
_cell_angle_beta   90.00000000
_cell_angle_gamma   168.15253308
_symmetry_Int_Tables_number   1
_chemical_formula_structural   B3Ir3RhAu2
_chemical_formula_sum   'B3 Ir3 Rh1 Au2'
_cell_volume   115.42510257
_cell_formula_units_Z   1
loop_
 _symmetry_equiv_pos_site_id
 _symmetry_equiv_pos_as_xyz
  1  'x, y, z'
loop_
 _atom_site_type_symbol
 _atom_site_label
 _atom_site_symmetry_multiplicity
 _atom_site_fract_x
 _atom_site_fract_y
 _atom_site_fract_z
 _atom_site_occupancy
  B  B0  1  0.393348  0.606652  0.500000  1
  B  B1  1  0.603105  0.396895  0.000000  1
  B  B2  1  0.991161  0.008839  0.500000  1
  Ir  Ir3  1  0.864336  0.135664  0.000000  1
  Ir  Ir4  1  0.545035  0.454965  0.500000  1
  Ir  Ir5  1  0.455919  0.544081  0.000000  1
  Rh  Rh6  1  0.134429  0.865571  0.500000  1
  Au  Au7  1  0.286576  0.713424  0.500000  1
  Au  Au8  1  0.710091  0.289909  0.000000  1
