# generated using pymatgen
data_ErTh3(B10Ir)2
_symmetry_space_group_name_H-M   'P 1'
_cell_length_a   4.19742000
_cell_length_b   5.71684121
_cell_length_c   11.43658041
_cell_angle_alpha   89.96930064
_cell_angle_beta   90.00000000
_cell_angle_gamma   90.00000000
_symmetry_Int_Tables_number   1
_chemical_formula_structural   ErTh3(B10Ir)2
_chemical_formula_sum   'Er1 Th3 B20 Ir2'
_cell_volume   274.43195671
_cell_formula_units_Z   1
loop_
 _symmetry_equiv_pos_site_id
 _symmetry_equiv_pos_as_xyz
  1  'x, y, z'
loop_
 _atom_site_type_symbol
 _atom_site_label
 _atom_site_symmetry_multiplicity
 _atom_site_fract_x
 _atom_site_fract_y
 _atom_site_fract_z
 _atom_site_occupancy
  Er  Er0  1  0.500000  0.299350  0.863668  1
  Th  Th1  1  0.500000  0.705426  0.134884  1
  Th  Th2  1  0.500000  0.797104  0.636040  1
  Th  Th3  1  0.500000  0.202962  0.363491  1
  B  B4  1  0.000000  0.118206  0.543772  1
  B  B5  1  0.000000  0.882895  0.457005  1
  B  B6  1  0.000000  0.618105  0.956473  1
  B  B7  1  0.000000  0.381990  0.042222  1
  B  B8  1  0.000000  0.136470  0.697949  1
  B  B9  1  0.000000  0.863476  0.302382  1
  B  B10  1  0.301594  0.216724  0.118508  1
  B  B11  1  0.302076  0.778584  0.881250  1
  B  B12  1  0.697844  0.716854  0.380658  1
  B  B13  1  0.697561  0.282519  0.621497  1
  B  B14  1  0.697924  0.778584  0.881250  1
  B  B15  1  0.698406  0.216724  0.118508  1
  B  B16  1  0.302439  0.282519  0.621497  1
  B  B17  1  0.302156  0.716854  0.380658  1
  B  B18  1  0.000000  0.053934  0.192312  1
  B  B19  1  0.000000  0.946452  0.807545  1
  B  B20  1  0.000000  0.553721  0.306536  1
  B  B21  1  0.000000  0.445756  0.694016  1
  B  B22  1  0.000000  0.363602  0.196462  1
  B  B23  1  0.000000  0.637919  0.802553  1
  Ir  Ir24  1  0.000000  0.500395  0.501140  1
  Ir  Ir25  1  0.000000  0.002874  0.997726  1
