# generated using pymatgen
data_MgZnCu3SbO6
_symmetry_space_group_name_H-M   'P 1'
_cell_length_a   5.43525784
_cell_length_b   5.43525853
_cell_length_c   6.08443548
_cell_angle_alpha   81.42409893
_cell_angle_beta   81.42408705
_cell_angle_gamma   120.09591538
_symmetry_Int_Tables_number   1
_chemical_formula_structural   MgZnCu3SbO6
_chemical_formula_sum   'Mg1 Zn1 Cu3 Sb1 O6'
_cell_volume   148.41609982
_cell_formula_units_Z   1
loop_
 _symmetry_equiv_pos_site_id
 _symmetry_equiv_pos_as_xyz
  1  'x, y, z'
loop_
 _atom_site_type_symbol
 _atom_site_label
 _atom_site_symmetry_multiplicity
 _atom_site_fract_x
 _atom_site_fract_y
 _atom_site_fract_z
 _atom_site_occupancy
  Mg  Mg0  1  0.333167  0.666832  0.000000  1
  Zn  Zn1  1  0.666651  0.333348  0.000000  1
  Cu  Cu2  1  0.843923  0.156076  0.500000  1
  Cu  Cu3  1  0.499786  0.500212  0.500000  1
  Cu  Cu4  1  0.156635  0.843364  0.500000  1
  Sb  Sb5  1  0.999971  0.000029  0.000000  1
  O  O6  1  0.618109  0.622221  0.180314  1
  O  O7  1  0.256654  0.935356  0.180419  1
  O  O8  1  0.943679  0.261001  0.180271  1
  O  O9  1  0.064645  0.743347  0.819582  1
  O  O10  1  0.739000  0.056322  0.819730  1
  O  O11  1  0.377780  0.381892  0.819686  1
