# generated using pymatgen
data_Lu6Fe4Si5Ge
_symmetry_space_group_name_H-M   'P 1'
_cell_length_a   5.51490427
_cell_length_b   5.51490298
_cell_length_c   13.37997200
_cell_angle_alpha   90.00000000
_cell_angle_beta   90.00000000
_cell_angle_gamma   137.01777720
_symmetry_Int_Tables_number   1
_chemical_formula_structural   Lu6Fe4Si5Ge
_chemical_formula_sum   'Lu6 Fe4 Si5 Ge1'
_cell_volume   277.44049078
_cell_formula_units_Z   1
loop_
 _symmetry_equiv_pos_site_id
 _symmetry_equiv_pos_as_xyz
  1  'x, y, z'
loop_
 _atom_site_type_symbol
 _atom_site_label
 _atom_site_symmetry_multiplicity
 _atom_site_fract_x
 _atom_site_fract_y
 _atom_site_fract_z
 _atom_site_occupancy
  Lu  Lu0  1  0.638040  0.361960  0.250000  1
  Lu  Lu1  1  0.363211  0.636789  0.750000  1
  Lu  Lu2  1  0.920825  0.079175  0.109880  1
  Lu  Lu3  1  0.079881  0.920119  0.887206  1
  Lu  Lu4  1  0.079881  0.920119  0.612794  1
  Lu  Lu5  1  0.920825  0.079175  0.390120  1
  Fe  Fe6  1  0.785973  0.214027  0.582037  1
  Fe  Fe7  1  0.211576  0.788424  0.421087  1
  Fe  Fe8  1  0.211576  0.788424  0.078913  1
  Fe  Fe9  1  0.785973  0.214027  0.917963  1
  Si  Si10  1  0.672613  0.327387  0.750000  1
  Si  Si11  1  0.620793  0.379207  0.038756  1
  Si  Si12  1  0.377567  0.622433  0.959757  1
  Si  Si13  1  0.377567  0.622433  0.540243  1
  Si  Si14  1  0.620793  0.379207  0.461244  1
  Ge  Ge15  1  0.332905  0.667095  0.250000  1
