# generated using pymatgen
data_Tb5ErTi2(Co4P3)4
_symmetry_space_group_name_H-M   'P 1'
_cell_length_a   3.69781700
_cell_length_b   10.60021400
_cell_length_c   12.29482000
_cell_angle_alpha   90.00154652
_cell_angle_beta   90.00000000
_cell_angle_gamma   90.00000000
_symmetry_Int_Tables_number   1
_chemical_formula_structural   Tb5ErTi2(Co4P3)4
_chemical_formula_sum   'Tb5 Er1 Ti2 Co16 P12'
_cell_volume   481.92806993
_cell_formula_units_Z   1
loop_
 _symmetry_equiv_pos_site_id
 _symmetry_equiv_pos_as_xyz
  1  'x, y, z'
loop_
 _atom_site_type_symbol
 _atom_site_label
 _atom_site_symmetry_multiplicity
 _atom_site_fract_x
 _atom_site_fract_y
 _atom_site_fract_z
 _atom_site_occupancy
  Tb  Tb0  1  0.000000  0.500040  0.525092  1
  Tb  Tb1  1  0.500000  0.999869  0.474797  1
  Tb  Tb2  1  0.500000  0.179826  0.204257  1
  Tb  Tb3  1  0.000000  0.680287  0.795648  1
  Tb  Tb4  1  0.000000  0.319699  0.795916  1
  Er  Er5  1  0.500000  0.819991  0.203920  1
  Ti  Ti6  1  0.500000  0.500331  0.153352  1
  Ti  Ti7  1  0.000000  0.999918  0.846529  1
  Co  Co8  1  0.500000  0.500138  0.702559  1
  Co  Co9  1  0.000000  0.998861  0.297009  1
  Co  Co10  1  0.000000  0.500438  0.987711  1
  Co  Co11  1  0.500000  0.999517  0.013118  1
  Co  Co12  1  0.500000  0.332287  0.994256  1
  Co  Co13  1  0.500000  0.668134  0.994680  1
  Co  Co14  1  0.000000  0.167279  0.006213  1
  Co  Co15  1  0.000000  0.832222  0.006527  1
  Co  Co16  1  0.500000  0.295695  0.431805  1
  Co  Co17  1  0.500000  0.704453  0.431106  1
  Co  Co18  1  0.000000  0.204077  0.568141  1
  Co  Co19  1  0.000000  0.795894  0.567664  1
  Co  Co20  1  0.500000  0.878887  0.705851  1
  Co  Co21  1  0.500000  0.121130  0.706121  1
  Co  Co22  1  0.000000  0.622050  0.293333  1
  Co  Co23  1  0.000000  0.378962  0.294053  1
  P  P24  1  0.500000  0.500216  0.883867  1
  P  P25  1  0.000000  0.998997  0.116997  1
  P  P26  1  0.500000  0.499925  0.352481  1
  P  P27  1  0.000000  0.999996  0.647417  1
  P  P28  1  0.500000  0.309811  0.615636  1
  P  P29  1  0.500000  0.690380  0.615227  1
  P  P30  1  0.000000  0.189861  0.384326  1
  P  P31  1  0.000000  0.810063  0.383199  1
  P  P32  1  0.500000  0.843083  0.892454  1
  P  P33  1  0.500000  0.156727  0.892762  1
  P  P34  1  0.000000  0.657838  0.108369  1
  P  P35  1  0.000000  0.343114  0.107609  1
