# generated using pymatgen
data_Hf8Co7Si14Ir
_symmetry_space_group_name_H-M   'P 1'
_cell_length_a   9.47711414
_cell_length_b   9.47538277
_cell_length_c   9.47476373
_cell_angle_alpha   94.15611730
_cell_angle_beta   94.16509188
_cell_angle_gamma   148.74988545
_symmetry_Int_Tables_number   1
_chemical_formula_structural   Hf8Co7Si14Ir
_chemical_formula_sum   'Hf8 Co7 Si14 Ir1'
_cell_volume   425.07260030
_cell_formula_units_Z   1
loop_
 _symmetry_equiv_pos_site_id
 _symmetry_equiv_pos_as_xyz
  1  'x, y, z'
loop_
 _atom_site_type_symbol
 _atom_site_label
 _atom_site_symmetry_multiplicity
 _atom_site_fract_x
 _atom_site_fract_y
 _atom_site_fract_z
 _atom_site_occupancy
  Hf  Hf0  1  0.137056  0.137062  0.274115  1
  Hf  Hf1  1  0.862497  0.862502  0.724998  1
  Hf  Hf2  1  0.135364  0.861681  0.999331  1
  Hf  Hf3  1  0.863972  0.137653  0.999331  1
  Hf  Hf4  1  0.303874  0.498204  0.802961  1
  Hf  Hf5  1  0.695854  0.501310  0.195566  1
  Hf  Hf6  1  0.499723  0.694262  0.195576  1
  Hf  Hf7  1  0.499097  0.304765  0.802973  1
  Co  Co8  1  0.396230  0.896233  0.792462  1
  Co  Co9  1  0.898792  0.101349  0.502159  1
  Co  Co10  1  0.603372  0.400809  0.502159  1
  Co  Co11  1  0.602046  0.102046  0.204075  1
  Co  Co12  1  0.898421  0.398422  0.796838  1
  Co  Co13  1  0.102660  0.899135  0.500274  1
  Co  Co14  1  0.397616  0.601136  0.500271  1
  Si  Si15  1  0.290233  0.290224  0.580471  1
  Si  Si16  1  0.709688  0.709681  0.419354  1
  Si  Si17  1  0.301682  0.718500  0.993982  1
  Si  Si18  1  0.692302  0.275486  0.993984  1
  Si  Si19  1  0.092771  0.500406  0.591837  1
  Si  Si20  1  0.896099  0.490733  0.414275  1
  Si  Si21  1  0.518177  0.923552  0.414275  1
  Si  Si22  1  0.499060  0.091434  0.591836  1
  Si  Si23  1  0.251150  0.251429  0.999560  1
  Si  Si24  1  0.748412  0.748132  0.999559  1
  Si  Si25  1  0.307121  0.013406  0.301461  1
  Si  Si26  1  0.700129  0.999967  0.700406  1
  Si  Si27  1  0.000282  0.700444  0.700399  1
  Si  Si28  1  0.994328  0.288043  0.301452  1
  Ir  Ir29  1  0.101992  0.601993  0.204056  1
