# generated using pymatgen
data_YbNp6PaH24
_symmetry_space_group_name_H-M   'P 1'
_cell_length_a   6.70354400
_cell_length_b   6.63494600
_cell_length_c   6.61115400
_cell_angle_alpha   90.00000000
_cell_angle_beta   90.00000000
_cell_angle_gamma   90.00000000
_symmetry_Int_Tables_number   1
_chemical_formula_structural   YbNp6PaH24
_chemical_formula_sum   'Yb1 Np6 Pa1 H24'
_cell_volume   294.04860990
_cell_formula_units_Z   1
loop_
 _symmetry_equiv_pos_site_id
 _symmetry_equiv_pos_as_xyz
  1  'x, y, z'
loop_
 _atom_site_type_symbol
 _atom_site_label
 _atom_site_symmetry_multiplicity
 _atom_site_fract_x
 _atom_site_fract_y
 _atom_site_fract_z
 _atom_site_occupancy
  Yb  Yb0  1  0.246478  0.000000  0.500000  1
  Np  Np1  1  0.999771  0.000000  0.000000  1
  Np  Np2  1  0.751103  0.000000  0.500000  1
  Np  Np3  1  0.001105  0.500000  0.250141  1
  Np  Np4  1  0.001105  0.500000  0.749859  1
  Np  Np5  1  0.498953  0.753536  0.000000  1
  Np  Np6  1  0.498953  0.246464  0.000000  1
  Pa  Pa7  1  0.500969  0.500000  0.500000  1
  H  H8  1  0.991220  0.156732  0.301277  1
  H  H9  1  0.507942  0.202317  0.655602  1
  H  H10  1  0.507942  0.797683  0.344398  1
  H  H11  1  0.801108  0.654530  0.500000  1
  H  H12  1  0.199169  0.647803  0.500000  1
  H  H13  1  0.344019  0.500000  0.801325  1
  H  H14  1  0.655244  0.500000  0.801770  1
  H  H15  1  0.306914  0.000000  0.149003  1
  H  H16  1  0.156763  0.303523  0.000000  1
  H  H17  1  0.844602  0.695032  0.000000  1
  H  H18  1  0.306914  0.000000  0.850997  1
  H  H19  1  0.844602  0.304968  0.000000  1
  H  H20  1  0.694640  0.000000  0.154613  1
  H  H21  1  0.694640  0.000000  0.845387  1
  H  H22  1  0.156763  0.696477  0.000000  1
  H  H23  1  0.991220  0.843268  0.698723  1
  H  H24  1  0.991220  0.156732  0.698723  1
  H  H25  1  0.991220  0.843268  0.301277  1
  H  H26  1  0.655244  0.500000  0.198230  1
  H  H27  1  0.344019  0.500000  0.198675  1
  H  H28  1  0.801108  0.345470  0.500000  1
  H  H29  1  0.199169  0.352197  0.500000  1
  H  H30  1  0.507942  0.797683  0.655602  1
  H  H31  1  0.507942  0.202317  0.344398  1
