# generated using pymatgen
data_Tm3Lu5(ReB6)4
_symmetry_space_group_name_H-M   'P 1'
_cell_length_a   3.62826500
_cell_length_b   9.07806800
_cell_length_c   11.43590100
_cell_angle_alpha   90.00098329
_cell_angle_beta   90.00000000
_cell_angle_gamma   90.00000000
_symmetry_Int_Tables_number   1
_chemical_formula_structural   Tm3Lu5(ReB6)4
_chemical_formula_sum   'Tm3 Lu5 Re4 B24'
_cell_volume   376.67154893
_cell_formula_units_Z   1
loop_
 _symmetry_equiv_pos_site_id
 _symmetry_equiv_pos_as_xyz
  1  'x, y, z'
loop_
 _atom_site_type_symbol
 _atom_site_label
 _atom_site_symmetry_multiplicity
 _atom_site_fract_x
 _atom_site_fract_y
 _atom_site_fract_z
 _atom_site_occupancy
  Tm  Tm0  1  0.000000  0.323115  0.413765  1
  Tm  Tm1  1  0.000000  0.676840  0.586314  1
  Tm  Tm2  1  0.000000  0.823185  0.086195  1
  Lu  Lu3  1  0.000000  0.176672  0.913751  1
  Lu  Lu4  1  0.000000  0.943745  0.370411  1
  Lu  Lu5  1  0.000000  0.056294  0.629659  1
  Lu  Lu6  1  0.000000  0.443610  0.129343  1
  Lu  Lu7  1  0.000000  0.556324  0.870545  1
  Re  Re8  1  0.000000  0.639335  0.320187  1
  Re  Re9  1  0.000000  0.360473  0.680058  1
  Re  Re10  1  0.000000  0.139318  0.179442  1
  Re  Re11  1  0.000000  0.861000  0.820451  1
  B  B12  1  0.500000  0.553263  0.433319  1
  B  B13  1  0.500000  0.446613  0.566801  1
  B  B14  1  0.500000  0.053430  0.066350  1
  B  B15  1  0.500000  0.947019  0.933363  1
  B  B16  1  0.500000  0.750809  0.419319  1
  B  B17  1  0.500000  0.249171  0.580843  1
  B  B18  1  0.500000  0.250704  0.080204  1
  B  B19  1  0.500000  0.749344  0.919324  1
  B  B20  1  0.500000  0.793609  0.265078  1
  B  B21  1  0.500000  0.206271  0.735229  1
  B  B22  1  0.500000  0.293555  0.234631  1
  B  B23  1  0.500000  0.706490  0.765182  1
  B  B24  1  0.500000  0.630601  0.184444  1
  B  B25  1  0.500000  0.369105  0.815797  1
  B  B26  1  0.500000  0.130680  0.315355  1
  B  B27  1  0.500000  0.869511  0.684637  1
  B  B28  1  0.500000  0.981537  0.212142  1
  B  B29  1  0.500000  0.018874  0.787932  1
  B  B30  1  0.500000  0.481391  0.287601  1
  B  B31  1  0.500000  0.518435  0.712454  1
  B  B32  1  0.500000  0.598940  0.027518  1
  B  B33  1  0.500000  0.400643  0.972309  1
  B  B34  1  0.500000  0.098953  0.472478  1
  B  B35  1  0.500000  0.901144  0.527569  1
