# generated using pymatgen
data_Yb12FeSi8Pt7
_symmetry_space_group_name_H-M   'P 1'
_cell_length_a   5.62722406
_cell_length_b   8.00377337
_cell_length_c   13.13570800
_cell_angle_alpha   89.94387660
_cell_angle_beta   89.87191171
_cell_angle_gamma   90.07845427
_symmetry_Int_Tables_number   1
_chemical_formula_structural   Yb12FeSi8Pt7
_chemical_formula_sum   'Yb12 Fe1 Si8 Pt7'
_cell_volume   591.61717653
_cell_formula_units_Z   1
loop_
 _symmetry_equiv_pos_site_id
 _symmetry_equiv_pos_as_xyz
  1  'x, y, z'
loop_
 _atom_site_type_symbol
 _atom_site_label
 _atom_site_symmetry_multiplicity
 _atom_site_fract_x
 _atom_site_fract_y
 _atom_site_fract_z
 _atom_site_occupancy
  Yb  Yb0  1  0.639082  0.241280  0.248957  1
  Yb  Yb1  1  0.358183  0.755255  0.751837  1
  Yb  Yb2  1  0.348861  0.743473  0.248616  1
  Yb  Yb3  1  0.645316  0.256422  0.751130  1
  Yb  Yb4  1  0.135363  0.387958  0.101236  1
  Yb  Yb5  1  0.867642  0.612036  0.898559  1
  Yb  Yb6  1  0.862207  0.611401  0.603296  1
  Yb  Yb7  1  0.860058  0.884288  0.397455  1
  Yb  Yb8  1  0.135191  0.389945  0.395869  1
  Yb  Yb9  1  0.137405  0.112409  0.602440  1
  Yb  Yb10  1  0.142711  0.113062  0.898326  1
  Yb  Yb11  1  0.864411  0.887595  0.100772  1
  Fe  Fe12  1  0.625762  0.528262  0.087632  1
  Si  Si13  1  0.150980  0.094025  0.250692  1
  Si  Si14  1  0.844254  0.904063  0.750741  1
  Si  Si15  1  0.825814  0.590220  0.242356  1
  Si  Si16  1  0.158466  0.403965  0.749988  1
  Si  Si17  1  0.613566  0.258495  0.004966  1
  Si  Si18  1  0.405306  0.744404  0.004136  1
  Si  Si19  1  0.391722  0.751063  0.500436  1
  Si  Si20  1  0.606717  0.250287  0.500055  1
  Pt  Pt21  1  0.367605  0.027128  0.092369  1
  Pt  Pt22  1  0.636778  0.979465  0.910105  1
  Pt  Pt23  1  0.633300  0.972233  0.590924  1
  Pt  Pt24  1  0.632178  0.528901  0.407790  1
  Pt  Pt25  1  0.368054  0.028235  0.409204  1
  Pt  Pt26  1  0.367282  0.472352  0.589815  1
  Pt  Pt27  1  0.375786  0.471772  0.910301  1
