# generated using pymatgen
data_Ca20Tl3(Ag2Ir)3
_symmetry_space_group_name_H-M   'P 1'
_cell_length_a   7.95274878
_cell_length_b   7.95858086
_cell_length_c   14.86982600
_cell_angle_alpha   90.02314558
_cell_angle_beta   90.03838571
_cell_angle_gamma   91.01150204
_symmetry_Int_Tables_number   1
_chemical_formula_structural   Ca20Tl3(Ag2Ir)3
_chemical_formula_sum   'Ca20 Tl3 Ag6 Ir3'
_cell_volume   941.00291347
_cell_formula_units_Z   1
loop_
 _symmetry_equiv_pos_site_id
 _symmetry_equiv_pos_as_xyz
  1  'x, y, z'
loop_
 _atom_site_type_symbol
 _atom_site_label
 _atom_site_symmetry_multiplicity
 _atom_site_fract_x
 _atom_site_fract_y
 _atom_site_fract_z
 _atom_site_occupancy
  Ca  Ca0  1  0.687465  0.181663  0.114981  1
  Ca  Ca1  1  0.169096  0.667631  0.606752  1
  Ca  Ca2  1  0.313146  0.819826  0.114867  1
  Ca  Ca3  1  0.814986  0.317017  0.614065  1
  Ca  Ca4  1  0.846074  0.660221  0.115070  1
  Ca  Ca5  1  0.344720  0.170176  0.610051  1
  Ca  Ca6  1  0.153668  0.340020  0.114849  1
  Ca  Ca7  1  0.668312  0.843272  0.609677  1
  Ca  Ca8  1  0.820570  0.314106  0.887346  1
  Ca  Ca9  1  0.316074  0.814373  0.384094  1
  Ca  Ca10  1  0.164066  0.671555  0.894090  1
  Ca  Ca11  1  0.685349  0.187060  0.384115  1
  Ca  Ca12  1  0.672249  0.848764  0.891817  1
  Ca  Ca13  1  0.159322  0.342251  0.383907  1
  Ca  Ca14  1  0.341701  0.164450  0.891539  1
  Ca  Ca15  1  0.840945  0.657771  0.383907  1
  Ca  Ca16  1  0.505169  0.487861  0.753056  1
  Ca  Ca17  1  0.999828  0.999965  0.251830  1
  Ca  Ca18  1  0.988099  0.004866  0.748188  1
  Ca  Ca19  1  0.499737  0.499971  0.247030  1
  Tl  Tl20  1  0.500748  0.503909  0.500282  1
  Tl  Tl21  1  0.500758  0.503735  0.999414  1
  Tl  Tl22  1  0.004001  0.000719  0.500808  1
  Ag  Ag23  1  0.374295  0.873294  0.751262  1
  Ag  Ag24  1  0.874616  0.626431  0.751028  1
  Ag  Ag25  1  0.375958  0.124780  0.248849  1
  Ag  Ag26  1  0.126431  0.374992  0.751348  1
  Ag  Ag27  1  0.623827  0.875497  0.248765  1
  Ag  Ag28  1  0.003282  0.999689  0.998711  1
  Ir  Ir29  1  0.625511  0.124228  0.752052  1
  Ir  Ir30  1  0.121444  0.623098  0.248166  1
  Ir  Ir31  1  0.878551  0.376809  0.248083  1
