# generated using pymatgen
data_PrCdIr2O7
_symmetry_space_group_name_H-M   'P 1'
_cell_length_a   7.32943186
_cell_length_b   7.32943196
_cell_length_c   7.24345900
_cell_angle_alpha   60.38727134
_cell_angle_beta   60.38727090
_cell_angle_gamma   61.43959168
_symmetry_Int_Tables_number   1
_chemical_formula_structural   PrCdIr2O7
_chemical_formula_sum   'Pr2 Cd2 Ir4 O14'
_cell_volume   279.67163891
_cell_formula_units_Z   2
loop_
 _symmetry_equiv_pos_site_id
 _symmetry_equiv_pos_as_xyz
  1  'x, y, z'
loop_
 _atom_site_type_symbol
 _atom_site_label
 _atom_site_symmetry_multiplicity
 _atom_site_fract_x
 _atom_site_fract_y
 _atom_site_fract_z
 _atom_site_occupancy
  Pr  Pr0  1  0.625000  0.125000  0.125000  1
  Pr  Pr1  1  0.125000  0.625000  0.125000  1
  Cd  Cd2  1  0.125000  0.125000  0.625000  1
  Cd  Cd3  1  0.125000  0.125000  0.125000  1
  Ir  Ir4  1  0.625000  0.625000  0.625000  1
  Ir  Ir5  1  0.125000  0.625000  0.625000  1
  Ir  Ir6  1  0.625000  0.125000  0.625000  1
  Ir  Ir7  1  0.625000  0.625000  0.125000  1
  O  O8  1  0.949153  0.550662  0.548362  1
  O  O9  1  0.302974  0.302974  0.697026  1
  O  O10  1  0.949153  0.550662  0.951823  1
  O  O11  1  0.699338  0.300847  0.298177  1
  O  O12  1  0.541737  0.541737  0.958263  1
  O  O13  1  0.550662  0.949153  0.548362  1
  O  O14  1  0.550662  0.949153  0.951823  1
  O  O15  1  0.240754  0.240754  0.259246  1
  O  O16  1  0.300847  0.699338  0.701638  1
  O  O17  1  0.699338  0.300847  0.701638  1
  O  O18  1  0.009246  0.009246  0.990754  1
  O  O19  1  0.947026  0.947026  0.552974  1
  O  O20  1  0.300847  0.699338  0.298177  1
  O  O21  1  0.708263  0.708263  0.291737  1
