# generated using pymatgen
data_TbEr4(RhO6)2
_symmetry_space_group_name_H-M   'P 1'
_cell_length_a   6.81605985
_cell_length_b   6.81605944
_cell_length_c   7.24303615
_cell_angle_alpha   74.52098903
_cell_angle_beta   74.52097979
_cell_angle_gamma   51.15040504
_symmetry_Int_Tables_number   1
_chemical_formula_structural   TbEr4(RhO6)2
_chemical_formula_sum   'Tb1 Er4 Rh2 O12'
_cell_volume   250.33242296
_cell_formula_units_Z   1
loop_
 _symmetry_equiv_pos_site_id
 _symmetry_equiv_pos_as_xyz
  1  'x, y, z'
loop_
 _atom_site_type_symbol
 _atom_site_label
 _atom_site_symmetry_multiplicity
 _atom_site_fract_x
 _atom_site_fract_y
 _atom_site_fract_z
 _atom_site_occupancy
  Tb  Tb0  1  0.000000  0.000000  0.500000  1
  Er  Er1  1  0.302156  0.302156  0.360369  1
  Er  Er2  1  0.697844  0.697844  0.639631  1
  Er  Er3  1  0.308751  0.308751  0.829401  1
  Er  Er4  1  0.691249  0.691249  0.170599  1
  Rh  Rh5  1  0.752467  0.247533  0.000000  1
  Rh  Rh6  1  0.247533  0.752467  0.000000  1
  O  O7  1  0.901545  0.432691  0.915316  1
  O  O8  1  0.432691  0.901545  0.915316  1
  O  O9  1  0.098455  0.567309  0.084684  1
  O  O10  1  0.567309  0.098455  0.084684  1
  O  O11  1  0.096869  0.594422  0.575071  1
  O  O12  1  0.594422  0.096869  0.575071  1
  O  O13  1  0.903131  0.405578  0.424929  1
  O  O14  1  0.405578  0.903131  0.424929  1
  O  O15  1  0.000282  0.000282  0.816917  1
  O  O16  1  0.999718  0.999718  0.183083  1
  O  O17  1  0.500145  0.500145  0.806555  1
  O  O18  1  0.499855  0.499855  0.193445  1
