# generated using pymatgen
data_PrTiP3Rh4
_symmetry_space_group_name_H-M   'P 1'
_cell_length_a   3.95186300
_cell_length_b   11.08198500
_cell_length_c   12.69285100
_cell_angle_alpha   90.00000000
_cell_angle_beta   90.00000000
_cell_angle_gamma   90.00000000
_symmetry_Int_Tables_number   1
_chemical_formula_structural   PrTiP3Rh4
_chemical_formula_sum   'Pr4 Ti4 P12 Rh16'
_cell_volume   555.87689161
_cell_formula_units_Z   4
loop_
 _symmetry_equiv_pos_site_id
 _symmetry_equiv_pos_as_xyz
  1  'x, y, z'
loop_
 _atom_site_type_symbol
 _atom_site_label
 _atom_site_symmetry_multiplicity
 _atom_site_fract_x
 _atom_site_fract_y
 _atom_site_fract_z
 _atom_site_occupancy
  Pr  Pr0  1  0.250000  0.579115  0.704410  1
  Pr  Pr1  1  0.250000  0.920885  0.204410  1
  Pr  Pr2  1  0.750000  0.420885  0.295590  1
  Pr  Pr3  1  0.750000  0.079115  0.795590  1
  Ti  Ti4  1  0.250000  0.703477  0.989887  1
  Ti  Ti5  1  0.250000  0.796523  0.489887  1
  Ti  Ti6  1  0.750000  0.296523  0.010113  1
  Ti  Ti7  1  0.750000  0.203477  0.510113  1
  P  P8  1  0.250000  0.420949  0.115274  1
  P  P9  1  0.250000  0.079051  0.615274  1
  P  P10  1  0.750000  0.579051  0.884726  1
  P  P11  1  0.750000  0.920949  0.384726  1
  P  P12  1  0.250000  0.264799  0.867660  1
  P  P13  1  0.250000  0.235201  0.367660  1
  P  P14  1  0.750000  0.735201  0.132340  1
  P  P15  1  0.750000  0.764799  0.632340  1
  P  P16  1  0.250000  0.599459  0.392595  1
  P  P17  1  0.250000  0.900541  0.892595  1
  P  P18  1  0.750000  0.400541  0.607405  1
  P  P19  1  0.750000  0.099459  0.107405  1
  Rh  Rh20  1  0.250000  0.405550  0.489577  1
  Rh  Rh21  1  0.250000  0.094450  0.989577  1
  Rh  Rh22  1  0.750000  0.594450  0.510423  1
  Rh  Rh23  1  0.750000  0.905550  0.010423  1
  Rh  Rh24  1  0.250000  0.228764  0.178946  1
  Rh  Rh25  1  0.250000  0.271236  0.678946  1
  Rh  Rh26  1  0.750000  0.771236  0.821054  1
  Rh  Rh27  1  0.750000  0.728764  0.321054  1
  Rh  Rh28  1  0.250000  0.884560  0.700945  1
  Rh  Rh29  1  0.250000  0.615440  0.200945  1
  Rh  Rh30  1  0.750000  0.115440  0.299055  1
  Rh  Rh31  1  0.750000  0.384560  0.799055  1
  Rh  Rh32  1  0.250000  0.461270  0.934439  1
  Rh  Rh33  1  0.250000  0.038730  0.434439  1
  Rh  Rh34  1  0.750000  0.538730  0.065561  1
  Rh  Rh35  1  0.750000  0.961270  0.565561  1
