# generated using pymatgen
data_Er13Tm4Lu3(CoBi2)4
_symmetry_space_group_name_H-M   'P 1'
_cell_length_a   7.88465065
_cell_length_b   8.84792649
_cell_length_c   12.36131502
_cell_angle_alpha   89.94615957
_cell_angle_beta   90.04650896
_cell_angle_gamma   89.99930444
_symmetry_Int_Tables_number   1
_chemical_formula_structural   Er13Tm4Lu3(CoBi2)4
_chemical_formula_sum   'Er13 Tm4 Lu3 Co4 Bi8'
_cell_volume   862.35939795
_cell_formula_units_Z   1
loop_
 _symmetry_equiv_pos_site_id
 _symmetry_equiv_pos_as_xyz
  1  'x, y, z'
loop_
 _atom_site_type_symbol
 _atom_site_label
 _atom_site_symmetry_multiplicity
 _atom_site_fract_x
 _atom_site_fract_y
 _atom_site_fract_z
 _atom_site_occupancy
  Er  Er0  1  0.653695  0.749701  0.699160  1
  Er  Er1  1  0.346085  0.250148  0.300860  1
  Er  Er2  1  0.153481  0.250123  0.801153  1
  Er  Er3  1  0.846486  0.749890  0.199067  1
  Er  Er4  1  0.119695  0.749889  0.814986  1
  Er  Er5  1  0.880486  0.250181  0.185060  1
  Er  Er6  1  0.619818  0.250353  0.685314  1
  Er  Er7  1  0.380487  0.749451  0.314613  1
  Er  Er8  1  0.555068  0.749673  0.997152  1
  Er  Er9  1  0.444843  0.250269  0.002833  1
  Er  Er10  1  0.054350  0.250530  0.502788  1
  Er  Er11  1  0.944930  0.749682  0.497222  1
  Er  Er12  1  0.326631  0.963609  0.564034  1
  Tm  Tm13  1  0.172365  0.963573  0.064082  1
  Tm  Tm14  1  0.672061  0.463212  0.435804  1
  Tm  Tm15  1  0.827646  0.036457  0.936023  1
  Tm  Tm16  1  0.672481  0.036529  0.435847  1
  Lu  Lu17  1  0.829001  0.463354  0.936224  1
  Lu  Lu18  1  0.171046  0.536527  0.063873  1
  Lu  Lu19  1  0.328762  0.536711  0.563853  1
  Co  Co20  1  0.937266  0.749410  0.993472  1
  Co  Co21  1  0.062796  0.250555  0.006653  1
  Co  Co22  1  0.436967  0.250512  0.506693  1
  Co  Co23  1  0.563260  0.749394  0.493206  1
  Bi  Bi24  1  0.933011  0.007663  0.673390  1
  Bi  Bi25  1  0.066656  0.992384  0.326900  1
  Bi  Bi26  1  0.433765  0.992513  0.826854  1
  Bi  Bi27  1  0.066405  0.507609  0.326601  1
  Bi  Bi28  1  0.566368  0.007593  0.173180  1
  Bi  Bi29  1  0.934013  0.492603  0.673353  1
  Bi  Bi30  1  0.566073  0.492398  0.172974  1
  Bi  Bi31  1  0.434003  0.507501  0.826780  1
