# generated using pymatgen
data_La8Tb3Er9Sn16
_symmetry_space_group_name_H-M   'P 1'
_cell_length_a   8.12729200
_cell_length_b   8.32157204
_cell_length_c   15.65808100
_cell_angle_alpha   90.00000000
_cell_angle_beta   90.00000000
_cell_angle_gamma   89.78235107
_symmetry_Int_Tables_number   1
_chemical_formula_structural   La8Tb3Er9Sn16
_chemical_formula_sum   'La8 Tb3 Er9 Sn16'
_cell_volume   1058.97728022
_cell_formula_units_Z   1
loop_
 _symmetry_equiv_pos_site_id
 _symmetry_equiv_pos_as_xyz
  1  'x, y, z'
loop_
 _atom_site_type_symbol
 _atom_site_label
 _atom_site_symmetry_multiplicity
 _atom_site_fract_x
 _atom_site_fract_y
 _atom_site_fract_z
 _atom_site_occupancy
  La  La0  1  0.511161  0.322112  0.903360  1
  La  La1  1  0.011468  0.178199  0.596666  1
  La  La2  1  0.488936  0.678165  0.403387  1
  La  La3  1  0.988674  0.821792  0.096630  1
  La  La4  1  0.488936  0.678165  0.096613  1
  La  La5  1  0.988674  0.821792  0.403370  1
  La  La6  1  0.511161  0.322112  0.596640  1
  La  La7  1  0.011468  0.178199  0.903334  1
  Tb  Tb8  1  0.689044  0.997591  0.750000  1
  Tb  Tb9  1  0.810635  0.497362  0.250000  1
  Tb  Tb10  1  0.310847  0.002622  0.250000  1
  Er  Er11  1  0.355654  0.835201  0.876125  1
  Er  Er12  1  0.855982  0.664691  0.623687  1
  Er  Er13  1  0.644186  0.164882  0.376207  1
  Er  Er14  1  0.144050  0.335088  0.123404  1
  Er  Er15  1  0.644186  0.164882  0.123793  1
  Er  Er16  1  0.144050  0.335088  0.376596  1
  Er  Er17  1  0.355654  0.835201  0.623875  1
  Er  Er18  1  0.855982  0.664691  0.876313  1
  Er  Er19  1  0.189582  0.502764  0.750000  1
  Sn  Sn20  1  0.310286  0.041685  0.041634  1
  Sn  Sn21  1  0.809701  0.457586  0.458352  1
  Sn  Sn22  1  0.689749  0.958193  0.541681  1
  Sn  Sn23  1  0.190328  0.542223  0.957744  1
  Sn  Sn24  1  0.689749  0.958193  0.958319  1
  Sn  Sn25  1  0.190328  0.542223  0.542256  1
  Sn  Sn26  1  0.310286  0.041685  0.458366  1
  Sn  Sn27  1  0.809701  0.457586  0.041648  1
  Sn  Sn28  1  0.553931  0.625290  0.750000  1
  Sn  Sn29  1  0.055326  0.873063  0.750000  1
  Sn  Sn30  1  0.444573  0.374118  0.250000  1
  Sn  Sn31  1  0.945157  0.126366  0.250000  1
  Sn  Sn32  1  0.319032  0.140747  0.750000  1
  Sn  Sn33  1  0.819520  0.361101  0.750000  1
  Sn  Sn34  1  0.680917  0.860509  0.250000  1
  Sn  Sn35  1  0.181091  0.638831  0.250000  1
