# generated using pymatgen
data_Tb12Th4MgIn3Rh4
_symmetry_space_group_name_H-M   'P 1'
_cell_length_a   9.80986050
_cell_length_b   9.81538463
_cell_length_c   9.81538500
_cell_angle_alpha   60.00000212
_cell_angle_beta   59.98137250
_cell_angle_gamma   59.98137205
_symmetry_Int_Tables_number   1
_chemical_formula_structural   Tb12Th4MgIn3Rh4
_chemical_formula_sum   'Tb12 Th4 Mg1 In3 Rh4'
_cell_volume   668.09799110
_cell_formula_units_Z   1
loop_
 _symmetry_equiv_pos_site_id
 _symmetry_equiv_pos_as_xyz
  1  'x, y, z'
loop_
 _atom_site_type_symbol
 _atom_site_label
 _atom_site_symmetry_multiplicity
 _atom_site_fract_x
 _atom_site_fract_y
 _atom_site_fract_z
 _atom_site_occupancy
  Tb  Tb0  1  0.811676  0.188342  0.188342  1
  Tb  Tb1  1  0.186591  0.813278  0.813278  1
  Tb  Tb2  1  0.186591  0.813278  0.186852  1
  Tb  Tb3  1  0.811676  0.188342  0.811640  1
  Tb  Tb4  1  0.186591  0.186852  0.813278  1
  Tb  Tb5  1  0.811676  0.811640  0.188342  1
  Tb  Tb6  1  0.934561  0.565622  0.565622  1
  Tb  Tb7  1  0.565720  0.934805  0.934805  1
  Tb  Tb8  1  0.565720  0.934805  0.564670  1
  Tb  Tb9  1  0.934561  0.565622  0.934194  1
  Tb  Tb10  1  0.565720  0.564670  0.934805  1
  Tb  Tb11  1  0.934561  0.934194  0.565622  1
  Th  Th12  1  0.347466  0.347918  0.347918  1
  Th  Th13  1  0.347466  0.347918  0.956699  1
  Th  Th14  1  0.347466  0.956699  0.347918  1
  Th  Th15  1  0.955408  0.348198  0.348198  1
  Mg  Mg16  1  0.262177  0.579275  0.579275  1
  In  In17  1  0.582341  0.583443  0.583443  1
  In  In18  1  0.582341  0.583443  0.250774  1
  In  In19  1  0.582341  0.250774  0.583443  1
  Rh  Rh20  1  0.143379  0.144168  0.144168  1
  Rh  Rh21  1  0.143379  0.144168  0.568282  1
  Rh  Rh22  1  0.143379  0.568282  0.144168  1
  Rh  Rh23  1  0.567211  0.144262  0.144262  1
