# generated using pymatgen
data_Hf6Nb4AlGe5
_symmetry_space_group_name_H-M   'P 1'
_cell_length_a   7.92310700
_cell_length_b   7.93761455
_cell_length_c   5.42810600
_cell_angle_alpha   90.00000000
_cell_angle_beta   90.00000000
_cell_angle_gamma   119.93955453
_symmetry_Int_Tables_number   1
_chemical_formula_structural   Hf6Nb4AlGe5
_chemical_formula_sum   'Hf6 Nb4 Al1 Ge5'
_cell_volume   295.82078151
_cell_formula_units_Z   1
loop_
 _symmetry_equiv_pos_site_id
 _symmetry_equiv_pos_as_xyz
  1  'x, y, z'
loop_
 _atom_site_type_symbol
 _atom_site_label
 _atom_site_symmetry_multiplicity
 _atom_site_fract_x
 _atom_site_fract_y
 _atom_site_fract_z
 _atom_site_occupancy
  Hf  Hf0  1  0.744427  0.745852  0.250000  1
  Hf  Hf1  1  0.750403  0.000000  0.750000  1
  Hf  Hf2  1  0.998576  0.254148  0.250000  1
  Hf  Hf3  1  0.254484  0.253863  0.750000  1
  Hf  Hf4  1  0.248709  0.000000  0.250000  1
  Hf  Hf5  1  0.000621  0.746137  0.750000  1
  Nb  Nb6  1  0.668265  0.335836  0.999941  1
  Nb  Nb7  1  0.668265  0.335836  0.500059  1
  Nb  Nb8  1  0.332429  0.664164  0.500059  1
  Nb  Nb9  1  0.332429  0.664164  0.999941  1
  Al  Al10  1  0.396637  0.000000  0.750000  1
  Ge  Ge11  1  0.603260  0.000000  0.250000  1
  Ge  Ge12  1  0.609191  0.609089  0.750000  1
  Ge  Ge13  1  0.000102  0.390911  0.750000  1
  Ge  Ge14  1  0.000847  0.609491  0.250000  1
  Ge  Ge15  1  0.391358  0.390509  0.250000  1
