# generated using pymatgen
data_Ho4Sc4Mn2VB24Ir
_symmetry_space_group_name_H-M   'P 1'
_cell_length_a   3.47371400
_cell_length_b   8.93005127
_cell_length_c   11.30764200
_cell_angle_alpha   90.01405760
_cell_angle_beta   90.00000000
_cell_angle_gamma   90.00000000
_symmetry_Int_Tables_number   1
_chemical_formula_structural   Ho4Sc4Mn2VB24Ir
_chemical_formula_sum   'Ho4 Sc4 Mn2 V1 B24 Ir1'
_cell_volume   350.76806615
_cell_formula_units_Z   1
loop_
 _symmetry_equiv_pos_site_id
 _symmetry_equiv_pos_as_xyz
  1  'x, y, z'
loop_
 _atom_site_type_symbol
 _atom_site_label
 _atom_site_symmetry_multiplicity
 _atom_site_fract_x
 _atom_site_fract_y
 _atom_site_fract_z
 _atom_site_occupancy
  Ho  Ho0  1  0.500000  0.318965  0.418197  1
  Ho  Ho1  1  0.500000  0.678307  0.590719  1
  Ho  Ho2  1  0.500000  0.177179  0.911585  1
  Ho  Ho3  1  0.500000  0.823312  0.080488  1
  Sc  Sc4  1  0.500000  0.442785  0.125776  1
  Sc  Sc5  1  0.500000  0.557197  0.868776  1
  Sc  Sc6  1  0.500000  0.056173  0.631984  1
  Sc  Sc7  1  0.500000  0.947115  0.372519  1
  Mn  Mn8  1  0.500000  0.858420  0.816749  1
  Mn  Mn9  1  0.500000  0.359540  0.681689  1
  V  V10  1  0.500000  0.140834  0.181920  1
  B  B11  1  0.000000  0.097462  0.475342  1
  B  B12  1  0.000000  0.902185  0.527649  1
  B  B13  1  0.000000  0.402823  0.972081  1
  B  B14  1  0.000000  0.598547  0.025396  1
  B  B15  1  0.000000  0.129466  0.318510  1
  B  B16  1  0.000000  0.870127  0.684807  1
  B  B17  1  0.000000  0.370709  0.815136  1
  B  B18  1  0.000000  0.629697  0.181375  1
  B  B19  1  0.000000  0.052945  0.065412  1
  B  B20  1  0.000000  0.944397  0.929937  1
  B  B21  1  0.000000  0.444155  0.569741  1
  B  B22  1  0.000000  0.553668  0.434611  1
  B  B23  1  0.000000  0.480945  0.285861  1
  B  B24  1  0.000000  0.516264  0.713715  1
  B  B25  1  0.000000  0.016025  0.786292  1
  B  B26  1  0.000000  0.979841  0.213873  1
  B  B27  1  0.000000  0.254073  0.079842  1
  B  B28  1  0.000000  0.749047  0.916073  1
  B  B29  1  0.000000  0.248086  0.584335  1
  B  B30  1  0.000000  0.754205  0.419904  1
  B  B31  1  0.000000  0.296217  0.235547  1
  B  B32  1  0.000000  0.706728  0.765582  1
  B  B33  1  0.000000  0.206996  0.734934  1
  B  B34  1  0.000000  0.795110  0.264121  1
  Ir  Ir35  1  0.500000  0.640457  0.319524  1
