# generated using pymatgen
data_Cs2LiTi3F12
_symmetry_space_group_name_H-M   'P 1'
_cell_length_a   7.45881261
_cell_length_b   7.45881316
_cell_length_c   7.45881228
_cell_angle_alpha   61.19606967
_cell_angle_beta   61.19606982
_cell_angle_gamma   61.19606194
_symmetry_Int_Tables_number   1
_chemical_formula_structural   Cs2LiTi3F12
_chemical_formula_sum   'Cs2 Li1 Ti3 F12'
_cell_volume   301.31759613
_cell_formula_units_Z   1
loop_
 _symmetry_equiv_pos_site_id
 _symmetry_equiv_pos_as_xyz
  1  'x, y, z'
loop_
 _atom_site_type_symbol
 _atom_site_label
 _atom_site_symmetry_multiplicity
 _atom_site_fract_x
 _atom_site_fract_y
 _atom_site_fract_z
 _atom_site_occupancy
  Cs  Cs0  1  0.368467  0.368467  0.368467  1
  Cs  Cs1  1  0.631533  0.631533  0.631533  1
  Li  Li2  1  0.000000  0.000000  0.000000  1
  Ti  Ti3  1  0.500000  0.000000  0.000000  1
  Ti  Ti4  1  0.000000  0.000000  0.500000  1
  Ti  Ti5  1  0.000000  0.500000  0.000000  1
  F  F6  1  0.927132  0.322350  0.322350  1
  F  F7  1  0.327197  0.933459  0.933459  1
  F  F8  1  0.322350  0.322350  0.927132  1
  F  F9  1  0.933459  0.933459  0.327197  1
  F  F10  1  0.933459  0.327197  0.933459  1
  F  F11  1  0.322350  0.927132  0.322350  1
  F  F12  1  0.072868  0.677650  0.677650  1
  F  F13  1  0.672803  0.066541  0.066541  1
  F  F14  1  0.677650  0.677650  0.072868  1
  F  F15  1  0.066541  0.066541  0.672803  1
  F  F16  1  0.066541  0.672803  0.066541  1
  F  F17  1  0.677650  0.072868  0.677650  1
