# generated using pymatgen
data_Y3Sc(P3Ir4)2
_symmetry_space_group_name_H-M   'P 1'
_cell_length_a   3.99639100
_cell_length_b   11.25421400
_cell_length_c   12.93139000
_cell_angle_alpha   90.00000000
_cell_angle_beta   90.00000000
_cell_angle_gamma   90.00000000
_symmetry_Int_Tables_number   1
_chemical_formula_structural   Y3Sc(P3Ir4)2
_chemical_formula_sum   'Y6 Sc2 P12 Ir16'
_cell_volume   581.60529425
_cell_formula_units_Z   2
loop_
 _symmetry_equiv_pos_site_id
 _symmetry_equiv_pos_as_xyz
  1  'x, y, z'
loop_
 _atom_site_type_symbol
 _atom_site_label
 _atom_site_symmetry_multiplicity
 _atom_site_fract_x
 _atom_site_fract_y
 _atom_site_fract_z
 _atom_site_occupancy
  Y  Y0  1  0.000000  0.500000  0.520726  1
  Y  Y1  1  0.500000  0.000000  0.479274  1
  Y  Y2  1  0.500000  0.820354  0.203462  1
  Y  Y3  1  0.500000  0.179646  0.203462  1
  Y  Y4  1  0.000000  0.679646  0.796538  1
  Y  Y5  1  0.000000  0.320354  0.796538  1
  Sc  Sc6  1  0.500000  0.500000  0.157529  1
  Sc  Sc7  1  0.000000  0.000000  0.842471  1
  P  P8  1  0.500000  0.500000  0.878851  1
  P  P9  1  0.000000  0.000000  0.121149  1
  P  P10  1  0.500000  0.500000  0.357355  1
  P  P11  1  0.000000  0.000000  0.642645  1
  P  P12  1  0.500000  0.312879  0.617030  1
  P  P13  1  0.500000  0.687121  0.617030  1
  P  P14  1  0.000000  0.187121  0.382970  1
  P  P15  1  0.000000  0.812879  0.382970  1
  P  P16  1  0.500000  0.843851  0.887609  1
  P  P17  1  0.500000  0.156149  0.887609  1
  P  P18  1  0.000000  0.656149  0.112391  1
  P  P19  1  0.000000  0.343851  0.112391  1
  Ir  Ir20  1  0.500000  0.500000  0.700156  1
  Ir  Ir21  1  0.000000  0.000000  0.299844  1
  Ir  Ir22  1  0.000000  0.500000  0.989711  1
  Ir  Ir23  1  0.500000  0.000000  0.010289  1
  Ir  Ir24  1  0.500000  0.330355  0.982541  1
  Ir  Ir25  1  0.500000  0.669645  0.982541  1
  Ir  Ir26  1  0.000000  0.169645  0.017459  1
  Ir  Ir27  1  0.000000  0.830355  0.017459  1
  Ir  Ir28  1  0.500000  0.291229  0.431309  1
  Ir  Ir29  1  0.500000  0.708771  0.431309  1
  Ir  Ir30  1  0.000000  0.208771  0.568691  1
  Ir  Ir31  1  0.000000  0.791229  0.568691  1
  Ir  Ir32  1  0.500000  0.872381  0.708605  1
  Ir  Ir33  1  0.500000  0.127619  0.708605  1
  Ir  Ir34  1  0.000000  0.627619  0.291395  1
  Ir  Ir35  1  0.000000  0.372381  0.291395  1
