# generated using pymatgen
data_Ce5Sm2Sc(Si4W3)4
_symmetry_space_group_name_H-M   'P 1'
_cell_length_a   6.84253494
_cell_length_b   6.95273421
_cell_length_c   13.01611021
_cell_angle_alpha   90.08735939
_cell_angle_beta   89.95565321
_cell_angle_gamma   90.10040184
_symmetry_Int_Tables_number   1
_chemical_formula_structural   Ce5Sm2Sc(Si4W3)4
_chemical_formula_sum   'Ce5 Sm2 Sc1 Si16 W12'
_cell_volume   619.23082605
_cell_formula_units_Z   1
loop_
 _symmetry_equiv_pos_site_id
 _symmetry_equiv_pos_as_xyz
  1  'x, y, z'
loop_
 _atom_site_type_symbol
 _atom_site_label
 _atom_site_symmetry_multiplicity
 _atom_site_fract_x
 _atom_site_fract_y
 _atom_site_fract_z
 _atom_site_occupancy
  Ce  Ce0  1  0.505958  0.338489  0.092061  1
  Ce  Ce1  1  0.004515  0.166073  0.407862  1
  Ce  Ce2  1  0.503993  0.334406  0.408227  1
  Ce  Ce3  1  0.004931  0.165858  0.094132  1
  Ce  Ce4  1  0.494837  0.664055  0.905067  1
  Sm  Sm5  1  0.494996  0.663548  0.592998  1
  Sm  Sm6  1  0.996552  0.835132  0.906957  1
  Sc  Sc7  1  0.993606  0.831173  0.595750  1
  Si  Si8  1  0.661378  0.954585  0.455784  1
  Si  Si9  1  0.157869  0.546199  0.046862  1
  Si  Si10  1  0.343393  0.046661  0.952073  1
  Si  Si11  1  0.844175  0.461693  0.547599  1
  Si  Si12  1  0.333232  0.039398  0.547515  1
  Si  Si13  1  0.841900  0.454091  0.953507  1
  Si  Si14  1  0.659010  0.954836  0.046565  1
  Si  Si15  1  0.156577  0.550167  0.455769  1
  Si  Si16  1  0.461654  0.363826  0.749973  1
  Si  Si17  1  0.963649  0.126278  0.746536  1
  Si  Si18  1  0.538404  0.634937  0.251418  1
  Si  Si19  1  0.038110  0.867685  0.250639  1
  Si  Si20  1  0.699563  0.867049  0.747020  1
  Si  Si21  1  0.189278  0.633512  0.746584  1
  Si  Si22  1  0.307106  0.131363  0.250121  1
  Si  Si23  1  0.807450  0.371414  0.250955  1
  W  W24  1  0.666175  0.163258  0.624771  1
  W  W25  1  0.164015  0.335548  0.871897  1
  W  W26  1  0.333338  0.838362  0.125811  1
  W  W27  1  0.832261  0.664680  0.375781  1
  W  W28  1  0.331382  0.839414  0.374323  1
  W  W29  1  0.831751  0.662474  0.127128  1
  W  W30  1  0.670387  0.162034  0.872858  1
  W  W31  1  0.164660  0.333763  0.625077  1
  W  W32  1  0.833539  0.495287  0.749566  1
  W  W33  1  0.334129  0.999570  0.748794  1
  W  W34  1  0.168802  0.502581  0.250960  1
  W  W35  1  0.667427  0.000600  0.251062  1
