# generated using pymatgen
data_CeHgPt2O7
_symmetry_space_group_name_H-M   'P 1'
_cell_length_a   7.35404769
_cell_length_b   7.48425091
_cell_length_c   7.35404730
_cell_angle_alpha   59.41256955
_cell_angle_beta   59.23835795
_cell_angle_gamma   59.41257388
_symmetry_Int_Tables_number   1
_chemical_formula_structural   CeHgPt2O7
_chemical_formula_sum   'Ce2 Hg2 Pt4 O14'
_cell_volume   282.00377292
_cell_formula_units_Z   2
loop_
 _symmetry_equiv_pos_site_id
 _symmetry_equiv_pos_as_xyz
  1  'x, y, z'
loop_
 _atom_site_type_symbol
 _atom_site_label
 _atom_site_symmetry_multiplicity
 _atom_site_fract_x
 _atom_site_fract_y
 _atom_site_fract_z
 _atom_site_occupancy
  Ce  Ce0  1  0.125000  0.125000  0.125000  1
  Ce  Ce1  1  0.125000  0.625000  0.125000  1
  Hg  Hg2  1  0.625000  0.125000  0.125000  1
  Hg  Hg3  1  0.125000  0.125000  0.625000  1
  Pt  Pt4  1  0.625000  0.625000  0.125000  1
  Pt  Pt5  1  0.625000  0.625000  0.625000  1
  Pt  Pt6  1  0.625000  0.125000  0.625000  1
  Pt  Pt7  1  0.125000  0.625000  0.625000  1
  O  O8  1  0.717900  0.293196  0.288781  1
  O  O9  1  0.709471  0.290529  0.709471  1
  O  O10  1  0.019623  0.980377  0.019623  1
  O  O11  1  0.286668  0.713332  0.286668  1
  O  O12  1  0.717900  0.700122  0.288781  1
  O  O13  1  0.961219  0.549878  0.532100  1
  O  O14  1  0.288781  0.700122  0.717900  1
  O  O15  1  0.230377  0.269623  0.230377  1
  O  O16  1  0.963332  0.536668  0.963332  1
  O  O17  1  0.540529  0.959471  0.540529  1
  O  O18  1  0.532100  0.549878  0.961219  1
  O  O19  1  0.961219  0.956804  0.532100  1
  O  O20  1  0.532100  0.956804  0.961219  1
  O  O21  1  0.288781  0.293196  0.717900  1
