# generated using pymatgen
data_TbEr3Cu3Sb8
_symmetry_space_group_name_H-M   'P 1'
_cell_length_a   10.53681969
_cell_length_b   10.53682060
_cell_length_c   10.53891811
_cell_angle_alpha   146.31720288
_cell_angle_beta   146.31719968
_cell_angle_gamma   48.39119075
_symmetry_Int_Tables_number   1
_chemical_formula_structural   TbEr3Cu3Sb8
_chemical_formula_sum   'Tb1 Er3 Cu3 Sb8'
_cell_volume   358.35160902
_cell_formula_units_Z   1
loop_
 _symmetry_equiv_pos_site_id
 _symmetry_equiv_pos_as_xyz
  1  'x, y, z'
loop_
 _atom_site_type_symbol
 _atom_site_label
 _atom_site_symmetry_multiplicity
 _atom_site_fract_x
 _atom_site_fract_y
 _atom_site_fract_z
 _atom_site_occupancy
  Tb  Tb0  1  0.125275  0.125275  0.492348  1
  Er  Er1  1  0.633452  0.633452  0.508112  1
  Er  Er2  1  0.366534  0.874782  0.999986  1
  Er  Er3  1  0.874782  0.366534  0.999986  1
  Cu  Cu4  1  0.999752  0.999752  0.999007  1
  Cu  Cu5  1  0.999870  0.500668  0.500070  1
  Cu  Cu6  1  0.500668  0.999870  0.500070  1
  Sb  Sb7  1  0.334576  0.334576  0.516351  1
  Sb  Sb8  1  0.818184  0.818184  0.483566  1
  Sb  Sb9  1  0.665993  0.181937  0.000276  1
  Sb  Sb10  1  0.181937  0.665993  0.000276  1
  Sb  Sb11  1  0.250169  0.250169  0.000766  1
  Sb  Sb12  1  0.749355  0.749355  0.999227  1
  Sb  Sb13  1  0.749325  0.250127  0.499978  1
  Sb  Sb14  1  0.250127  0.749325  0.499978  1
