# generated using pymatgen
data_Zr9Ta4Ti7Si16
_symmetry_space_group_name_H-M   'P 1'
_cell_length_a   6.88175113
_cell_length_b   6.88039530
_cell_length_c   12.65572904
_cell_angle_alpha   90.14233363
_cell_angle_beta   89.84712213
_cell_angle_gamma   90.00378354
_symmetry_Int_Tables_number   1
_chemical_formula_structural   Zr9Ta4Ti7Si16
_chemical_formula_sum   'Zr9 Ta4 Ti7 Si16'
_cell_volume   599.23425898
_cell_formula_units_Z   1
loop_
 _symmetry_equiv_pos_site_id
 _symmetry_equiv_pos_as_xyz
  1  'x, y, z'
loop_
 _atom_site_type_symbol
 _atom_site_label
 _atom_site_symmetry_multiplicity
 _atom_site_fract_x
 _atom_site_fract_y
 _atom_site_fract_z
 _atom_site_occupancy
  Zr  Zr0  1  0.151108  0.000538  0.872703  1
  Zr  Zr1  1  0.000205  0.654836  0.033221  1
  Zr  Zr2  1  0.999033  0.345544  0.529755  1
  Zr  Zr3  1  0.654279  0.000754  0.968855  1
  Zr  Zr4  1  0.154918  0.500463  0.781018  1
  Zr  Zr5  1  0.844740  0.500303  0.281403  1
  Zr  Zr6  1  0.501404  0.156020  0.220276  1
  Zr  Zr7  1  0.499659  0.844683  0.716809  1
  Zr  Zr8  1  0.344621  0.000174  0.468160  1
  Ta  Ta9  1  0.671506  0.671984  0.499623  1
  Ta  Ta10  1  0.826389  0.174111  0.748418  1
  Ta  Ta11  1  0.172056  0.827746  0.251200  1
  Ta  Ta12  1  0.330312  0.327944  0.001322  1
  Ti  Ti13  1  0.348320  0.504879  0.377064  1
  Ti  Ti14  1  0.848152  0.995122  0.372904  1
  Ti  Ti15  1  0.005945  0.152013  0.126982  1
  Ti  Ti16  1  0.994362  0.848805  0.626659  1
  Ti  Ti17  1  0.652091  0.493956  0.877008  1
  Ti  Ti18  1  0.505630  0.349649  0.621621  1
  Ti  Ti19  1  0.496838  0.650385  0.124832  1
  Si  Si20  1  0.047218  0.707033  0.437125  1
  Si  Si21  1  0.949283  0.299564  0.938152  1
  Si  Si22  1  0.706665  0.048195  0.562041  1
  Si  Si23  1  0.206974  0.452153  0.187909  1
  Si  Si24  1  0.793484  0.546901  0.685748  1
  Si  Si25  1  0.456481  0.209812  0.811085  1
  Si  Si26  1  0.547860  0.793353  0.313402  1
  Si  Si27  1  0.297649  0.951168  0.067371  1
  Si  Si28  1  0.853989  0.790737  0.820558  1
  Si  Si29  1  0.135340  0.205690  0.323325  1
  Si  Si30  1  0.795075  0.865111  0.177649  1
  Si  Si31  1  0.293543  0.635823  0.572301  1
  Si  Si32  1  0.705406  0.363805  0.074004  1
  Si  Si33  1  0.635360  0.294640  0.426594  1
  Si  Si34  1  0.367504  0.697804  0.930290  1
  Si  Si35  1  0.206603  0.138302  0.672612  1
