# generated using pymatgen
data_Sr3WBrClO5
_symmetry_space_group_name_H-M   'P 1'
_cell_length_a   7.16431633
_cell_length_b   7.16431572
_cell_length_c   11.44939000
_cell_angle_alpha   90.00000000
_cell_angle_beta   90.00000000
_cell_angle_gamma   132.63887975
_symmetry_Int_Tables_number   1
_chemical_formula_structural   Sr3WBrClO5
_chemical_formula_sum   'Sr6 W2 Br2 Cl2 O10'
_cell_volume   432.31045552
_cell_formula_units_Z   2
loop_
 _symmetry_equiv_pos_site_id
 _symmetry_equiv_pos_as_xyz
  1  'x, y, z'
loop_
 _atom_site_type_symbol
 _atom_site_label
 _atom_site_symmetry_multiplicity
 _atom_site_fract_x
 _atom_site_fract_y
 _atom_site_fract_z
 _atom_site_occupancy
  Sr  Sr0  1  0.904399  0.095601  0.750000  1
  Sr  Sr1  1  0.659962  0.340038  0.540770  1
  Sr  Sr2  1  0.340038  0.659962  0.459230  1
  Sr  Sr3  1  0.659962  0.340038  0.959230  1
  Sr  Sr4  1  0.340038  0.659962  0.040770  1
  Sr  Sr5  1  0.095601  0.904399  0.250000  1
  W  W6  1  0.754340  0.245660  0.250000  1
  W  W7  1  0.245660  0.754340  0.750000  1
  Br  Br8  1  0.000000  0.000000  0.500000  1
  Br  Br9  1  0.000000  0.000000  0.000000  1
  Cl  Cl10  1  0.497886  0.502114  0.250000  1
  Cl  Cl11  1  0.502114  0.497886  0.750000  1
  O  O12  1  0.110483  0.889517  0.750000  1
  O  O13  1  0.051807  0.487729  0.633573  1
  O  O14  1  0.487729  0.051807  0.366427  1
  O  O15  1  0.512271  0.948193  0.633573  1
  O  O16  1  0.948193  0.512271  0.366427  1
  O  O17  1  0.889517  0.110483  0.250000  1
  O  O18  1  0.051807  0.487729  0.866427  1
  O  O19  1  0.512271  0.948193  0.866427  1
  O  O20  1  0.948193  0.512271  0.133573  1
  O  O21  1  0.487729  0.051807  0.133573  1
