# generated using pymatgen
data_La2Pr14Mg4Ir3Pt
_symmetry_space_group_name_H-M   'P 1'
_cell_length_a   10.14468413
_cell_length_b   10.14466112
_cell_length_c   10.15800571
_cell_angle_alpha   60.02825179
_cell_angle_beta   60.02672684
_cell_angle_gamma   59.91279056
_symmetry_Int_Tables_number   1
_chemical_formula_structural   La2Pr14Mg4Ir3Pt
_chemical_formula_sum   'La2 Pr14 Mg4 Ir3 Pt1'
_cell_volume   739.03083803
_cell_formula_units_Z   1
loop_
 _symmetry_equiv_pos_site_id
 _symmetry_equiv_pos_as_xyz
  1  'x, y, z'
loop_
 _atom_site_type_symbol
 _atom_site_label
 _atom_site_symmetry_multiplicity
 _atom_site_fract_x
 _atom_site_fract_y
 _atom_site_fract_z
 _atom_site_occupancy
  La  La0  1  0.344428  0.344314  0.345090  1
  La  La1  1  0.349107  0.349213  0.960629  1
  Pr  Pr2  1  0.349586  0.956437  0.350521  1
  Pr  Pr3  1  0.956495  0.349546  0.350529  1
  Pr  Pr4  1  0.808007  0.188215  0.188523  1
  Pr  Pr5  1  0.186606  0.811324  0.810175  1
  Pr  Pr6  1  0.188214  0.807980  0.188550  1
  Pr  Pr7  1  0.811301  0.186629  0.810185  1
  Pr  Pr8  1  0.188469  0.188464  0.807863  1
  Pr  Pr9  1  0.810849  0.810796  0.187071  1
  Pr  Pr10  1  0.938745  0.563051  0.562909  1
  Pr  Pr11  1  0.561862  0.937751  0.938147  1
  Pr  Pr12  1  0.563059  0.938796  0.562963  1
  Pr  Pr13  1  0.937720  0.561878  0.938103  1
  Pr  Pr14  1  0.563554  0.563607  0.938828  1
  Pr  Pr15  1  0.938215  0.938229  0.561602  1
  Mg  Mg16  1  0.579944  0.579983  0.578713  1
  Mg  Mg17  1  0.578785  0.578782  0.263153  1
  Mg  Mg18  1  0.579165  0.263014  0.578219  1
  Mg  Mg19  1  0.262957  0.579174  0.578187  1
  Ir  Ir20  1  0.142946  0.142922  0.574176  1
  Ir  Ir21  1  0.143765  0.573464  0.141695  1
  Ir  Ir22  1  0.573451  0.143705  0.141677  1
  Pt  Pt23  1  0.142769  0.142725  0.142491  1
