# generated using pymatgen
data_HoEr9Bi5Sb
_symmetry_space_group_name_H-M   'P 1'
_cell_length_a   8.15817400
_cell_length_b   9.44219400
_cell_length_c   11.92610400
_cell_angle_alpha   90.00000000
_cell_angle_beta   90.00000000
_cell_angle_gamma   90.00000000
_symmetry_Int_Tables_number   1
_chemical_formula_structural   HoEr9Bi5Sb
_chemical_formula_sum   'Ho2 Er18 Bi10 Sb2'
_cell_volume   918.68045180
_cell_formula_units_Z   2
loop_
 _symmetry_equiv_pos_site_id
 _symmetry_equiv_pos_as_xyz
  1  'x, y, z'
loop_
 _atom_site_type_symbol
 _atom_site_label
 _atom_site_symmetry_multiplicity
 _atom_site_fract_x
 _atom_site_fract_y
 _atom_site_fract_z
 _atom_site_occupancy
  Ho  Ho0  1  0.683509  0.750000  0.782564  1
  Ho  Ho1  1  0.183509  0.750000  0.717436  1
  Er  Er2  1  0.353983  0.750000  0.213917  1
  Er  Er3  1  0.853983  0.750000  0.286083  1
  Er  Er4  1  0.646868  0.250000  0.783275  1
  Er  Er5  1  0.146868  0.250000  0.716725  1
  Er  Er6  1  0.689711  0.566492  0.058077  1
  Er  Er7  1  0.189711  0.933508  0.441923  1
  Er  Er8  1  0.308931  0.060925  0.941068  1
  Er  Er9  1  0.808931  0.439075  0.558932  1
  Er  Er10  1  0.308931  0.439075  0.941068  1
  Er  Er11  1  0.808931  0.060925  0.558932  1
  Er  Er12  1  0.689711  0.933508  0.058077  1
  Er  Er13  1  0.189711  0.566492  0.441923  1
  Er  Er14  1  0.476731  0.250000  0.488759  1
  Er  Er15  1  0.976731  0.250000  0.011241  1
  Er  Er16  1  0.527230  0.750000  0.511596  1
  Er  Er17  1  0.027230  0.750000  0.988404  1
  Er  Er18  1  0.314099  0.250000  0.218238  1
  Er  Er19  1  0.814099  0.250000  0.281762  1
  Bi  Bi20  1  0.594514  0.250000  0.042525  1
  Bi  Bi21  1  0.094514  0.250000  0.457475  1
  Bi  Bi22  1  0.566123  0.996066  0.325728  1
  Bi  Bi23  1  0.066123  0.503934  0.174272  1
  Bi  Bi24  1  0.433595  0.496058  0.674217  1
  Bi  Bi25  1  0.933595  0.003942  0.825783  1
  Bi  Bi26  1  0.433595  0.003942  0.674217  1
  Bi  Bi27  1  0.933595  0.496058  0.825783  1
  Bi  Bi28  1  0.566123  0.503934  0.325728  1
  Bi  Bi29  1  0.066123  0.996066  0.174272  1
  Sb  Sb30  1  0.406346  0.750000  0.958610  1
  Sb  Sb31  1  0.906346  0.750000  0.541390  1
