# generated using pymatgen
data_Sm12Ga(SiBr4)3
_symmetry_space_group_name_H-M   'P 1'
_cell_length_a   10.31243321
_cell_length_b   10.31243307
_cell_length_c   10.31243344
_cell_angle_alpha   109.57712098
_cell_angle_beta   109.57711631
_cell_angle_gamma   109.57711321
_symmetry_Int_Tables_number   1
_chemical_formula_structural   Sm12Ga(SiBr4)3
_chemical_formula_sum   'Sm12 Ga1 Si3 Br12'
_cell_volume   840.90524805
_cell_formula_units_Z   1
loop_
 _symmetry_equiv_pos_site_id
 _symmetry_equiv_pos_as_xyz
  1  'x, y, z'
loop_
 _atom_site_type_symbol
 _atom_site_label
 _atom_site_symmetry_multiplicity
 _atom_site_fract_x
 _atom_site_fract_y
 _atom_site_fract_z
 _atom_site_occupancy
  Sm  Sm0  1  0.478933  0.491360  0.237787  1
  Sm  Sm1  1  0.750000  0.237571  0.262429  1
  Sm  Sm2  1  0.750000  0.012336  0.487664  1
  Sm  Sm3  1  0.237787  0.478933  0.491360  1
  Sm  Sm4  1  0.262429  0.750000  0.237571  1
  Sm  Sm5  1  0.021067  0.262213  0.008640  1
  Sm  Sm6  1  0.008640  0.021067  0.262213  1
  Sm  Sm7  1  0.487664  0.750000  0.012336  1
  Sm  Sm8  1  0.491360  0.237787  0.478933  1
  Sm  Sm9  1  0.012336  0.487664  0.750000  1
  Sm  Sm10  1  0.262213  0.008640  0.021067  1
  Sm  Sm11  1  0.237571  0.262429  0.750000  1
  Ga  Ga12  1  0.250000  0.250000  0.250000  1
  Si  Si13  1  0.499621  0.000379  0.250000  1
  Si  Si14  1  0.000379  0.250000  0.499621  1
  Si  Si15  1  0.250000  0.499621  0.000379  1
  Br  Br16  1  0.250000  0.754264  0.745736  1
  Br  Br17  1  0.508678  0.504587  0.754902  1
  Br  Br18  1  0.991322  0.745098  0.995413  1
  Br  Br19  1  0.745736  0.250000  0.754264  1
  Br  Br20  1  0.995413  0.991322  0.745098  1
  Br  Br21  1  0.250000  0.995304  0.504696  1
  Br  Br22  1  0.754902  0.508678  0.504587  1
  Br  Br23  1  0.504696  0.250000  0.995304  1
  Br  Br24  1  0.754264  0.745736  0.250000  1
  Br  Br25  1  0.745098  0.995413  0.991322  1
  Br  Br26  1  0.995304  0.504696  0.250000  1
  Br  Br27  1  0.504587  0.754902  0.508678  1
