# generated using pymatgen
data_Li4In3SbRh8
_symmetry_space_group_name_H-M   'P 1'
_cell_length_a   6.24189500
_cell_length_b   6.22178400
_cell_length_c   6.24105700
_cell_angle_alpha   89.99898856
_cell_angle_beta   89.99871482
_cell_angle_gamma   90.00011032
_symmetry_Int_Tables_number   1
_chemical_formula_structural   Li4In3SbRh8
_chemical_formula_sum   'Li4 In3 Sb1 Rh8'
_cell_volume   242.37595734
_cell_formula_units_Z   1
loop_
 _symmetry_equiv_pos_site_id
 _symmetry_equiv_pos_as_xyz
  1  'x, y, z'
loop_
 _atom_site_type_symbol
 _atom_site_label
 _atom_site_symmetry_multiplicity
 _atom_site_fract_x
 _atom_site_fract_y
 _atom_site_fract_z
 _atom_site_occupancy
  Li  Li0  1  0.500020  0.750019  0.250073  1
  Li  Li1  1  0.999985  0.249984  0.250054  1
  Li  Li2  1  0.999974  0.750018  0.749937  1
  Li  Li3  1  0.500009  0.249979  0.749941  1
  In  In4  1  0.500008  0.249993  0.249976  1
  In  In5  1  0.999998  0.750005  0.249941  1
  In  In6  1  0.999987  0.249993  0.750062  1
  Sb  Sb7  1  0.500010  0.750006  0.750006  1
  Rh  Rh8  1  0.254082  0.996152  0.995928  1
  Rh  Rh9  1  0.745923  0.996144  0.995928  1
  Rh  Rh10  1  0.745918  0.503855  0.995930  1
  Rh  Rh11  1  0.254086  0.503855  0.995932  1
  Rh  Rh12  1  0.254060  0.503876  0.504073  1
  Rh  Rh13  1  0.254072  0.996128  0.504074  1
  Rh  Rh14  1  0.745940  0.503881  0.504073  1
  Rh  Rh15  1  0.745926  0.996113  0.504074  1
