# generated using pymatgen
data_Ho5In2SnS
_symmetry_space_group_name_H-M   'P 1'
_cell_length_a   8.92765300
_cell_length_b   8.92765342
_cell_length_c   6.65612700
_cell_angle_alpha   90.00000000
_cell_angle_beta   90.00000000
_cell_angle_gamma   120.19173007
_symmetry_Int_Tables_number   1
_chemical_formula_structural   Ho5In2SnS
_chemical_formula_sum   'Ho10 In4 Sn2 S2'
_cell_volume   458.54773487
_cell_formula_units_Z   2
loop_
 _symmetry_equiv_pos_site_id
 _symmetry_equiv_pos_as_xyz
  1  'x, y, z'
loop_
 _atom_site_type_symbol
 _atom_site_label
 _atom_site_symmetry_multiplicity
 _atom_site_fract_x
 _atom_site_fract_y
 _atom_site_fract_z
 _atom_site_occupancy
  Ho  Ho0  1  0.668173  0.332313  0.998013  1
  Ho  Ho1  1  0.332313  0.668173  0.998013  1
  Ho  Ho2  1  0.332313  0.668173  0.501987  1
  Ho  Ho3  1  0.668173  0.332313  0.501987  1
  Ho  Ho4  1  0.757244  0.757244  0.750000  1
  Ho  Ho5  1  0.244512  0.998762  0.750000  1
  Ho  Ho6  1  0.998762  0.244512  0.750000  1
  Ho  Ho7  1  0.240725  0.240725  0.250000  1
  Ho  Ho8  1  0.755265  0.999826  0.250000  1
  Ho  Ho9  1  0.999826  0.755265  0.250000  1
  In  In10  1  0.404347  0.404347  0.750000  1
  In  In11  1  0.599692  0.000826  0.750000  1
  In  In12  1  0.000826  0.599692  0.750000  1
  In  In13  1  0.597254  0.597254  0.250000  1
  Sn  Sn14  1  0.399829  0.000630  0.250000  1
  Sn  Sn15  1  0.000630  0.399829  0.250000  1
  S  S16  1  0.000057  0.000057  0.001770  1
  S  S17  1  0.000057  0.000057  0.498230  1
