# generated using pymatgen
data_Ce2PaMn2Os
_symmetry_space_group_name_H-M   'P 1'
_cell_length_a   5.11398376
_cell_length_b   5.72828013
_cell_length_c   5.11398474
_cell_angle_alpha   120.11044081
_cell_angle_beta   113.70226078
_cell_angle_gamma   91.84619649
_symmetry_Int_Tables_number   1
_chemical_formula_structural   Ce2PaMn2Os
_chemical_formula_sum   'Ce2 Pa1 Mn2 Os1'
_cell_volume   113.37281167
_cell_formula_units_Z   1
loop_
 _symmetry_equiv_pos_site_id
 _symmetry_equiv_pos_as_xyz
  1  'x, y, z'
loop_
 _atom_site_type_symbol
 _atom_site_label
 _atom_site_symmetry_multiplicity
 _atom_site_fract_x
 _atom_site_fract_y
 _atom_site_fract_z
 _atom_site_occupancy
  Ce  Ce0  1  0.116971  0.876347  0.259377  1
  Ce  Ce1  1  0.883029  0.123653  0.740623  1
  Pa  Pa2  1  0.500000  0.500000  0.500000  1
  Mn  Mn3  1  0.500000  0.500000  0.000000  1
  Mn  Mn4  1  0.000000  0.500000  0.500000  1
  Os  Os5  1  0.500000  0.000000  0.000000  1
