# generated using pymatgen
data_Ta7Ti3Si5Ge
_symmetry_space_group_name_H-M   'P 1'
_cell_length_a   7.56080830
_cell_length_b   7.54661218
_cell_length_c   7.55970198
_cell_angle_alpha   128.86689385
_cell_angle_beta   128.89947431
_cell_angle_gamma   75.15472602
_symmetry_Int_Tables_number   1
_chemical_formula_structural   Ta7Ti3Si5Ge
_chemical_formula_sum   'Ta7 Ti3 Si5 Ge1'
_cell_volume   254.52078392
_cell_formula_units_Z   1
loop_
 _symmetry_equiv_pos_site_id
 _symmetry_equiv_pos_as_xyz
  1  'x, y, z'
loop_
 _atom_site_type_symbol
 _atom_site_label
 _atom_site_symmetry_multiplicity
 _atom_site_fract_x
 _atom_site_fract_y
 _atom_site_fract_z
 _atom_site_occupancy
  Ta  Ta0  1  0.684363  0.511817  0.494664  1
  Ta  Ta1  1  0.512679  0.017514  0.827641  1
  Ta  Ta2  1  0.190133  0.684475  0.172120  1
  Ta  Ta3  1  0.989273  0.814926  0.505311  1
  Ta  Ta4  1  0.310953  0.481945  0.495090  1
  Ta  Ta5  1  0.480300  0.987710  0.170867  1
  Ta  Ta6  1  0.814736  0.311755  0.829213  1
  Ti  Ti7  1  0.017240  0.189681  0.504585  1
  Ti  Ti8  1  0.001255  0.000074  0.998951  1
  Ti  Ti9  1  0.500798  0.499681  0.000868  1
  Si  Si10  1  0.248195  0.250272  0.996468  1
  Si  Si11  1  0.364195  0.132173  0.499985  1
  Si  Si12  1  0.632586  0.868727  0.499865  1
  Si  Si13  1  0.869181  0.366108  0.237371  1
  Si  Si14  1  0.131726  0.628328  0.762347  1
  Ge  Ge15  1  0.752387  0.754814  0.004653  1
