# generated using pymatgen
data_Na2LiHfTaNi9As7
_symmetry_space_group_name_H-M   'P 1'
_cell_length_a   9.57570600
_cell_length_b   9.55323056
_cell_length_c   3.83784800
_cell_angle_alpha   90.00000000
_cell_angle_beta   90.00000000
_cell_angle_gamma   119.66275747
_symmetry_Int_Tables_number   1
_chemical_formula_structural   Na2LiHfTaNi9As7
_chemical_formula_sum   'Na2 Li1 Hf1 Ta1 Ni9 As7'
_cell_volume   305.07408034
_cell_formula_units_Z   1
loop_
 _symmetry_equiv_pos_site_id
 _symmetry_equiv_pos_as_xyz
  1  'x, y, z'
loop_
 _atom_site_type_symbol
 _atom_site_label
 _atom_site_symmetry_multiplicity
 _atom_site_fract_x
 _atom_site_fract_y
 _atom_site_fract_z
 _atom_site_occupancy
  Na  Na0  1  0.341013  0.668809  0.000000  1
  Na  Na1  1  0.665557  0.330257  0.500000  1
  Li  Li2  1  0.882589  0.111992  0.500000  1
  Hf  Hf3  1  0.896190  0.773350  0.500000  1
  Ta  Ta4  1  0.221210  0.120342  0.500000  1
  Ni  Ni5  1  0.120507  0.287503  0.000000  1
  Ni  Ni6  1  0.718019  0.839835  0.000000  1
  Ni  Ni7  1  0.158571  0.873545  0.000000  1
  Ni  Ni8  1  0.419101  0.362812  0.000000  1
  Ni  Ni9  1  0.630495  0.055293  0.000000  1
  Ni  Ni10  1  0.944821  0.574788  0.000000  1
  Ni  Ni11  1  0.041339  0.429711  0.500000  1
  Ni  Ni12  1  0.564178  0.617607  0.500000  1
  Ni  Ni13  1  0.388691  0.952168  0.500000  1
  As  As14  1  0.290825  0.417766  0.500000  1
  As  As15  1  0.591395  0.880603  0.500000  1
  As  As16  1  0.136917  0.707736  0.500000  1
  As  As17  1  0.419823  0.115175  0.000000  1
  As  As18  1  0.880475  0.302156  0.000000  1
  As  As19  1  0.687243  0.571565  0.000000  1
  As  As20  1  0.001040  0.006986  0.000000  1
