# generated using pymatgen
data_Hf6Ta3Nb(GaGe)3
_symmetry_space_group_name_H-M   'P 1'
_cell_length_a   7.91907613
_cell_length_b   7.91577434
_cell_length_c   5.43237402
_cell_angle_alpha   90.00997379
_cell_angle_beta   89.99835157
_cell_angle_gamma   120.03437753
_symmetry_Int_Tables_number   1
_chemical_formula_structural   Hf6Ta3Nb(GaGe)3
_chemical_formula_sum   'Hf6 Ta3 Nb1 Ga3 Ge3'
_cell_volume   294.80691244
_cell_formula_units_Z   1
loop_
 _symmetry_equiv_pos_site_id
 _symmetry_equiv_pos_as_xyz
  1  'x, y, z'
loop_
 _atom_site_type_symbol
 _atom_site_label
 _atom_site_symmetry_multiplicity
 _atom_site_fract_x
 _atom_site_fract_y
 _atom_site_fract_z
 _atom_site_occupancy
  Hf  Hf0  1  0.748140  0.747576  0.249978  1
  Hf  Hf1  1  0.747267  0.000413  0.750017  1
  Hf  Hf2  1  0.999793  0.252047  0.250039  1
  Hf  Hf3  1  0.251022  0.250597  0.750025  1
  Hf  Hf4  1  0.250655  0.000285  0.250000  1
  Hf  Hf5  1  0.999745  0.749043  0.749963  1
  Ta  Ta6  1  0.667142  0.333341  0.000311  1
  Ta  Ta7  1  0.667229  0.333355  0.499723  1
  Ta  Ta8  1  0.333871  0.666647  0.499647  1
  Nb  Nb9  1  0.334032  0.666683  0.000242  1
  Ga  Ga10  1  0.000856  0.606058  0.250153  1
  Ga  Ga11  1  0.394635  0.394075  0.250199  1
  Ga  Ga12  1  0.394074  0.999866  0.749834  1
  Ge  Ge13  1  0.604923  0.999755  0.250210  1
  Ge  Ge14  1  0.605589  0.605059  0.749806  1
  Ge  Ge15  1  0.001026  0.395200  0.749853  1
