# generated using pymatgen
data_Tb15TmTlIn3Rh4
_symmetry_space_group_name_H-M   'P 1'
_cell_length_a   9.70351825
_cell_length_b   9.70351889
_cell_length_c   9.69237501
_cell_angle_alpha   60.03443981
_cell_angle_beta   60.03443864
_cell_angle_gamma   59.96773734
_symmetry_Int_Tables_number   1
_chemical_formula_structural   Tb15TmTlIn3Rh4
_chemical_formula_sum   'Tb15 Tm1 Tl1 In3 Rh4'
_cell_volume   645.49585143
_cell_formula_units_Z   1
loop_
 _symmetry_equiv_pos_site_id
 _symmetry_equiv_pos_as_xyz
  1  'x, y, z'
loop_
 _atom_site_type_symbol
 _atom_site_label
 _atom_site_symmetry_multiplicity
 _atom_site_fract_x
 _atom_site_fract_y
 _atom_site_fract_z
 _atom_site_occupancy
  Tb  Tb0  1  0.810680  0.188389  0.811849  1
  Tb  Tb1  1  0.189098  0.189098  0.811453  1
  Tb  Tb2  1  0.650950  0.048726  0.650448  1
  Tb  Tb3  1  0.062232  0.062232  0.437784  1
  Tb  Tb4  1  0.438351  0.438351  0.061271  1
  Tb  Tb5  1  0.650514  0.650514  0.649698  1
  Tb  Tb6  1  0.811598  0.187972  0.188776  1
  Tb  Tb7  1  0.188389  0.810680  0.811849  1
  Tb  Tb8  1  0.048726  0.650950  0.650448  1
  Tb  Tb9  1  0.439003  0.061190  0.062378  1
  Tb  Tb10  1  0.439261  0.060505  0.437776  1
  Tb  Tb11  1  0.061190  0.439003  0.062378  1
  Tb  Tb12  1  0.650821  0.650821  0.048946  1
  Tb  Tb13  1  0.187972  0.811598  0.188776  1
  Tb  Tb14  1  0.060505  0.439261  0.437776  1
  Tm  Tm15  1  0.810866  0.810866  0.189202  1
  Tl  Tl16  1  0.416018  0.416018  0.415511  1
  In  In17  1  0.417543  0.417543  0.748900  1
  In  In18  1  0.417891  0.748579  0.417437  1
  In  In19  1  0.748579  0.417891  0.417437  1
  Rh  Rh20  1  0.858154  0.427492  0.857065  1
  Rh  Rh21  1  0.857113  0.857113  0.859517  1
  Rh  Rh22  1  0.857049  0.857049  0.426262  1
  Rh  Rh23  1  0.427492  0.858154  0.857065  1
