# generated using pymatgen
data_Tb3Sm7(Pb3Br)2
_symmetry_space_group_name_H-M   'P 1'
_cell_length_a   9.43890100
_cell_length_b   9.43890107
_cell_length_c   6.79592500
_cell_angle_alpha   90.00000000
_cell_angle_beta   90.00000000
_cell_angle_gamma   119.99998923
_symmetry_Int_Tables_number   1
_chemical_formula_structural   Tb3Sm7(Pb3Br)2
_chemical_formula_sum   'Tb3 Sm7 Pb6 Br2'
_cell_volume   524.35102529
_cell_formula_units_Z   1
loop_
 _symmetry_equiv_pos_site_id
 _symmetry_equiv_pos_as_xyz
  1  'x, y, z'
loop_
 _atom_site_type_symbol
 _atom_site_label
 _atom_site_symmetry_multiplicity
 _atom_site_fract_x
 _atom_site_fract_y
 _atom_site_fract_z
 _atom_site_occupancy
  Tb  Tb0  1  0.666667  0.333333  0.000000  1
  Tb  Tb1  1  0.666667  0.333333  0.500000  1
  Tb  Tb2  1  0.333333  0.666667  0.500000  1
  Sm  Sm3  1  0.266586  0.000351  0.250426  1
  Sm  Sm4  1  0.733765  0.000351  0.749574  1
  Sm  Sm5  1  0.999649  0.266235  0.250426  1
  Sm  Sm6  1  0.999649  0.733414  0.749574  1
  Sm  Sm7  1  0.733765  0.733414  0.250426  1
  Sm  Sm8  1  0.266586  0.266235  0.749574  1
  Sm  Sm9  1  0.333333  0.666667  0.000000  1
  Pb  Pb10  1  0.612381  0.001570  0.251020  1
  Pb  Pb11  1  0.389189  0.001570  0.748980  1
  Pb  Pb12  1  0.998430  0.610811  0.251020  1
  Pb  Pb13  1  0.998430  0.387619  0.748980  1
  Pb  Pb14  1  0.389189  0.387619  0.251020  1
  Pb  Pb15  1  0.612381  0.610811  0.748980  1
  Br  Br16  1  0.000000  0.000000  0.000000  1
  Br  Br17  1  0.000000  0.000000  0.500000  1
