# generated using pymatgen
data_Hf18Re2Mo3As2W3
_symmetry_space_group_name_H-M   'P 1'
_cell_length_a   8.68192328
_cell_length_b   8.71637660
_cell_length_c   8.66091400
_cell_angle_alpha   90.00000000
_cell_angle_beta   90.00000000
_cell_angle_gamma   120.04212387
_symmetry_Int_Tables_number   1
_chemical_formula_structural   Hf18Re2Mo3As2W3
_chemical_formula_sum   'Hf18 Re2 Mo3 As2 W3'
_cell_volume   567.36401503
_cell_formula_units_Z   1
loop_
 _symmetry_equiv_pos_site_id
 _symmetry_equiv_pos_as_xyz
  1  'x, y, z'
loop_
 _atom_site_type_symbol
 _atom_site_label
 _atom_site_symmetry_multiplicity
 _atom_site_fract_x
 _atom_site_fract_y
 _atom_site_fract_z
 _atom_site_occupancy
  Hf  Hf0  1  0.805111  0.610653  0.546337  1
  Hf  Hf1  1  0.805418  0.194664  0.546377  1
  Hf  Hf2  1  0.388451  0.194455  0.545455  1
  Hf  Hf3  1  0.194692  0.388925  0.452901  1
  Hf  Hf4  1  0.195284  0.805485  0.453525  1
  Hf  Hf5  1  0.610959  0.805633  0.454572  1
  Hf  Hf6  1  0.194692  0.388925  0.047099  1
  Hf  Hf7  1  0.195284  0.805485  0.046475  1
  Hf  Hf8  1  0.610959  0.805633  0.045428  1
  Hf  Hf9  1  0.805111  0.610653  0.953663  1
  Hf  Hf10  1  0.805418  0.194664  0.953623  1
  Hf  Hf11  1  0.388451  0.194455  0.954545  1
  Hf  Hf12  1  0.460570  0.919673  0.750000  1
  Hf  Hf13  1  0.460097  0.540765  0.750000  1
  Hf  Hf14  1  0.080331  0.539900  0.750000  1
  Hf  Hf15  1  0.539874  0.081157  0.250000  1
  Hf  Hf16  1  0.540296  0.458986  0.250000  1
  Hf  Hf17  1  0.918980  0.459791  0.250000  1
  Re  Re18  1  0.778307  0.889633  0.750000  1
  Re  Re19  1  0.222123  0.110855  0.250000  1
  Mo  Mo20  1  0.110467  0.890055  0.750000  1
  Mo  Mo21  1  0.889806  0.779471  0.250000  1
  Mo  Mo22  1  0.889501  0.110164  0.250000  1
  As  As23  1  0.666823  0.333882  0.750000  1
  As  As24  1  0.333541  0.666826  0.250000  1
  W  W25  1  0.109703  0.219774  0.750000  1
  W  W26  1  0.999873  0.999720  0.499534  1
  W  W27  1  0.999873  0.999720  0.000466  1
