# generated using pymatgen
data_Ta4TiNb(B2Ru5)2
_symmetry_space_group_name_H-M   'P 1'
_cell_length_a   9.40647367
_cell_length_b   9.40644967
_cell_length_c   3.01612500
_cell_angle_alpha   90.00000000
_cell_angle_beta   90.00000000
_cell_angle_gamma   89.93169430
_symmetry_Int_Tables_number   1
_chemical_formula_structural   Ta4TiNb(B2Ru5)2
_chemical_formula_sum   'Ta4 Ti1 Nb1 B4 Ru10'
_cell_volume   266.87113839
_cell_formula_units_Z   1
loop_
 _symmetry_equiv_pos_site_id
 _symmetry_equiv_pos_as_xyz
  1  'x, y, z'
loop_
 _atom_site_type_symbol
 _atom_site_label
 _atom_site_symmetry_multiplicity
 _atom_site_fract_x
 _atom_site_fract_y
 _atom_site_fract_z
 _atom_site_occupancy
  Ta  Ta0  1  0.821511  0.674704  0.000000  1
  Ta  Ta1  1  0.178515  0.325390  0.000000  1
  Ta  Ta2  1  0.324923  0.821018  0.000000  1
  Ta  Ta3  1  0.999976  0.999959  0.000000  1
  Ti  Ti4  1  0.499947  0.500053  0.000000  1
  Nb  Nb5  1  0.674788  0.178460  0.000000  1
  B  B6  1  0.618854  0.874304  0.000000  1
  B  B7  1  0.381150  0.125770  0.000000  1
  B  B8  1  0.125804  0.618920  0.000000  1
  B  B9  1  0.874130  0.381039  0.000000  1
  Ru  Ru10  1  0.569605  0.715390  0.500000  1
  Ru  Ru11  1  0.429766  0.284497  0.500000  1
  Ru  Ru12  1  0.071962  0.781250  0.500000  1
  Ru  Ru13  1  0.929027  0.219361  0.500000  1
  Ru  Ru14  1  0.284597  0.569781  0.500000  1
  Ru  Ru15  1  0.715875  0.431015  0.500000  1
  Ru  Ru16  1  0.218752  0.071727  0.500000  1
  Ru  Ru17  1  0.781101  0.927585  0.500000  1
  Ru  Ru18  1  0.499560  0.999589  0.500000  1
  Ru  Ru19  1  0.000157  0.500186  0.500000  1
