# generated using pymatgen
data_K4Mg3FeP4(O7F2)2
_symmetry_space_group_name_H-M   'P 1'
_cell_length_a   6.77059400
_cell_length_b   10.31454600
_cell_length_c   11.12880500
_cell_angle_alpha   90.00000000
_cell_angle_beta   90.00000000
_cell_angle_gamma   90.00000000
_symmetry_Int_Tables_number   1
_chemical_formula_structural   K4Mg3FeP4(O7F2)2
_chemical_formula_sum   'K8 Mg6 Fe2 P8 O28 F8'
_cell_volume   777.18681074
_cell_formula_units_Z   2
loop_
 _symmetry_equiv_pos_site_id
 _symmetry_equiv_pos_as_xyz
  1  'x, y, z'
loop_
 _atom_site_type_symbol
 _atom_site_label
 _atom_site_symmetry_multiplicity
 _atom_site_fract_x
 _atom_site_fract_y
 _atom_site_fract_z
 _atom_site_occupancy
  K  K0  1  0.495710  0.064279  0.826068  1
  K  K1  1  0.004290  0.564279  0.673932  1
  K  K2  1  0.995710  0.935721  0.673932  1
  K  K3  1  0.504290  0.435721  0.826068  1
  K  K4  1  0.501980  0.934659  0.172203  1
  K  K5  1  0.998020  0.434659  0.327797  1
  K  K6  1  0.001980  0.065341  0.327797  1
  K  K7  1  0.498020  0.565341  0.172203  1
  Mg  Mg8  1  0.000000  0.250000  0.839780  1
  Mg  Mg9  1  0.500000  0.750000  0.660220  1
  Mg  Mg10  1  0.000097  0.001093  0.998031  1
  Mg  Mg11  1  0.499903  0.501093  0.501969  1
  Mg  Mg12  1  0.500097  0.998907  0.501969  1
  Mg  Mg13  1  0.999903  0.498907  0.998031  1
  Fe  Fe14  1  0.000000  0.750000  0.160742  1
  Fe  Fe15  1  0.500000  0.250000  0.339258  1
  P  P16  1  0.219357  0.248369  0.584532  1
  P  P17  1  0.280643  0.748369  0.915468  1
  P  P18  1  0.719357  0.751631  0.915468  1
  P  P19  1  0.780643  0.251631  0.584532  1
  P  P20  1  0.779540  0.751860  0.419241  1
  P  P21  1  0.720460  0.251860  0.080759  1
  P  P22  1  0.279540  0.248140  0.080759  1
  P  P23  1  0.220460  0.748140  0.419241  1
  O  O24  1  0.000000  0.250000  0.521570  1
  O  O25  1  0.500000  0.750000  0.978430  1
  O  O26  1  0.000000  0.750000  0.480327  1
  O  O27  1  0.500000  0.250000  0.019673  1
  O  O28  1  0.168085  0.329398  0.986802  1
  O  O29  1  0.331915  0.829398  0.513198  1
  O  O30  1  0.668085  0.670602  0.513198  1
  O  O31  1  0.831915  0.170602  0.986802  1
  O  O32  1  0.831204  0.666819  0.006264  1
  O  O33  1  0.668796  0.166819  0.493736  1
  O  O34  1  0.331204  0.333181  0.493736  1
  O  O35  1  0.168796  0.833181  0.006264  1
  O  O36  1  0.283003  0.106918  0.589131  1
  O  O37  1  0.216997  0.606918  0.910869  1
  O  O38  1  0.783003  0.893082  0.910869  1
  O  O39  1  0.716997  0.393082  0.589131  1
  O  O40  1  0.717027  0.893432  0.411794  1
  O  O41  1  0.782973  0.393432  0.088206  1
  O  O42  1  0.217027  0.106568  0.088206  1
  O  O43  1  0.282973  0.606568  0.411794  1
  O  O44  1  0.199500  0.309860  0.708713  1
  O  O45  1  0.300500  0.809860  0.791287  1
  O  O46  1  0.699500  0.690140  0.791287  1
  O  O47  1  0.800500  0.190140  0.708713  1
  O  O48  1  0.794441  0.686785  0.296247  1
  O  O49  1  0.705559  0.186785  0.203753  1
  O  O50  1  0.294441  0.313215  0.203753  1
  O  O51  1  0.205559  0.813215  0.296247  1
  F  F52  1  0.112763  0.074825  0.849433  1
  F  F53  1  0.387237  0.574825  0.650567  1
  F  F54  1  0.612763  0.925175  0.650567  1
  F  F55  1  0.887237  0.425175  0.849433  1
  F  F56  1  0.886395  0.930073  0.148848  1
  F  F57  1  0.613605  0.430073  0.351152  1
  F  F58  1  0.386395  0.069927  0.351152  1
  F  F59  1  0.113605  0.569927  0.148848  1
