# generated using pymatgen
data_Dy3Ho5(TmIr2)2
_symmetry_space_group_name_H-M   'P 1'
_cell_length_a   6.47046106
_cell_length_b   7.18686495
_cell_length_c   8.46573970
_cell_angle_alpha   96.52740954
_cell_angle_beta   112.44152279
_cell_angle_gamma   89.98032193
_symmetry_Int_Tables_number   1
_chemical_formula_structural   Dy3Ho5(TmIr2)2
_chemical_formula_sum   'Dy3 Ho5 Tm2 Ir4'
_cell_volume   361.10710336
_cell_formula_units_Z   1
loop_
 _symmetry_equiv_pos_site_id
 _symmetry_equiv_pos_as_xyz
  1  'x, y, z'
loop_
 _atom_site_type_symbol
 _atom_site_label
 _atom_site_symmetry_multiplicity
 _atom_site_fract_x
 _atom_site_fract_y
 _atom_site_fract_z
 _atom_site_occupancy
  Dy  Dy0  1  0.970347  0.918870  0.182040  1
  Dy  Dy1  1  0.788474  0.581146  0.818125  1
  Dy  Dy2  1  0.029848  0.081169  0.818136  1
  Ho  Ho3  1  0.211495  0.418695  0.181961  1
  Ho  Ho4  1  0.653435  0.817245  0.440945  1
  Ho  Ho5  1  0.212503  0.682525  0.558752  1
  Ho  Ho6  1  0.346480  0.182789  0.558893  1
  Ho  Ho7  1  0.787204  0.317419  0.440936  1
  Tm  Tm8  1  0.428122  0.749929  0.000090  1
  Tm  Tm9  1  0.571780  0.250065  0.000079  1
  Ir  Ir10  1  0.823866  0.572515  0.217998  1
  Ir  Ir11  1  0.605257  0.927211  0.781994  1
  Ir  Ir12  1  0.176657  0.427256  0.782116  1
  Ir  Ir13  1  0.394532  0.073166  0.217935  1
