# generated using pymatgen
data_YbLu5(Si3Pt2)4
_symmetry_space_group_name_H-M   'P 1'
_cell_length_a   4.25466300
_cell_length_b   8.58488392
_cell_length_c   12.92092500
_cell_angle_alpha   80.10278698
_cell_angle_beta   90.00000000
_cell_angle_gamma   90.00000000
_symmetry_Int_Tables_number   1
_chemical_formula_structural   YbLu5(Si3Pt2)4
_chemical_formula_sum   'Yb1 Lu5 Si12 Pt8'
_cell_volume   464.92330502
_cell_formula_units_Z   1
loop_
 _symmetry_equiv_pos_site_id
 _symmetry_equiv_pos_as_xyz
  1  'x, y, z'
loop_
 _atom_site_type_symbol
 _atom_site_label
 _atom_site_symmetry_multiplicity
 _atom_site_fract_x
 _atom_site_fract_y
 _atom_site_fract_z
 _atom_site_occupancy
  Yb  Yb0  1  0.250000  0.070811  0.186626  1
  Lu  Lu1  1  0.250000  0.766810  0.438539  1
  Lu  Lu2  1  0.250000  0.589506  0.184822  1
  Lu  Lu3  1  0.750000  0.233735  0.562162  1
  Lu  Lu4  1  0.750000  0.414826  0.811290  1
  Lu  Lu5  1  0.750000  0.928048  0.815531  1
  Si  Si6  1  0.750000  0.587057  0.570646  1
  Si  Si7  1  0.750000  0.129145  0.006552  1
  Si  Si8  1  0.750000  0.867540  0.579123  1
  Si  Si9  1  0.250000  0.697917  0.712110  1
  Si  Si10  1  0.750000  0.304337  0.288281  1
  Si  Si11  1  0.750000  0.804390  0.276960  1
  Si  Si12  1  0.250000  0.873358  0.990937  1
  Si  Si13  1  0.250000  0.193417  0.722149  1
  Si  Si14  1  0.250000  0.378576  0.001931  1
  Si  Si15  1  0.250000  0.125098  0.429774  1
  Si  Si16  1  0.750000  0.620417  0.996567  1
  Si  Si17  1  0.250000  0.410553  0.429886  1
  Pt  Pt18  1  0.750000  0.354923  0.101508  1
  Pt  Pt19  1  0.250000  0.973321  0.621732  1
  Pt  Pt20  1  0.750000  0.847934  0.086965  1
  Pt  Pt21  1  0.750000  0.028896  0.377240  1
  Pt  Pt22  1  0.250000  0.646984  0.898710  1
  Pt  Pt23  1  0.250000  0.152227  0.909735  1
  Pt  Pt24  1  0.750000  0.533229  0.376592  1
  Pt  Pt25  1  0.250000  0.466943  0.623630  1
