# generated using pymatgen
data_Nd2Cd2IrRh3O14
_symmetry_space_group_name_H-M   'P 1'
_cell_length_a   7.31731138
_cell_length_b   7.31731196
_cell_length_c   7.46374436
_cell_angle_alpha   59.12228597
_cell_angle_beta   59.12228514
_cell_angle_gamma   58.99546422
_symmetry_Int_Tables_number   1
_chemical_formula_structural   Nd2Cd2IrRh3O14
_chemical_formula_sum   'Nd2 Cd2 Ir1 Rh3 O14'
_cell_volume   276.65399956
_cell_formula_units_Z   1
loop_
 _symmetry_equiv_pos_site_id
 _symmetry_equiv_pos_as_xyz
  1  'x, y, z'
loop_
 _atom_site_type_symbol
 _atom_site_label
 _atom_site_symmetry_multiplicity
 _atom_site_fract_x
 _atom_site_fract_y
 _atom_site_fract_z
 _atom_site_occupancy
  Nd  Nd0  1  0.125000  0.125000  0.625000  1
  Nd  Nd1  1  0.125000  0.125000  0.125000  1
  Cd  Cd2  1  0.625000  0.125000  0.125000  1
  Cd  Cd3  1  0.125000  0.625000  0.125000  1
  Ir  Ir4  1  0.625000  0.625000  0.625000  1
  Rh  Rh5  1  0.125000  0.625000  0.625000  1
  Rh  Rh6  1  0.625000  0.125000  0.625000  1
  Rh  Rh7  1  0.625000  0.625000  0.125000  1
  O  O8  1  0.695243  0.695243  0.309442  1
  O  O9  1  0.288126  0.288126  0.708577  1
  O  O10  1  0.702676  0.301865  0.696540  1
  O  O11  1  0.294884  0.700772  0.297472  1
  O  O12  1  0.301865  0.702676  0.696540  1
  O  O13  1  0.700772  0.294884  0.297472  1
  O  O14  1  0.554757  0.554757  0.940558  1
  O  O15  1  0.961874  0.961874  0.541423  1
  O  O16  1  0.547324  0.948135  0.553460  1
  O  O17  1  0.955116  0.549228  0.952528  1
  O  O18  1  0.948135  0.547324  0.553460  1
  O  O19  1  0.549228  0.955116  0.952528  1
  O  O20  1  0.259386  0.259386  0.240997  1
  O  O21  1  0.990614  0.990614  0.009003  1
