# generated using pymatgen
data_Ca7PrBi6
_symmetry_space_group_name_H-M   'P 1'
_cell_length_a   8.45639495
_cell_length_b   8.45639551
_cell_length_c   8.37902300
_cell_angle_alpha   109.28598437
_cell_angle_beta   109.28598568
_cell_angle_gamma   109.65582076
_symmetry_Int_Tables_number   1
_chemical_formula_structural   Ca7PrBi6
_chemical_formula_sum   'Ca7 Pr1 Bi6'
_cell_volume   462.30623212
_cell_formula_units_Z   1
loop_
 _symmetry_equiv_pos_site_id
 _symmetry_equiv_pos_as_xyz
  1  'x, y, z'
loop_
 _atom_site_type_symbol
 _atom_site_label
 _atom_site_symmetry_multiplicity
 _atom_site_fract_x
 _atom_site_fract_y
 _atom_site_fract_z
 _atom_site_occupancy
  Ca  Ca0  1  0.500000  0.000000  0.144839  1
  Ca  Ca1  1  0.644766  0.501977  0.001818  1
  Ca  Ca2  1  0.998023  0.642790  0.499841  1
  Ca  Ca3  1  0.857210  0.855234  0.857051  1
  Ca  Ca4  1  0.999961  0.145227  0.500043  1
  Ca  Ca5  1  0.354773  0.354735  0.354816  1
  Ca  Ca6  1  0.145265  0.500039  0.000081  1
  Pr  Pr7  1  0.500000  0.000000  0.641888  1
  Bi  Bi8  1  0.626135  0.749786  0.376139  1
  Bi  Bi9  1  0.750214  0.376350  0.626353  1
  Bi  Bi10  1  0.251422  0.124666  0.874405  1
  Bi  Bi11  1  0.375334  0.626756  0.749739  1
  Bi  Bi12  1  0.123650  0.873865  0.250004  1
  Bi  Bi13  1  0.873244  0.248578  0.122983  1
