# generated using pymatgen
data_Er3Lu5Hf9Si16Mo3
_symmetry_space_group_name_H-M   'P 1'
_cell_length_a   7.15003693
_cell_length_b   7.14869802
_cell_length_c   13.05992909
_cell_angle_alpha   90.07796051
_cell_angle_beta   90.10147031
_cell_angle_gamma   90.09579805
_symmetry_Int_Tables_number   1
_chemical_formula_structural   Er3Lu5Hf9Si16Mo3
_chemical_formula_sum   'Er3 Lu5 Hf9 Si16 Mo3'
_cell_volume   667.53549462
_cell_formula_units_Z   1
loop_
 _symmetry_equiv_pos_site_id
 _symmetry_equiv_pos_as_xyz
  1  'x, y, z'
loop_
 _atom_site_type_symbol
 _atom_site_label
 _atom_site_symmetry_multiplicity
 _atom_site_fract_x
 _atom_site_fract_y
 _atom_site_fract_z
 _atom_site_occupancy
  Er  Er0  1  0.497749  0.152828  0.532307  1
  Er  Er1  1  0.344771  0.994915  0.785639  1
  Er  Er2  1  0.654532  0.001399  0.284322  1
  Lu  Lu3  1  0.998940  0.345675  0.215217  1
  Lu  Lu4  1  0.004223  0.655308  0.715102  1
  Lu  Lu5  1  0.153465  0.500368  0.463908  1
  Lu  Lu6  1  0.499128  0.846392  0.036061  1
  Lu  Lu7  1  0.847125  0.501631  0.968225  1
  Hf  Hf8  1  0.677005  0.324000  0.750200  1
  Hf  Hf9  1  0.144176  0.993418  0.373396  1
  Hf  Hf10  1  0.856904  0.003802  0.877408  1
  Hf  Hf11  1  0.505441  0.647298  0.621678  1
  Hf  Hf12  1  0.353597  0.495337  0.878743  1
  Hf  Hf13  1  0.493085  0.355303  0.125763  1
  Hf  Hf14  1  0.645542  0.506062  0.373386  1
  Hf  Hf15  1  0.996847  0.144014  0.623120  1
  Hf  Hf16  1  0.005544  0.855590  0.125797  1
  Si  Si17  1  0.356533  0.297855  0.317614  1
  Si  Si18  1  0.642735  0.704010  0.818734  1
  Si  Si19  1  0.202673  0.857296  0.566525  1
  Si  Si20  1  0.140398  0.793948  0.933475  1
  Si  Si21  1  0.795710  0.141782  0.068817  1
  Si  Si22  1  0.860782  0.205861  0.431565  1
  Si  Si23  1  0.294147  0.360824  0.682136  1
  Si  Si24  1  0.704167  0.641134  0.180866  1
  Si  Si25  1  0.296362  0.052061  0.183692  1
  Si  Si26  1  0.705113  0.946037  0.682521  1
  Si  Si27  1  0.446751  0.795404  0.432139  1
  Si  Si28  1  0.201531  0.551377  0.067777  1
  Si  Si29  1  0.548963  0.201232  0.936597  1
  Si  Si30  1  0.800287  0.453354  0.563846  1
  Si  Si31  1  0.052339  0.298184  0.818146  1
  Si  Si32  1  0.949231  0.701311  0.315329  1
  Mo  Mo33  1  0.176695  0.176498  0.001908  1
  Mo  Mo34  1  0.824892  0.822301  0.498298  1
  Mo  Mo35  1  0.322619  0.676190  0.249745  1
