# generated using pymatgen
data_CaYHo6(SiPd)8
_symmetry_space_group_name_H-M   'P 1'
_cell_length_a   4.32010800
_cell_length_b   7.49553200
_cell_length_c   13.95771300
_cell_angle_alpha   90.00000000
_cell_angle_beta   90.00000000
_cell_angle_gamma   90.00000000
_symmetry_Int_Tables_number   1
_chemical_formula_structural   CaYHo6(SiPd)8
_chemical_formula_sum   'Ca1 Y1 Ho6 Si8 Pd8'
_cell_volume   451.97179179
_cell_formula_units_Z   1
loop_
 _symmetry_equiv_pos_site_id
 _symmetry_equiv_pos_as_xyz
  1  'x, y, z'
loop_
 _atom_site_type_symbol
 _atom_site_label
 _atom_site_symmetry_multiplicity
 _atom_site_fract_x
 _atom_site_fract_y
 _atom_site_fract_z
 _atom_site_occupancy
  Ca  Ca0  1  0.500000  0.707555  0.000000  1
  Y  Y1  1  0.000000  0.303817  0.000000  1
  Ho  Ho2  1  0.500000  0.791080  0.749209  1
  Ho  Ho3  1  0.000000  0.209337  0.750356  1
  Ho  Ho4  1  0.500000  0.791080  0.250791  1
  Ho  Ho5  1  0.000000  0.209337  0.249644  1
  Ho  Ho6  1  0.000000  0.292545  0.500000  1
  Ho  Ho7  1  0.500000  0.699842  0.500000  1
  Si  Si8  1  0.500000  0.407146  0.641860  1
  Si  Si9  1  0.000000  0.591671  0.849250  1
  Si  Si10  1  0.500000  0.407146  0.358140  1
  Si  Si11  1  0.000000  0.591671  0.150750  1
  Si  Si12  1  0.500000  0.093206  0.092899  1
  Si  Si13  1  0.000000  0.907499  0.407585  1
  Si  Si14  1  0.500000  0.093206  0.907101  1
  Si  Si15  1  0.000000  0.907499  0.592415  1
  Pd  Pd16  1  0.500000  0.076216  0.608285  1
  Pd  Pd17  1  0.000000  0.924297  0.889115  1
  Pd  Pd18  1  0.500000  0.076216  0.391715  1
  Pd  Pd19  1  0.000000  0.924297  0.110885  1
  Pd  Pd20  1  0.500000  0.418126  0.158549  1
  Pd  Pd21  1  0.000000  0.579545  0.344361  1
  Pd  Pd22  1  0.500000  0.418126  0.841451  1
  Pd  Pd23  1  0.000000  0.579545  0.655639  1
