# generated using pymatgen
data_Nb(Re6W)4
_symmetry_space_group_name_H-M   'P 1'
_cell_length_a   8.36913114
_cell_length_b   8.36912930
_cell_length_c   8.36913000
_cell_angle_alpha   109.47121506
_cell_angle_beta   109.47121061
_cell_angle_gamma   109.47122484
_symmetry_Int_Tables_number   1
_chemical_formula_structural   Nb(Re6W)4
_chemical_formula_sum   'Nb1 Re24 W4'
_cell_volume   451.25199535
_cell_formula_units_Z   1
loop_
 _symmetry_equiv_pos_site_id
 _symmetry_equiv_pos_as_xyz
  1  'x, y, z'
loop_
 _atom_site_type_symbol
 _atom_site_label
 _atom_site_symmetry_multiplicity
 _atom_site_fract_x
 _atom_site_fract_y
 _atom_site_fract_z
 _atom_site_occupancy
  Nb  Nb0  1  0.000000  0.000000  0.000000  1
  Re  Re1  1  0.402185  0.684984  0.000000  1
  Re  Re2  1  0.717201  0.315016  0.315016  1
  Re  Re3  1  0.402185  0.000000  0.684984  1
  Re  Re4  1  0.684984  0.402185  0.000000  1
  Re  Re5  1  0.000000  0.402185  0.684984  1
  Re  Re6  1  0.315016  0.717201  0.315016  1
  Re  Re7  1  0.315016  0.315016  0.717201  1
  Re  Re8  1  0.000000  0.684984  0.402185  1
  Re  Re9  1  0.684984  0.000000  0.402185  1
  Re  Re10  1  0.597815  0.597815  0.282799  1
  Re  Re11  1  0.282799  0.597815  0.597815  1
  Re  Re12  1  0.597815  0.282799  0.597815  1
  Re  Re13  1  0.376172  0.194078  0.000000  1
  Re  Re14  1  0.182095  0.805922  0.805922  1
  Re  Re15  1  0.376172  0.000000  0.194078  1
  Re  Re16  1  0.194078  0.376172  0.000000  1
  Re  Re17  1  0.000000  0.376172  0.194078  1
  Re  Re18  1  0.805922  0.182095  0.805922  1
  Re  Re19  1  0.805922  0.805922  0.182095  1
  Re  Re20  1  0.000000  0.194078  0.376172  1
  Re  Re21  1  0.194078  0.000000  0.376172  1
  Re  Re22  1  0.623828  0.623828  0.817905  1
  Re  Re23  1  0.817905  0.623828  0.623828  1
  Re  Re24  1  0.623828  0.817905  0.623828  1
  W  W25  1  0.637123  0.000000  0.000000  1
  W  W26  1  0.000000  0.637123  0.000000  1
  W  W27  1  0.000000  0.000000  0.637123  1
  W  W28  1  0.362877  0.362877  0.362877  1
