# generated using pymatgen
data_LiZr(TaNi6)2
_symmetry_space_group_name_H-M   'P 1'
_cell_length_a   5.20964300
_cell_length_b   5.20964259
_cell_length_c   8.45509500
_cell_angle_alpha   90.00000000
_cell_angle_beta   90.00000000
_cell_angle_gamma   119.99999624
_symmetry_Int_Tables_number   1
_chemical_formula_structural   LiZr(TaNi6)2
_chemical_formula_sum   'Li1 Zr1 Ta2 Ni12'
_cell_volume   198.73073226
_cell_formula_units_Z   1
loop_
 _symmetry_equiv_pos_site_id
 _symmetry_equiv_pos_as_xyz
  1  'x, y, z'
loop_
 _atom_site_type_symbol
 _atom_site_label
 _atom_site_symmetry_multiplicity
 _atom_site_fract_x
 _atom_site_fract_y
 _atom_site_fract_z
 _atom_site_occupancy
  Li  Li0  1  0.333333  0.666667  0.250493  1
  Zr  Zr1  1  0.000000  0.000000  0.004895  1
  Ta  Ta2  1  0.000000  0.000000  0.492497  1
  Ta  Ta3  1  0.666667  0.333333  0.752036  1
  Ni  Ni4  1  0.499933  0.500067  0.500635  1
  Ni  Ni5  1  0.499933  0.999865  0.500635  1
  Ni  Ni6  1  0.000135  0.500067  0.500635  1
  Ni  Ni7  1  0.499384  0.500616  0.999471  1
  Ni  Ni8  1  0.499384  0.998766  0.999471  1
  Ni  Ni9  1  0.001234  0.500616  0.999471  1
  Ni  Ni10  1  0.823072  0.176928  0.254944  1
  Ni  Ni11  1  0.823072  0.646143  0.254944  1
  Ni  Ni12  1  0.353857  0.176928  0.254944  1
  Ni  Ni13  1  0.174907  0.825093  0.744976  1
  Ni  Ni14  1  0.174907  0.349817  0.744976  1
  Ni  Ni15  1  0.650183  0.825093  0.744976  1
