# generated using pymatgen
data_Ho3Al3ZnGeIr
_symmetry_space_group_name_H-M   'P 1'
_cell_length_a   6.98942400
_cell_length_b   6.98942422
_cell_length_c   4.20779800
_cell_angle_alpha   90.00000000
_cell_angle_beta   90.00000000
_cell_angle_gamma   119.99999894
_symmetry_Int_Tables_number   1
_chemical_formula_structural   Ho3Al3ZnGeIr
_chemical_formula_sum   'Ho3 Al3 Zn1 Ge1 Ir1'
_cell_volume   178.01979923
_cell_formula_units_Z   1
loop_
 _symmetry_equiv_pos_site_id
 _symmetry_equiv_pos_as_xyz
  1  'x, y, z'
loop_
 _atom_site_type_symbol
 _atom_site_label
 _atom_site_symmetry_multiplicity
 _atom_site_fract_x
 _atom_site_fract_y
 _atom_site_fract_z
 _atom_site_occupancy
  Ho  Ho0  1  0.415764  0.000147  0.000000  1
  Ho  Ho1  1  0.999853  0.415617  0.000000  1
  Ho  Ho2  1  0.584383  0.584236  0.000000  1
  Al  Al3  1  0.772821  0.007454  0.500000  1
  Al  Al4  1  0.234634  0.227180  0.500000  1
  Al  Al5  1  0.992546  0.765366  0.500000  1
  Zn  Zn6  1  0.666666  0.333333  0.500000  1
  Ge  Ge7  1  0.333333  0.666667  0.500000  1
  Ir  Ir8  1  0.000000  0.000000  0.000000  1
