# generated using pymatgen
data_Er5Tm(Co3P2)6
_symmetry_space_group_name_H-M   'P 1'
_cell_length_a   3.67133400
_cell_length_b   10.47172014
_cell_length_c   12.12137416
_cell_angle_alpha   89.98125601
_cell_angle_beta   90.00000000
_cell_angle_gamma   90.00000000
_symmetry_Int_Tables_number   1
_chemical_formula_structural   Er5Tm(Co3P2)6
_chemical_formula_sum   'Er5 Tm1 Co18 P12'
_cell_volume   466.00841311
_cell_formula_units_Z   1
loop_
 _symmetry_equiv_pos_site_id
 _symmetry_equiv_pos_as_xyz
  1  'x, y, z'
loop_
 _atom_site_type_symbol
 _atom_site_label
 _atom_site_symmetry_multiplicity
 _atom_site_fract_x
 _atom_site_fract_y
 _atom_site_fract_z
 _atom_site_occupancy
  Er  Er0  1  0.750000  0.250201  0.477822  1
  Er  Er1  1  0.250000  0.750077  0.522283  1
  Er  Er2  1  0.250000  0.567779  0.794217  1
  Er  Er3  1  0.750000  0.067587  0.205773  1
  Er  Er4  1  0.750000  0.432441  0.205717  1
  Tm  Tm5  1  0.250000  0.932280  0.794101  1
  Co  Co6  1  0.250000  0.249953  0.840932  1
  Co  Co7  1  0.750000  0.750065  0.159036  1
  Co  Co8  1  0.250000  0.249874  0.296899  1
  Co  Co9  1  0.750000  0.750271  0.703098  1
  Co  Co10  1  0.750000  0.249731  0.013799  1
  Co  Co11  1  0.250000  0.750268  0.985762  1
  Co  Co12  1  0.250000  0.416777  0.005415  1
  Co  Co13  1  0.250000  0.083038  0.005148  1
  Co  Co14  1  0.750000  0.583490  0.994459  1
  Co  Co15  1  0.750000  0.916619  0.994288  1
  Co  Co16  1  0.250000  0.452532  0.569465  1
  Co  Co17  1  0.250000  0.047410  0.569598  1
  Co  Co18  1  0.750000  0.547515  0.430721  1
  Co  Co19  1  0.750000  0.952533  0.430993  1
  Co  Co20  1  0.250000  0.871158  0.290778  1
  Co  Co21  1  0.250000  0.628873  0.290578  1
  Co  Co22  1  0.750000  0.128495  0.709548  1
  Co  Co23  1  0.750000  0.371079  0.709496  1
  P  P24  1  0.250000  0.249888  0.117777  1
  P  P25  1  0.750000  0.750315  0.881822  1
  P  P26  1  0.250000  0.250041  0.655399  1
  P  P27  1  0.750000  0.750023  0.344692  1
  P  P28  1  0.250000  0.438629  0.383771  1
  P  P29  1  0.250000  0.061294  0.383932  1
  P  P30  1  0.750000  0.561431  0.616290  1
  P  P31  1  0.750000  0.938601  0.616710  1
  P  P32  1  0.250000  0.902815  0.107485  1
  P  P33  1  0.250000  0.597322  0.107374  1
  P  P34  1  0.750000  0.096649  0.892258  1
  P  P35  1  0.750000  0.402946  0.892564  1
