# generated using pymatgen
data_Tb4TaMoOs6
_symmetry_space_group_name_H-M   'P 1'
_cell_length_a   5.28240200
_cell_length_b   5.28240370
_cell_length_c   9.06507600
_cell_angle_alpha   90.00000000
_cell_angle_beta   90.00000000
_cell_angle_gamma   115.81400753
_symmetry_Int_Tables_number   1
_chemical_formula_structural   Tb4TaMoOs6
_chemical_formula_sum   'Tb4 Ta1 Mo1 Os6'
_cell_volume   227.70860827
_cell_formula_units_Z   1
loop_
 _symmetry_equiv_pos_site_id
 _symmetry_equiv_pos_as_xyz
  1  'x, y, z'
loop_
 _atom_site_type_symbol
 _atom_site_label
 _atom_site_symmetry_multiplicity
 _atom_site_fract_x
 _atom_site_fract_y
 _atom_site_fract_z
 _atom_site_occupancy
  Tb  Tb0  1  0.330937  0.669063  0.433418  1
  Tb  Tb1  1  0.670267  0.329733  0.562566  1
  Tb  Tb2  1  0.670267  0.329733  0.937434  1
  Tb  Tb3  1  0.330937  0.669063  0.066582  1
  Ta  Ta4  1  0.157666  0.842334  0.750000  1
  Mo  Mo5  1  0.839636  0.160364  0.250000  1
  Os  Os6  1  0.997718  0.002282  0.496749  1
  Os  Os7  1  0.997718  0.002282  0.003251  1
  Os  Os8  1  0.826323  0.646879  0.250000  1
  Os  Os9  1  0.353121  0.173677  0.250000  1
  Os  Os10  1  0.176972  0.351559  0.750000  1
  Os  Os11  1  0.648441  0.823028  0.750000  1
