# generated using pymatgen
data_K3Pr(In4Au3)2
_symmetry_space_group_name_H-M   'P 1'
_cell_length_a   15.42024000
_cell_length_b   15.42024078
_cell_length_c   4.75833000
_cell_angle_alpha   90.00000000
_cell_angle_beta   90.00000000
_cell_angle_gamma   120.66969683
_symmetry_Int_Tables_number   1
_chemical_formula_structural   K3Pr(In4Au3)2
_chemical_formula_sum   'K6 Pr2 In16 Au12'
_cell_volume   973.18854712
_cell_formula_units_Z   2
loop_
 _symmetry_equiv_pos_site_id
 _symmetry_equiv_pos_as_xyz
  1  'x, y, z'
loop_
 _atom_site_type_symbol
 _atom_site_label
 _atom_site_symmetry_multiplicity
 _atom_site_fract_x
 _atom_site_fract_y
 _atom_site_fract_z
 _atom_site_occupancy
  K  K0  1  0.549656  0.549656  0.000000  1
  K  K1  1  0.332957  0.667660  0.000000  1
  K  K2  1  0.667660  0.332957  0.000000  1
  K  K3  1  0.817550  0.999761  0.500000  1
  K  K4  1  0.999761  0.817550  0.500000  1
  K  K5  1  0.183422  0.183422  0.500000  1
  Pr  Pr6  1  0.445969  0.001308  0.000000  1
  Pr  Pr7  1  0.001308  0.445969  0.000000  1
  In  In8  1  0.186612  0.385321  0.000000  1
  In  In9  1  0.622702  0.809904  0.000000  1
  In  In10  1  0.385321  0.186612  0.000000  1
  In  In11  1  0.192789  0.814297  0.000000  1
  In  In12  1  0.809904  0.622702  0.000000  1
  In  In13  1  0.814297  0.192789  0.000000  1
  In  In14  1  0.273830  0.000784  0.500000  1
  In  In15  1  0.000784  0.273830  0.500000  1
  In  In16  1  0.719549  0.719549  0.500000  1
  In  In17  1  0.349639  0.476854  0.500000  1
  In  In18  1  0.519863  0.876927  0.500000  1
  In  In19  1  0.476854  0.349639  0.500000  1
  In  In20  1  0.127865  0.649585  0.500000  1
  In  In21  1  0.876927  0.519863  0.500000  1
  In  In22  1  0.649585  0.127865  0.500000  1
  In  In23  1  0.002625  0.002625  0.000000  1
  Au  Au24  1  0.161806  0.482174  0.500000  1
  Au  Au25  1  0.514934  0.689435  0.500000  1
  Au  Au26  1  0.482174  0.161806  0.500000  1
  Au  Au27  1  0.316891  0.838412  0.500000  1
  Au  Au28  1  0.689435  0.514934  0.500000  1
  Au  Au29  1  0.838412  0.316891  0.500000  1
  Au  Au30  1  0.180625  0.999828  0.000000  1
  Au  Au31  1  0.999828  0.180625  0.000000  1
  Au  Au32  1  0.819442  0.819442  0.000000  1
  Au  Au33  1  0.641089  0.001070  0.000000  1
  Au  Au34  1  0.001070  0.641089  0.000000  1
  Au  Au35  1  0.346863  0.346863  0.000000  1
