# generated using pymatgen
data_Pr5Au6
_symmetry_space_group_name_H-M   'P 1'
_cell_length_a   16.94401837
_cell_length_b   16.94401846
_cell_length_c   4.26991600
_cell_angle_alpha   90.00000000
_cell_angle_beta   90.00000000
_cell_angle_gamma   166.04117152
_symmetry_Int_Tables_number   1
_chemical_formula_structural   Pr5Au6
_chemical_formula_sum   'Pr5 Au6'
_cell_volume   295.71527284
_cell_formula_units_Z   1
loop_
 _symmetry_equiv_pos_site_id
 _symmetry_equiv_pos_as_xyz
  1  'x, y, z'
loop_
 _atom_site_type_symbol
 _atom_site_label
 _atom_site_symmetry_multiplicity
 _atom_site_fract_x
 _atom_site_fract_y
 _atom_site_fract_z
 _atom_site_occupancy
  Pr  Pr0  1  0.000000  0.000000  0.000000  1
  Pr  Pr1  1  0.615242  0.384758  0.000000  1
  Pr  Pr2  1  0.384758  0.615242  0.000000  1
  Pr  Pr3  1  0.803261  0.196738  0.500000  1
  Pr  Pr4  1  0.196738  0.803261  0.500000  1
  Au  Au5  1  0.719139  0.280861  0.000000  1
  Au  Au6  1  0.280861  0.719139  0.000000  1
  Au  Au7  1  0.899246  0.100754  0.500000  1
  Au  Au8  1  0.541433  0.458566  0.500000  1
  Au  Au9  1  0.458566  0.541433  0.500000  1
  Au  Au10  1  0.100754  0.899246  0.500000  1
