# generated using pymatgen
data_Zr8MnBi4Ir
_symmetry_space_group_name_H-M   'P 1'
_cell_length_a   8.39242908
_cell_length_b   8.39243061
_cell_length_c   8.39243023
_cell_angle_alpha   95.75862942
_cell_angle_beta   95.75862625
_cell_angle_gamma   143.06562192
_symmetry_Int_Tables_number   1
_chemical_formula_structural   Zr8MnBi4Ir
_chemical_formula_sum   'Zr8 Mn1 Bi4 Ir1'
_cell_volume   336.90313277
_cell_formula_units_Z   1
loop_
 _symmetry_equiv_pos_site_id
 _symmetry_equiv_pos_as_xyz
  1  'x, y, z'
loop_
 _atom_site_type_symbol
 _atom_site_label
 _atom_site_symmetry_multiplicity
 _atom_site_fract_x
 _atom_site_fract_y
 _atom_site_fract_z
 _atom_site_occupancy
  Zr  Zr0  1  0.704239  0.587606  0.283677  1
  Zr  Zr1  1  0.303929  0.420562  0.716323  1
  Zr  Zr2  1  0.587606  0.303929  0.883366  1
  Zr  Zr3  1  0.079438  0.196071  0.283677  1
  Zr  Zr4  1  0.795761  0.079438  0.883366  1
  Zr  Zr5  1  0.420562  0.704239  0.116634  1
  Zr  Zr6  1  0.912394  0.795761  0.716323  1
  Zr  Zr7  1  0.196071  0.912394  0.116634  1
  Mn  Mn8  1  0.750000  0.750000  0.000000  1
  Bi  Bi9  1  0.139991  0.639991  0.779982  1
  Bi  Bi10  1  0.360009  0.139991  0.500000  1
  Bi  Bi11  1  0.860009  0.360009  0.220018  1
  Bi  Bi12  1  0.639991  0.860009  0.500000  1
  Ir  Ir13  1  0.250000  0.250000  0.000000  1
