# generated using pymatgen
data_Ho4VTc3B16
_symmetry_space_group_name_H-M   'P 1'
_cell_length_a   3.56746500
_cell_length_b   5.96226532
_cell_length_c   11.52908642
_cell_angle_alpha   90.13817276
_cell_angle_beta   90.00000000
_cell_angle_gamma   90.00000000
_symmetry_Int_Tables_number   1
_chemical_formula_structural   Ho4VTc3B16
_chemical_formula_sum   'Ho4 V1 Tc3 B16'
_cell_volume   245.22494764
_cell_formula_units_Z   1
loop_
 _symmetry_equiv_pos_site_id
 _symmetry_equiv_pos_as_xyz
  1  'x, y, z'
loop_
 _atom_site_type_symbol
 _atom_site_label
 _atom_site_symmetry_multiplicity
 _atom_site_fract_x
 _atom_site_fract_y
 _atom_site_fract_z
 _atom_site_occupancy
  Ho  Ho0  1  0.500000  0.125834  0.649966  1
  Ho  Ho1  1  0.500000  0.874447  0.349910  1
  Ho  Ho2  1  0.500000  0.626733  0.849588  1
  Ho  Ho3  1  0.500000  0.373192  0.151324  1
  V  V4  1  0.500000  0.372166  0.417615  1
  Tc  Tc5  1  0.500000  0.133854  0.912700  1
  Tc  Tc6  1  0.500000  0.866347  0.086216  1
  Tc  Tc7  1  0.500000  0.627123  0.583616  1
  B  B8  1  0.000000  0.476533  0.692378  1
  B  B9  1  0.000000  0.523471  0.307520  1
  B  B10  1  0.000000  0.975524  0.807531  1
  B  B11  1  0.000000  0.024422  0.192614  1
  B  B12  1  0.000000  0.285693  0.814085  1
  B  B13  1  0.000000  0.714336  0.185608  1
  B  B14  1  0.000000  0.785907  0.684689  1
  B  B15  1  0.000000  0.213947  0.314870  1
  B  B16  1  0.000000  0.364542  0.968621  1
  B  B17  1  0.000000  0.635498  0.031417  1
  B  B18  1  0.000000  0.864954  0.532193  1
  B  B19  1  0.000000  0.134722  0.467661  1
  B  B20  1  0.000000  0.385824  0.547088  1
  B  B21  1  0.000000  0.614563  0.452720  1
  B  B22  1  0.000000  0.886218  0.952718  1
  B  B23  1  0.000000  0.114149  0.047351  1
