# generated using pymatgen
data_LiDy2Mn3Ni8P7
_symmetry_space_group_name_H-M   'P 1'
_cell_length_a   9.15281402
_cell_length_b   9.13870054
_cell_length_c   3.69445100
_cell_angle_alpha   90.00000000
_cell_angle_beta   90.00000000
_cell_angle_gamma   120.05956235
_symmetry_Int_Tables_number   1
_chemical_formula_structural   LiDy2Mn3Ni8P7
_chemical_formula_sum   'Li1 Dy2 Mn3 Ni8 P7'
_cell_volume   267.45988571
_cell_formula_units_Z   1
loop_
 _symmetry_equiv_pos_site_id
 _symmetry_equiv_pos_as_xyz
  1  'x, y, z'
loop_
 _atom_site_type_symbol
 _atom_site_label
 _atom_site_symmetry_multiplicity
 _atom_site_fract_x
 _atom_site_fract_y
 _atom_site_fract_z
 _atom_site_occupancy
  Li  Li0  1  0.113120  0.895885  0.500000  1
  Dy  Dy1  1  0.668887  0.336336  0.000000  1
  Dy  Dy2  1  0.332201  0.664897  0.500000  1
  Mn  Mn3  1  0.840844  0.122965  0.000000  1
  Mn  Mn4  1  0.098780  0.219139  0.500000  1
  Mn  Mn5  1  0.777525  0.879100  0.500000  1
  Ni  Ni6  1  0.373981  0.939991  0.000000  1
  Ni  Ni7  1  0.064470  0.432164  0.000000  1
  Ni  Ni8  1  0.566857  0.626990  0.000000  1
  Ni  Ni9  1  0.881063  0.724974  0.000000  1
  Ni  Ni10  1  0.278468  0.152937  0.000000  1
  Ni  Ni11  1  0.950796  0.565858  0.500000  1
  Ni  Ni12  1  0.438176  0.387986  0.500000  1
  Ni  Ni13  1  0.613054  0.048781  0.500000  1
  P  P14  1  0.112860  0.698688  0.000000  1
  P  P15  1  0.295497  0.405890  0.000000  1
  P  P16  1  0.591546  0.886909  0.000000  1
  P  P17  1  0.711915  0.598600  0.500000  1
  P  P18  1  0.408758  0.118355  0.500000  1
  P  P19  1  0.884898  0.288280  0.500000  1
  P  P20  1  0.996303  0.005274  0.000000  1
