# generated using pymatgen
data_DyEr11Ni4
_symmetry_space_group_name_H-M   'P 1'
_cell_length_a   6.28428000
_cell_length_b   6.75991006
_cell_length_c   9.50878400
_cell_angle_alpha   90.00000000
_cell_angle_beta   90.00000000
_cell_angle_gamma   90.00794849
_symmetry_Int_Tables_number   1
_chemical_formula_structural   DyEr11Ni4
_chemical_formula_sum   'Dy1 Er11 Ni4'
_cell_volume   403.94424269
_cell_formula_units_Z   1
loop_
 _symmetry_equiv_pos_site_id
 _symmetry_equiv_pos_as_xyz
  1  'x, y, z'
loop_
 _atom_site_type_symbol
 _atom_site_label
 _atom_site_symmetry_multiplicity
 _atom_site_fract_x
 _atom_site_fract_y
 _atom_site_fract_z
 _atom_site_occupancy
  Dy  Dy0  1  0.862025  0.531589  0.250000  1
  Er  Er1  1  0.320369  0.679093  0.065860  1
  Er  Er2  1  0.180145  0.178836  0.434179  1
  Er  Er3  1  0.679792  0.320879  0.566277  1
  Er  Er4  1  0.820066  0.821287  0.933861  1
  Er  Er5  1  0.679792  0.320879  0.933723  1
  Er  Er6  1  0.820066  0.821287  0.566139  1
  Er  Er7  1  0.320369  0.679093  0.434140  1
  Er  Er8  1  0.180145  0.178836  0.065821  1
  Er  Er9  1  0.637883  0.032432  0.250000  1
  Er  Er10  1  0.138206  0.467642  0.750000  1
  Er  Er11  1  0.361769  0.967705  0.750000  1
  Ni  Ni12  1  0.052636  0.892705  0.250000  1
  Ni  Ni13  1  0.446617  0.392064  0.250000  1
  Ni  Ni14  1  0.947460  0.107767  0.750000  1
  Ni  Ni15  1  0.552663  0.607907  0.750000  1
