# generated using pymatgen
data_Cd3In(BiO3)8
_symmetry_space_group_name_H-M   'P 1'
_cell_length_a   7.17191756
_cell_length_b   7.15588497
_cell_length_c   11.45661302
_cell_angle_alpha   108.19823744
_cell_angle_beta   71.75021060
_cell_angle_gamma   90.00355377
_symmetry_Int_Tables_number   1
_chemical_formula_structural   Cd3In(BiO3)8
_chemical_formula_sum   'Cd3 In1 Bi8 O24'
_cell_volume   527.34283037
_cell_formula_units_Z   1
loop_
 _symmetry_equiv_pos_site_id
 _symmetry_equiv_pos_as_xyz
  1  'x, y, z'
loop_
 _atom_site_type_symbol
 _atom_site_label
 _atom_site_symmetry_multiplicity
 _atom_site_fract_x
 _atom_site_fract_y
 _atom_site_fract_z
 _atom_site_occupancy
  Cd  Cd0  1  0.082933  0.417109  0.833968  1
  Cd  Cd1  1  0.833394  0.166654  0.333334  1
  Cd  Cd2  1  0.583615  0.916471  0.832699  1
  In  In3  1  0.333388  0.666609  0.333347  1
  Bi  Bi4  1  0.999484  0.000511  0.000938  1
  Bi  Bi5  1  0.499771  0.500191  0.000403  1
  Bi  Bi6  1  0.667070  0.332884  0.665740  1
  Bi  Bi7  1  0.166847  0.833151  0.666276  1
  Bi  Bi8  1  0.417569  0.082348  0.164821  1
  Bi  Bi9  1  0.916184  0.583818  0.167667  1
  Bi  Bi10  1  0.249092  0.250904  0.501839  1
  Bi  Bi11  1  0.750520  0.749463  0.498968  1
  O  O12  1  0.397100  0.416662  0.833549  1
  O  O13  1  0.897361  0.916427  0.833089  1
  O  O14  1  0.333378  0.356330  0.333287  1
  O  O15  1  0.833371  0.853411  0.333297  1
  O  O16  1  0.333300  0.976907  0.333372  1
  O  O17  1  0.833322  0.479870  0.333339  1
  O  O18  1  0.769212  0.416833  0.833578  1
  O  O19  1  0.269457  0.916610  0.833141  1
  O  O20  1  0.720705  0.079796  0.159368  1
  O  O21  1  0.223580  0.583407  0.166628  1
  O  O22  1  0.546773  0.253669  0.507251  1
  O  O23  1  0.056879  0.750001  0.499998  1
  O  O24  1  0.496334  0.203843  0.007539  1
  O  O25  1  0.995047  0.701804  0.010075  1
  O  O26  1  0.170530  0.529601  0.659074  1
  O  O27  1  0.671774  0.024987  0.656518  1
  O  O28  1  0.496221  0.803725  0.007543  1
  O  O29  1  0.994972  0.308372  0.010091  1
  O  O30  1  0.170388  0.129538  0.659189  1
  O  O31  1  0.671653  0.631610  0.656642  1
  O  O32  1  0.119914  0.079677  0.159374  1
  O  O33  1  0.609823  0.583310  0.166640  1
  O  O34  1  0.945942  0.253576  0.507348  1
  O  O35  1  0.443100  0.749920  0.500063  1
