# generated using pymatgen
data_CaYb(BIr)8
_symmetry_space_group_name_H-M   'P 1'
_cell_length_a   4.01242500
_cell_length_b   7.61036200
_cell_length_c   7.61036200
_cell_angle_alpha   90.00000000
_cell_angle_beta   90.00000000
_cell_angle_gamma   90.00000000
_symmetry_Int_Tables_number   1
_chemical_formula_structural   CaYb(BIr)8
_chemical_formula_sum   'Ca1 Yb1 B8 Ir8'
_cell_volume   232.39006539
_cell_formula_units_Z   1
loop_
 _symmetry_equiv_pos_site_id
 _symmetry_equiv_pos_as_xyz
  1  'x, y, z'
loop_
 _atom_site_type_symbol
 _atom_site_label
 _atom_site_symmetry_multiplicity
 _atom_site_fract_x
 _atom_site_fract_y
 _atom_site_fract_z
 _atom_site_occupancy
  Ca  Ca0  1  0.250000  0.250000  0.250000  1
  Yb  Yb1  1  0.750000  0.750000  0.750000  1
  B  B2  1  0.360904  0.906468  0.028729  1
  B  B3  1  0.360904  0.593532  0.471271  1
  B  B4  1  0.860991  0.529959  0.092005  1
  B  B5  1  0.860991  0.970041  0.407995  1
  B  B6  1  0.639009  0.092005  0.970041  1
  B  B7  1  0.639009  0.407995  0.529959  1
  B  B8  1  0.139096  0.471271  0.906468  1
  B  B9  1  0.139096  0.028729  0.593532  1
  Ir  Ir10  1  0.139477  0.404358  0.636886  1
  Ir  Ir11  1  0.139477  0.095642  0.863114  1
  Ir  Ir12  1  0.639946  0.136925  0.597538  1
  Ir  Ir13  1  0.639946  0.363075  0.902462  1
  Ir  Ir14  1  0.860054  0.597538  0.363075  1
  Ir  Ir15  1  0.860054  0.902462  0.136925  1
  Ir  Ir16  1  0.360523  0.863114  0.404358  1
  Ir  Ir17  1  0.360523  0.636886  0.095642  1
