# generated using pymatgen
data_Ca8Be3Si12Pd
_symmetry_space_group_name_H-M   'P 1'
_cell_length_a   7.98765600
_cell_length_b   7.98765636
_cell_length_c   8.72021100
_cell_angle_alpha   90.00000000
_cell_angle_beta   90.00000000
_cell_angle_gamma   119.99999025
_symmetry_Int_Tables_number   1
_chemical_formula_structural   Ca8Be3Si12Pd
_chemical_formula_sum   'Ca8 Be3 Si12 Pd1'
_cell_volume   481.83283639
_cell_formula_units_Z   1
loop_
 _symmetry_equiv_pos_site_id
 _symmetry_equiv_pos_as_xyz
  1  'x, y, z'
loop_
 _atom_site_type_symbol
 _atom_site_label
 _atom_site_symmetry_multiplicity
 _atom_site_fract_x
 _atom_site_fract_y
 _atom_site_fract_z
 _atom_site_occupancy
  Ca  Ca0  1  0.500431  0.499569  0.747950  1
  Ca  Ca1  1  0.500632  0.499368  0.252054  1
  Ca  Ca2  1  0.999138  0.499569  0.747950  1
  Ca  Ca3  1  0.998737  0.499368  0.252054  1
  Ca  Ca4  1  0.500431  0.000862  0.747950  1
  Ca  Ca5  1  0.500632  0.001263  0.252054  1
  Ca  Ca6  1  0.000000  0.000000  0.750164  1
  Ca  Ca7  1  0.000000  0.000000  0.249877  1
  Be  Be8  1  0.666667  0.333333  0.999407  1
  Be  Be9  1  0.333333  0.666667  0.000601  1
  Be  Be10  1  0.333333  0.666667  0.499544  1
  Si  Si11  1  0.827415  0.172585  0.999990  1
  Si  Si12  1  0.172606  0.827394  0.000128  1
  Si  Si13  1  0.345171  0.172585  0.999990  1
  Si  Si14  1  0.170248  0.829752  0.499788  1
  Si  Si15  1  0.654787  0.827394  0.000128  1
  Si  Si16  1  0.833263  0.166737  0.500159  1
  Si  Si17  1  0.827415  0.654829  0.999990  1
  Si  Si18  1  0.659504  0.829752  0.499788  1
  Si  Si19  1  0.172606  0.345213  0.000128  1
  Si  Si20  1  0.333473  0.166737  0.500159  1
  Si  Si21  1  0.170248  0.340496  0.499788  1
  Si  Si22  1  0.833263  0.666527  0.500159  1
  Pd  Pd23  1  0.666667  0.333333  0.500205  1
