# generated using pymatgen
data_Sc2MnSnRh4
_symmetry_space_group_name_H-M   'P 1'
_cell_length_a   7.85936553
_cell_length_b   7.85936499
_cell_length_c   7.85936441
_cell_angle_alpha   33.24179809
_cell_angle_beta   33.24180443
_cell_angle_gamma   33.24180303
_symmetry_Int_Tables_number   1
_chemical_formula_structural   Sc2MnSnRh4
_chemical_formula_sum   'Sc2 Mn1 Sn1 Rh4'
_cell_volume   129.87247423
_cell_formula_units_Z   1
loop_
 _symmetry_equiv_pos_site_id
 _symmetry_equiv_pos_as_xyz
  1  'x, y, z'
loop_
 _atom_site_type_symbol
 _atom_site_label
 _atom_site_symmetry_multiplicity
 _atom_site_fract_x
 _atom_site_fract_y
 _atom_site_fract_z
 _atom_site_occupancy
  Sc  Sc0  1  0.247553  0.247553  0.247553  1
  Sc  Sc1  1  0.752447  0.752447  0.752447  1
  Mn  Mn2  1  0.500000  0.500000  0.500000  1
  Sn  Sn3  1  0.000000  0.000000  0.000000  1
  Rh  Rh4  1  0.623944  0.623944  0.623944  1
  Rh  Rh5  1  0.125947  0.125947  0.125947  1
  Rh  Rh6  1  0.874053  0.874053  0.874053  1
  Rh  Rh7  1  0.376056  0.376056  0.376056  1
