# generated using pymatgen
data_Pr4Al18CuRh5
_symmetry_space_group_name_H-M   'P 1'
_cell_length_a   7.64647291
_cell_length_b   7.64647321
_cell_length_c   9.61962018
_cell_angle_alpha   90.02847512
_cell_angle_beta   90.02847600
_cell_angle_gamma   119.49696330
_symmetry_Int_Tables_number   1
_chemical_formula_structural   Pr4Al18CuRh5
_chemical_formula_sum   'Pr4 Al18 Cu1 Rh5'
_cell_volume   489.54186353
_cell_formula_units_Z   1
loop_
 _symmetry_equiv_pos_site_id
 _symmetry_equiv_pos_as_xyz
  1  'x, y, z'
loop_
 _atom_site_type_symbol
 _atom_site_label
 _atom_site_symmetry_multiplicity
 _atom_site_fract_x
 _atom_site_fract_y
 _atom_site_fract_z
 _atom_site_occupancy
  Pr  Pr0  1  0.995046  0.671844  0.748793  1
  Pr  Pr1  1  0.004954  0.328156  0.251207  1
  Pr  Pr2  1  0.671844  0.995046  0.748793  1
  Pr  Pr3  1  0.328156  0.004954  0.251207  1
  Al  Al4  1  0.132486  0.132486  0.753279  1
  Al  Al5  1  0.867514  0.867514  0.246721  1
  Al  Al6  1  0.003142  0.339068  0.575129  1
  Al  Al7  1  0.996858  0.660932  0.424871  1
  Al  Al8  1  0.998308  0.665219  0.071706  1
  Al  Al9  1  0.334781  0.001692  0.928294  1
  Al  Al10  1  0.001692  0.334781  0.928294  1
  Al  Al11  1  0.665219  0.998308  0.071706  1
  Al  Al12  1  0.660932  0.996858  0.424871  1
  Al  Al13  1  0.339068  0.003142  0.575129  1
  Al  Al14  1  0.334454  0.334454  0.046235  1
  Al  Al15  1  0.665546  0.665546  0.953765  1
  Al  Al16  1  0.661646  0.661646  0.548107  1
  Al  Al17  1  0.338354  0.338354  0.451893  1
  Al  Al18  1  0.339375  0.546865  0.750316  1
  Al  Al19  1  0.660625  0.453135  0.249684  1
  Al  Al20  1  0.546865  0.339375  0.750316  1
  Al  Al21  1  0.453135  0.660625  0.249684  1
  Cu  Cu22  1  0.000000  0.000000  0.500000  1
  Rh  Rh23  1  0.670843  0.329157  0.500000  1
  Rh  Rh24  1  0.329157  0.670843  0.500000  1
  Rh  Rh25  1  0.329065  0.670935  0.000000  1
  Rh  Rh26  1  0.670935  0.329065  0.000000  1
  Rh  Rh27  1  0.000000  0.000000  0.000000  1
