# generated using pymatgen
data_Ba8CrTc3O16
_symmetry_space_group_name_H-M   'P 1'
_cell_length_a   5.73185856
_cell_length_b   9.33016514
_cell_length_c   9.33018448
_cell_angle_alpha   86.76797104
_cell_angle_beta   72.08471824
_cell_angle_gamma   107.91662143
_symmetry_Int_Tables_number   1
_chemical_formula_structural   Ba8CrTc3O16
_chemical_formula_sum   'Ba8 Cr1 Tc3 O16'
_cell_volume   445.42427931
_cell_formula_units_Z   1
loop_
 _symmetry_equiv_pos_site_id
 _symmetry_equiv_pos_as_xyz
  1  'x, y, z'
loop_
 _atom_site_type_symbol
 _atom_site_label
 _atom_site_symmetry_multiplicity
 _atom_site_fract_x
 _atom_site_fract_y
 _atom_site_fract_z
 _atom_site_occupancy
  Ba  Ba0  1  0.252998  0.398307  0.891459  1
  Ba  Ba1  1  0.000018  0.643293  0.643257  1
  Ba  Ba2  1  0.746958  0.891346  0.398281  1
  Ba  Ba3  1  0.499969  0.148544  0.148613  1
  Ba  Ba4  1  0.000092  0.356751  0.356684  1
  Ba  Ba5  1  0.746969  0.601743  0.108626  1
  Ba  Ba6  1  0.499923  0.851344  0.851504  1
  Ba  Ba7  1  0.253024  0.108579  0.601638  1
  Cr  Cr8  1  0.499986  0.500128  0.499984  1
  Tc  Tc9  1  0.252541  0.752355  0.247672  1
  Tc  Tc10  1  0.999981  0.999990  0.000010  1
  Tc  Tc11  1  0.747695  0.247779  0.752190  1
  O  O12  1  0.251747  0.599485  0.096629  1
  O  O13  1  0.999860  0.846352  0.846614  1
  O  O14  1  0.748470  0.096837  0.599324  1
  O  O15  1  0.499830  0.347437  0.347604  1
  O  O16  1  0.000174  0.153653  0.153363  1
  O  O17  1  0.748188  0.400451  0.903338  1
  O  O18  1  0.500205  0.652587  0.652384  1
  O  O19  1  0.251469  0.903145  0.400756  1
  O  O20  1  0.875507  0.124778  0.875084  1
  O  O21  1  0.621762  0.370841  0.629219  1
  O  O22  1  0.378238  0.629079  0.370834  1
  O  O23  1  0.124434  0.875249  0.124890  1
  O  O24  1  0.375072  0.124066  0.875761  1
  O  O25  1  0.117262  0.372708  0.627464  1
  O  O26  1  0.882587  0.627212  0.372612  1
  O  O27  1  0.625038  0.875961  0.124204  1
