# generated using pymatgen
data_Nd8Dy12Ga13Ge3
_symmetry_space_group_name_H-M   'P 1'
_cell_length_a   7.58727000
_cell_length_b   8.02603394
_cell_length_c   15.33414300
_cell_angle_alpha   90.00000000
_cell_angle_beta   90.00000000
_cell_angle_gamma   90.15910133
_symmetry_Int_Tables_number   1
_chemical_formula_structural   Nd8Dy12Ga13Ge3
_chemical_formula_sum   'Nd8 Dy12 Ga13 Ge3'
_cell_volume   933.77956567
_cell_formula_units_Z   1
loop_
 _symmetry_equiv_pos_site_id
 _symmetry_equiv_pos_as_xyz
  1  'x, y, z'
loop_
 _atom_site_type_symbol
 _atom_site_label
 _atom_site_symmetry_multiplicity
 _atom_site_fract_x
 _atom_site_fract_y
 _atom_site_fract_z
 _atom_site_occupancy
  Nd  Nd0  1  0.979434  0.819002  0.094271  1
  Nd  Nd1  1  0.480668  0.679057  0.404175  1
  Nd  Nd2  1  0.518303  0.322051  0.905375  1
  Nd  Nd3  1  0.019361  0.177692  0.594147  1
  Nd  Nd4  1  0.019361  0.177692  0.905853  1
  Nd  Nd5  1  0.518303  0.322051  0.594625  1
  Nd  Nd6  1  0.480668  0.679057  0.095825  1
  Nd  Nd7  1  0.979434  0.819002  0.405729  1
  Dy  Dy8  1  0.656570  0.989322  0.250000  1
  Dy  Dy9  1  0.158183  0.512681  0.250000  1
  Dy  Dy10  1  0.841469  0.487336  0.750000  1
  Dy  Dy11  1  0.342960  0.012805  0.750000  1
  Dy  Dy12  1  0.679449  0.823576  0.878215  1
  Dy  Dy13  1  0.179739  0.676604  0.622156  1
  Dy  Dy14  1  0.818804  0.325239  0.121148  1
  Dy  Dy15  1  0.320780  0.177511  0.378999  1
  Dy  Dy16  1  0.320780  0.177511  0.121001  1
  Dy  Dy17  1  0.818804  0.325239  0.378852  1
  Dy  Dy18  1  0.179739  0.676604  0.877844  1
  Dy  Dy19  1  0.679449  0.823576  0.621785  1
  Ga  Ga20  1  0.767976  0.622348  0.250000  1
  Ga  Ga21  1  0.264215  0.878129  0.250000  1
  Ga  Ga22  1  0.736617  0.122693  0.750000  1
  Ga  Ga23  1  0.234709  0.377789  0.750000  1
  Ga  Ga24  1  0.025939  0.114947  0.250000  1
  Ga  Ga25  1  0.849209  0.532674  0.958396  1
  Ga  Ga26  1  0.348893  0.966707  0.541264  1
  Ga  Ga27  1  0.651418  0.031790  0.040253  1
  Ga  Ga28  1  0.151989  0.467210  0.460319  1
  Ga  Ga29  1  0.151989  0.467210  0.039681  1
  Ga  Ga30  1  0.651418  0.031790  0.459747  1
  Ga  Ga31  1  0.348893  0.966707  0.958736  1
  Ga  Ga32  1  0.849209  0.532674  0.541604  1
  Ge  Ge33  1  0.524907  0.383294  0.250000  1
  Ge  Ge34  1  0.475110  0.619035  0.750000  1
  Ge  Ge35  1  0.975251  0.881392  0.750000  1
