# generated using pymatgen
data_Rb2PrPWO8
_symmetry_space_group_name_H-M   'P 1'
_cell_length_a   12.70456648
_cell_length_b   12.70456672
_cell_length_c   12.70456600
_cell_angle_alpha   147.19423521
_cell_angle_beta   120.19068955
_cell_angle_gamma   69.91635666
_symmetry_Int_Tables_number   1
_chemical_formula_structural   Rb2PrPWO8
_chemical_formula_sum   'Rb8 Pr4 P4 W4 O32'
_cell_volume   946.43450707
_cell_formula_units_Z   4
loop_
 _symmetry_equiv_pos_site_id
 _symmetry_equiv_pos_as_xyz
  1  'x, y, z'
loop_
 _atom_site_type_symbol
 _atom_site_label
 _atom_site_symmetry_multiplicity
 _atom_site_fract_x
 _atom_site_fract_y
 _atom_site_fract_z
 _atom_site_occupancy
  Rb  Rb0  1  0.238305  0.623556  0.546783  1
  Rb  Rb1  1  0.261695  0.808479  0.385252  1
  Rb  Rb2  1  0.923227  0.876444  0.114748  1
  Rb  Rb3  1  0.576773  0.691521  0.953217  1
  Rb  Rb4  1  0.761695  0.376444  0.453217  1
  Rb  Rb5  1  0.738305  0.191521  0.614748  1
  Rb  Rb6  1  0.076773  0.123556  0.885252  1
  Rb  Rb7  1  0.423227  0.308479  0.046783  1
  Pr  Pr8  1  0.171407  0.750000  0.921407  1
  Pr  Pr9  1  0.328593  0.250000  0.578593  1
  Pr  Pr10  1  0.828593  0.250000  0.078593  1
  Pr  Pr11  1  0.671407  0.750000  0.421407  1
  P  P12  1  0.926791  0.750000  0.676791  1
  P  P13  1  0.573209  0.250000  0.823209  1
  P  P14  1  0.073209  0.250000  0.323209  1
  P  P15  1  0.426791  0.750000  0.176791  1
  W  W16  1  0.086384  0.336384  0.750000  1
  W  W17  1  0.413616  0.163616  0.250000  1
  W  W18  1  0.913616  0.663616  0.250000  1
  W  W19  1  0.586384  0.836384  0.750000  1
  O  O20  1  0.940261  0.715726  0.774116  1
  O  O21  1  0.559739  0.333855  0.775465  1
  O  O22  1  0.058391  0.784274  0.724535  1
  O  O23  1  0.441609  0.166145  0.725884  1
  O  O24  1  0.059739  0.284274  0.225884  1
  O  O25  1  0.440261  0.666145  0.224535  1
  O  O26  1  0.941609  0.215726  0.275465  1
  O  O27  1  0.558391  0.833855  0.274116  1
  O  O28  1  0.100507  0.588141  0.917517  1
  O  O29  1  0.399493  0.317010  0.487634  1
  O  O30  1  0.329376  0.911859  0.012366  1
  O  O31  1  0.170624  0.182990  0.582483  1
  O  O32  1  0.899493  0.411859  0.082483  1
  O  O33  1  0.600507  0.682990  0.512366  1
  O  O34  1  0.670624  0.088141  0.987634  1
  O  O35  1  0.829376  0.817010  0.417517  1
  O  O36  1  0.358827  0.592214  0.931758  1
  O  O37  1  0.141173  0.072932  0.233388  1
  O  O38  1  0.339544  0.907786  0.266612  1
  O  O39  1  0.160456  0.427068  0.568242  1
  O  O40  1  0.641173  0.407786  0.068242  1
  O  O41  1  0.858827  0.927068  0.766612  1
  O  O42  1  0.660456  0.092214  0.733388  1
  O  O43  1  0.839544  0.572932  0.431758  1
  O  O44  1  0.925503  0.222529  0.573518  1
  O  O45  1  0.574497  0.148015  0.297025  1
  O  O46  1  0.350990  0.277471  0.202975  1
  O  O47  1  0.149010  0.351985  0.926482  1
  O  O48  1  0.074497  0.777471  0.426482  1
  O  O49  1  0.425503  0.851985  0.702975  1
  O  O50  1  0.649010  0.722529  0.797025  1
  O  O51  1  0.850990  0.648015  0.073518  1
