# generated using pymatgen
data_Yb3(Si3Ru)4
_symmetry_space_group_name_H-M   'P 1'
_cell_length_a   10.15187027
_cell_length_b   10.15186967
_cell_length_c   8.15229300
_cell_angle_alpha   90.00000000
_cell_angle_beta   90.00000000
_cell_angle_gamma   132.62796236
_symmetry_Int_Tables_number   1
_chemical_formula_structural   Yb3(Si3Ru)4
_chemical_formula_sum   'Yb6 Si24 Ru8'
_cell_volume   618.17576894
_cell_formula_units_Z   2
loop_
 _symmetry_equiv_pos_site_id
 _symmetry_equiv_pos_as_xyz
  1  'x, y, z'
loop_
 _atom_site_type_symbol
 _atom_site_label
 _atom_site_symmetry_multiplicity
 _atom_site_fract_x
 _atom_site_fract_y
 _atom_site_fract_z
 _atom_site_occupancy
  Yb  Yb0  1  0.000000  0.000000  0.000000  1
  Yb  Yb1  1  0.500000  0.500000  0.500000  1
  Yb  Yb2  1  0.002161  0.502161  0.250000  1
  Yb  Yb3  1  0.997839  0.497839  0.750000  1
  Yb  Yb4  1  0.497839  0.997839  0.750000  1
  Yb  Yb5  1  0.502161  0.002161  0.250000  1
  Si  Si6  1  0.705190  0.294810  0.000000  1
  Si  Si7  1  0.294810  0.705190  0.000000  1
  Si  Si8  1  0.794810  0.205190  0.500000  1
  Si  Si9  1  0.205190  0.794810  0.500000  1
  Si  Si10  1  0.332956  0.332956  0.167859  1
  Si  Si11  1  0.667044  0.667044  0.832141  1
  Si  Si12  1  0.167044  0.167044  0.667859  1
  Si  Si13  1  0.832956  0.832956  0.332141  1
  Si  Si14  1  0.847637  0.614336  0.007766  1
  Si  Si15  1  0.152363  0.385664  0.992234  1
  Si  Si16  1  0.652363  0.885664  0.507766  1
  Si  Si17  1  0.114336  0.347637  0.492234  1
  Si  Si18  1  0.347637  0.114336  0.492234  1
  Si  Si19  1  0.885664  0.652363  0.507766  1
  Si  Si20  1  0.385664  0.152363  0.992234  1
  Si  Si21  1  0.614336  0.847637  0.007766  1
  Si  Si22  1  0.893125  0.126008  0.268786  1
  Si  Si23  1  0.106875  0.873992  0.731214  1
  Si  Si24  1  0.606875  0.373992  0.768786  1
  Si  Si25  1  0.626008  0.393125  0.231214  1
  Si  Si26  1  0.393125  0.626008  0.231214  1
  Si  Si27  1  0.373992  0.606875  0.768786  1
  Si  Si28  1  0.873992  0.106875  0.731214  1
  Si  Si29  1  0.126008  0.893125  0.268786  1
  Ru  Ru30  1  0.830244  0.169756  0.000000  1
  Ru  Ru31  1  0.169756  0.830244  0.000000  1
  Ru  Ru32  1  0.669756  0.330244  0.500000  1
  Ru  Ru33  1  0.330244  0.669756  0.500000  1
  Ru  Ru34  1  0.125991  0.125991  0.375106  1
  Ru  Ru35  1  0.874009  0.874009  0.624894  1
  Ru  Ru36  1  0.374009  0.374009  0.875106  1
  Ru  Ru37  1  0.625991  0.625991  0.124894  1
