# generated using pymatgen
data_Pr8Co(Si4Au)3
_symmetry_space_group_name_H-M   'P 1'
_cell_length_a   8.27229000
_cell_length_b   8.27228875
_cell_length_c   8.71052000
_cell_angle_alpha   90.00000000
_cell_angle_beta   90.00000000
_cell_angle_gamma   119.99996822
_symmetry_Int_Tables_number   1
_chemical_formula_structural   Pr8Co(Si4Au)3
_chemical_formula_sum   'Pr8 Co1 Si12 Au3'
_cell_volume   516.20985264
_cell_formula_units_Z   1
loop_
 _symmetry_equiv_pos_site_id
 _symmetry_equiv_pos_as_xyz
  1  'x, y, z'
loop_
 _atom_site_type_symbol
 _atom_site_label
 _atom_site_symmetry_multiplicity
 _atom_site_fract_x
 _atom_site_fract_y
 _atom_site_fract_z
 _atom_site_occupancy
  Pr  Pr0  1  0.502911  0.497089  0.744247  1
  Pr  Pr1  1  0.503247  0.496753  0.255751  1
  Pr  Pr2  1  0.994178  0.497089  0.744247  1
  Pr  Pr3  1  0.993505  0.496753  0.255751  1
  Pr  Pr4  1  0.502911  0.005822  0.744247  1
  Pr  Pr5  1  0.503247  0.006495  0.255751  1
  Pr  Pr6  1  0.000000  0.000000  0.748296  1
  Pr  Pr7  1  0.000000  0.000000  0.251756  1
  Co  Co8  1  0.666667  0.333333  0.500342  1
  Si  Si9  1  0.836677  0.163323  0.000808  1
  Si  Si10  1  0.163846  0.836154  0.999203  1
  Si  Si11  1  0.326645  0.163323  0.000809  1
  Si  Si12  1  0.161063  0.838937  0.499733  1
  Si  Si13  1  0.672308  0.836154  0.999203  1
  Si  Si14  1  0.825135  0.174865  0.500363  1
  Si  Si15  1  0.836677  0.673355  0.000809  1
  Si  Si16  1  0.677873  0.838937  0.499733  1
  Si  Si17  1  0.163846  0.327692  0.999203  1
  Si  Si18  1  0.349730  0.174865  0.500363  1
  Si  Si19  1  0.161063  0.322127  0.499733  1
  Si  Si20  1  0.825135  0.650270  0.500363  1
  Au  Au21  1  0.666667  0.333333  0.998979  1
  Au  Au22  1  0.333333  0.666667  0.000785  1
  Au  Au23  1  0.333333  0.666667  0.499519  1
