# generated using pymatgen
data_Ho2Tm3Si3Ir
_symmetry_space_group_name_H-M   'P 1'
_cell_length_a   7.10969000
_cell_length_b   7.87527800
_cell_length_c   14.55208200
_cell_angle_alpha   90.00000000
_cell_angle_beta   90.00000000
_cell_angle_gamma   90.00000000
_symmetry_Int_Tables_number   1
_chemical_formula_structural   Ho2Tm3Si3Ir
_chemical_formula_sum   'Ho8 Tm12 Si12 Ir4'
_cell_volume   814.78249811
_cell_formula_units_Z   4
loop_
 _symmetry_equiv_pos_site_id
 _symmetry_equiv_pos_as_xyz
  1  'x, y, z'
loop_
 _atom_site_type_symbol
 _atom_site_label
 _atom_site_symmetry_multiplicity
 _atom_site_fract_x
 _atom_site_fract_y
 _atom_site_fract_z
 _atom_site_occupancy
  Ho  Ho0  1  0.006822  0.182747  0.093862  1
  Ho  Ho1  1  0.993178  0.817253  0.906138  1
  Ho  Ho2  1  0.493178  0.682747  0.906138  1
  Ho  Ho3  1  0.993178  0.817253  0.593862  1
  Ho  Ho4  1  0.506822  0.317253  0.093862  1
  Ho  Ho5  1  0.006822  0.182747  0.406138  1
  Ho  Ho6  1  0.506822  0.317253  0.406138  1
  Ho  Ho7  1  0.493178  0.682747  0.593862  1
  Tm  Tm8  1  0.172194  0.509861  0.750000  1
  Tm  Tm9  1  0.827806  0.490139  0.250000  1
  Tm  Tm10  1  0.327806  0.009861  0.250000  1
  Tm  Tm11  1  0.672194  0.990139  0.750000  1
  Tm  Tm12  1  0.317011  0.172084  0.628276  1
  Tm  Tm13  1  0.682989  0.827916  0.371724  1
  Tm  Tm14  1  0.182989  0.672084  0.371724  1
  Tm  Tm15  1  0.682989  0.827916  0.128276  1
  Tm  Tm16  1  0.817011  0.327916  0.628276  1
  Tm  Tm17  1  0.317011  0.172084  0.871724  1
  Tm  Tm18  1  0.817011  0.327916  0.871724  1
  Tm  Tm19  1  0.182989  0.672084  0.128276  1
  Si  Si20  1  0.272921  0.863498  0.750000  1
  Si  Si21  1  0.727079  0.136502  0.250000  1
  Si  Si22  1  0.227079  0.363498  0.250000  1
  Si  Si23  1  0.772921  0.636502  0.750000  1
  Si  Si24  1  0.157280  0.470007  0.537511  1
  Si  Si25  1  0.842720  0.529993  0.462489  1
  Si  Si26  1  0.342720  0.970007  0.462489  1
  Si  Si27  1  0.842720  0.529993  0.037511  1
  Si  Si28  1  0.657280  0.029993  0.537511  1
  Si  Si29  1  0.157280  0.470007  0.962489  1
  Si  Si30  1  0.657280  0.029993  0.962489  1
  Si  Si31  1  0.342720  0.970007  0.037511  1
  Ir  Ir32  1  0.025111  0.097078  0.750000  1
  Ir  Ir33  1  0.974889  0.902922  0.250000  1
  Ir  Ir34  1  0.474889  0.597078  0.250000  1
  Ir  Ir35  1  0.525111  0.402922  0.750000  1
