# generated using pymatgen
data_CsRb3(UI6)2
_symmetry_space_group_name_H-M   'P 1'
_cell_length_a   8.56925010
_cell_length_b   8.56925009
_cell_length_c   12.09667800
_cell_angle_alpha   90.00000000
_cell_angle_beta   90.00000000
_cell_angle_gamma   90.34552065
_symmetry_Int_Tables_number   1
_chemical_formula_structural   CsRb3(UI6)2
_chemical_formula_sum   'Cs1 Rb3 U2 I12'
_cell_volume   888.26767843
_cell_formula_units_Z   1
loop_
 _symmetry_equiv_pos_site_id
 _symmetry_equiv_pos_as_xyz
  1  'x, y, z'
loop_
 _atom_site_type_symbol
 _atom_site_label
 _atom_site_symmetry_multiplicity
 _atom_site_fract_x
 _atom_site_fract_y
 _atom_site_fract_z
 _atom_site_occupancy
  Cs  Cs0  1  0.000000  0.500000  0.750000  1
  Rb  Rb1  1  0.500000  0.000000  0.750000  1
  Rb  Rb2  1  0.500000  0.000000  0.250000  1
  Rb  Rb3  1  0.000000  0.500000  0.250000  1
  U  U4  1  0.000000  0.000000  0.000195  1
  U  U5  1  0.500000  0.500000  0.499805  1
  I  I6  1  0.787206  0.277966  0.001144  1
  I  I7  1  0.212794  0.722034  0.001144  1
  I  I8  1  0.500000  0.500000  0.251181  1
  I  I9  1  0.283706  0.217852  0.500030  1
  I  I10  1  0.282148  0.216294  0.999970  1
  I  I11  1  0.777966  0.287206  0.498856  1
  I  I12  1  0.000000  0.000000  0.248819  1
  I  I13  1  0.716294  0.782148  0.500030  1
  I  I14  1  0.222034  0.712794  0.498856  1
  I  I15  1  0.500000  0.500000  0.748798  1
  I  I16  1  0.717852  0.783706  0.999970  1
  I  I17  1  0.000000  0.000000  0.751202  1
