# generated using pymatgen
data_Y7Zr(InPd2)4
_symmetry_space_group_name_H-M   'P 1'
_cell_length_a   7.73641702
_cell_length_b   7.73641702
_cell_length_c   7.39177900
_cell_angle_alpha   90.00000000
_cell_angle_beta   90.00000000
_cell_angle_gamma   90.40373064
_symmetry_Int_Tables_number   1
_chemical_formula_structural   Y7Zr(InPd2)4
_chemical_formula_sum   'Y7 Zr1 In4 Pd8'
_cell_volume   442.40286917
_cell_formula_units_Z   1
loop_
 _symmetry_equiv_pos_site_id
 _symmetry_equiv_pos_as_xyz
  1  'x, y, z'
loop_
 _atom_site_type_symbol
 _atom_site_label
 _atom_site_symmetry_multiplicity
 _atom_site_fract_x
 _atom_site_fract_y
 _atom_site_fract_z
 _atom_site_occupancy
  Y  Y0  1  0.673002  0.673002  0.500000  1
  Y  Y1  1  0.826857  0.167868  0.500000  1
  Y  Y2  1  0.668983  0.668983  0.000000  1
  Y  Y3  1  0.828875  0.176572  0.000000  1
  Y  Y4  1  0.167868  0.826857  0.500000  1
  Y  Y5  1  0.328379  0.328379  0.000000  1
  Y  Y6  1  0.176572  0.828875  0.000000  1
  Zr  Zr7  1  0.330283  0.330283  0.500000  1
  In  In8  1  0.001927  0.498398  0.253200  1
  In  In9  1  0.498398  0.001927  0.746800  1
  In  In10  1  0.498398  0.001927  0.253200  1
  In  In11  1  0.001927  0.498398  0.746800  1
  Pd  Pd12  1  0.622160  0.370960  0.259620  1
  Pd  Pd13  1  0.370960  0.622160  0.740380  1
  Pd  Pd14  1  0.873889  0.873889  0.756062  1
  Pd  Pd15  1  0.622160  0.370960  0.740380  1
  Pd  Pd16  1  0.370960  0.622160  0.259620  1
  Pd  Pd17  1  0.132256  0.132256  0.258810  1
  Pd  Pd18  1  0.873889  0.873889  0.243938  1
  Pd  Pd19  1  0.132256  0.132256  0.741190  1
