# generated using pymatgen
data_Zr3AsN
_symmetry_space_group_name_H-M   'P 1'
_cell_length_a   5.87567689
_cell_length_b   5.87567718
_cell_length_c   8.58686100
_cell_angle_alpha   90.00000000
_cell_angle_beta   90.00000000
_cell_angle_gamma   145.16497311
_symmetry_Int_Tables_number   1
_chemical_formula_structural   Zr3AsN
_chemical_formula_sum   'Zr6 As2 N2'
_cell_volume   169.33635876
_cell_formula_units_Z   2
loop_
 _symmetry_equiv_pos_site_id
 _symmetry_equiv_pos_as_xyz
  1  'x, y, z'
loop_
 _atom_site_type_symbol
 _atom_site_label
 _atom_site_symmetry_multiplicity
 _atom_site_fract_x
 _atom_site_fract_y
 _atom_site_fract_z
 _atom_site_occupancy
  Zr  Zr0  1  0.631259  0.368741  0.945753  1
  Zr  Zr1  1  0.368741  0.631259  0.445753  1
  Zr  Zr2  1  0.368741  0.631259  0.054247  1
  Zr  Zr3  1  0.631259  0.368741  0.554247  1
  Zr  Zr4  1  0.941914  0.058086  0.750000  1
  Zr  Zr5  1  0.058086  0.941914  0.250000  1
  As  As6  1  0.254378  0.745622  0.750000  1
  As  As7  1  0.745622  0.254378  0.250000  1
  N  N8  1  0.000000  0.000000  0.000000  1
  N  N9  1  0.000000  0.000000  0.500000  1
