# generated using pymatgen
data_Tb12Pr8Si15Te
_symmetry_space_group_name_H-M   'P 1'
_cell_length_a   7.58518000
_cell_length_b   7.85769801
_cell_length_c   14.93957800
_cell_angle_alpha   90.00000000
_cell_angle_beta   90.00000000
_cell_angle_gamma   90.23662282
_symmetry_Int_Tables_number   1
_chemical_formula_structural   Tb12Pr8Si15Te
_chemical_formula_sum   'Tb12 Pr8 Si15 Te1'
_cell_volume   890.42193805
_cell_formula_units_Z   1
loop_
 _symmetry_equiv_pos_site_id
 _symmetry_equiv_pos_as_xyz
  1  'x, y, z'
loop_
 _atom_site_type_symbol
 _atom_site_label
 _atom_site_symmetry_multiplicity
 _atom_site_fract_x
 _atom_site_fract_y
 _atom_site_fract_z
 _atom_site_occupancy
  Tb  Tb0  1  0.316594  0.182148  0.621383  1
  Tb  Tb1  1  0.682813  0.823112  0.376683  1
  Tb  Tb2  1  0.660079  0.992785  0.750000  1
  Tb  Tb3  1  0.181586  0.679864  0.376818  1
  Tb  Tb4  1  0.811682  0.324460  0.879572  1
  Tb  Tb5  1  0.811682  0.324460  0.620428  1
  Tb  Tb6  1  0.851342  0.488399  0.250000  1
  Tb  Tb7  1  0.352825  0.012984  0.250000  1
  Tb  Tb8  1  0.316594  0.182148  0.878617  1
  Tb  Tb9  1  0.181586  0.679864  0.123182  1
  Tb  Tb10  1  0.682813  0.823112  0.123317  1
  Tb  Tb11  1  0.141955  0.493536  0.750000  1
  Pr  Pr12  1  0.027673  0.181580  0.400921  1
  Pr  Pr13  1  0.526192  0.318625  0.401088  1
  Pr  Pr14  1  0.485408  0.668938  0.908863  1
  Pr  Pr15  1  0.485408  0.668938  0.591137  1
  Pr  Pr16  1  0.969008  0.819649  0.598079  1
  Pr  Pr17  1  0.969008  0.819649  0.901921  1
  Pr  Pr18  1  0.526192  0.318625  0.098912  1
  Pr  Pr19  1  0.027673  0.181580  0.099079  1
  Si  Si20  1  0.475376  0.611382  0.250000  1
  Si  Si21  1  0.008822  0.137340  0.750000  1
  Si  Si22  1  0.520334  0.386418  0.750000  1
  Si  Si23  1  0.141036  0.472967  0.540367  1
  Si  Si24  1  0.976531  0.890782  0.250000  1
  Si  Si25  1  0.735924  0.119911  0.250000  1
  Si  Si26  1  0.857163  0.532280  0.041289  1
  Si  Si27  1  0.357753  0.968897  0.039465  1
  Si  Si28  1  0.141036  0.472967  0.959633  1
  Si  Si29  1  0.640080  0.028173  0.541048  1
  Si  Si30  1  0.357753  0.968897  0.460535  1
  Si  Si31  1  0.857163  0.532280  0.458711  1
  Si  Si32  1  0.766703  0.623771  0.750000  1
  Si  Si33  1  0.235160  0.381233  0.250000  1
  Si  Si34  1  0.640080  0.028173  0.958952  1
  Te  Te35  1  0.280968  0.860073  0.750000  1
