# generated using pymatgen
data_P2(HBr3)3
_symmetry_space_group_name_H-M   'P 1'
_cell_length_a   6.02478055
_cell_length_b   8.90891069
_cell_length_c   14.79044334
_cell_angle_alpha   93.07873394
_cell_angle_beta   87.36925629
_cell_angle_gamma   113.26237261
_symmetry_Int_Tables_number   1
_chemical_formula_structural   P2(HBr3)3
_chemical_formula_sum   'P2 H3 Br9'
_cell_volume   728.01271400
_cell_formula_units_Z   1
loop_
 _symmetry_equiv_pos_site_id
 _symmetry_equiv_pos_as_xyz
  1  'x, y, z'
loop_
 _atom_site_type_symbol
 _atom_site_label
 _atom_site_symmetry_multiplicity
 _atom_site_fract_x
 _atom_site_fract_y
 _atom_site_fract_z
 _atom_site_occupancy
  P  P0  1  0.450071  0.403148  0.698896  1
  P  P1  1  0.441878  0.996280  0.988450  1
  H  H2  1  0.742764  0.785847  0.392848  1
  H  H3  1  0.596268  0.423888  0.313944  1
  H  H4  1  0.682922  0.066761  0.349556  1
  Br  Br5  1  0.391376  0.575688  0.606582  1
  Br  Br6  1  0.562028  0.811528  0.044482  1
  Br  Br7  1  0.775746  0.228169  0.001028  1
  Br  Br8  1  0.535927  0.557887  0.287964  1
  Br  Br9  1  0.442986  0.937127  0.838595  1
  Br  Br10  1  0.857620  0.938420  0.445448  1
  Br  Br11  1  0.603863  0.263917  0.601112  1
  Br  Br12  1  0.778173  0.569898  0.774033  1
  Br  Br13  1  0.566601  0.130288  0.285507  1
