# generated using pymatgen
data_NpUIr2F24
_symmetry_space_group_name_H-M   'P 1'
_cell_length_a   5.32920857
_cell_length_b   9.18059700
_cell_length_c   10.12387700
_cell_angle_alpha   90.00000000
_cell_angle_beta   90.10817083
_cell_angle_gamma   90.00000000
_symmetry_Int_Tables_number   1
_chemical_formula_structural   NpUIr2F24
_chemical_formula_sum   'Np1 U1 Ir2 F24'
_cell_volume   495.31300033
_cell_formula_units_Z   1
loop_
 _symmetry_equiv_pos_site_id
 _symmetry_equiv_pos_as_xyz
  1  'x, y, z'
loop_
 _atom_site_type_symbol
 _atom_site_label
 _atom_site_symmetry_multiplicity
 _atom_site_fract_x
 _atom_site_fract_y
 _atom_site_fract_z
 _atom_site_occupancy
  Np  Np0  1  0.406691  0.750000  0.127272  1
  U  U1  1  0.593213  0.250000  0.873085  1
  Ir  Ir2  1  0.906625  0.250000  0.372913  1
  Ir  Ir3  1  0.093542  0.750000  0.626746  1
  F  F4  1  0.243196  0.605731  0.521897  1
  F  F5  1  0.247538  0.904692  0.014662  1
  F  F6  1  0.943972  0.894403  0.731581  1
  F  F7  1  0.188787  0.250000  0.484041  1
  F  F8  1  0.752612  0.093832  0.986540  1
  F  F9  1  0.564992  0.904458  0.239983  1
  F  F10  1  0.289152  0.250000  0.992667  1
  F  F11  1  0.243196  0.894269  0.521897  1
  F  F12  1  0.756702  0.394301  0.477719  1
  F  F13  1  0.434663  0.405864  0.759351  1
  F  F14  1  0.752612  0.406168  0.986540  1
  F  F15  1  0.811550  0.750000  0.515549  1
  F  F16  1  0.707888  0.750000  0.008389  1
  F  F17  1  0.247538  0.595308  0.014662  1
  F  F18  1  0.434663  0.094136  0.759351  1
  F  F19  1  0.055991  0.394508  0.268246  1
  F  F20  1  0.624453  0.250000  0.261434  1
  F  F21  1  0.564992  0.595542  0.239983  1
  F  F22  1  0.898858  0.250000  0.754259  1
  F  F23  1  0.104122  0.750000  0.245524  1
  F  F24  1  0.055991  0.105492  0.268246  1
  F  F25  1  0.943972  0.605597  0.731581  1
  F  F26  1  0.375787  0.750000  0.738161  1
  F  F27  1  0.756702  0.105699  0.477719  1
