# generated using pymatgen
data_Rb4Er3Sb9Se20
_symmetry_space_group_name_H-M   'P 1'
_cell_length_a   4.09345400
_cell_length_b   12.30999075
_cell_length_c   22.18108908
_cell_angle_alpha   89.86501632
_cell_angle_beta   90.00000000
_cell_angle_gamma   90.00000000
_symmetry_Int_Tables_number   1
_chemical_formula_structural   Rb4Er3Sb9Se20
_chemical_formula_sum   'Rb4 Er3 Sb9 Se20'
_cell_volume   1117.71042495
_cell_formula_units_Z   1
loop_
 _symmetry_equiv_pos_site_id
 _symmetry_equiv_pos_as_xyz
  1  'x, y, z'
loop_
 _atom_site_type_symbol
 _atom_site_label
 _atom_site_symmetry_multiplicity
 _atom_site_fract_x
 _atom_site_fract_y
 _atom_site_fract_z
 _atom_site_occupancy
  Rb  Rb0  1  0.250000  0.489505  0.210894  1
  Rb  Rb1  1  0.750000  0.509698  0.789643  1
  Rb  Rb2  1  0.750000  0.988911  0.287859  1
  Rb  Rb3  1  0.250000  0.008925  0.710713  1
  Er  Er4  1  0.250000  0.363930  0.022742  1
  Er  Er5  1  0.750000  0.635895  0.977205  1
  Er  Er6  1  0.750000  0.862937  0.476625  1
  Sb  Sb7  1  0.250000  0.132707  0.523577  1
  Sb  Sb8  1  0.250000  0.807990  0.123924  1
  Sb  Sb9  1  0.750000  0.191758  0.875643  1
  Sb  Sb10  1  0.750000  0.309368  0.375604  1
  Sb  Sb11  1  0.250000  0.690213  0.625459  1
  Sb  Sb12  1  0.250000  0.595233  0.426550  1
  Sb  Sb13  1  0.750000  0.403992  0.572456  1
  Sb  Sb14  1  0.750000  0.097380  0.073680  1
  Sb  Sb15  1  0.250000  0.902658  0.926095  1
  Se  Se16  1  0.250000  0.806846  0.390874  1
  Se  Se17  1  0.750000  0.197857  0.612351  1
  Se  Se18  1  0.750000  0.305456  0.109387  1
  Se  Se19  1  0.250000  0.694464  0.890536  1
  Se  Se20  1  0.250000  0.252237  0.299746  1
  Se  Se21  1  0.750000  0.746367  0.701145  1
  Se  Se22  1  0.750000  0.752294  0.200059  1
  Se  Se23  1  0.250000  0.246999  0.799414  1
  Se  Se24  1  0.250000  0.362184  0.481139  1
  Se  Se25  1  0.750000  0.643649  0.517475  1
  Se  Se26  1  0.750000  0.855394  0.017702  1
  Se  Se27  1  0.250000  0.144652  0.982063  1
  Se  Se28  1  0.250000  0.024458  0.156975  1
  Se  Se29  1  0.750000  0.975435  0.842722  1
  Se  Se30  1  0.750000  0.525505  0.342575  1
  Se  Se31  1  0.250000  0.476364  0.657601  1
  Se  Se32  1  0.250000  0.582300  0.060528  1
  Se  Se33  1  0.750000  0.417649  0.939471  1
  Se  Se34  1  0.750000  0.081755  0.438213  1
  Se  Se35  1  0.250000  0.917038  0.561353  1
