# generated using pymatgen
data_Ti12SiSe3
_symmetry_space_group_name_H-M   'P 1'
_cell_length_a   10.09617839
_cell_length_b   10.15752339
_cell_length_c   5.09537800
_cell_angle_alpha   90.00000000
_cell_angle_beta   90.00000000
_cell_angle_gamma   90.10674076
_symmetry_Int_Tables_number   1
_chemical_formula_structural   Ti12SiSe3
_chemical_formula_sum   'Ti24 Si2 Se6'
_cell_volume   522.54115498
_cell_formula_units_Z   2
loop_
 _symmetry_equiv_pos_site_id
 _symmetry_equiv_pos_as_xyz
  1  'x, y, z'
loop_
 _atom_site_type_symbol
 _atom_site_label
 _atom_site_symmetry_multiplicity
 _atom_site_fract_x
 _atom_site_fract_y
 _atom_site_fract_z
 _atom_site_occupancy
  Ti  Ti0  1  0.216861  0.682428  0.990283  1
  Ti  Ti1  1  0.783139  0.317572  0.990283  1
  Ti  Ti2  1  0.183294  0.284543  0.492996  1
  Ti  Ti3  1  0.816706  0.715457  0.492996  1
  Ti  Ti4  1  0.286655  0.818091  0.510002  1
  Ti  Ti5  1  0.713345  0.181909  0.510002  1
  Ti  Ti6  1  0.317826  0.215896  0.005570  1
  Ti  Ti7  1  0.682174  0.784104  0.005570  1
  Ti  Ti8  1  0.640024  0.527476  0.715795  1
  Ti  Ti9  1  0.359976  0.472524  0.715795  1
  Ti  Ti10  1  0.027524  0.858298  0.213703  1
  Ti  Ti11  1  0.972476  0.141702  0.213703  1
  Ti  Ti12  1  0.858490  0.972862  0.786231  1
  Ti  Ti13  1  0.141510  0.027138  0.786231  1
  Ti  Ti14  1  0.471473  0.644555  0.284921  1
  Ti  Ti15  1  0.528527  0.355445  0.284921  1
  Ti  Ti16  1  0.104145  0.582027  0.463804  1
  Ti  Ti17  1  0.895855  0.417973  0.463804  1
  Ti  Ti18  1  0.082017  0.397385  0.962664  1
  Ti  Ti19  1  0.917983  0.602615  0.962664  1
  Ti  Ti20  1  0.397090  0.915335  0.029204  1
  Ti  Ti21  1  0.602910  0.084665  0.029204  1
  Ti  Ti22  1  0.419145  0.105715  0.545947  1
  Ti  Ti23  1  0.580855  0.894285  0.545947  1
  Si  Si24  1  0.459753  0.704723  0.787982  1
  Si  Si25  1  0.540247  0.295277  0.787982  1
  Se  Se26  1  0.706062  0.540019  0.211584  1
  Se  Se27  1  0.293938  0.459981  0.211584  1
  Se  Se28  1  0.039616  0.792794  0.711882  1
  Se  Se29  1  0.960384  0.207206  0.711882  1
  Se  Se30  1  0.791613  0.960442  0.287432  1
  Se  Se31  1  0.208387  0.039558  0.287432  1
