# generated using pymatgen
data_Gd2ThBC3
_symmetry_space_group_name_H-M   'P 1'
_cell_length_a   3.75871874
_cell_length_b   3.75871946
_cell_length_c   16.14413500
_cell_angle_alpha   90.00000000
_cell_angle_beta   90.00000000
_cell_angle_gamma   90.40956681
_symmetry_Int_Tables_number   1
_chemical_formula_structural   Gd2ThBC3
_chemical_formula_sum   'Gd4 Th2 B2 C6'
_cell_volume   228.07801583
_cell_formula_units_Z   2
loop_
 _symmetry_equiv_pos_site_id
 _symmetry_equiv_pos_as_xyz
  1  'x, y, z'
loop_
 _atom_site_type_symbol
 _atom_site_label
 _atom_site_symmetry_multiplicity
 _atom_site_fract_x
 _atom_site_fract_y
 _atom_site_fract_z
 _atom_site_occupancy
  Gd  Gd0  1  0.583042  0.416958  0.098588  1
  Gd  Gd1  1  0.583042  0.416958  0.401412  1
  Gd  Gd2  1  0.416958  0.583042  0.598588  1
  Gd  Gd3  1  0.416958  0.583042  0.901412  1
  Th  Th4  1  0.088940  0.911060  0.250000  1
  Th  Th5  1  0.911060  0.088940  0.750000  1
  B  B6  1  0.000000  0.000000  0.000000  1
  B  B7  1  0.000000  0.000000  0.500000  1
  C  C8  1  0.076593  0.923407  0.087812  1
  C  C9  1  0.594942  0.405058  0.250000  1
  C  C10  1  0.076593  0.923407  0.412188  1
  C  C11  1  0.923407  0.076593  0.587812  1
  C  C12  1  0.405058  0.594942  0.750000  1
  C  C13  1  0.923407  0.076593  0.912188  1
