# generated using pymatgen
data_Ca10LuTcN10
_symmetry_space_group_name_H-M   'P 1'
_cell_length_a   7.05768326
_cell_length_b   7.05768207
_cell_length_c   8.92595824
_cell_angle_alpha   80.41337466
_cell_angle_beta   80.41336756
_cell_angle_gamma   59.88722928
_symmetry_Int_Tables_number   1
_chemical_formula_structural   Ca10LuTcN10
_chemical_formula_sum   'Ca10 Lu1 Tc1 N10'
_cell_volume   377.43500788
_cell_formula_units_Z   1
loop_
 _symmetry_equiv_pos_site_id
 _symmetry_equiv_pos_as_xyz
  1  'x, y, z'
loop_
 _atom_site_type_symbol
 _atom_site_label
 _atom_site_symmetry_multiplicity
 _atom_site_fract_x
 _atom_site_fract_y
 _atom_site_fract_z
 _atom_site_occupancy
  Ca  Ca0  1  0.875061  0.360010  0.824471  1
  Ca  Ca1  1  0.873301  0.873301  0.812425  1
  Ca  Ca2  1  0.736287  0.736287  0.532288  1
  Ca  Ca3  1  0.744119  0.259181  0.514578  1
  Ca  Ca4  1  0.622869  0.140299  0.148353  1
  Ca  Ca5  1  0.360010  0.875061  0.824471  1
  Ca  Ca6  1  0.259181  0.744119  0.514578  1
  Ca  Ca7  1  0.241285  0.241285  0.503529  1
  Ca  Ca8  1  0.141767  0.141767  0.159815  1
  Ca  Ca9  1  0.140299  0.622869  0.148353  1
  Lu  Lu10  1  0.369360  0.369360  0.781750  1
  Tc  Tc11  1  0.632393  0.632393  0.228374  1
  N  N12  1  0.899430  0.475404  0.315611  1
  N  N13  1  0.992217  0.992217  0.026265  1
  N  N14  1  0.675082  0.675082  0.023801  1
  N  N15  1  0.550746  0.550746  0.684265  1
  N  N16  1  0.475404  0.899430  0.315611  1
  N  N17  1  0.552097  0.066968  0.661410  1
  N  N18  1  0.478448  0.478448  0.296645  1
  N  N19  1  0.315436  0.315436  0.024321  1
  N  N20  1  0.060526  0.060526  0.643484  1
  N  N21  1  0.066968  0.552097  0.661410  1
