# generated using pymatgen
data_Cs2Tm(SbSe2)5
_symmetry_space_group_name_H-M   'P 1'
_cell_length_a   4.10930100
_cell_length_b   12.34973200
_cell_length_c   22.86098400
_cell_angle_alpha   90.00000000
_cell_angle_beta   90.00000000
_cell_angle_gamma   90.00000000
_symmetry_Int_Tables_number   1
_chemical_formula_structural   Cs2Tm(SbSe2)5
_chemical_formula_sum   'Cs4 Tm2 Sb10 Se20'
_cell_volume   1160.16672886
_cell_formula_units_Z   2
loop_
 _symmetry_equiv_pos_site_id
 _symmetry_equiv_pos_as_xyz
  1  'x, y, z'
loop_
 _atom_site_type_symbol
 _atom_site_label
 _atom_site_symmetry_multiplicity
 _atom_site_fract_x
 _atom_site_fract_y
 _atom_site_fract_z
 _atom_site_occupancy
  Cs  Cs0  1  0.250000  0.990212  0.287781  1
  Cs  Cs1  1  0.750000  0.490048  0.212396  1
  Cs  Cs2  1  0.750000  0.009952  0.712396  1
  Cs  Cs3  1  0.250000  0.509788  0.787781  1
  Tm  Tm4  1  0.750000  0.362403  0.023070  1
  Tm  Tm5  1  0.750000  0.137597  0.523070  1
  Sb  Sb6  1  0.750000  0.808735  0.119955  1
  Sb  Sb7  1  0.250000  0.406007  0.571017  1
  Sb  Sb8  1  0.250000  0.191603  0.879963  1
  Sb  Sb9  1  0.750000  0.595467  0.429042  1
  Sb  Sb10  1  0.250000  0.093993  0.071017  1
  Sb  Sb11  1  0.250000  0.633500  0.977241  1
  Sb  Sb12  1  0.250000  0.308397  0.379963  1
  Sb  Sb13  1  0.250000  0.866500  0.477241  1
  Sb  Sb14  1  0.750000  0.904533  0.929042  1
  Sb  Sb15  1  0.750000  0.691265  0.619955  1
  Se  Se16  1  0.250000  0.747653  0.693979  1
  Se  Se17  1  0.750000  0.145067  0.982568  1
  Se  Se18  1  0.250000  0.304004  0.105649  1
  Se  Se19  1  0.750000  0.580802  0.059684  1
  Se  Se20  1  0.250000  0.084264  0.441818  1
  Se  Se21  1  0.750000  0.919198  0.559684  1
  Se  Se22  1  0.250000  0.415736  0.941818  1
  Se  Se23  1  0.250000  0.860080  0.018828  1
  Se  Se24  1  0.750000  0.354933  0.482568  1
  Se  Se25  1  0.750000  0.246728  0.806146  1
  Se  Se26  1  0.250000  0.524462  0.348099  1
  Se  Se27  1  0.250000  0.975538  0.848099  1
  Se  Se28  1  0.750000  0.800609  0.390880  1
  Se  Se29  1  0.750000  0.474291  0.651883  1
  Se  Se30  1  0.250000  0.195996  0.605649  1
  Se  Se31  1  0.250000  0.752347  0.193979  1
  Se  Se32  1  0.750000  0.025709  0.151883  1
  Se  Se33  1  0.750000  0.253272  0.306146  1
  Se  Se34  1  0.750000  0.699391  0.890880  1
  Se  Se35  1  0.250000  0.639920  0.518828  1
