# generated using pymatgen
data_HoEr4IrPb3
_symmetry_space_group_name_H-M   'P 1'
_cell_length_a   9.15705000
_cell_length_b   9.15705043
_cell_length_c   6.80687200
_cell_angle_alpha   90.00000000
_cell_angle_beta   90.00000000
_cell_angle_gamma   119.99999121
_symmetry_Int_Tables_number   1
_chemical_formula_structural   HoEr4IrPb3
_chemical_formula_sum   'Ho2 Er8 Ir2 Pb6'
_cell_volume   494.29867435
_cell_formula_units_Z   2
loop_
 _symmetry_equiv_pos_site_id
 _symmetry_equiv_pos_as_xyz
  1  'x, y, z'
loop_
 _atom_site_type_symbol
 _atom_site_label
 _atom_site_symmetry_multiplicity
 _atom_site_fract_x
 _atom_site_fract_y
 _atom_site_fract_z
 _atom_site_occupancy
  Ho  Ho0  1  0.333333  0.666667  0.500000  1
  Ho  Ho1  1  0.666667  0.333333  0.500000  1
  Er  Er2  1  0.000000  0.764512  0.750086  1
  Er  Er3  1  0.235488  0.000000  0.249914  1
  Er  Er4  1  0.764512  0.000000  0.750086  1
  Er  Er5  1  0.000000  0.235488  0.249914  1
  Er  Er6  1  0.764512  0.764512  0.249914  1
  Er  Er7  1  0.235488  0.235488  0.750086  1
  Er  Er8  1  0.333333  0.666667  0.000000  1
  Er  Er9  1  0.666667  0.333333  0.000000  1
  Ir  Ir10  1  0.000000  0.000000  0.000000  1
  Ir  Ir11  1  0.000000  0.000000  0.500000  1
  Pb  Pb12  1  0.404989  0.404989  0.249743  1
  Pb  Pb13  1  0.000000  0.404989  0.750257  1
  Pb  Pb14  1  0.000000  0.595011  0.249743  1
  Pb  Pb15  1  0.595011  0.000000  0.249743  1
  Pb  Pb16  1  0.404989  0.000000  0.750257  1
  Pb  Pb17  1  0.595011  0.595011  0.750257  1
