# generated using pymatgen
data_LaHo3(Rh2O7)2
_symmetry_space_group_name_H-M   'P 1'
_cell_length_a   7.30929040
_cell_length_b   7.30929066
_cell_length_c   7.30929109
_cell_angle_alpha   59.39779706
_cell_angle_beta   59.39779785
_cell_angle_gamma   59.39780122
_symmetry_Int_Tables_number   1
_chemical_formula_structural   LaHo3(Rh2O7)2
_chemical_formula_sum   'La1 Ho3 Rh4 O14'
_cell_volume   272.34406908
_cell_formula_units_Z   1
loop_
 _symmetry_equiv_pos_site_id
 _symmetry_equiv_pos_as_xyz
  1  'x, y, z'
loop_
 _atom_site_type_symbol
 _atom_site_label
 _atom_site_symmetry_multiplicity
 _atom_site_fract_x
 _atom_site_fract_y
 _atom_site_fract_z
 _atom_site_occupancy
  La  La0  1  0.125000  0.125000  0.125000  1
  Ho  Ho1  1  0.125000  0.625000  0.125000  1
  Ho  Ho2  1  0.625000  0.125000  0.125000  1
  Ho  Ho3  1  0.125000  0.125000  0.625000  1
  Rh  Rh4  1  0.625000  0.625000  0.625000  1
  Rh  Rh5  1  0.625000  0.625000  0.125000  1
  Rh  Rh6  1  0.125000  0.625000  0.625000  1
  Rh  Rh7  1  0.625000  0.125000  0.625000  1
  O  O8  1  0.254305  0.254305  0.254305  1
  O  O9  1  0.290265  0.698967  0.290265  1
  O  O10  1  0.959735  0.959735  0.551033  1
  O  O11  1  0.538558  0.960784  0.538558  1
  O  O12  1  0.711442  0.711442  0.289216  1
  O  O13  1  0.960784  0.538558  0.538558  1
  O  O14  1  0.711442  0.289216  0.711442  1
  O  O15  1  0.290265  0.290265  0.698967  1
  O  O16  1  0.698967  0.290265  0.290265  1
  O  O17  1  0.289216  0.711442  0.711442  1
  O  O18  1  0.959735  0.551033  0.959735  1
  O  O19  1  0.538558  0.538558  0.960784  1
  O  O20  1  0.995695  0.995695  0.995695  1
  O  O21  1  0.551033  0.959735  0.959735  1
