# generated using pymatgen
data_Hf12Th8Si15Os
_symmetry_space_group_name_H-M   'P 1'
_cell_length_a   7.38128136
_cell_length_b   7.41128987
_cell_length_c   13.64365943
_cell_angle_alpha   90.16258490
_cell_angle_beta   89.85279295
_cell_angle_gamma   89.55742987
_symmetry_Int_Tables_number   1
_chemical_formula_structural   Hf12Th8Si15Os
_chemical_formula_sum   'Hf12 Th8 Si15 Os1'
_cell_volume   746.34609956
_cell_formula_units_Z   1
loop_
 _symmetry_equiv_pos_site_id
 _symmetry_equiv_pos_as_xyz
  1  'x, y, z'
loop_
 _atom_site_type_symbol
 _atom_site_label
 _atom_site_symmetry_multiplicity
 _atom_site_fract_x
 _atom_site_fract_y
 _atom_site_fract_z
 _atom_site_occupancy
  Hf  Hf0  1  0.173555  0.172660  0.998745  1
  Hf  Hf1  1  0.826028  0.825581  0.500481  1
  Hf  Hf2  1  0.331977  0.672958  0.251229  1
  Hf  Hf3  1  0.673540  0.326201  0.750126  1
  Hf  Hf4  1  0.157819  0.999179  0.375576  1
  Hf  Hf5  1  0.845297  0.003208  0.874372  1
  Hf  Hf6  1  0.504579  0.653465  0.625960  1
  Hf  Hf7  1  0.346157  0.497235  0.873502  1
  Hf  Hf8  1  0.495928  0.343615  0.127909  1
  Hf  Hf9  1  0.650086  0.499605  0.376984  1
  Hf  Hf10  1  0.997384  0.151904  0.625901  1
  Hf  Hf11  1  0.000180  0.845207  0.124639  1
  Th  Th12  1  0.000886  0.343844  0.215614  1
  Th  Th13  1  0.004409  0.656700  0.714930  1
  Th  Th14  1  0.162673  0.490725  0.462863  1
  Th  Th15  1  0.503244  0.843346  0.032601  1
  Th  Th16  1  0.842801  0.503606  0.966553  1
  Th  Th17  1  0.495985  0.158572  0.535265  1
  Th  Th18  1  0.343244  0.997506  0.783952  1
  Th  Th19  1  0.650871  0.006311  0.284451  1
  Si  Si20  1  0.635971  0.701639  0.816153  1
  Si  Si21  1  0.205261  0.866720  0.565731  1
  Si  Si22  1  0.133010  0.796819  0.934267  1
  Si  Si23  1  0.797691  0.132927  0.064932  1
  Si  Si24  1  0.866794  0.197519  0.436539  1
  Si  Si25  1  0.297318  0.367454  0.684630  1
  Si  Si26  1  0.701705  0.637014  0.184839  1
  Si  Si27  1  0.286629  0.043436  0.184791  1
  Si  Si28  1  0.710825  0.952854  0.685409  1
  Si  Si29  1  0.454928  0.792554  0.437689  1
  Si  Si30  1  0.211025  0.549579  0.061394  1
  Si  Si31  1  0.545850  0.210312  0.935059  1
  Si  Si32  1  0.791019  0.451254  0.565922  1
  Si  Si33  1  0.046228  0.290917  0.814778  1
  Si  Si34  1  0.948490  0.712946  0.314459  1
  Os  Os35  1  0.360613  0.304631  0.311753  1
