# generated using pymatgen
data_HoHf(NiP)3
_symmetry_space_group_name_H-M   'P 1'
_cell_length_a   3.70340500
_cell_length_b   10.07605200
_cell_length_c   12.20969300
_cell_angle_alpha   90.00000000
_cell_angle_beta   90.00000000
_cell_angle_gamma   90.00000000
_symmetry_Int_Tables_number   1
_chemical_formula_structural   HoHf(NiP)3
_chemical_formula_sum   'Ho4 Hf4 Ni12 P12'
_cell_volume   455.61325765
_cell_formula_units_Z   4
loop_
 _symmetry_equiv_pos_site_id
 _symmetry_equiv_pos_as_xyz
  1  'x, y, z'
loop_
 _atom_site_type_symbol
 _atom_site_label
 _atom_site_symmetry_multiplicity
 _atom_site_fract_x
 _atom_site_fract_y
 _atom_site_fract_z
 _atom_site_occupancy
  Ho  Ho0  1  0.250000  0.071475  0.207214  1
  Ho  Ho1  1  0.750000  0.928525  0.792786  1
  Ho  Ho2  1  0.750000  0.571475  0.292786  1
  Ho  Ho3  1  0.250000  0.428525  0.707214  1
  Hf  Hf4  1  0.250000  0.159229  0.497721  1
  Hf  Hf5  1  0.750000  0.840771  0.502279  1
  Hf  Hf6  1  0.750000  0.659229  0.002279  1
  Hf  Hf7  1  0.250000  0.340771  0.997721  1
  Ni  Ni8  1  0.250000  0.728447  0.663616  1
  Ni  Ni9  1  0.750000  0.271553  0.336384  1
  Ni  Ni10  1  0.750000  0.228447  0.836384  1
  Ni  Ni11  1  0.250000  0.771553  0.163616  1
  Ni  Ni12  1  0.250000  0.365696  0.218961  1
  Ni  Ni13  1  0.750000  0.634304  0.781039  1
  Ni  Ni14  1  0.750000  0.865696  0.281039  1
  Ni  Ni15  1  0.250000  0.134304  0.718961  1
  Ni  Ni16  1  0.250000  0.598690  0.482607  1
  Ni  Ni17  1  0.750000  0.401310  0.517393  1
  Ni  Ni18  1  0.750000  0.098690  0.017393  1
  Ni  Ni19  1  0.250000  0.901310  0.982607  1
  P  P20  1  0.250000  0.945227  0.622474  1
  P  P21  1  0.750000  0.054773  0.377526  1
  P  P22  1  0.750000  0.445227  0.877526  1
  P  P23  1  0.250000  0.554773  0.122474  1
  P  P24  1  0.250000  0.393790  0.402794  1
  P  P25  1  0.750000  0.606210  0.597206  1
  P  P26  1  0.750000  0.893790  0.097206  1
  P  P27  1  0.250000  0.106210  0.902794  1
  P  P28  1  0.250000  0.770860  0.355188  1
  P  P29  1  0.750000  0.229140  0.644812  1
  P  P30  1  0.750000  0.270860  0.144812  1
  P  P31  1  0.250000  0.729140  0.855188  1
