# generated using pymatgen
data_Dy5Y3(AgIr)2
_symmetry_space_group_name_H-M   'P 1'
_cell_length_a   9.56902188
_cell_length_b   9.56902118
_cell_length_c   9.56902200
_cell_angle_alpha   59.99999718
_cell_angle_beta   59.99999958
_cell_angle_gamma   60.00000132
_symmetry_Int_Tables_number   1
_chemical_formula_structural   Dy5Y3(AgIr)2
_chemical_formula_sum   'Dy10 Y6 Ag4 Ir4'
_cell_volume   619.56605076
_cell_formula_units_Z   2
loop_
 _symmetry_equiv_pos_site_id
 _symmetry_equiv_pos_as_xyz
  1  'x, y, z'
loop_
 _atom_site_type_symbol
 _atom_site_label
 _atom_site_symmetry_multiplicity
 _atom_site_fract_x
 _atom_site_fract_y
 _atom_site_fract_z
 _atom_site_occupancy
  Dy  Dy0  1  0.351432  0.351432  0.351432  1
  Dy  Dy1  1  0.351432  0.351432  0.945704  1
  Dy  Dy2  1  0.351432  0.945704  0.351432  1
  Dy  Dy3  1  0.945704  0.351432  0.351432  1
  Dy  Dy4  1  0.811086  0.188914  0.188914  1
  Dy  Dy5  1  0.188914  0.811086  0.811086  1
  Dy  Dy6  1  0.188914  0.811086  0.188914  1
  Dy  Dy7  1  0.811086  0.188914  0.811086  1
  Dy  Dy8  1  0.188914  0.188914  0.811086  1
  Dy  Dy9  1  0.811086  0.811086  0.188914  1
  Y  Y10  1  0.937042  0.562958  0.562958  1
  Y  Y11  1  0.562958  0.937042  0.937042  1
  Y  Y12  1  0.562958  0.937042  0.562958  1
  Y  Y13  1  0.937042  0.562958  0.937042  1
  Y  Y14  1  0.562958  0.562958  0.937042  1
  Y  Y15  1  0.937042  0.937042  0.562958  1
  Ag  Ag16  1  0.581412  0.581412  0.581412  1
  Ag  Ag17  1  0.581412  0.581412  0.255765  1
  Ag  Ag18  1  0.581412  0.255765  0.581412  1
  Ag  Ag19  1  0.255765  0.581412  0.581412  1
  Ir  Ir20  1  0.142564  0.142564  0.142564  1
  Ir  Ir21  1  0.142564  0.142564  0.572308  1
  Ir  Ir22  1  0.142564  0.572308  0.142564  1
  Ir  Ir23  1  0.572308  0.142564  0.142564  1
