# generated using pymatgen
data_Er6Al24Ru4PtRh3
_symmetry_space_group_name_H-M   'P 1'
_cell_length_a   8.82685039
_cell_length_b   8.82733831
_cell_length_c   9.49392589
_cell_angle_alpha   90.04904750
_cell_angle_beta   89.96901140
_cell_angle_gamma   120.28838576
_symmetry_Int_Tables_number   1
_chemical_formula_structural   Er6Al24Ru4PtRh3
_chemical_formula_sum   'Er6 Al24 Ru4 Pt1 Rh3'
_cell_volume   638.76696643
_cell_formula_units_Z   1
loop_
 _symmetry_equiv_pos_site_id
 _symmetry_equiv_pos_as_xyz
  1  'x, y, z'
loop_
 _atom_site_type_symbol
 _atom_site_label
 _atom_site_symmetry_multiplicity
 _atom_site_fract_x
 _atom_site_fract_y
 _atom_site_fract_z
 _atom_site_occupancy
  Er  Er0  1  0.197142  0.388124  0.250299  1
  Er  Er1  1  0.802858  0.611876  0.749701  1
  Er  Er2  1  0.611968  0.802836  0.249998  1
  Er  Er3  1  0.388032  0.197164  0.750002  1
  Er  Er4  1  0.193215  0.806490  0.250106  1
  Er  Er5  1  0.806785  0.193510  0.749894  1
  Al  Al6  1  0.332421  0.662369  0.025991  1
  Al  Al7  1  0.667579  0.337631  0.974009  1
  Al  Al8  1  0.665803  0.334456  0.525160  1
  Al  Al9  1  0.334197  0.665544  0.474840  1
  Al  Al10  1  0.164553  0.326098  0.576755  1
  Al  Al11  1  0.835447  0.673902  0.423245  1
  Al  Al12  1  0.674258  0.835627  0.577085  1
  Al  Al13  1  0.835702  0.674175  0.077015  1
  Al  Al14  1  0.325742  0.164373  0.422915  1
  Al  Al15  1  0.164298  0.325825  0.922985  1
  Al  Al16  1  0.161924  0.837989  0.577965  1
  Al  Al17  1  0.325144  0.166559  0.077301  1
  Al  Al18  1  0.838076  0.162011  0.422035  1
  Al  Al19  1  0.674856  0.833441  0.922699  1
  Al  Al20  1  0.841255  0.164415  0.078422  1
  Al  Al21  1  0.158745  0.835585  0.921578  1
  Al  Al22  1  0.562914  0.124472  0.252331  1
  Al  Al23  1  0.437086  0.875528  0.747669  1
  Al  Al24  1  0.877548  0.437894  0.249808  1
  Al  Al25  1  0.122452  0.562106  0.750192  1
  Al  Al26  1  0.561481  0.438216  0.249861  1
  Al  Al27  1  0.438519  0.561784  0.750139  1
  Al  Al28  1  0.000784  0.998612  0.250094  1
  Al  Al29  1  0.999216  0.001388  0.749906  1
  Ru  Ru30  1  0.500000  0.500000  0.000000  1
  Ru  Ru31  1  0.500000  0.500000  0.500000  1
  Ru  Ru32  1  0.000000  0.000000  0.000000  1
  Ru  Ru33  1  0.000000  0.000000  0.500000  1
  Pt  Pt34  1  0.500000  0.000000  0.000000  1
  Rh  Rh35  1  0.000000  0.500000  0.000000  1
  Rh  Rh36  1  0.500000  0.000000  0.500000  1
  Rh  Rh37  1  0.000000  0.500000  0.500000  1
