# generated using pymatgen
data_SrLaGa3O7
_symmetry_space_group_name_H-M   'P 1'
_cell_length_a   8.12450711
_cell_length_b   8.12450751
_cell_length_c   5.39125400
_cell_angle_alpha   90.00000000
_cell_angle_beta   90.00000000
_cell_angle_gamma   90.16192155
_symmetry_Int_Tables_number   1
_chemical_formula_structural   SrLaGa3O7
_chemical_formula_sum   'Sr2 La2 Ga6 O14'
_cell_volume   355.86241912
_cell_formula_units_Z   2
loop_
 _symmetry_equiv_pos_site_id
 _symmetry_equiv_pos_as_xyz
  1  'x, y, z'
loop_
 _atom_site_type_symbol
 _atom_site_label
 _atom_site_symmetry_multiplicity
 _atom_site_fract_x
 _atom_site_fract_y
 _atom_site_fract_z
 _atom_site_occupancy
  Sr  Sr0  1  0.162026  0.837974  0.489655  1
  Sr  Sr1  1  0.837974  0.162026  0.489655  1
  La  La2  1  0.663500  0.663500  0.511344  1
  La  La3  1  0.336500  0.336500  0.511344  1
  Ga  Ga4  1  0.357224  0.642776  0.032881  1
  Ga  Ga5  1  0.855224  0.855224  0.966428  1
  Ga  Ga6  1  0.642776  0.357224  0.032881  1
  Ga  Ga7  1  0.144776  0.144776  0.966428  1
  Ga  Ga8  1  0.500000  0.000000  0.999440  1
  Ga  Ga9  1  0.000000  0.500000  0.999440  1
  O  O10  1  0.000000  0.000000  0.817480  1
  O  O11  1  0.500000  0.500000  0.202723  1
  O  O12  1  0.369305  0.630695  0.695685  1
  O  O13  1  0.849086  0.849086  0.303294  1
  O  O14  1  0.630695  0.369305  0.695685  1
  O  O15  1  0.150914  0.150914  0.303294  1
  O  O16  1  0.415846  0.835666  0.201610  1
  O  O17  1  0.906081  0.659082  0.793977  1
  O  O18  1  0.584154  0.164334  0.201610  1
  O  O19  1  0.093919  0.340918  0.793977  1
  O  O20  1  0.340918  0.093919  0.793977  1
  O  O21  1  0.835666  0.415846  0.201610  1
  O  O22  1  0.659082  0.906081  0.793977  1
  O  O23  1  0.164334  0.584154  0.201610  1
