# generated using pymatgen
data_Sm3Zr3Ti4Al12Ir7
_symmetry_space_group_name_H-M   'P 1'
_cell_length_a   8.89864787
_cell_length_b   8.89864754
_cell_length_c   8.91969176
_cell_angle_alpha   60.07801723
_cell_angle_beta   60.07801721
_cell_angle_gamma   59.99999460
_symmetry_Int_Tables_number   1
_chemical_formula_structural   Sm3Zr3Ti4Al12Ir7
_chemical_formula_sum   'Sm3 Zr3 Ti4 Al12 Ir7'
_cell_volume   500.02760991
_cell_formula_units_Z   1
loop_
 _symmetry_equiv_pos_site_id
 _symmetry_equiv_pos_as_xyz
  1  'x, y, z'
loop_
 _atom_site_type_symbol
 _atom_site_label
 _atom_site_symmetry_multiplicity
 _atom_site_fract_x
 _atom_site_fract_y
 _atom_site_fract_z
 _atom_site_occupancy
  Sm  Sm0  1  0.698115  0.698115  0.302232  1
  Sm  Sm1  1  0.301539  0.698115  0.302232  1
  Sm  Sm2  1  0.698115  0.301539  0.302232  1
  Zr  Zr3  1  0.300885  0.300885  0.703167  1
  Zr  Zr4  1  0.695063  0.300885  0.703167  1
  Zr  Zr5  1  0.300885  0.695063  0.703167  1
  Ti  Ti6  1  0.879231  0.879231  0.362305  1
  Ti  Ti7  1  0.882264  0.359125  0.876349  1
  Ti  Ti8  1  0.359125  0.882264  0.876349  1
  Ti  Ti9  1  0.882264  0.882264  0.876349  1
  Al  Al10  1  0.117798  0.117798  0.646604  1
  Al  Al11  1  0.122392  0.641590  0.113624  1
  Al  Al12  1  0.641590  0.122392  0.113624  1
  Al  Al13  1  0.122392  0.122392  0.113624  1
  Al  Al14  1  0.670210  0.670210  0.989371  1
  Al  Al15  1  0.662195  0.007730  0.667880  1
  Al  Al16  1  0.007730  0.662195  0.667880  1
  Al  Al17  1  0.662195  0.662195  0.667880  1
  Al  Al18  1  0.334412  0.334412  0.996764  1
  Al  Al19  1  0.328393  0.009487  0.333728  1
  Al  Al20  1  0.009487  0.328393  0.333728  1
  Al  Al21  1  0.328393  0.328393  0.333728  1
  Ir  Ir22  1  0.999666  0.999666  0.001002  1
  Ir  Ir23  1  0.997313  0.997313  0.507898  1
  Ir  Ir24  1  0.497477  0.997313  0.507898  1
  Ir  Ir25  1  0.997313  0.497477  0.507898  1
  Ir  Ir26  1  0.500362  0.500362  0.996441  1
  Ir  Ir27  1  0.002834  0.500362  0.996441  1
  Ir  Ir28  1  0.500362  0.002834  0.996441  1
