# generated using pymatgen
data_Y8Zr12Si15Ni
_symmetry_space_group_name_H-M   'P 1'
_cell_length_a   7.16804478
_cell_length_b   7.30565414
_cell_length_c   13.95570009
_cell_angle_alpha   90.26032887
_cell_angle_beta   89.95475738
_cell_angle_gamma   90.09048789
_symmetry_Int_Tables_number   1
_chemical_formula_structural   Y8Zr12Si15Ni
_chemical_formula_sum   'Y8 Zr12 Si15 Ni1'
_cell_volume   730.81304026
_cell_formula_units_Z   1
loop_
 _symmetry_equiv_pos_site_id
 _symmetry_equiv_pos_as_xyz
  1  'x, y, z'
loop_
 _atom_site_type_symbol
 _atom_site_label
 _atom_site_symmetry_multiplicity
 _atom_site_fract_x
 _atom_site_fract_y
 _atom_site_fract_z
 _atom_site_occupancy
  Y  Y0  1  0.520284  0.677929  0.597631  1
  Y  Y1  1  0.020008  0.823499  0.903145  1
  Y  Y2  1  0.479698  0.324576  0.096908  1
  Y  Y3  1  0.976241  0.173735  0.402763  1
  Y  Y4  1  0.478575  0.323893  0.402764  1
  Y  Y5  1  0.980749  0.176312  0.097337  1
  Y  Y6  1  0.521316  0.676004  0.902403  1
  Y  Y7  1  0.022519  0.824470  0.599068  1
  Zr  Zr8  1  0.678396  0.166516  0.619716  1
  Zr  Zr9  1  0.177216  0.323913  0.874975  1
  Zr  Zr10  1  0.324377  0.822562  0.124501  1
  Zr  Zr11  1  0.823399  0.684552  0.378215  1
  Zr  Zr12  1  0.326847  0.826121  0.376698  1
  Zr  Zr13  1  0.823192  0.674617  0.125342  1
  Zr  Zr14  1  0.675523  0.176468  0.875201  1
  Zr  Zr15  1  0.176292  0.323529  0.624268  1
  Zr  Zr16  1  0.851950  0.498116  0.750267  1
  Zr  Zr17  1  0.351283  0.001750  0.750336  1
  Zr  Zr18  1  0.147129  0.503251  0.251254  1
  Zr  Zr19  1  0.650714  0.000851  0.251355  1
  Si  Si20  1  0.150017  0.530906  0.041575  1
  Si  Si21  1  0.347830  0.031106  0.958456  1
  Si  Si22  1  0.850526  0.468994  0.543213  1
  Si  Si23  1  0.350226  0.032314  0.542067  1
  Si  Si24  1  0.850822  0.468203  0.958069  1
  Si  Si25  1  0.651181  0.966967  0.041266  1
  Si  Si26  1  0.150331  0.533366  0.459039  1
  Si  Si27  1  0.475852  0.380311  0.748854  1
  Si  Si28  1  0.973472  0.118325  0.749377  1
  Si  Si29  1  0.526458  0.619075  0.249550  1
  Si  Si30  1  0.027668  0.882293  0.248882  1
  Si  Si31  1  0.725659  0.872202  0.750758  1
  Si  Si32  1  0.225110  0.626185  0.750767  1
  Si  Si33  1  0.274754  0.127266  0.248562  1
  Si  Si34  1  0.774111  0.375721  0.250018  1
  Ni  Ni35  1  0.640274  0.964103  0.455402  1
