# generated using pymatgen
data_TbLu2Al3Ga2Ni
_symmetry_space_group_name_H-M   'P 1'
_cell_length_a   6.86592408
_cell_length_b   6.82000288
_cell_length_c   4.21958900
_cell_angle_alpha   90.00000000
_cell_angle_beta   90.00000000
_cell_angle_gamma   119.77898759
_symmetry_Int_Tables_number   1
_chemical_formula_structural   TbLu2Al3Ga2Ni
_chemical_formula_sum   'Tb1 Lu2 Al3 Ga2 Ni1'
_cell_volume   171.49333239
_cell_formula_units_Z   1
loop_
 _symmetry_equiv_pos_site_id
 _symmetry_equiv_pos_as_xyz
  1  'x, y, z'
loop_
 _atom_site_type_symbol
 _atom_site_label
 _atom_site_symmetry_multiplicity
 _atom_site_fract_x
 _atom_site_fract_y
 _atom_site_fract_z
 _atom_site_occupancy
  Tb  Tb0  1  0.000000  0.411637  0.500000  1
  Lu  Lu1  1  0.592354  0.593496  0.500000  1
  Lu  Lu2  1  0.407646  0.001142  0.500000  1
  Al  Al3  1  0.000000  0.768177  0.000000  1
  Al  Al4  1  0.232492  0.231775  0.000000  1
  Al  Al5  1  0.767508  0.999283  0.000000  1
  Ga  Ga6  1  0.338173  0.669475  0.000000  1
  Ga  Ga7  1  0.661827  0.331301  0.000000  1
  Ni  Ni8  1  0.000000  0.993715  0.500000  1
