# generated using pymatgen
data_LuOsO4
_symmetry_space_group_name_H-M   'P 1'
_cell_length_a   5.24710300
_cell_length_b   7.32556493
_cell_length_c   7.63657900
_cell_angle_alpha   80.67317864
_cell_angle_beta   90.00000000
_cell_angle_gamma   90.00000000
_symmetry_Int_Tables_number   1
_chemical_formula_structural   LuOsO4
_chemical_formula_sum   'Lu4 Os4 O16'
_cell_volume   289.65423350
_cell_formula_units_Z   4
loop_
 _symmetry_equiv_pos_site_id
 _symmetry_equiv_pos_as_xyz
  1  'x, y, z'
loop_
 _atom_site_type_symbol
 _atom_site_label
 _atom_site_symmetry_multiplicity
 _atom_site_fract_x
 _atom_site_fract_y
 _atom_site_fract_z
 _atom_site_occupancy
  Lu  Lu0  1  0.716874  0.881565  0.351270  1
  Lu  Lu1  1  0.283126  0.118435  0.648730  1
  Lu  Lu2  1  0.783126  0.381565  0.351270  1
  Lu  Lu3  1  0.216874  0.618435  0.648730  1
  Os  Os4  1  0.769465  0.299847  0.839098  1
  Os  Os5  1  0.230535  0.700153  0.160902  1
  Os  Os6  1  0.269465  0.200153  0.160902  1
  Os  Os7  1  0.730535  0.799847  0.839098  1
  O  O8  1  0.912678  0.804240  0.057479  1
  O  O9  1  0.087322  0.195760  0.942521  1
  O  O10  1  0.382093  0.944593  0.169809  1
  O  O11  1  0.617907  0.055407  0.830191  1
  O  O12  1  0.117907  0.444593  0.169809  1
  O  O13  1  0.882093  0.555407  0.830191  1
  O  O14  1  0.587322  0.304240  0.057479  1
  O  O15  1  0.412678  0.695760  0.942521  1
  O  O16  1  0.968755  0.319425  0.606449  1
  O  O17  1  0.031245  0.680575  0.393551  1
  O  O18  1  0.468755  0.180575  0.393551  1
  O  O19  1  0.531245  0.819425  0.606449  1
  O  O20  1  0.529078  0.614781  0.303748  1
  O  O21  1  0.470922  0.385219  0.696252  1
  O  O22  1  0.970922  0.114781  0.303748  1
  O  O23  1  0.029078  0.885219  0.696252  1
