# generated using pymatgen
data_Ta10Ga6P
_symmetry_space_group_name_H-M   'P 1'
_cell_length_a   7.81385400
_cell_length_b   7.81385394
_cell_length_c   5.37326900
_cell_angle_alpha   90.00000000
_cell_angle_beta   90.00000000
_cell_angle_gamma   120.00000024
_symmetry_Int_Tables_number   1
_chemical_formula_structural   Ta10Ga6P
_chemical_formula_sum   'Ta10 Ga6 P1'
_cell_volume   284.11868444
_cell_formula_units_Z   1
loop_
 _symmetry_equiv_pos_site_id
 _symmetry_equiv_pos_as_xyz
  1  'x, y, z'
loop_
 _atom_site_type_symbol
 _atom_site_label
 _atom_site_symmetry_multiplicity
 _atom_site_fract_x
 _atom_site_fract_y
 _atom_site_fract_z
 _atom_site_occupancy
  Ta  Ta0  1  0.333333  0.666667  0.500000  1
  Ta  Ta1  1  0.666667  0.333333  0.500000  1
  Ta  Ta2  1  0.666667  0.333333  0.000000  1
  Ta  Ta3  1  0.333333  0.666667  0.000000  1
  Ta  Ta4  1  0.000000  0.747070  0.222680  1
  Ta  Ta5  1  0.252930  0.252930  0.222680  1
  Ta  Ta6  1  0.747070  0.000000  0.222680  1
  Ta  Ta7  1  0.000000  0.252930  0.777320  1
  Ta  Ta8  1  0.747070  0.747070  0.777320  1
  Ta  Ta9  1  0.252930  0.000000  0.777320  1
  Ga  Ga10  1  0.000000  0.396865  0.256548  1
  Ga  Ga11  1  0.603135  0.603135  0.256548  1
  Ga  Ga12  1  0.396865  0.000000  0.256548  1
  Ga  Ga13  1  0.000000  0.603135  0.743452  1
  Ga  Ga14  1  0.396865  0.396865  0.743452  1
  Ga  Ga15  1  0.603135  0.000000  0.743452  1
  P  P16  1  0.000000  0.000000  0.500000  1
