# generated using pymatgen
data_Hf7ScCo8Si13Ge
_symmetry_space_group_name_H-M   'P 1'
_cell_length_a   9.45452749
_cell_length_b   9.45433256
_cell_length_c   9.45076373
_cell_angle_alpha   94.11516200
_cell_angle_beta   94.11390130
_cell_angle_gamma   148.92854384
_symmetry_Int_Tables_number   1
_chemical_formula_structural   Hf7ScCo8Si13Ge
_chemical_formula_sum   'Hf7 Sc1 Co8 Si13 Ge1'
_cell_volume   420.05536358
_cell_formula_units_Z   1
loop_
 _symmetry_equiv_pos_site_id
 _symmetry_equiv_pos_as_xyz
  1  'x, y, z'
loop_
 _atom_site_type_symbol
 _atom_site_label
 _atom_site_symmetry_multiplicity
 _atom_site_fract_x
 _atom_site_fract_y
 _atom_site_fract_z
 _atom_site_occupancy
  Hf  Hf0  1  0.863022  0.862999  0.726026  1
  Hf  Hf1  1  0.137315  0.862308  0.999616  1
  Hf  Hf2  1  0.862308  0.137323  0.999621  1
  Hf  Hf3  1  0.303810  0.501852  0.805625  1
  Hf  Hf4  1  0.696184  0.499545  0.195764  1
  Hf  Hf5  1  0.499574  0.696202  0.195751  1
  Hf  Hf6  1  0.501892  0.303826  0.805643  1
  Sc  Sc7  1  0.138296  0.138311  0.276534  1
  Co  Co8  1  0.101974  0.601983  0.203972  1
  Co  Co9  1  0.398128  0.898146  0.796307  1
  Co  Co10  1  0.893014  0.100702  0.498599  1
  Co  Co11  1  0.605618  0.397902  0.498586  1
  Co  Co12  1  0.601971  0.101984  0.203975  1
  Co  Co13  1  0.898143  0.398154  0.796307  1
  Co  Co14  1  0.100717  0.893026  0.498594  1
  Co  Co15  1  0.397835  0.605523  0.498594  1
  Si  Si16  1  0.709372  0.709346  0.418844  1
  Si  Si17  1  0.290159  0.710499  0.000647  1
  Si  Si18  1  0.710473  0.290141  0.000652  1
  Si  Si19  1  0.091671  0.500138  0.591745  1
  Si  Si20  1  0.908597  0.499409  0.407946  1
  Si  Si21  1  0.499282  0.908505  0.407951  1
  Si  Si22  1  0.500083  0.091656  0.591742  1
  Si  Si23  1  0.251468  0.251460  0.999110  1
  Si  Si24  1  0.747660  0.747656  0.999123  1
  Si  Si25  1  0.299780  0.999819  0.299545  1
  Si  Si26  1  0.699892  0.999948  0.699935  1
  Si  Si27  1  0.999979  0.699909  0.699904  1
  Si  Si28  1  0.999803  0.299776  0.299536  1
  Ge  Ge29  1  0.291983  0.291954  0.583803  1
