# generated using pymatgen
data_La2DyEr(Mo2O7)2
_symmetry_space_group_name_H-M   'P 1'
_cell_length_a   7.47657650
_cell_length_b   7.55384164
_cell_length_c   7.45448487
_cell_angle_alpha   59.55811089
_cell_angle_beta   59.38364992
_cell_angle_gamma   59.65755481
_symmetry_Int_Tables_number   1
_chemical_formula_structural   La2DyEr(Mo2O7)2
_chemical_formula_sum   'La2 Dy1 Er1 Mo4 O14'
_cell_volume   294.53227390
_cell_formula_units_Z   1
loop_
 _symmetry_equiv_pos_site_id
 _symmetry_equiv_pos_as_xyz
  1  'x, y, z'
loop_
 _atom_site_type_symbol
 _atom_site_label
 _atom_site_symmetry_multiplicity
 _atom_site_fract_x
 _atom_site_fract_y
 _atom_site_fract_z
 _atom_site_occupancy
  La  La0  1  0.125000  0.625000  0.125000  1
  La  La1  1  0.125000  0.125000  0.125000  1
  Dy  Dy2  1  0.125000  0.125000  0.625000  1
  Er  Er3  1  0.625000  0.125000  0.125000  1
  Mo  Mo4  1  0.125000  0.625000  0.625000  1
  Mo  Mo5  1  0.625000  0.125000  0.625000  1
  Mo  Mo6  1  0.625000  0.625000  0.125000  1
  Mo  Mo7  1  0.625000  0.625000  0.625000  1
  O  O8  1  0.700172  0.720983  0.289425  1
  O  O9  1  0.289191  0.289444  0.701457  1
  O  O10  1  0.714354  0.285754  0.714139  1
  O  O11  1  0.292325  0.707981  0.291713  1
  O  O12  1  0.289191  0.719908  0.701457  1
  O  O13  1  0.700172  0.289420  0.289425  1
  O  O14  1  0.549828  0.529017  0.960575  1
  O  O15  1  0.960809  0.960556  0.548543  1
  O  O16  1  0.535646  0.964246  0.535861  1
  O  O17  1  0.957675  0.542019  0.958287  1
  O  O18  1  0.960809  0.530092  0.548543  1
  O  O19  1  0.549828  0.960580  0.960575  1
  O  O20  1  0.259548  0.242839  0.254774  1
  O  O21  1  0.990452  0.007161  0.995226  1
