# generated using pymatgen
data_SmInNiPt3
_symmetry_space_group_name_H-M   'P 1'
_cell_length_a   5.44271436
_cell_length_b   5.44271474
_cell_length_c   5.23733044
_cell_angle_alpha   58.69406675
_cell_angle_beta   58.69405776
_cell_angle_gamma   59.99999679
_symmetry_Int_Tables_number   1
_chemical_formula_structural   SmInNiPt3
_chemical_formula_sum   'Sm1 In1 Ni1 Pt3'
_cell_volume   107.48930756
_cell_formula_units_Z   1
loop_
 _symmetry_equiv_pos_site_id
 _symmetry_equiv_pos_as_xyz
  1  'x, y, z'
loop_
 _atom_site_type_symbol
 _atom_site_label
 _atom_site_symmetry_multiplicity
 _atom_site_fract_x
 _atom_site_fract_y
 _atom_site_fract_z
 _atom_site_occupancy
  Sm  Sm0  1  0.000745  0.000745  0.997765  1
  In  In1  1  0.253888  0.253888  0.238335  1
  Ni  Ni2  1  0.623266  0.623266  0.130202  1
  Pt  Pt3  1  0.623264  0.125573  0.627899  1
  Pt  Pt4  1  0.125573  0.623264  0.627899  1
  Pt  Pt5  1  0.623264  0.623264  0.627899  1
