# generated using pymatgen
data_YTm19Sn16
_symmetry_space_group_name_H-M   'P 1'
_cell_length_a   7.95397150
_cell_length_b   8.07954145
_cell_length_c   15.26983609
_cell_angle_alpha   90.00392599
_cell_angle_beta   89.94048342
_cell_angle_gamma   89.96200047
_symmetry_Int_Tables_number   1
_chemical_formula_structural   YTm19Sn16
_chemical_formula_sum   'Y1 Tm19 Sn16'
_cell_volume   981.30675444
_cell_formula_units_Z   1
loop_
 _symmetry_equiv_pos_site_id
 _symmetry_equiv_pos_as_xyz
  1  'x, y, z'
loop_
 _atom_site_type_symbol
 _atom_site_label
 _atom_site_symmetry_multiplicity
 _atom_site_fract_x
 _atom_site_fract_y
 _atom_site_fract_z
 _atom_site_occupancy
  Y  Y0  1  0.022683  0.178996  0.902777  1
  Tm  Tm1  1  0.367948  0.836239  0.877618  1
  Tm  Tm2  1  0.867974  0.663694  0.622290  1
  Tm  Tm3  1  0.632041  0.163557  0.377692  1
  Tm  Tm4  1  0.132380  0.336708  0.122728  1
  Tm  Tm5  1  0.632394  0.163492  0.122399  1
  Tm  Tm6  1  0.131978  0.336399  0.377598  1
  Tm  Tm7  1  0.368026  0.836328  0.622267  1
  Tm  Tm8  1  0.867961  0.663720  0.877561  1
  Tm  Tm9  1  0.522959  0.321175  0.902494  1
  Tm  Tm10  1  0.023241  0.179049  0.597668  1
  Tm  Tm11  1  0.476953  0.678955  0.402496  1
  Tm  Tm12  1  0.977052  0.820851  0.097609  1
  Tm  Tm13  1  0.477062  0.679063  0.097500  1
  Tm  Tm14  1  0.976817  0.821049  0.402480  1
  Tm  Tm15  1  0.523105  0.321142  0.597376  1
  Tm  Tm16  1  0.198579  0.503602  0.749761  1
  Tm  Tm17  1  0.697987  0.996406  0.749739  1
  Tm  Tm18  1  0.801590  0.496651  0.250075  1
  Tm  Tm19  1  0.301661  0.003330  0.250040  1
  Sn  Sn20  1  0.292657  0.034691  0.042267  1
  Sn  Sn21  1  0.791768  0.464876  0.458280  1
  Sn  Sn22  1  0.708286  0.964911  0.541713  1
  Sn  Sn23  1  0.208620  0.535997  0.958445  1
  Sn  Sn24  1  0.706570  0.963556  0.958508  1
  Sn  Sn25  1  0.208192  0.535115  0.541700  1
  Sn  Sn26  1  0.291741  0.035154  0.458281  1
  Sn  Sn27  1  0.791846  0.464941  0.041739  1
  Sn  Sn28  1  0.564461  0.619688  0.749938  1
  Sn  Sn29  1  0.064640  0.879559  0.749829  1
  Sn  Sn30  1  0.435602  0.380382  0.250021  1
  Sn  Sn31  1  0.935463  0.119866  0.250066  1
  Sn  Sn32  1  0.332580  0.148725  0.749735  1
  Sn  Sn33  1  0.830989  0.352121  0.749290  1
  Sn  Sn34  1  0.668074  0.851246  0.249980  1
  Sn  Sn35  1  0.168122  0.648768  0.250041  1
