# generated using pymatgen
data_Li4Dy(Ni2P3)2
_symmetry_space_group_name_H-M   'P 1'
_cell_length_a   7.75203053
_cell_length_b   7.75203163
_cell_length_c   7.75203074
_cell_angle_alpha   151.44257339
_cell_angle_beta   113.46006590
_cell_angle_gamma   73.95165272
_symmetry_Int_Tables_number   1
_chemical_formula_structural   Li4Dy(Ni2P3)2
_chemical_formula_sum   'Li4 Dy1 Ni4 P6'
_cell_volume   201.41809395
_cell_formula_units_Z   1
loop_
 _symmetry_equiv_pos_site_id
 _symmetry_equiv_pos_as_xyz
  1  'x, y, z'
loop_
 _atom_site_type_symbol
 _atom_site_label
 _atom_site_symmetry_multiplicity
 _atom_site_fract_x
 _atom_site_fract_y
 _atom_site_fract_z
 _atom_site_occupancy
  Li  Li0  1  0.718441  0.718441  0.000000  1
  Li  Li1  1  0.672941  0.500000  0.172941  1
  Li  Li2  1  0.327059  0.500000  0.827059  1
  Li  Li3  1  0.281559  0.281559  0.000000  1
  Dy  Dy4  1  0.000000  0.000000  0.000000  1
  Ni  Ni5  1  0.905834  0.173169  0.732666  1
  Ni  Ni6  1  0.559497  0.826831  0.732666  1
  Ni  Ni7  1  0.440503  0.173169  0.267334  1
  Ni  Ni8  1  0.094166  0.826831  0.267334  1
  P  P9  1  0.978013  0.345285  0.632729  1
  P  P10  1  0.712555  0.345285  0.367271  1
  P  P11  1  0.586896  0.086896  0.500000  1
  P  P12  1  0.413104  0.913104  0.500000  1
  P  P13  1  0.287445  0.654715  0.632729  1
  P  P14  1  0.021987  0.654715  0.367271  1
