# generated using pymatgen
data_DyHo6Sn23Rh6
_symmetry_space_group_name_H-M   'P 1'
_cell_length_a   9.85078300
_cell_length_b   9.85078197
_cell_length_c   10.10360900
_cell_angle_alpha   90.00000000
_cell_angle_beta   90.00000000
_cell_angle_gamma   119.99999339
_symmetry_Int_Tables_number   1
_chemical_formula_structural   DyHo6Sn23Rh6
_chemical_formula_sum   'Dy1 Ho6 Sn23 Rh6'
_cell_volume   849.08007714
_cell_formula_units_Z   1
loop_
 _symmetry_equiv_pos_site_id
 _symmetry_equiv_pos_as_xyz
  1  'x, y, z'
loop_
 _atom_site_type_symbol
 _atom_site_label
 _atom_site_symmetry_multiplicity
 _atom_site_fract_x
 _atom_site_fract_y
 _atom_site_fract_z
 _atom_site_occupancy
  Dy  Dy0  1  0.000000  0.000000  0.000000  1
  Ho  Ho1  1  0.520448  0.479552  0.692223  1
  Ho  Ho2  1  0.520448  0.040896  0.692223  1
  Ho  Ho3  1  0.959104  0.479552  0.692223  1
  Ho  Ho4  1  0.040896  0.520448  0.307777  1
  Ho  Ho5  1  0.479552  0.959104  0.307777  1
  Ho  Ho6  1  0.479552  0.520448  0.307777  1
  Sn  Sn7  1  0.666667  0.333333  0.179375  1
  Sn  Sn8  1  0.666667  0.333333  0.877120  1
  Sn  Sn9  1  0.333333  0.666667  0.122880  1
  Sn  Sn10  1  0.351110  0.351110  0.000000  1
  Sn  Sn11  1  0.000000  0.648890  0.000000  1
  Sn  Sn12  1  0.648890  0.000000  0.000000  1
  Sn  Sn13  1  0.648890  0.648890  0.000000  1
  Sn  Sn14  1  0.333333  0.666667  0.820625  1
  Sn  Sn15  1  0.444340  0.222171  0.455643  1
  Sn  Sn16  1  0.222171  0.777829  0.544357  1
  Sn  Sn17  1  0.222171  0.444340  0.544357  1
  Sn  Sn18  1  0.555660  0.777829  0.544357  1
  Sn  Sn19  1  0.119756  0.880244  0.281708  1
  Sn  Sn20  1  0.777829  0.555660  0.455643  1
  Sn  Sn21  1  0.777829  0.222171  0.455643  1
  Sn  Sn22  1  0.351110  0.000000  0.000000  1
  Sn  Sn23  1  0.119756  0.239510  0.281708  1
  Sn  Sn24  1  0.760490  0.880244  0.281708  1
  Sn  Sn25  1  0.239510  0.119756  0.718292  1
  Sn  Sn26  1  0.880244  0.760490  0.718292  1
  Sn  Sn27  1  0.880244  0.119756  0.718292  1
  Sn  Sn28  1  0.000000  0.000000  0.500000  1
  Sn  Sn29  1  0.000000  0.351110  0.000000  1
  Rh  Rh30  1  0.168664  0.831336  0.801603  1
  Rh  Rh31  1  0.168664  0.337327  0.801603  1
  Rh  Rh32  1  0.662673  0.831336  0.801603  1
  Rh  Rh33  1  0.337327  0.168664  0.198397  1
  Rh  Rh34  1  0.831336  0.662673  0.198397  1
  Rh  Rh35  1  0.831336  0.168664  0.198397  1
