# generated using pymatgen
data_Tm3Nb5(CoB6)4
_symmetry_space_group_name_H-M   'P 1'
_cell_length_a   3.31080900
_cell_length_b   8.87368284
_cell_length_c   11.18474754
_cell_angle_alpha   89.93299578
_cell_angle_beta   90.00000000
_cell_angle_gamma   90.00000000
_symmetry_Int_Tables_number   1
_chemical_formula_structural   Tm3Nb5(CoB6)4
_chemical_formula_sum   'Tm3 Nb5 Co4 B24'
_cell_volume   328.59724527
_cell_formula_units_Z   1
loop_
 _symmetry_equiv_pos_site_id
 _symmetry_equiv_pos_as_xyz
  1  'x, y, z'
loop_
 _atom_site_type_symbol
 _atom_site_label
 _atom_site_symmetry_multiplicity
 _atom_site_fract_x
 _atom_site_fract_y
 _atom_site_fract_z
 _atom_site_occupancy
  Tm  Tm0  1  0.000000  0.821624  0.087142  1
  Tm  Tm1  1  0.000000  0.177659  0.912463  1
  Tm  Tm2  1  0.000000  0.323886  0.414160  1
  Nb  Nb3  1  0.000000  0.678984  0.587013  1
  Nb  Nb4  1  0.000000  0.445883  0.128876  1
  Nb  Nb5  1  0.000000  0.555699  0.868710  1
  Nb  Nb6  1  0.000000  0.942886  0.373748  1
  Nb  Nb7  1  0.000000  0.053184  0.628264  1
  Co  Co8  1  0.000000  0.142615  0.182129  1
  Co  Co9  1  0.000000  0.854390  0.815949  1
  Co  Co10  1  0.000000  0.642243  0.322222  1
  Co  Co11  1  0.000000  0.361290  0.680074  1
  B  B12  1  0.500000  0.053614  0.066817  1
  B  B13  1  0.500000  0.946045  0.933372  1
  B  B14  1  0.500000  0.554631  0.437246  1
  B  B15  1  0.500000  0.449512  0.565534  1
  B  B16  1  0.500000  0.251669  0.082144  1
  B  B17  1  0.500000  0.748927  0.917582  1
  B  B18  1  0.500000  0.750222  0.421506  1
  B  B19  1  0.500000  0.248332  0.582204  1
  B  B20  1  0.500000  0.297543  0.237540  1
  B  B21  1  0.500000  0.702902  0.760790  1
  B  B22  1  0.500000  0.796002  0.264173  1
  B  B23  1  0.500000  0.202254  0.735937  1
  B  B24  1  0.500000  0.130549  0.318049  1
  B  B25  1  0.500000  0.866770  0.680595  1
  B  B26  1  0.500000  0.630770  0.182267  1
  B  B27  1  0.500000  0.368888  0.816467  1
  B  B28  1  0.500000  0.482915  0.287836  1
  B  B29  1  0.500000  0.519632  0.709910  1
  B  B30  1  0.500000  0.981680  0.213530  1
  B  B31  1  0.500000  0.016839  0.787167  1
  B  B32  1  0.500000  0.102529  0.473265  1
  B  B33  1  0.500000  0.896951  0.527174  1
  B  B34  1  0.500000  0.600972  0.025822  1
  B  B35  1  0.500000  0.399511  0.972328  1
