# generated using pymatgen
data_LaTb3Y2(SiPd5)2
_symmetry_space_group_name_H-M   'P 1'
_cell_length_a   8.29854924
_cell_length_b   8.29855050
_cell_length_c   8.29855074
_cell_angle_alpha   127.60528930
_cell_angle_beta   125.97997355
_cell_angle_gamma   78.59629815
_symmetry_Int_Tables_number   1
_chemical_formula_structural   LaTb3Y2(SiPd5)2
_chemical_formula_sum   'La1 Tb3 Y2 Si2 Pd10'
_cell_volume   354.66705835
_cell_formula_units_Z   1
loop_
 _symmetry_equiv_pos_site_id
 _symmetry_equiv_pos_as_xyz
  1  'x, y, z'
loop_
 _atom_site_type_symbol
 _atom_site_label
 _atom_site_symmetry_multiplicity
 _atom_site_fract_x
 _atom_site_fract_y
 _atom_site_fract_z
 _atom_site_occupancy
  La  La0  1  0.617997  0.750000  0.867997  1
  Tb  Tb1  1  0.176871  0.950993  0.225879  1
  Tb  Tb2  1  0.388274  0.250000  0.138274  1
  Tb  Tb3  1  0.774887  0.549007  0.225879  1
  Y  Y4  1  0.825718  0.050728  0.774990  1
  Y  Y5  1  0.224261  0.449272  0.774990  1
  Si  Si6  1  0.210755  0.750000  0.460755  1
  Si  Si7  1  0.781026  0.250000  0.531026  1
  Pd  Pd8  1  0.834771  0.598891  0.640820  1
  Pd  Pd9  1  0.541929  0.306049  0.640820  1
  Pd  Pd10  1  0.452924  0.098692  0.764346  1
  Pd  Pd11  1  0.834771  0.193951  0.235879  1
  Pd  Pd12  1  0.165654  0.401308  0.354232  1
  Pd  Pd13  1  0.452924  0.688578  0.354232  1
  Pd  Pd14  1  0.541929  0.901109  0.235879  1
  Pd  Pd15  1  0.165654  0.811422  0.764346  1
  Pd  Pd16  1  0.004827  0.008873  0.513701  1
  Pd  Pd17  1  0.004827  0.491127  0.995954  1
