# generated using pymatgen
data_Ti6Co2MoIr3
_symmetry_space_group_name_H-M   'P 1'
_cell_length_a   4.35995803
_cell_length_b   6.20217300
_cell_length_c   13.06948609
_cell_angle_alpha   90.00000000
_cell_angle_beta   89.98666936
_cell_angle_gamma   90.00000000
_symmetry_Int_Tables_number   1
_chemical_formula_structural   Ti6Co2MoIr3
_chemical_formula_sum   'Ti12 Co4 Mo2 Ir6'
_cell_volume   353.41476025
_cell_formula_units_Z   2
loop_
 _symmetry_equiv_pos_site_id
 _symmetry_equiv_pos_as_xyz
  1  'x, y, z'
loop_
 _atom_site_type_symbol
 _atom_site_label
 _atom_site_symmetry_multiplicity
 _atom_site_fract_x
 _atom_site_fract_y
 _atom_site_fract_z
 _atom_site_occupancy
  Ti  Ti0  1  0.499902  0.251262  0.998856  1
  Ti  Ti1  1  0.499902  0.748737  0.998856  1
  Ti  Ti2  1  0.999441  0.248822  0.167750  1
  Ti  Ti3  1  0.999441  0.751177  0.167750  1
  Ti  Ti4  1  0.499139  0.249936  0.334713  1
  Ti  Ti5  1  0.499139  0.750065  0.334713  1
  Ti  Ti6  1  0.999909  0.249881  0.500240  1
  Ti  Ti7  1  0.999909  0.750120  0.500240  1
  Ti  Ti8  1  0.500783  0.250610  0.666378  1
  Ti  Ti9  1  0.500783  0.749391  0.666378  1
  Ti  Ti10  1  0.000635  0.250423  0.832042  1
  Ti  Ti11  1  0.000635  0.749576  0.832042  1
  Co  Co12  1  0.998310  0.000000  0.335376  1
  Co  Co13  1  0.499917  0.500000  0.500841  1
  Co  Co14  1  0.001651  0.000000  0.665795  1
  Co  Co15  1  0.501343  0.500000  0.831285  1
  Mo  Mo16  1  0.999952  0.000000  0.997835  1
  Mo  Mo17  1  0.499441  0.500000  0.168951  1
  Ir  Ir18  1  0.999872  0.500000  0.996538  1
  Ir  Ir19  1  0.499432  0.000000  0.170098  1
  Ir  Ir20  1  0.999172  0.500000  0.338638  1
  Ir  Ir21  1  0.499918  0.000000  0.501535  1
  Ir  Ir22  1  0.000791  0.500000  0.665072  1
  Ir  Ir23  1  0.500583  0.000000  0.828074  1
