# generated using pymatgen
data_Ta4Ti2Co15Si7Rh
_symmetry_space_group_name_H-M   'P 1'
_cell_length_a   7.92146456
_cell_length_b   7.91756825
_cell_length_c   7.92163248
_cell_angle_alpha   59.85284232
_cell_angle_beta   59.88161184
_cell_angle_gamma   59.88196181
_symmetry_Int_Tables_number   1
_chemical_formula_structural   Ta4Ti2Co15Si7Rh
_chemical_formula_sum   'Ta4 Ti2 Co15 Si7 Rh1'
_cell_volume   350.29592477
_cell_formula_units_Z   1
loop_
 _symmetry_equiv_pos_site_id
 _symmetry_equiv_pos_as_xyz
  1  'x, y, z'
loop_
 _atom_site_type_symbol
 _atom_site_label
 _atom_site_symmetry_multiplicity
 _atom_site_fract_x
 _atom_site_fract_y
 _atom_site_fract_z
 _atom_site_occupancy
  Ta  Ta0  1  0.803877  0.198188  0.199337  1
  Ta  Ta1  1  0.798539  0.199901  0.797770  1
  Ta  Ta2  1  0.798618  0.797122  0.200447  1
  Ta  Ta3  1  0.199968  0.198018  0.803263  1
  Ti  Ti4  1  0.202382  0.795478  0.796370  1
  Ti  Ti5  1  0.201595  0.800449  0.200444  1
  Co  Co6  1  0.497339  0.835129  0.834790  1
  Co  Co7  1  0.622589  0.620650  0.142184  1
  Co  Co8  1  0.162685  0.163204  0.505710  1
  Co  Co9  1  0.834124  0.835251  0.497677  1
  Co  Co10  1  0.165990  0.166698  0.166796  1
  Co  Co11  1  0.833269  0.834622  0.833562  1
  Co  Co12  1  0.381312  0.379994  0.857140  1
  Co  Co13  1  0.833659  0.498542  0.834677  1
  Co  Co14  1  0.620403  0.619437  0.619703  1
  Co  Co15  1  0.380970  0.858238  0.380249  1
  Co  Co16  1  0.141283  0.620817  0.622372  1
  Co  Co17  1  0.621239  0.143420  0.620771  1
  Co  Co18  1  0.162359  0.506412  0.162642  1
  Co  Co19  1  0.856379  0.380649  0.381341  1
  Co  Co20  1  0.504349  0.163895  0.163459  1
  Si  Si21  1  0.002880  0.996806  0.498815  1
  Si  Si22  1  0.498764  0.991979  0.502567  1
  Si  Si23  1  0.502782  0.506127  0.504234  1
  Si  Si24  1  0.001122  0.500557  0.998029  1
  Si  Si25  1  0.497747  0.503960  0.992471  1
  Si  Si26  1  0.497211  0.998299  0.001692  1
  Si  Si27  1  0.994137  0.502306  0.499586  1
  Rh  Rh28  1  0.382432  0.383853  0.381902  1
