# generated using pymatgen
data_Sr2La2Pt6O18F
_symmetry_space_group_name_H-M   'P 1'
_cell_length_a   7.98209839
_cell_length_b   7.98209780
_cell_length_c   8.02043041
_cell_angle_alpha   109.48401096
_cell_angle_beta   109.58645236
_cell_angle_gamma   109.14838429
_symmetry_Int_Tables_number   1
_chemical_formula_structural   Sr2La2Pt6O18F
_chemical_formula_sum   'Sr2 La2 Pt6 O18 F1'
_cell_volume   394.31607314
_cell_formula_units_Z   1
loop_
 _symmetry_equiv_pos_site_id
 _symmetry_equiv_pos_as_xyz
  1  'x, y, z'
loop_
 _atom_site_type_symbol
 _atom_site_label
 _atom_site_symmetry_multiplicity
 _atom_site_fract_x
 _atom_site_fract_y
 _atom_site_fract_z
 _atom_site_occupancy
  Sr  Sr0  1  0.001112  0.337152  0.999256  1
  Sr  Sr1  1  0.337896  0.001856  0.000744  1
  La  La2  1  0.000359  0.001282  0.346643  1
  La  La3  1  0.654639  0.653715  0.653357  1
  Pt  Pt4  1  0.499278  0.658863  0.157678  1
  Pt  Pt5  1  0.342270  0.842270  0.500000  1
  Pt  Pt6  1  0.841666  0.501125  0.341681  1
  Pt  Pt7  1  0.501185  0.341600  0.842322  1
  Pt  Pt8  1  0.159444  0.499984  0.658319  1
  Pt  Pt9  1  0.659539  0.159539  0.500000  1
  O  O10  1  0.652562  0.960338  0.264018  1
  O  O11  1  0.388803  0.735879  0.695007  1
  O  O12  1  0.689796  0.305120  0.042603  1
  O  O13  1  0.696321  0.388544  0.735982  1
  O  O14  1  0.040872  0.693796  0.304993  1
  O  O15  1  0.262517  0.647193  0.957397  1
  O  O16  1  0.295372  0.041541  0.681514  1
  O  O17  1  0.960756  0.254638  0.640315  1
  O  O18  1  0.743443  0.705233  0.390185  1
  O  O19  1  0.360027  0.613858  0.318486  1
  O  O20  1  0.614323  0.320441  0.359685  1
  O  O21  1  0.315048  0.353258  0.609815  1
  O  O22  1  0.655913  0.655913  0.000000  1
  O  O23  1  0.653464  0.997543  0.651406  1
  O  O24  1  0.000023  0.344735  0.347897  1
  O  O25  1  0.346136  0.002057  0.348594  1
  O  O26  1  0.996837  0.652126  0.652103  1
  O  O27  1  0.349335  0.349335  0.000000  1
  F  F28  1  0.981066  0.981066  0.000000  1
