# generated using pymatgen
data_Sm2Y3Bi3C
_symmetry_space_group_name_H-M   'P 1'
_cell_length_a   9.29614001
_cell_length_b   9.29614108
_cell_length_c   6.54479700
_cell_angle_alpha   90.00005085
_cell_angle_beta   90.00005288
_cell_angle_gamma   119.99097414
_symmetry_Int_Tables_number   1
_chemical_formula_structural   Sm2Y3Bi3C
_chemical_formula_sum   'Sm4 Y6 Bi6 C2'
_cell_volume   489.85964858
_cell_formula_units_Z   2
loop_
 _symmetry_equiv_pos_site_id
 _symmetry_equiv_pos_as_xyz
  1  'x, y, z'
loop_
 _atom_site_type_symbol
 _atom_site_label
 _atom_site_symmetry_multiplicity
 _atom_site_fract_x
 _atom_site_fract_y
 _atom_site_fract_z
 _atom_site_occupancy
  Sm  Sm0  1  0.666643  0.333357  0.500002  1
  Sm  Sm1  1  0.333357  0.666643  0.500002  1
  Sm  Sm2  1  0.333358  0.666643  0.000002  1
  Sm  Sm3  1  0.666643  0.333358  0.000002  1
  Y  Y4  1  0.794482  0.794482  0.249998  1
  Y  Y5  1  0.205446  0.999912  0.249999  1
  Y  Y6  1  0.999912  0.205446  0.249999  1
  Y  Y7  1  0.205518  0.205518  0.749999  1
  Y  Y8  1  0.794553  0.000088  0.749998  1
  Y  Y9  1  0.000088  0.794553  0.749998  1
  Bi  Bi10  1  0.397480  0.397480  0.250001  1
  Bi  Bi11  1  0.602406  0.999988  0.250003  1
  Bi  Bi12  1  0.999988  0.602406  0.250003  1
  Bi  Bi13  1  0.602518  0.602518  0.749995  1
  Bi  Bi14  1  0.397595  0.000013  0.750003  1
  Bi  Bi15  1  0.000013  0.397595  0.750003  1
  C  C16  1  0.000001  0.000001  0.499996  1
  C  C17  1  0.000000  0.000000  0.999995  1
