# generated using pymatgen
data_YbHfU2Bi5
_symmetry_space_group_name_H-M   'P 1'
_cell_length_a   9.62160222
_cell_length_b   9.56055466
_cell_length_c   6.43009700
_cell_angle_alpha   90.00000000
_cell_angle_beta   90.00000000
_cell_angle_gamma   119.79034231
_symmetry_Int_Tables_number   1
_chemical_formula_structural   YbHfU2Bi5
_chemical_formula_sum   'Yb2 Hf2 U4 Bi10'
_cell_volume   513.32484416
_cell_formula_units_Z   2
loop_
 _symmetry_equiv_pos_site_id
 _symmetry_equiv_pos_as_xyz
  1  'x, y, z'
loop_
 _atom_site_type_symbol
 _atom_site_label
 _atom_site_symmetry_multiplicity
 _atom_site_fract_x
 _atom_site_fract_y
 _atom_site_fract_z
 _atom_site_occupancy
  Yb  Yb0  1  0.378333  0.001548  0.750000  1
  Yb  Yb1  1  0.378333  0.376785  0.250000  1
  Hf  Hf2  1  0.998819  0.999410  0.500000  1
  Hf  Hf3  1  0.998819  0.999410  0.000000  1
  U  U4  1  0.003420  0.616557  0.250000  1
  U  U5  1  0.003420  0.386863  0.750000  1
  U  U6  1  0.617306  0.617187  0.750000  1
  U  U7  1  0.617306  0.000119  0.250000  1
  Bi  Bi8  1  0.335992  0.667996  0.500000  1
  Bi  Bi9  1  0.672751  0.336374  0.000000  1
  Bi  Bi10  1  0.672751  0.336374  0.500000  1
  Bi  Bi11  1  0.335992  0.667996  0.000000  1
  Bi  Bi12  1  0.731851  0.001661  0.750000  1
  Bi  Bi13  1  0.731851  0.730190  0.250000  1
  Bi  Bi14  1  0.997235  0.267789  0.250000  1
  Bi  Bi15  1  0.997235  0.729446  0.750000  1
  Bi  Bi16  1  0.264294  0.997879  0.250000  1
  Bi  Bi17  1  0.264294  0.266414  0.750000  1
