# generated using pymatgen
data_Tb15DyMgCo4Ag3
_symmetry_space_group_name_H-M   'P 1'
_cell_length_a   9.48459549
_cell_length_b   9.48208080
_cell_length_c   9.48208000
_cell_angle_alpha   60.00000280
_cell_angle_beta   60.00877298
_cell_angle_gamma   60.00877903
_symmetry_Int_Tables_number   1
_chemical_formula_structural   Tb15DyMgCo4Ag3
_chemical_formula_sum   'Tb15 Dy1 Mg1 Co4 Ag3'
_cell_volume   603.07133733
_cell_formula_units_Z   1
loop_
 _symmetry_equiv_pos_site_id
 _symmetry_equiv_pos_as_xyz
  1  'x, y, z'
loop_
 _atom_site_type_symbol
 _atom_site_label
 _atom_site_symmetry_multiplicity
 _atom_site_fract_x
 _atom_site_fract_y
 _atom_site_fract_z
 _atom_site_occupancy
  Tb  Tb0  1  0.811029  0.187881  0.187881  1
  Tb  Tb1  1  0.184893  0.814338  0.814338  1
  Tb  Tb2  1  0.184893  0.814338  0.186433  1
  Tb  Tb3  1  0.811029  0.187881  0.813210  1
  Tb  Tb4  1  0.184893  0.186433  0.814338  1
  Tb  Tb5  1  0.811029  0.813210  0.187881  1
  Tb  Tb6  1  0.936009  0.563104  0.563104  1
  Tb  Tb7  1  0.561492  0.937240  0.937240  1
  Tb  Tb8  1  0.561492  0.937240  0.564028  1
  Tb  Tb9  1  0.936009  0.563104  0.937782  1
  Tb  Tb10  1  0.561492  0.564028  0.937240  1
  Tb  Tb11  1  0.936009  0.937782  0.563104  1
  Tb  Tb12  1  0.346537  0.346890  0.346890  1
  Tb  Tb13  1  0.346537  0.346890  0.959683  1
  Tb  Tb14  1  0.346537  0.959683  0.346890  1
  Dy  Dy15  1  0.948133  0.350622  0.350622  1
  Mg  Mg16  1  0.288391  0.570536  0.570536  1
  Co  Co17  1  0.139436  0.142151  0.142151  1
  Co  Co18  1  0.139436  0.142151  0.576262  1
  Co  Co19  1  0.139436  0.576262  0.142151  1
  Co  Co20  1  0.575202  0.141599  0.141599  1
  Ag  Ag21  1  0.583361  0.583451  0.583451  1
  Ag  Ag22  1  0.583361  0.583451  0.249737  1
  Ag  Ag23  1  0.583361  0.249737  0.583451  1
