# generated using pymatgen
data_Yb3Sc7(Si5Ir2)4
_symmetry_space_group_name_H-M   'P 1'
_cell_length_a   12.50965598
_cell_length_b   12.50965598
_cell_length_c   4.13955800
_cell_angle_alpha   90.00000000
_cell_angle_beta   90.00000000
_cell_angle_gamma   90.04539819
_symmetry_Int_Tables_number   1
_chemical_formula_structural   Yb3Sc7(Si5Ir2)4
_chemical_formula_sum   'Yb3 Sc7 Si20 Ir8'
_cell_volume   647.80540752
_cell_formula_units_Z   1
loop_
 _symmetry_equiv_pos_site_id
 _symmetry_equiv_pos_as_xyz
  1  'x, y, z'
loop_
 _atom_site_type_symbol
 _atom_site_label
 _atom_site_symmetry_multiplicity
 _atom_site_fract_x
 _atom_site_fract_y
 _atom_site_fract_z
 _atom_site_occupancy
  Yb  Yb0  1  0.116219  0.615907  0.500000  1
  Yb  Yb1  1  0.884093  0.383781  0.500000  1
  Yb  Yb2  1  0.614854  0.885146  0.500000  1
  Sc  Sc3  1  0.383488  0.116512  0.500000  1
  Sc  Sc4  1  0.672736  0.172631  0.500000  1
  Sc  Sc5  1  0.327369  0.827264  0.500000  1
  Sc  Sc6  1  0.174430  0.325570  0.500000  1
  Sc  Sc7  1  0.827207  0.672793  0.500000  1
  Sc  Sc8  1  0.000333  0.999965  0.000000  1
  Sc  Sc9  1  0.500035  0.499667  0.000000  1
  Si  Si10  1  0.565956  0.067826  0.000000  1
  Si  Si11  1  0.432174  0.934044  0.000000  1
  Si  Si12  1  0.068337  0.431663  0.000000  1
  Si  Si13  1  0.932182  0.567818  0.000000  1
  Si  Si14  1  0.201820  0.164992  0.000000  1
  Si  Si15  1  0.799208  0.834793  0.000000  1
  Si  Si16  1  0.166073  0.800796  0.000000  1
  Si  Si17  1  0.699204  0.333927  0.000000  1
  Si  Si18  1  0.834139  0.200543  0.000000  1
  Si  Si19  1  0.299457  0.665861  0.000000  1
  Si  Si20  1  0.665207  0.700792  0.000000  1
  Si  Si21  1  0.335008  0.298180  0.000000  1
  Si  Si22  1  0.006268  0.149535  0.500000  1
  Si  Si23  1  0.993377  0.850187  0.500000  1
  Si  Si24  1  0.151756  0.992904  0.500000  1
  Si  Si25  1  0.507096  0.348244  0.500000  1
  Si  Si26  1  0.849303  0.007768  0.500000  1
  Si  Si27  1  0.492232  0.650697  0.500000  1
  Si  Si28  1  0.649813  0.506623  0.500000  1
  Si  Si29  1  0.350465  0.493732  0.500000  1
  Ir  Ir30  1  0.022071  0.242626  0.000000  1
  Ir  Ir31  1  0.978728  0.757112  0.000000  1
  Ir  Ir32  1  0.245933  0.981021  0.000000  1
  Ir  Ir33  1  0.518979  0.254067  0.000000  1
  Ir  Ir34  1  0.755403  0.021212  0.000000  1
  Ir  Ir35  1  0.478788  0.744597  0.000000  1
  Ir  Ir36  1  0.742888  0.521272  0.000000  1
  Ir  Ir37  1  0.257374  0.477929  0.000000  1
