# generated using pymatgen
data_HoEr2(In2Rh)2
_symmetry_space_group_name_H-M   'P 1'
_cell_length_a   7.91693434
_cell_length_b   7.91316714
_cell_length_c   3.71992600
_cell_angle_alpha   90.00000000
_cell_angle_beta   90.00000000
_cell_angle_gamma   119.98211324
_symmetry_Int_Tables_number   1
_chemical_formula_structural   HoEr2(In2Rh)2
_chemical_formula_sum   'Ho1 Er2 In4 Rh2'
_cell_volume   201.86013672
_cell_formula_units_Z   1
loop_
 _symmetry_equiv_pos_site_id
 _symmetry_equiv_pos_as_xyz
  1  'x, y, z'
loop_
 _atom_site_type_symbol
 _atom_site_label
 _atom_site_symmetry_multiplicity
 _atom_site_fract_x
 _atom_site_fract_y
 _atom_site_fract_z
 _atom_site_occupancy
  Ho  Ho0  1  0.702263  0.957149  0.500000  1
  Er  Er1  1  0.255014  0.297342  0.500000  1
  Er  Er2  1  0.042459  0.745086  0.500000  1
  In  In3  1  0.927718  0.337511  0.000000  1
  In  In4  1  0.408995  0.072702  0.000000  1
  In  In5  1  0.663532  0.590505  0.000000  1
  In  In6  1  0.332752  0.666257  0.000000  1
  Rh  Rh7  1  0.666332  0.333335  0.500000  1
  Rh  Rh8  1  0.000935  0.000112  0.000000  1
