# generated using pymatgen
data_NaSb12(OsRu)2
_symmetry_space_group_name_H-M   'P 1'
_cell_length_a   8.17207348
_cell_length_b   8.15678990
_cell_length_c   8.16922601
_cell_angle_alpha   109.46517799
_cell_angle_beta   109.52620208
_cell_angle_gamma   109.49190360
_symmetry_Int_Tables_number   1
_chemical_formula_structural   NaSb12(OsRu)2
_chemical_formula_sum   'Na1 Sb12 Os2 Ru2'
_cell_volume   418.82900332
_cell_formula_units_Z   1
loop_
 _symmetry_equiv_pos_site_id
 _symmetry_equiv_pos_as_xyz
  1  'x, y, z'
loop_
 _atom_site_type_symbol
 _atom_site_label
 _atom_site_symmetry_multiplicity
 _atom_site_fract_x
 _atom_site_fract_y
 _atom_site_fract_z
 _atom_site_occupancy
  Na  Na0  1  0.000000  0.000000  0.000000  1
  Sb  Sb1  1  0.338261  0.181388  0.843211  1
  Sb  Sb2  1  0.661738  0.818612  0.156789  1
  Sb  Sb3  1  0.661405  0.505088  0.843658  1
  Sb  Sb4  1  0.338595  0.494912  0.156342  1
  Sb  Sb5  1  0.181727  0.843908  0.338801  1
  Sb  Sb6  1  0.818273  0.156092  0.661200  1
  Sb  Sb7  1  0.505120  0.843927  0.662245  1
  Sb  Sb8  1  0.494880  0.156073  0.337756  1
  Sb  Sb9  1  0.843197  0.338191  0.181638  1
  Sb  Sb10  1  0.156803  0.661808  0.818362  1
  Sb  Sb11  1  0.843410  0.661772  0.505015  1
  Sb  Sb12  1  0.156590  0.338228  0.494985  1
  Os  Os13  1  0.000000  0.500000  0.000000  1
  Os  Os14  1  0.500000  0.500000  0.500000  1
  Ru  Ru15  1  0.000000  0.000000  0.500000  1
  Ru  Ru16  1  0.500000  0.000000  0.000000  1
