# generated using pymatgen
data_RbEu(AsAu)2
_symmetry_space_group_name_H-M   'P 1'
_cell_length_a   4.44092600
_cell_length_b   4.44092623
_cell_length_c   9.68484300
_cell_angle_alpha   90.00000000
_cell_angle_beta   90.00000000
_cell_angle_gamma   119.99999827
_symmetry_Int_Tables_number   1
_chemical_formula_structural   RbEu(AsAu)2
_chemical_formula_sum   'Rb1 Eu1 As2 Au2'
_cell_volume   165.41325956
_cell_formula_units_Z   1
loop_
 _symmetry_equiv_pos_site_id
 _symmetry_equiv_pos_as_xyz
  1  'x, y, z'
loop_
 _atom_site_type_symbol
 _atom_site_label
 _atom_site_symmetry_multiplicity
 _atom_site_fract_x
 _atom_site_fract_y
 _atom_site_fract_z
 _atom_site_occupancy
  Rb  Rb0  1  0.000000  0.000000  0.500000  1
  Eu  Eu1  1  0.000000  0.000000  0.000000  1
  As  As2  1  0.666667  0.333333  0.781870  1
  As  As3  1  0.333333  0.666667  0.218130  1
  Au  Au4  1  0.333333  0.666667  0.782316  1
  Au  Au5  1  0.666667  0.333333  0.217684  1
