# generated using pymatgen
data_Rb4SnGeAu7
_symmetry_space_group_name_H-M   'P 1'
_cell_length_a   10.50231150
_cell_length_b   10.50231187
_cell_length_c   10.50231224
_cell_angle_alpha   37.97016226
_cell_angle_beta   37.97016240
_cell_angle_gamma   37.97015745
_symmetry_Int_Tables_number   1
_chemical_formula_structural   Rb4SnGeAu7
_chemical_formula_sum   'Rb4 Sn1 Ge1 Au7'
_cell_volume   393.58649655
_cell_formula_units_Z   1
loop_
 _symmetry_equiv_pos_site_id
 _symmetry_equiv_pos_as_xyz
  1  'x, y, z'
loop_
 _atom_site_type_symbol
 _atom_site_label
 _atom_site_symmetry_multiplicity
 _atom_site_fract_x
 _atom_site_fract_y
 _atom_site_fract_z
 _atom_site_occupancy
  Rb  Rb0  1  0.684138  0.684138  0.684138  1
  Rb  Rb1  1  0.315865  0.315865  0.315865  1
  Rb  Rb2  1  0.811624  0.811624  0.811624  1
  Rb  Rb3  1  0.188245  0.188245  0.188245  1
  Sn  Sn4  1  0.544203  0.544203  0.544203  1
  Ge  Ge5  1  0.447389  0.447389  0.447389  1
  Au  Au6  1  0.001521  0.001521  0.001521  1
  Au  Au7  1  0.197193  0.784596  0.784596  1
  Au  Au8  1  0.784596  0.784596  0.197193  1
  Au  Au9  1  0.784596  0.197193  0.784596  1
  Au  Au10  1  0.219715  0.801201  0.219715  1
  Au  Au11  1  0.801201  0.219715  0.219715  1
  Au  Au12  1  0.219715  0.219715  0.801201  1
