# generated using pymatgen
data_ZnMo6Pt3N2
_symmetry_space_group_name_H-M   'P 1'
_cell_length_a   6.88656400
_cell_length_b   6.87428308
_cell_length_c   6.88786100
_cell_angle_alpha   90.00000000
_cell_angle_beta   90.00000000
_cell_angle_gamma   89.67434345
_symmetry_Int_Tables_number   1
_chemical_formula_structural   ZnMo6Pt3N2
_chemical_formula_sum   'Zn2 Mo12 Pt6 N4'
_cell_volume   326.06738430
_cell_formula_units_Z   2
loop_
 _symmetry_equiv_pos_site_id
 _symmetry_equiv_pos_as_xyz
  1  'x, y, z'
loop_
 _atom_site_type_symbol
 _atom_site_label
 _atom_site_symmetry_multiplicity
 _atom_site_fract_x
 _atom_site_fract_y
 _atom_site_fract_z
 _atom_site_occupancy
  Zn  Zn0  1  0.189328  0.181278  0.186611  1
  Zn  Zn1  1  0.310672  0.818722  0.686611  1
  Mo  Mo2  1  0.623886  0.698702  0.960576  1
  Mo  Mo3  1  0.463151  0.877132  0.301061  1
  Mo  Mo4  1  0.705340  0.954481  0.619366  1
  Mo  Mo5  1  0.548282  0.375798  0.203720  1
  Mo  Mo6  1  0.377871  0.205889  0.546092  1
  Mo  Mo7  1  0.195422  0.537792  0.370169  1
  Mo  Mo8  1  0.876114  0.301298  0.460576  1
  Mo  Mo9  1  0.036849  0.122868  0.801061  1
  Mo  Mo10  1  0.304578  0.462208  0.870169  1
  Mo  Mo11  1  0.122129  0.794111  0.046092  1
  Mo  Mo12  1  0.794660  0.045519  0.119366  1
  Mo  Mo13  1  0.951718  0.624202  0.703720  1
  Pt  Pt14  1  0.426813  0.058875  0.936496  1
  Pt  Pt15  1  0.815501  0.686570  0.311063  1
  Pt  Pt16  1  0.684499  0.313430  0.811063  1
  Pt  Pt17  1  0.549073  0.571159  0.561437  1
  Pt  Pt18  1  0.073187  0.941125  0.436496  1
  Pt  Pt19  1  0.950927  0.428841  0.061437  1
  N  N20  1  0.373658  0.625196  0.129141  1
  N  N21  1  0.870488  0.871982  0.874271  1
  N  N22  1  0.126342  0.374804  0.629141  1
  N  N23  1  0.629512  0.128018  0.374271  1
