# generated using pymatgen
data_Hf3Nb(CuRh5)2
_symmetry_space_group_name_H-M   'P 1'
_cell_length_a   3.97286400
_cell_length_b   5.52760988
_cell_length_c   11.00302300
_cell_angle_alpha   90.07611301
_cell_angle_beta   90.00000000
_cell_angle_gamma   90.00000000
_symmetry_Int_Tables_number   1
_chemical_formula_structural   Hf3Nb(CuRh5)2
_chemical_formula_sum   'Hf3 Nb1 Cu2 Rh10'
_cell_volume   241.63103838
_cell_formula_units_Z   1
loop_
 _symmetry_equiv_pos_site_id
 _symmetry_equiv_pos_as_xyz
  1  'x, y, z'
loop_
 _atom_site_type_symbol
 _atom_site_label
 _atom_site_symmetry_multiplicity
 _atom_site_fract_x
 _atom_site_fract_y
 _atom_site_fract_z
 _atom_site_occupancy
  Hf  Hf0  1  0.500000  0.772093  0.370061  1
  Hf  Hf1  1  0.500000  0.726515  0.872405  1
  Hf  Hf2  1  0.500000  0.272709  0.129331  1
  Nb  Nb3  1  0.500000  0.225650  0.629884  1
  Cu  Cu4  1  0.000000  0.500327  0.501797  1
  Cu  Cu5  1  0.000000  0.000537  0.999065  1
  Rh  Rh6  1  0.500000  0.225003  0.877027  1
  Rh  Rh7  1  0.500000  0.774891  0.119787  1
  Rh  Rh8  1  0.500000  0.725847  0.619846  1
  Rh  Rh9  1  0.500000  0.274949  0.384080  1
  Rh  Rh10  1  0.000000  0.471613  0.747132  1
  Rh  Rh11  1  0.000000  0.523695  0.250485  1
  Rh  Rh12  1  0.000000  0.005952  0.502082  1
  Rh  Rh13  1  0.000000  0.499238  0.998804  1
  Rh  Rh14  1  0.000000  0.024600  0.251528  1
  Rh  Rh15  1  0.000000  0.976382  0.746689  1
