# generated using pymatgen
data_Dy9TmGa3Bi2Ir
_symmetry_space_group_name_H-M   'P 1'
_cell_length_a   8.65916855
_cell_length_b   8.65916758
_cell_length_c   8.78124818
_cell_angle_alpha   125.03178362
_cell_angle_beta   125.01826854
_cell_angle_gamma   80.55787914
_symmetry_Int_Tables_number   1
_chemical_formula_structural   Dy9TmGa3Bi2Ir
_chemical_formula_sum   'Dy9 Tm1 Ga3 Bi2 Ir1'
_cell_volume   427.90929423
_cell_formula_units_Z   1
loop_
 _symmetry_equiv_pos_site_id
 _symmetry_equiv_pos_as_xyz
  1  'x, y, z'
loop_
 _atom_site_type_symbol
 _atom_site_label
 _atom_site_symmetry_multiplicity
 _atom_site_fract_x
 _atom_site_fract_y
 _atom_site_fract_z
 _atom_site_occupancy
  Dy  Dy0  1  0.500239  0.500024  0.000262  1
  Dy  Dy1  1  0.016252  0.501702  0.799342  1
  Dy  Dy2  1  0.717131  0.201605  0.200516  1
  Dy  Dy3  1  0.516424  0.705537  0.500243  1
  Dy  Dy4  1  0.194541  0.038562  0.499687  1
  Dy  Dy5  1  0.998910  0.483384  0.200516  1
  Dy  Dy6  1  0.297640  0.783090  0.799342  1
  Dy  Dy7  1  0.461125  0.305146  0.499687  1
  Dy  Dy8  1  0.794706  0.983819  0.500243  1
  Tm  Tm9  1  0.000709  0.001244  0.001955  1
  Ga  Ga10  1  0.357104  0.855897  0.213000  1
  Ga  Ga11  1  0.644886  0.142022  0.786909  1
  Ga  Ga12  1  0.864464  0.636540  0.501003  1
  Bi  Bi13  1  0.755721  0.745038  0.999777  1
  Bi  Bi14  1  0.254738  0.244055  0.999777  1
  Ir  Ir15  1  0.125411  0.372333  0.497744  1
