# generated using pymatgen
data_La3CdCu(HgAu)2
_symmetry_space_group_name_H-M   'P 1'
_cell_length_a   8.12752382
_cell_length_b   8.04334243
_cell_length_c   3.97539400
_cell_angle_alpha   90.00000000
_cell_angle_beta   90.00000000
_cell_angle_gamma   119.65795673
_symmetry_Int_Tables_number   1
_chemical_formula_structural   La3CdCu(HgAu)2
_chemical_formula_sum   'La3 Cd1 Cu1 Hg2 Au2'
_cell_volume   225.83548757
_cell_formula_units_Z   1
loop_
 _symmetry_equiv_pos_site_id
 _symmetry_equiv_pos_as_xyz
  1  'x, y, z'
loop_
 _atom_site_type_symbol
 _atom_site_label
 _atom_site_symmetry_multiplicity
 _atom_site_fract_x
 _atom_site_fract_y
 _atom_site_fract_z
 _atom_site_occupancy
  La  La0  1  0.414809  0.004593  0.000000  1
  La  La1  1  0.585191  0.589783  0.000000  1
  La  La2  1  0.000000  0.403119  0.000000  1
  Cd  Cd3  1  0.000000  0.757094  0.500000  1
  Cu  Cu4  1  0.000000  0.997186  0.000000  1
  Hg  Hg5  1  0.752812  0.996093  0.500000  1
  Hg  Hg6  1  0.247188  0.243281  0.500000  1
  Au  Au7  1  0.674196  0.341522  0.500000  1
  Au  Au8  1  0.325804  0.667327  0.500000  1
