# generated using pymatgen
data_Y5ThCd23P
_symmetry_space_group_name_H-M   'P 1'
_cell_length_a   9.99881221
_cell_length_b   9.95408489
_cell_length_c   9.95408400
_cell_angle_alpha   60.29759881
_cell_angle_beta   59.85129715
_cell_angle_gamma   59.85129602
_symmetry_Int_Tables_number   1
_chemical_formula_structural   Y5ThCd23P
_chemical_formula_sum   'Y5 Th1 Cd23 P1'
_cell_volume   700.51762205
_cell_formula_units_Z   1
loop_
 _symmetry_equiv_pos_site_id
 _symmetry_equiv_pos_as_xyz
  1  'x, y, z'
loop_
 _atom_site_type_symbol
 _atom_site_label
 _atom_site_symmetry_multiplicity
 _atom_site_fract_x
 _atom_site_fract_y
 _atom_site_fract_z
 _atom_site_occupancy
  Y  Y0  1  0.803846  0.802340  0.196139  1
  Y  Y1  1  0.197663  0.802343  0.196160  1
  Y  Y2  1  0.800960  0.199047  0.199049  1
  Y  Y3  1  0.197662  0.196157  0.802349  1
  Y  Y4  1  0.803847  0.196140  0.802336  1
  Th  Th5  1  0.201284  0.798714  0.798704  1
  Cd  Cd6  1  0.836061  0.838727  0.489153  1
  Cd  Cd7  1  0.836065  0.489140  0.838730  1
  Cd  Cd8  1  0.496116  0.835335  0.835331  1
  Cd  Cd9  1  0.833209  0.835342  0.835341  1
  Cd  Cd10  1  0.164671  0.166790  0.503874  1
  Cd  Cd11  1  0.164666  0.503880  0.166792  1
  Cd  Cd12  1  0.510851  0.163941  0.163940  1
  Cd  Cd13  1  0.161265  0.163930  0.163932  1
  Cd  Cd14  1  0.620198  0.621676  0.137939  1
  Cd  Cd15  1  0.620188  0.137945  0.621678  1
  Cd  Cd16  1  0.133427  0.619985  0.619995  1
  Cd  Cd17  1  0.626589  0.619989  0.619987  1
  Cd  Cd18  1  0.380002  0.373412  0.866570  1
  Cd  Cd19  1  0.380011  0.866567  0.373410  1
  Cd  Cd20  1  0.862060  0.379811  0.379803  1
  Cd  Cd21  1  0.378325  0.379810  0.379814  1
  Cd  Cd22  1  0.999641  0.000363  0.500694  1
  Cd  Cd23  1  0.499304  0.000363  0.500696  1
  Cd  Cd24  1  0.999007  0.500997  0.500999  1
  Cd  Cd25  1  0.499305  0.500695  0.000360  1
  Cd  Cd26  1  0.999640  0.500693  0.000361  1
  Cd  Cd27  1  0.499003  0.001000  0.000995  1
  Cd  Cd28  1  0.497053  0.502950  0.502948  1
  P  P29  1  0.998089  0.001914  0.001916  1
