# generated using pymatgen
data_Pr2GePt8
_symmetry_space_group_name_H-M   'P 1'
_cell_length_a   9.32907709
_cell_length_b   9.32907607
_cell_length_c   4.33540500
_cell_angle_alpha   90.00000000
_cell_angle_beta   90.00000000
_cell_angle_gamma   145.77722028
_symmetry_Int_Tables_number   1
_chemical_formula_structural   Pr2GePt8
_chemical_formula_sum   'Pr2 Ge1 Pt8'
_cell_volume   212.20797265
_cell_formula_units_Z   1
loop_
 _symmetry_equiv_pos_site_id
 _symmetry_equiv_pos_as_xyz
  1  'x, y, z'
loop_
 _atom_site_type_symbol
 _atom_site_label
 _atom_site_symmetry_multiplicity
 _atom_site_fract_x
 _atom_site_fract_y
 _atom_site_fract_z
 _atom_site_occupancy
  Pr  Pr0  1  0.623006  0.376137  0.500000  1
  Pr  Pr1  1  0.376137  0.623006  0.500000  1
  Ge  Ge2  1  0.229239  0.229239  0.000000  1
  Pt  Pt3  1  0.103077  0.875150  0.000000  1
  Pt  Pt4  1  0.875150  0.103077  0.000000  1
  Pt  Pt5  1  0.488938  0.988477  0.000000  1
  Pt  Pt6  1  0.988477  0.488938  0.000000  1
  Pt  Pt7  1  0.195293  0.789377  0.500000  1
  Pt  Pt8  1  0.789377  0.195293  0.500000  1
  Pt  Pt9  1  0.989750  0.989750  0.500000  1
  Pt  Pt10  1  0.655154  0.655154  0.000000  1
