# generated using pymatgen
data_Ho4Al18OsPd5
_symmetry_space_group_name_H-M   'P 1'
_cell_length_a   7.62226802
_cell_length_b   7.62226746
_cell_length_c   9.46700186
_cell_angle_alpha   90.04498493
_cell_angle_beta   90.04498785
_cell_angle_gamma   119.72800052
_symmetry_Int_Tables_number   1
_chemical_formula_structural   Ho4Al18OsPd5
_chemical_formula_sum   'Ho4 Al18 Os1 Pd5'
_cell_volume   477.63350487
_cell_formula_units_Z   1
loop_
 _symmetry_equiv_pos_site_id
 _symmetry_equiv_pos_as_xyz
  1  'x, y, z'
loop_
 _atom_site_type_symbol
 _atom_site_label
 _atom_site_symmetry_multiplicity
 _atom_site_fract_x
 _atom_site_fract_y
 _atom_site_fract_z
 _atom_site_occupancy
  Ho  Ho0  1  0.995009  0.669182  0.248877  1
  Ho  Ho1  1  0.005685  0.330391  0.751252  1
  Ho  Ho2  1  0.669609  0.994315  0.248748  1
  Ho  Ho3  1  0.330818  0.004991  0.751123  1
  Al  Al4  1  0.128017  0.129880  0.249099  1
  Al  Al5  1  0.870120  0.871983  0.750901  1
  Al  Al6  1  0.995813  0.333783  0.075222  1
  Al  Al7  1  0.996114  0.660572  0.925299  1
  Al  Al8  1  0.999729  0.666096  0.578063  1
  Al  Al9  1  0.333904  0.000271  0.421937  1
  Al  Al10  1  0.000526  0.334496  0.422829  1
  Al  Al11  1  0.665504  0.999474  0.577171  1
  Al  Al12  1  0.666217  0.004187  0.924778  1
  Al  Al13  1  0.339428  0.003886  0.074701  1
  Al  Al14  1  0.333817  0.334178  0.561200  1
  Al  Al15  1  0.665822  0.666184  0.438800  1
  Al  Al16  1  0.667493  0.662234  0.055141  1
  Al  Al17  1  0.337767  0.332507  0.944859  1
  Al  Al18  1  0.336588  0.546600  0.249152  1
  Al  Al19  1  0.661151  0.452915  0.753442  1
  Al  Al20  1  0.547085  0.338849  0.246558  1
  Al  Al21  1  0.453400  0.663412  0.750848  1
  Os  Os22  1  0.672242  0.327758  0.000000  1
  Pd  Pd23  1  0.328158  0.671842  0.000000  1
  Pd  Pd24  1  0.327875  0.672125  0.500000  1
  Pd  Pd25  1  0.671754  0.328246  0.500000  1
  Pd  Pd26  1  0.000409  0.999591  0.000000  1
  Pd  Pd27  1  0.999948  0.000052  0.500000  1
