# generated using pymatgen
data_DyHo5(CoSn6)2
_symmetry_space_group_name_H-M   'P 1'
_cell_length_a   8.47065406
_cell_length_b   8.47065528
_cell_length_c   13.11524902
_cell_angle_alpha   89.99434109
_cell_angle_beta   90.00565816
_cell_angle_gamma   148.83009980
_symmetry_Int_Tables_number   1
_chemical_formula_structural   DyHo5(CoSn6)2
_chemical_formula_sum   'Dy1 Ho5 Co2 Sn12'
_cell_volume   487.06390683
_cell_formula_units_Z   1
loop_
 _symmetry_equiv_pos_site_id
 _symmetry_equiv_pos_as_xyz
  1  'x, y, z'
loop_
 _atom_site_type_symbol
 _atom_site_label
 _atom_site_symmetry_multiplicity
 _atom_site_fract_x
 _atom_site_fract_y
 _atom_site_fract_z
 _atom_site_occupancy
  Dy  Dy0  1  0.899374  0.100626  0.093435  1
  Ho  Ho1  1  0.100780  0.899220  0.593549  1
  Ho  Ho2  1  0.900228  0.099772  0.749980  1
  Ho  Ho3  1  0.100797  0.899203  0.906424  1
  Ho  Ho4  1  0.099825  0.900175  0.250081  1
  Ho  Ho5  1  0.899198  0.100802  0.406501  1
  Co  Co6  1  0.299504  0.700496  0.250150  1
  Co  Co7  1  0.700418  0.299582  0.749849  1
  Sn  Sn8  1  0.755381  0.244619  0.571124  1
  Sn  Sn9  1  0.427450  0.572550  0.575979  1
  Sn  Sn10  1  0.572582  0.427418  0.424054  1
  Sn  Sn11  1  0.733371  0.266629  0.250060  1
  Sn  Sn12  1  0.266518  0.733482  0.750010  1
  Sn  Sn13  1  0.244546  0.755454  0.071084  1
  Sn  Sn14  1  0.244628  0.755372  0.429024  1
  Sn  Sn15  1  0.572601  0.427399  0.075964  1
  Sn  Sn16  1  0.453761  0.546239  0.250254  1
  Sn  Sn17  1  0.546317  0.453683  0.749969  1
  Sn  Sn18  1  0.755208  0.244792  0.928749  1
  Sn  Sn19  1  0.427513  0.572487  0.923763  1
