# generated using pymatgen
data_Tb2ErFe2Co7P6
_symmetry_space_group_name_H-M   'P 1'
_cell_length_a   3.70170800
_cell_length_b   10.56458400
_cell_length_c   12.11448400
_cell_angle_alpha   90.00000000
_cell_angle_beta   90.00000000
_cell_angle_gamma   90.00000000
_symmetry_Int_Tables_number   1
_chemical_formula_structural   Tb2ErFe2Co7P6
_chemical_formula_sum   'Tb4 Er2 Fe4 Co14 P12'
_cell_volume   473.76118769
_cell_formula_units_Z   2
loop_
 _symmetry_equiv_pos_site_id
 _symmetry_equiv_pos_as_xyz
  1  'x, y, z'
loop_
 _atom_site_type_symbol
 _atom_site_label
 _atom_site_symmetry_multiplicity
 _atom_site_fract_x
 _atom_site_fract_y
 _atom_site_fract_z
 _atom_site_occupancy
  Tb  Tb0  1  0.000000  0.500000  0.522289  1
  Tb  Tb1  1  0.500000  0.000000  0.477202  1
  Tb  Tb2  1  0.000000  0.680894  0.795962  1
  Tb  Tb3  1  0.000000  0.319106  0.795962  1
  Er  Er4  1  0.500000  0.819594  0.203977  1
  Er  Er5  1  0.500000  0.180406  0.203977  1
  Fe  Fe6  1  0.500000  0.500000  0.155796  1
  Fe  Fe7  1  0.000000  0.000000  0.844820  1
  Fe  Fe8  1  0.000000  0.500000  0.989567  1
  Fe  Fe9  1  0.500000  0.000000  0.012463  1
  Co  Co10  1  0.500000  0.500000  0.701427  1
  Co  Co11  1  0.000000  0.000000  0.297853  1
  Co  Co12  1  0.500000  0.331482  0.995552  1
  Co  Co13  1  0.500000  0.668518  0.995552  1
  Co  Co14  1  0.000000  0.167817  0.006456  1
  Co  Co15  1  0.000000  0.832183  0.006456  1
  Co  Co16  1  0.500000  0.296305  0.429103  1
  Co  Co17  1  0.500000  0.703695  0.429103  1
  Co  Co18  1  0.000000  0.203326  0.569013  1
  Co  Co19  1  0.000000  0.796674  0.569013  1
  Co  Co20  1  0.500000  0.879297  0.709397  1
  Co  Co21  1  0.500000  0.120703  0.709397  1
  Co  Co22  1  0.000000  0.621376  0.289858  1
  Co  Co23  1  0.000000  0.378624  0.289858  1
  P  P24  1  0.500000  0.500000  0.885699  1
  P  P25  1  0.000000  0.000000  0.116299  1
  P  P26  1  0.500000  0.500000  0.341180  1
  P  P27  1  0.000000  0.000000  0.658640  1
  P  P28  1  0.500000  0.309567  0.615842  1
  P  P29  1  0.500000  0.690433  0.615842  1
  P  P30  1  0.000000  0.189881  0.382141  1
  P  P31  1  0.000000  0.810119  0.382141  1
  P  P32  1  0.500000  0.847924  0.894066  1
  P  P33  1  0.500000  0.152076  0.894066  1
  P  P34  1  0.000000  0.653404  0.107015  1
  P  P35  1  0.000000  0.346596  0.107015  1
