# generated using pymatgen
data_DyLu4In4PtRh
_symmetry_space_group_name_H-M   'P 1'
_cell_length_a   3.56421400
_cell_length_b   8.04127096
_cell_length_c   18.03381211
_cell_angle_alpha   90.11142753
_cell_angle_beta   90.00000000
_cell_angle_gamma   90.00000000
_symmetry_Int_Tables_number   1
_chemical_formula_structural   DyLu4In4PtRh
_chemical_formula_sum   'Dy2 Lu8 In8 Pt2 Rh2'
_cell_volume   516.86269465
_cell_formula_units_Z   2
loop_
 _symmetry_equiv_pos_site_id
 _symmetry_equiv_pos_as_xyz
  1  'x, y, z'
loop_
 _atom_site_type_symbol
 _atom_site_label
 _atom_site_symmetry_multiplicity
 _atom_site_fract_x
 _atom_site_fract_y
 _atom_site_fract_z
 _atom_site_occupancy
  Dy  Dy0  1  0.000000  0.000000  0.000000  1
  Dy  Dy1  1  0.000000  0.500000  0.500000  1
  Lu  Lu2  1  0.000000  0.116460  0.412546  1
  Lu  Lu3  1  0.000000  0.883540  0.587454  1
  Lu  Lu4  1  0.000000  0.381492  0.913028  1
  Lu  Lu5  1  0.000000  0.618508  0.086972  1
  Lu  Lu6  1  0.000000  0.241084  0.222293  1
  Lu  Lu7  1  0.000000  0.758916  0.777707  1
  Lu  Lu8  1  0.000000  0.250847  0.721252  1
  Lu  Lu9  1  0.000000  0.749153  0.278748  1
  In  In10  1  0.500000  0.424468  0.351701  1
  In  In11  1  0.500000  0.575532  0.648299  1
  In  In12  1  0.500000  0.070136  0.850232  1
  In  In13  1  0.500000  0.929864  0.149768  1
  In  In14  1  0.500000  0.295084  0.066020  1
  In  In15  1  0.500000  0.704916  0.933980  1
  In  In16  1  0.500000  0.203796  0.567458  1
  In  In17  1  0.500000  0.796204  0.432542  1
  Pt  Pt18  1  0.500000  0.477291  0.803728  1
  Pt  Pt19  1  0.500000  0.522709  0.196272  1
  Rh  Rh20  1  0.500000  0.023462  0.304655  1
  Rh  Rh21  1  0.500000  0.976538  0.695345  1
