# generated using pymatgen
data_LiAc2Si5AsPd20
_symmetry_space_group_name_H-M   'P 1'
_cell_length_a   8.78567915
_cell_length_b   8.83542732
_cell_length_c   8.83542811
_cell_angle_alpha   59.62782644
_cell_angle_beta   60.18609170
_cell_angle_gamma   60.18609581
_symmetry_Int_Tables_number   1
_chemical_formula_structural   LiAc2Si5AsPd20
_chemical_formula_sum   'Li1 Ac2 Si5 As1 Pd20'
_cell_volume   484.94016696
_cell_formula_units_Z   1
loop_
 _symmetry_equiv_pos_site_id
 _symmetry_equiv_pos_as_xyz
  1  'x, y, z'
loop_
 _atom_site_type_symbol
 _atom_site_label
 _atom_site_symmetry_multiplicity
 _atom_site_fract_x
 _atom_site_fract_y
 _atom_site_fract_z
 _atom_site_occupancy
  Li  Li0  1  0.000921  0.999079  0.999079  1
  Ac  Ac1  1  0.250359  0.249641  0.249641  1
  Ac  Ac2  1  0.750359  0.749641  0.749641  1
  Si  Si3  1  0.264206  0.735794  0.735794  1
  Si  Si4  1  0.263953  0.736047  0.263696  1
  Si  Si5  1  0.736304  0.263696  0.736047  1
  Si  Si6  1  0.263953  0.263696  0.736047  1
  Si  Si7  1  0.736304  0.736047  0.263696  1
  As  As8  1  0.738440  0.261560  0.261560  1
  Pd  Pd9  1  0.381531  0.389642  0.389642  1
  Pd  Pd10  1  0.612290  0.613485  0.613485  1
  Pd  Pd11  1  0.386515  0.387710  0.839259  1
  Pd  Pd12  1  0.386515  0.839259  0.387710  1
  Pd  Pd13  1  0.610358  0.618469  0.160818  1
  Pd  Pd14  1  0.610358  0.160818  0.618469  1
  Pd  Pd15  1  0.839182  0.389642  0.389642  1
  Pd  Pd16  1  0.160741  0.613485  0.613485  1
  Pd  Pd17  1  0.345176  0.999241  0.999241  1
  Pd  Pd18  1  0.656342  0.999241  0.999241  1
  Pd  Pd19  1  0.000759  0.343658  0.654824  1
  Pd  Pd20  1  0.000759  0.654824  0.343658  1
  Pd  Pd21  1  0.007127  0.346675  0.992873  1
  Pd  Pd22  1  0.653325  0.992873  0.346675  1
  Pd  Pd23  1  0.999189  0.657305  0.000811  1
  Pd  Pd24  1  0.342695  0.000811  0.657305  1
  Pd  Pd25  1  0.007127  0.992873  0.346675  1
  Pd  Pd26  1  0.999189  0.000811  0.657305  1
  Pd  Pd27  1  0.653325  0.346675  0.992873  1
  Pd  Pd28  1  0.342695  0.657305  0.000811  1
