# generated using pymatgen
data_Tb2TmSiAg3Ge2
_symmetry_space_group_name_H-M   'P 1'
_cell_length_a   7.14300569
_cell_length_b   7.16393294
_cell_length_c   4.19667000
_cell_angle_alpha   90.00000000
_cell_angle_beta   90.00000000
_cell_angle_gamma   120.12936022
_symmetry_Int_Tables_number   1
_chemical_formula_structural   Tb2TmSiAg3Ge2
_chemical_formula_sum   'Tb2 Tm1 Si1 Ag3 Ge2'
_cell_volume   185.73783197
_cell_formula_units_Z   1
loop_
 _symmetry_equiv_pos_site_id
 _symmetry_equiv_pos_as_xyz
  1  'x, y, z'
loop_
 _atom_site_type_symbol
 _atom_site_label
 _atom_site_symmetry_multiplicity
 _atom_site_fract_x
 _atom_site_fract_y
 _atom_site_fract_z
 _atom_site_occupancy
  Tb  Tb0  1  0.416004  0.418160  0.500000  1
  Tb  Tb1  1  0.582602  0.999179  0.500000  1
  Tm  Tm2  1  0.001718  0.584521  0.500000  1
  Si  Si3  1  0.330328  0.665626  0.000000  1
  Ag  Ag4  1  0.743096  0.748340  0.000000  1
  Ag  Ag5  1  0.250838  0.993087  0.000000  1
  Ag  Ag6  1  0.005943  0.258419  0.000000  1
  Ge  Ge7  1  0.669610  0.335314  0.000000  1
  Ge  Ge8  1  0.999858  0.997353  0.500000  1
