# generated using pymatgen
data_Dy2YIn3GePt2
_symmetry_space_group_name_H-M   'P 1'
_cell_length_a   7.50514532
_cell_length_b   7.51307256
_cell_length_c   4.12533300
_cell_angle_alpha   90.00000000
_cell_angle_beta   90.00000000
_cell_angle_gamma   120.05527759
_symmetry_Int_Tables_number   1
_chemical_formula_structural   Dy2YIn3GePt2
_chemical_formula_sum   'Dy2 Y1 In3 Ge1 Pt2'
_cell_volume   201.33726017
_cell_formula_units_Z   1
loop_
 _symmetry_equiv_pos_site_id
 _symmetry_equiv_pos_as_xyz
  1  'x, y, z'
loop_
 _atom_site_type_symbol
 _atom_site_label
 _atom_site_symmetry_multiplicity
 _atom_site_fract_x
 _atom_site_fract_y
 _atom_site_fract_z
 _atom_site_occupancy
  Dy  Dy0  1  0.411893  0.403165  0.500000  1
  Dy  Dy1  1  0.991322  0.588277  0.500000  1
  Y  Y2  1  0.595626  0.006755  0.500000  1
  In  In3  1  0.751183  0.742841  0.000000  1
  In  In4  1  0.991244  0.248783  0.000000  1
  In  In5  1  0.257616  0.008522  0.000000  1
  Ge  Ge6  1  0.332910  0.666460  0.000000  1
  Pt  Pt7  1  0.667133  0.335020  0.000000  1
  Pt  Pt8  1  0.001075  0.000175  0.500000  1
