# generated using pymatgen
data_YScNiP7Ru11
_symmetry_space_group_name_H-M   'P 1'
_cell_length_a   9.27366157
_cell_length_b   9.42180730
_cell_length_c   3.88839300
_cell_angle_alpha   90.00000000
_cell_angle_beta   90.00000000
_cell_angle_gamma   119.47453344
_symmetry_Int_Tables_number   1
_chemical_formula_structural   YScNiP7Ru11
_chemical_formula_sum   'Y1 Sc1 Ni1 P7 Ru11'
_cell_volume   295.77505604
_cell_formula_units_Z   1
loop_
 _symmetry_equiv_pos_site_id
 _symmetry_equiv_pos_as_xyz
  1  'x, y, z'
loop_
 _atom_site_type_symbol
 _atom_site_label
 _atom_site_symmetry_multiplicity
 _atom_site_fract_x
 _atom_site_fract_y
 _atom_site_fract_z
 _atom_site_occupancy
  Y  Y0  1  0.329710  0.660534  0.000000  1
  Sc  Sc1  1  0.671660  0.335818  0.500000  1
  Ni  Ni2  1  0.553349  0.947766  0.500000  1
  P  P3  1  0.991370  0.996918  0.000000  1
  P  P4  1  0.428084  0.304897  0.000000  1
  P  P5  1  0.595363  0.710621  0.500000  1
  P  P6  1  0.285052  0.882711  0.500000  1
  P  P7  1  0.116191  0.399895  0.500000  1
  P  P8  1  0.702723  0.125163  0.000000  1
  P  P9  1  0.886331  0.578399  0.000000  1
  Ru  Ru10  1  0.391059  0.437608  0.500000  1
  Ru  Ru11  1  0.052545  0.611021  0.500000  1
  Ru  Ru12  1  0.217458  0.088673  0.500000  1
  Ru  Ru13  1  0.878044  0.798488  0.500000  1
  Ru  Ru14  1  0.903051  0.124949  0.500000  1
  Ru  Ru15  1  0.711702  0.887512  0.000000  1
  Ru  Ru16  1  0.112783  0.841269  0.000000  1
  Ru  Ru17  1  0.160535  0.266563  0.000000  1
  Ru  Ru18  1  0.935806  0.365298  0.000000  1
  Ru  Ru19  1  0.640868  0.570876  0.000000  1
  Ru  Ru20  1  0.436314  0.065023  0.000000  1
