# generated using pymatgen
data_Ca2CdSb4PbO14
_symmetry_space_group_name_H-M   'P 1'
_cell_length_a   7.44806795
_cell_length_b   7.51593021
_cell_length_c   7.44616103
_cell_angle_alpha   120.55235731
_cell_angle_beta   118.90734159
_cell_angle_gamma   91.17081439
_symmetry_Int_Tables_number   1
_chemical_formula_structural   Ca2CdSb4PbO14
_chemical_formula_sum   'Ca2 Cd1 Sb4 Pb1 O14'
_cell_volume   293.99821640
_cell_formula_units_Z   1
loop_
 _symmetry_equiv_pos_site_id
 _symmetry_equiv_pos_as_xyz
  1  'x, y, z'
loop_
 _atom_site_type_symbol
 _atom_site_label
 _atom_site_symmetry_multiplicity
 _atom_site_fract_x
 _atom_site_fract_y
 _atom_site_fract_z
 _atom_site_occupancy
  Ca  Ca0  1  0.000000  0.500000  0.000000  1
  Ca  Ca1  1  0.000000  0.000000  0.000000  1
  Cd  Cd2  1  0.500000  0.500000  0.000000  1
  Sb  Sb3  1  0.500000  0.000000  0.000000  1
  Sb  Sb4  1  0.500000  0.500000  0.500000  1
  Sb  Sb5  1  0.500000  0.000000  0.500000  1
  Sb  Sb6  1  0.000000  0.500000  0.500000  1
  Pb  Pb7  1  0.000000  0.000000  0.500000  1
  O  O8  1  0.443479  0.088549  0.771038  1
  O  O9  1  0.555628  0.329074  0.646658  1
  O  O10  1  0.179882  0.412374  0.354655  1
  O  O11  1  0.820143  0.176118  0.232075  1
  O  O12  1  0.556521  0.911452  0.228962  1
  O  O13  1  0.444372  0.670926  0.353342  1
  O  O14  1  0.820118  0.587626  0.645345  1
  O  O15  1  0.179857  0.823882  0.767925  1
  O  O16  1  0.607997  0.761391  0.849442  1
  O  O17  1  0.392003  0.238609  0.150558  1
  O  O18  1  0.179864  0.897897  0.257589  1
  O  O19  1  0.820136  0.102103  0.742411  1
  O  O20  1  0.852691  0.575748  0.254557  1
  O  O21  1  0.147309  0.424252  0.745443  1
