# generated using pymatgen
data_Lu8GaHgPd23
_symmetry_space_group_name_H-M   'P 1'
_cell_length_a   8.22270300
_cell_length_b   8.20576600
_cell_length_c   8.12667500
_cell_angle_alpha   90.00000000
_cell_angle_beta   90.00000000
_cell_angle_gamma   90.00000000
_symmetry_Int_Tables_number   1
_chemical_formula_structural   Lu8GaHgPd23
_chemical_formula_sum   'Lu8 Ga1 Hg1 Pd23'
_cell_volume   548.33582897
_cell_formula_units_Z   1
loop_
 _symmetry_equiv_pos_site_id
 _symmetry_equiv_pos_as_xyz
  1  'x, y, z'
loop_
 _atom_site_type_symbol
 _atom_site_label
 _atom_site_symmetry_multiplicity
 _atom_site_fract_x
 _atom_site_fract_y
 _atom_site_fract_z
 _atom_site_occupancy
  Lu  Lu0  1  0.261880  0.244064  0.748238  1
  Lu  Lu1  1  0.252552  0.747111  0.252508  1
  Lu  Lu2  1  0.747448  0.252889  0.252508  1
  Lu  Lu3  1  0.738120  0.755936  0.748238  1
  Lu  Lu4  1  0.747448  0.747111  0.252508  1
  Lu  Lu5  1  0.738120  0.244064  0.748238  1
  Lu  Lu6  1  0.261880  0.755936  0.748238  1
  Lu  Lu7  1  0.252552  0.252889  0.252508  1
  Ga  Ga8  1  0.000000  0.000000  0.999978  1
  Hg  Hg9  1  0.000000  0.500000  0.736370  1
  Pd  Pd10  1  0.500000  0.500000  0.747660  1
  Pd  Pd11  1  0.500000  0.252896  0.498355  1
  Pd  Pd12  1  0.256162  0.500000  0.500992  1
  Pd  Pd13  1  0.500000  0.500000  0.252406  1
  Pd  Pd14  1  0.500000  0.747104  0.498355  1
  Pd  Pd15  1  0.743838  0.500000  0.500992  1
  Pd  Pd16  1  0.000000  0.000000  0.709778  1
  Pd  Pd17  1  0.000000  0.287904  0.998407  1
  Pd  Pd18  1  0.288466  0.000000  0.002415  1
  Pd  Pd19  1  0.000000  0.000000  0.290906  1
  Pd  Pd20  1  0.000000  0.712096  0.998407  1
  Pd  Pd21  1  0.711534  0.000000  0.002415  1
  Pd  Pd22  1  0.500000  0.259014  0.001766  1
  Pd  Pd23  1  0.259856  0.000000  0.498666  1
  Pd  Pd24  1  0.000000  0.257774  0.500614  1
  Pd  Pd25  1  0.500000  0.000000  0.741011  1
  Pd  Pd26  1  0.260442  0.500000  0.998565  1
  Pd  Pd27  1  0.000000  0.500000  0.259531  1
  Pd  Pd28  1  0.500000  0.740986  0.001766  1
  Pd  Pd29  1  0.000000  0.742226  0.500614  1
  Pd  Pd30  1  0.500000  0.000000  0.259816  1
  Pd  Pd31  1  0.740144  0.000000  0.498666  1
  Pd  Pd32  1  0.739558  0.500000  0.998565  1
