# generated using pymatgen
data_Ta8MnVS16
_symmetry_space_group_name_H-M   'P 1'
_cell_length_a   6.67546400
_cell_length_b   6.67546415
_cell_length_c   12.38392100
_cell_angle_alpha   90.00000000
_cell_angle_beta   90.00000000
_cell_angle_gamma   120.00000918
_symmetry_Int_Tables_number   1
_chemical_formula_structural   Ta8MnVS16
_chemical_formula_sum   'Ta8 Mn1 V1 S16'
_cell_volume   477.91613204
_cell_formula_units_Z   1
loop_
 _symmetry_equiv_pos_site_id
 _symmetry_equiv_pos_as_xyz
  1  'x, y, z'
loop_
 _atom_site_type_symbol
 _atom_site_label
 _atom_site_symmetry_multiplicity
 _atom_site_fract_x
 _atom_site_fract_y
 _atom_site_fract_z
 _atom_site_occupancy
  Ta  Ta0  1  0.505567  0.494433  0.748702  1
  Ta  Ta1  1  0.011133  0.505567  0.251298  1
  Ta  Ta2  1  0.494433  0.988867  0.251298  1
  Ta  Ta3  1  0.505567  0.011133  0.748702  1
  Ta  Ta4  1  0.988867  0.494433  0.748702  1
  Ta  Ta5  1  0.494433  0.505567  0.251298  1
  Ta  Ta6  1  0.000000  0.000000  0.750166  1
  Ta  Ta7  1  0.000000  0.000000  0.249834  1
  Mn  Mn8  1  0.000000  0.000000  0.000000  1
  V  V9  1  0.000000  0.000000  0.500000  1
  S  S10  1  0.834240  0.165760  0.377093  1
  S  S11  1  0.834240  0.668480  0.377093  1
  S  S12  1  0.331520  0.165760  0.377093  1
  S  S13  1  0.662168  0.831084  0.875242  1
  S  S14  1  0.165760  0.331520  0.622907  1
  S  S15  1  0.168916  0.831084  0.875242  1
  S  S16  1  0.168916  0.337832  0.875242  1
  S  S17  1  0.831084  0.168916  0.124758  1
  S  S18  1  0.337832  0.168916  0.124758  1
  S  S19  1  0.668480  0.834240  0.622907  1
  S  S20  1  0.333333  0.666667  0.122126  1
  S  S21  1  0.666667  0.333333  0.619400  1
  S  S22  1  0.666667  0.333333  0.877874  1
  S  S23  1  0.333333  0.666667  0.380600  1
  S  S24  1  0.831084  0.662168  0.124758  1
  S  S25  1  0.165760  0.834240  0.622907  1
