# generated using pymatgen
data_Ce8Ti11Si16Tc
_symmetry_space_group_name_H-M   'P 1'
_cell_length_a   7.07053457
_cell_length_b   7.05898222
_cell_length_c   13.13351354
_cell_angle_alpha   90.14025269
_cell_angle_beta   90.11747613
_cell_angle_gamma   90.07465334
_symmetry_Int_Tables_number   1
_chemical_formula_structural   Ce8Ti11Si16Tc
_chemical_formula_sum   'Ce8 Ti11 Si16 Tc1'
_cell_volume   655.49997367
_cell_formula_units_Z   1
loop_
 _symmetry_equiv_pos_site_id
 _symmetry_equiv_pos_as_xyz
  1  'x, y, z'
loop_
 _atom_site_type_symbol
 _atom_site_label
 _atom_site_symmetry_multiplicity
 _atom_site_fract_x
 _atom_site_fract_y
 _atom_site_fract_z
 _atom_site_occupancy
  Ce  Ce0  1  0.994312  0.667059  0.033388  1
  Ce  Ce1  1  0.005067  0.334048  0.530470  1
  Ce  Ce2  1  0.669525  0.991118  0.967879  1
  Ce  Ce3  1  0.169639  0.507996  0.781278  1
  Ce  Ce4  1  0.831819  0.493042  0.281468  1
  Ce  Ce5  1  0.506434  0.169331  0.220181  1
  Ce  Ce6  1  0.489507  0.828552  0.716663  1
  Ce  Ce7  1  0.333511  0.006728  0.467730  1
  Ti  Ti8  1  0.840030  0.994360  0.377168  1
  Ti  Ti9  1  0.009985  0.161531  0.124975  1
  Ti  Ti10  1  0.995289  0.838752  0.620672  1
  Ti  Ti11  1  0.506597  0.339849  0.627820  1
  Ti  Ti12  1  0.159259  0.005319  0.876414  1
  Ti  Ti13  1  0.667301  0.669447  0.498769  1
  Ti  Ti14  1  0.828441  0.169903  0.750215  1
  Ti  Ti15  1  0.173358  0.827655  0.251346  1
  Ti  Ti16  1  0.330087  0.329086  0.001175  1
  Ti  Ti17  1  0.495869  0.658107  0.126911  1
  Ti  Ti18  1  0.659702  0.492521  0.873196  1
  Si  Si19  1  0.042524  0.709051  0.432873  1
  Si  Si20  1  0.960969  0.292630  0.933889  1
  Si  Si21  1  0.707749  0.040767  0.566971  1
  Si  Si22  1  0.208503  0.462327  0.186628  1
  Si  Si23  1  0.792709  0.540044  0.683991  1
  Si  Si24  1  0.459124  0.205225  0.816653  1
  Si  Si25  1  0.538847  0.788746  0.315475  1
  Si  Si26  1  0.294078  0.959013  0.066498  1
  Si  Si27  1  0.800492  0.875461  0.188988  1
  Si  Si28  1  0.300859  0.624059  0.557568  1
  Si  Si29  1  0.700451  0.372587  0.061728  1
  Si  Si30  1  0.618966  0.305839  0.438123  1
  Si  Si31  1  0.373226  0.699238  0.939075  1
  Si  Si32  1  0.125917  0.205682  0.313655  1
  Si  Si33  1  0.198173  0.125872  0.687804  1
  Si  Si34  1  0.872972  0.798569  0.810407  1
  Tc  Tc35  1  0.338710  0.510484  0.371955  1
