# generated using pymatgen
data_Tm4Tc2MoOs5
_symmetry_space_group_name_H-M   'P 1'
_cell_length_a   5.43962730
_cell_length_b   5.22503315
_cell_length_c   8.91467900
_cell_angle_alpha   90.00000000
_cell_angle_beta   90.00000000
_cell_angle_gamma   120.76730603
_symmetry_Int_Tables_number   1
_chemical_formula_structural   Tm4Tc2MoOs5
_chemical_formula_sum   'Tm4 Tc2 Mo1 Os5'
_cell_volume   217.71303118
_cell_formula_units_Z   1
loop_
 _symmetry_equiv_pos_site_id
 _symmetry_equiv_pos_as_xyz
  1  'x, y, z'
loop_
 _atom_site_type_symbol
 _atom_site_label
 _atom_site_symmetry_multiplicity
 _atom_site_fract_x
 _atom_site_fract_y
 _atom_site_fract_z
 _atom_site_occupancy
  Tm  Tm0  1  0.670492  0.340294  0.563428  1
  Tm  Tm1  1  0.331590  0.664804  0.435608  1
  Tm  Tm2  1  0.331590  0.664804  0.064392  1
  Tm  Tm3  1  0.670492  0.340294  0.936572  1
  Tc  Tc4  1  0.826413  0.650754  0.250000  1
  Tc  Tc5  1  0.828492  0.169761  0.250000  1
  Mo  Mo6  1  0.166542  0.332608  0.750000  1
  Os  Os7  1  0.002049  0.006574  0.498450  1
  Os  Os8  1  0.002049  0.006574  0.001550  1
  Os  Os9  1  0.174477  0.827115  0.750000  1
  Os  Os10  1  0.653854  0.827447  0.750000  1
  Os  Os11  1  0.341959  0.168969  0.250000  1
