# generated using pymatgen
data_Ho2TmMg3AgSn2
_symmetry_space_group_name_H-M   'P 1'
_cell_length_a   7.48213716
_cell_length_b   7.48213716
_cell_length_c   4.48856800
_cell_angle_alpha   90.00000000
_cell_angle_beta   90.00000000
_cell_angle_gamma   119.87917340
_symmetry_Int_Tables_number   1
_chemical_formula_structural   Ho2TmMg3AgSn2
_chemical_formula_sum   'Ho2 Tm1 Mg3 Ag1 Sn2'
_cell_volume   217.87994189
_cell_formula_units_Z   1
loop_
 _symmetry_equiv_pos_site_id
 _symmetry_equiv_pos_as_xyz
  1  'x, y, z'
loop_
 _atom_site_type_symbol
 _atom_site_label
 _atom_site_symmetry_multiplicity
 _atom_site_fract_x
 _atom_site_fract_y
 _atom_site_fract_z
 _atom_site_occupancy
  Ho  Ho0  1  0.583678  0.999713  0.000000  1
  Ho  Ho1  1  0.999713  0.583678  0.000000  1
  Tm  Tm2  1  0.415863  0.415863  0.000000  1
  Mg  Mg3  1  0.236947  0.000233  0.500000  1
  Mg  Mg4  1  0.000233  0.236947  0.500000  1
  Mg  Mg5  1  0.762943  0.762943  0.500000  1
  Ag  Ag6  1  0.000760  0.000760  0.000000  1
  Sn  Sn7  1  0.333673  0.666190  0.500000  1
  Sn  Sn8  1  0.666190  0.333673  0.500000  1
