# generated using pymatgen
data_Y3TmOs7W
_symmetry_space_group_name_H-M   'P 1'
_cell_length_a   5.48446092
_cell_length_b   5.28798070
_cell_length_c   8.88499704
_cell_angle_alpha   90.00736328
_cell_angle_beta   90.00319159
_cell_angle_gamma   121.13375646
_symmetry_Int_Tables_number   1
_chemical_formula_structural   Y3TmOs7W
_chemical_formula_sum   'Y3 Tm1 Os7 W1'
_cell_volume   220.56463735
_cell_formula_units_Z   1
loop_
 _symmetry_equiv_pos_site_id
 _symmetry_equiv_pos_as_xyz
  1  'x, y, z'
loop_
 _atom_site_type_symbol
 _atom_site_label
 _atom_site_symmetry_multiplicity
 _atom_site_fract_x
 _atom_site_fract_y
 _atom_site_fract_z
 _atom_site_occupancy
  Y  Y0  1  0.670977  0.341680  0.563415  1
  Y  Y1  1  0.334292  0.668685  0.433852  1
  Y  Y2  1  0.334445  0.668898  0.065782  1
  Tm  Tm3  1  0.671477  0.342704  0.936889  1
  Os  Os4  1  0.006496  0.013129  0.496860  1
  Os  Os5  1  0.006152  0.012421  0.002731  1
  Os  Os6  1  0.173415  0.824041  0.751212  1
  Os  Os7  1  0.650163  0.824381  0.751180  1
  Os  Os8  1  0.822892  0.645541  0.248882  1
  Os  Os9  1  0.828385  0.166645  0.249267  1
  Os  Os10  1  0.338782  0.166881  0.249223  1
  W  W11  1  0.162524  0.324995  0.750706  1
