# generated using pymatgen
data_La16Dy4Ir11Os
_symmetry_space_group_name_H-M   'P 1'
_cell_length_a   11.37945900
_cell_length_b   11.37945900
_cell_length_c   6.54740500
_cell_angle_alpha   90.00000000
_cell_angle_beta   90.00000000
_cell_angle_gamma   90.00000000
_symmetry_Int_Tables_number   1
_chemical_formula_structural   La16Dy4Ir11Os
_chemical_formula_sum   'La16 Dy4 Ir11 Os1'
_cell_volume   847.83713875
_cell_formula_units_Z   1
loop_
 _symmetry_equiv_pos_site_id
 _symmetry_equiv_pos_as_xyz
  1  'x, y, z'
loop_
 _atom_site_type_symbol
 _atom_site_label
 _atom_site_symmetry_multiplicity
 _atom_site_fract_x
 _atom_site_fract_y
 _atom_site_fract_z
 _atom_site_occupancy
  La  La0  1  0.289706  0.087654  0.382903  1
  La  La1  1  0.289785  0.912445  0.887503  1
  La  La2  1  0.710215  0.087555  0.887503  1
  La  La3  1  0.710294  0.912346  0.382903  1
  La  La4  1  0.587555  0.789785  0.887503  1
  La  La5  1  0.587654  0.210294  0.382903  1
  La  La6  1  0.412346  0.789706  0.382903  1
  La  La7  1  0.412445  0.210215  0.887503  1
  La  La8  1  0.212121  0.411479  0.616136  1
  La  La9  1  0.211742  0.587898  0.115675  1
  La  La10  1  0.788258  0.412102  0.115675  1
  La  La11  1  0.787879  0.588521  0.616136  1
  La  La12  1  0.912102  0.711742  0.115675  1
  La  La13  1  0.911479  0.287879  0.616136  1
  La  La14  1  0.088521  0.712121  0.616136  1
  La  La15  1  0.087898  0.288258  0.115675  1
  Dy  Dy16  1  0.000000  0.000000  0.498378  1
  Dy  Dy17  1  0.000000  0.000000  0.998331  1
  Dy  Dy18  1  0.500000  0.500000  0.998331  1
  Dy  Dy19  1  0.500000  0.500000  0.498378  1
  Ir  Ir20  1  0.852633  0.150045  0.249382  1
  Ir  Ir21  1  0.852045  0.850785  0.749581  1
  Ir  Ir22  1  0.147955  0.149215  0.749581  1
  Ir  Ir23  1  0.147367  0.849955  0.249382  1
  Ir  Ir24  1  0.649215  0.352045  0.749581  1
  Ir  Ir25  1  0.650045  0.647367  0.249382  1
  Ir  Ir26  1  0.349955  0.352633  0.249382  1
  Ir  Ir27  1  0.350785  0.647955  0.749581  1
  Ir  Ir28  1  0.500000  0.000000  0.619897  1
  Ir  Ir29  1  0.000000  0.500000  0.880551  1
  Ir  Ir30  1  0.000000  0.500000  0.381110  1
  Os  Os31  1  0.500000  0.000000  0.120300  1
