# generated using pymatgen
data_Ca4HoEr(RuO6)2
_symmetry_space_group_name_H-M   'P 1'
_cell_length_a   5.78744808
_cell_length_b   5.60043872
_cell_length_c   9.74541223
_cell_angle_alpha   55.48866673
_cell_angle_beta   90.01831763
_cell_angle_gamma   90.00769027
_symmetry_Int_Tables_number   1
_chemical_formula_structural   Ca4HoEr(RuO6)2
_chemical_formula_sum   'Ca4 Ho1 Er1 Ru2 O12'
_cell_volume   260.28192542
_cell_formula_units_Z   1
loop_
 _symmetry_equiv_pos_site_id
 _symmetry_equiv_pos_as_xyz
  1  'x, y, z'
loop_
 _atom_site_type_symbol
 _atom_site_label
 _atom_site_symmetry_multiplicity
 _atom_site_fract_x
 _atom_site_fract_y
 _atom_site_fract_z
 _atom_site_occupancy
  Ca  Ca0  1  0.554034  0.734989  0.750424  1
  Ca  Ca1  1  0.054101  0.264817  0.749750  1
  Ca  Ca2  1  0.945899  0.735183  0.250250  1
  Ca  Ca3  1  0.445966  0.265011  0.249576  1
  Ho  Ho4  1  0.000000  0.000000  0.500000  1
  Er  Er5  1  0.500000  0.000000  0.000000  1
  Ru  Ru6  1  0.000000  0.500000  0.000000  1
  Ru  Ru7  1  0.500000  0.500000  0.500000  1
  O  O8  1  0.540607  0.840798  0.265727  1
  O  O9  1  0.040702  0.159751  0.233476  1
  O  O10  1  0.459393  0.159202  0.734273  1
  O  O11  1  0.959298  0.840249  0.766524  1
  O  O12  1  0.784850  0.622265  0.558635  1
  O  O13  1  0.285443  0.376675  0.941506  1
  O  O14  1  0.215150  0.377735  0.441365  1
  O  O15  1  0.714557  0.623325  0.058494  1
  O  O16  1  0.188121  0.731607  0.054251  1
  O  O17  1  0.687187  0.269156  0.445598  1
  O  O18  1  0.811879  0.268393  0.945749  1
  O  O19  1  0.312813  0.730844  0.554402  1
