# generated using pymatgen
data_Lu16In4NiRu2Rh
_symmetry_space_group_name_H-M   'P 1'
_cell_length_a   9.46190467
_cell_length_b   9.44451409
_cell_length_c   9.44451326
_cell_angle_alpha   59.85125338
_cell_angle_beta   59.77039843
_cell_angle_gamma   59.77040041
_symmetry_Int_Tables_number   1
_chemical_formula_structural   Lu16In4NiRu2Rh
_chemical_formula_sum   'Lu16 In4 Ni1 Ru2 Rh1'
_cell_volume   594.04542652
_cell_formula_units_Z   1
loop_
 _symmetry_equiv_pos_site_id
 _symmetry_equiv_pos_as_xyz
  1  'x, y, z'
loop_
 _atom_site_type_symbol
 _atom_site_label
 _atom_site_symmetry_multiplicity
 _atom_site_fract_x
 _atom_site_fract_y
 _atom_site_fract_z
 _atom_site_occupancy
  Lu  Lu0  1  0.598805  0.600639  0.600639  1
  Lu  Lu1  1  0.598025  0.599988  0.202105  1
  Lu  Lu2  1  0.598025  0.202105  0.599988  1
  Lu  Lu3  1  0.202371  0.598960  0.598960  1
  Lu  Lu4  1  0.060284  0.439895  0.439895  1
  Lu  Lu5  1  0.440259  0.059284  0.059284  1
  Lu  Lu6  1  0.440156  0.058561  0.440047  1
  Lu  Lu7  1  0.061312  0.440223  0.057463  1
  Lu  Lu8  1  0.440156  0.440047  0.058561  1
  Lu  Lu9  1  0.061312  0.057463  0.440223  1
  Lu  Lu10  1  0.192169  0.807587  0.807587  1
  Lu  Lu11  1  0.813301  0.188037  0.188037  1
  Lu  Lu12  1  0.807409  0.191037  0.810918  1
  Lu  Lu13  1  0.189225  0.813598  0.189782  1
  Lu  Lu14  1  0.807409  0.810918  0.191037  1
  Lu  Lu15  1  0.189225  0.189782  0.813598  1
  In  In16  1  0.833233  0.833525  0.833525  1
  In  In17  1  0.834165  0.834144  0.499542  1
  In  In18  1  0.834165  0.499542  0.834144  1
  In  In19  1  0.498790  0.834439  0.834439  1
  Ni  Ni20  1  0.391301  0.391019  0.391019  1
  Ru  Ru21  1  0.392020  0.392751  0.824483  1
  Ru  Ru22  1  0.392020  0.824483  0.392751  1
  Rh  Rh23  1  0.824862  0.391973  0.391973  1
