# generated using pymatgen
data_Pr6RuPtCl6
_symmetry_space_group_name_H-M   'P 1'
_cell_length_a   10.30480861
_cell_length_b   10.30479880
_cell_length_c   10.39922815
_cell_angle_alpha   109.44050175
_cell_angle_beta   109.44064113
_cell_angle_gamma   109.15836470
_symmetry_Int_Tables_number   1
_chemical_formula_structural   Pr6RuPtCl6
_chemical_formula_sum   'Pr12 Ru2 Pt2 Cl12'
_cell_volume   853.97532836
_cell_formula_units_Z   2
loop_
 _symmetry_equiv_pos_site_id
 _symmetry_equiv_pos_as_xyz
  1  'x, y, z'
loop_
 _atom_site_type_symbol
 _atom_site_label
 _atom_site_symmetry_multiplicity
 _atom_site_fract_x
 _atom_site_fract_y
 _atom_site_fract_z
 _atom_site_occupancy
  Pr  Pr0  1  0.477025  0.483448  0.242547  1
  Pr  Pr1  1  0.740901  0.234479  0.257451  1
  Pr  Pr2  1  0.741482  0.005723  0.482995  1
  Pr  Pr3  1  0.241512  0.477267  0.482992  1
  Pr  Pr4  1  0.265522  0.759099  0.242550  1
  Pr  Pr5  1  0.022733  0.258487  0.017008  1
  Pr  Pr6  1  0.016552  0.022975  0.257453  1
  Pr  Pr7  1  0.494276  0.758517  0.017005  1
  Pr  Pr8  1  0.488895  0.238895  0.477801  1
  Pr  Pr9  1  0.010324  0.489677  0.750001  1
  Pr  Pr10  1  0.261105  0.011106  0.022200  1
  Pr  Pr11  1  0.239675  0.260323  0.749999  1
  Ru  Ru12  1  0.250393  0.249607  0.250000  1
  Ru  Ru13  1  0.499607  0.000394  0.250000  1
  Pt  Pt14  1  0.999658  0.249659  0.499319  1
  Pt  Pt15  1  0.250341  0.500342  0.000682  1
  Cl  Cl16  1  0.250123  0.748396  0.751494  1
  Cl  Cl17  1  0.496901  0.498632  0.748510  1
  Cl  Cl18  1  0.998336  0.748351  0.998101  1
  Cl  Cl19  1  0.751603  0.249878  0.748505  1
  Cl  Cl20  1  0.001368  0.003097  0.751489  1
  Cl  Cl21  1  0.250245  0.000227  0.501899  1
  Cl  Cl22  1  0.751649  0.501664  0.501899  1
  Cl  Cl23  1  0.499773  0.249755  0.998101  1
  Cl  Cl24  1  0.749403  0.750596  0.250000  1
  Cl  Cl25  1  0.749192  0.999191  0.998379  1
  Cl  Cl26  1  0.000596  0.499405  0.250000  1
  Cl  Cl27  1  0.500809  0.750808  0.501621  1
