# generated using pymatgen
data_Ho5In4CoPt
_symmetry_space_group_name_H-M   'P 1'
_cell_length_a   3.59189000
_cell_length_b   8.04907283
_cell_length_c   18.03009991
_cell_angle_alpha   90.13732709
_cell_angle_beta   90.00000000
_cell_angle_gamma   90.00000000
_symmetry_Int_Tables_number   1
_chemical_formula_structural   Ho5In4CoPt
_chemical_formula_sum   'Ho10 In8 Co2 Pt2'
_cell_volume   521.27364819
_cell_formula_units_Z   2
loop_
 _symmetry_equiv_pos_site_id
 _symmetry_equiv_pos_as_xyz
  1  'x, y, z'
loop_
 _atom_site_type_symbol
 _atom_site_label
 _atom_site_symmetry_multiplicity
 _atom_site_fract_x
 _atom_site_fract_y
 _atom_site_fract_z
 _atom_site_occupancy
  Ho  Ho0  1  0.000000  0.112044  0.410317  1
  Ho  Ho1  1  0.000000  0.887956  0.589683  1
  Ho  Ho2  1  0.000000  0.381927  0.913237  1
  Ho  Ho3  1  0.000000  0.618073  0.086763  1
  Ho  Ho4  1  0.000000  0.232810  0.224316  1
  Ho  Ho5  1  0.000000  0.767190  0.775684  1
  Ho  Ho6  1  0.000000  0.245253  0.719759  1
  Ho  Ho7  1  0.000000  0.754747  0.280241  1
  Ho  Ho8  1  0.000000  0.000000  0.000000  1
  Ho  Ho9  1  0.000000  0.500000  0.500000  1
  In  In10  1  0.500000  0.423303  0.351986  1
  In  In11  1  0.500000  0.576697  0.648014  1
  In  In12  1  0.500000  0.070024  0.848132  1
  In  In13  1  0.500000  0.929976  0.151868  1
  In  In14  1  0.500000  0.290949  0.067768  1
  In  In15  1  0.500000  0.709051  0.932232  1
  In  In16  1  0.500000  0.205916  0.568123  1
  In  In17  1  0.500000  0.794084  0.431877  1
  Co  Co18  1  0.500000  0.017410  0.305680  1
  Co  Co19  1  0.500000  0.982590  0.694320  1
  Pt  Pt20  1  0.500000  0.479368  0.802725  1
  Pt  Pt21  1  0.500000  0.520632  0.197275  1
