# generated using pymatgen
data_Sn4IrPt3
_symmetry_space_group_name_H-M   'P 1'
_cell_length_a   5.54579625
_cell_length_b   4.13018500
_cell_length_c   7.21646252
_cell_angle_alpha   90.00000000
_cell_angle_beta   89.92438056
_cell_angle_gamma   90.00000000
_symmetry_Int_Tables_number   1
_chemical_formula_structural   Sn4IrPt3
_chemical_formula_sum   'Sn4 Ir1 Pt3'
_cell_volume   165.29411698
_cell_formula_units_Z   1
loop_
 _symmetry_equiv_pos_site_id
 _symmetry_equiv_pos_as_xyz
  1  'x, y, z'
loop_
 _atom_site_type_symbol
 _atom_site_label
 _atom_site_symmetry_multiplicity
 _atom_site_fract_x
 _atom_site_fract_y
 _atom_site_fract_z
 _atom_site_occupancy
  Sn  Sn0  1  0.748826  0.250000  0.078818  1
  Sn  Sn1  1  0.243344  0.250000  0.421644  1
  Sn  Sn2  1  0.760195  0.750001  0.586011  1
  Sn  Sn3  1  0.247441  0.750001  0.913932  1
  Ir  Ir4  1  0.001548  0.250000  0.752104  1
  Pt  Pt5  1  0.998489  0.750001  0.247783  1
  Pt  Pt6  1  0.498028  0.750001  0.252083  1
  Pt  Pt7  1  0.502129  0.250000  0.747623  1
