# generated using pymatgen
data_Mn8NbTc2Ru
_symmetry_space_group_name_H-M   'P 1'
_cell_length_a   4.69071900
_cell_length_b   4.69071718
_cell_length_c   7.71611200
_cell_angle_alpha   90.00000000
_cell_angle_beta   90.00000000
_cell_angle_gamma   120.00000580
_symmetry_Int_Tables_number   1
_chemical_formula_structural   Mn8NbTc2Ru
_chemical_formula_sum   'Mn8 Nb1 Tc2 Ru1'
_cell_volume   147.03062203
_cell_formula_units_Z   1
loop_
 _symmetry_equiv_pos_site_id
 _symmetry_equiv_pos_as_xyz
  1  'x, y, z'
loop_
 _atom_site_type_symbol
 _atom_site_label
 _atom_site_symmetry_multiplicity
 _atom_site_fract_x
 _atom_site_fract_y
 _atom_site_fract_z
 _atom_site_occupancy
  Mn  Mn0  1  0.173318  0.346635  0.747021  1
  Mn  Mn1  1  0.826169  0.173831  0.253811  1
  Mn  Mn2  1  0.347661  0.173831  0.253811  1
  Mn  Mn3  1  0.653365  0.826682  0.747021  1
  Mn  Mn4  1  0.000000  0.000000  0.002538  1
  Mn  Mn5  1  0.000000  0.000000  0.501098  1
  Mn  Mn6  1  0.826169  0.652339  0.253811  1
  Mn  Mn7  1  0.173318  0.826682  0.747021  1
  Nb  Nb8  1  0.333333  0.666667  0.062981  1
  Tc  Tc9  1  0.333333  0.666667  0.436009  1
  Tc  Tc10  1  0.666667  0.333333  0.924889  1
  Ru  Ru11  1  0.666667  0.333333  0.569986  1
