# generated using pymatgen
data_Dy5Er(Si3Os)8
_symmetry_space_group_name_H-M   'P 1'
_cell_length_a   10.13972569
_cell_length_b   10.13961626
_cell_length_c   8.16100215
_cell_angle_alpha   90.04316154
_cell_angle_beta   89.95717760
_cell_angle_gamma   132.55918079
_symmetry_Int_Tables_number   1
_chemical_formula_structural   Dy5Er(Si3Os)8
_chemical_formula_sum   'Dy5 Er1 Si24 Os8'
_cell_volume   618.03131317
_cell_formula_units_Z   1
loop_
 _symmetry_equiv_pos_site_id
 _symmetry_equiv_pos_as_xyz
  1  'x, y, z'
loop_
 _atom_site_type_symbol
 _atom_site_label
 _atom_site_symmetry_multiplicity
 _atom_site_fract_x
 _atom_site_fract_y
 _atom_site_fract_z
 _atom_site_occupancy
  Dy  Dy0  1  0.500985  0.000984  0.750003  1
  Dy  Dy1  1  0.999091  0.499087  0.250001  1
  Dy  Dy2  1  0.499028  0.999026  0.250003  1
  Dy  Dy3  1  0.999990  0.000008  0.999967  1
  Dy  Dy4  1  0.500008  0.499990  0.500040  1
  Er  Er5  1  0.000672  0.500719  0.749937  1
  Si  Si6  1  0.795377  0.204884  0.500355  1
  Si  Si7  1  0.704894  0.295383  0.999646  1
  Si  Si8  1  0.204547  0.795091  0.500306  1
  Si  Si9  1  0.295082  0.704536  0.999685  1
  Si  Si10  1  0.667619  0.667754  0.167032  1
  Si  Si11  1  0.167757  0.167615  0.332972  1
  Si  Si12  1  0.832341  0.832330  0.666964  1
  Si  Si13  1  0.332330  0.332342  0.833042  1
  Si  Si14  1  0.844788  0.610903  0.995543  1
  Si  Si15  1  0.110902  0.344787  0.504453  1
  Si  Si16  1  0.654344  0.888602  0.495802  1
  Si  Si17  1  0.388601  0.154340  0.004209  1
  Si  Si18  1  0.155332  0.389058  0.003902  1
  Si  Si19  1  0.889058  0.655333  0.496105  1
  Si  Si20  1  0.120885  0.886380  0.727717  1
  Si  Si21  1  0.386386  0.620888  0.772284  1
  Si  Si22  1  0.379483  0.614120  0.228139  1
  Si  Si23  1  0.114126  0.879485  0.271867  1
  Si  Si24  1  0.878727  0.113475  0.272027  1
  Si  Si25  1  0.613470  0.378720  0.227979  1
  Si  Si26  1  0.620741  0.386144  0.772153  1
  Si  Si27  1  0.886138  0.120739  0.727851  1
  Si  Si28  1  0.611404  0.845637  0.995767  1
  Si  Si29  1  0.345635  0.111399  0.504235  1
  Os  Os30  1  0.626899  0.626878  0.872338  1
  Os  Os31  1  0.126893  0.126914  0.627681  1
  Os  Os32  1  0.373276  0.373135  0.127795  1
  Os  Os33  1  0.873121  0.873254  0.372201  1
  Os  Os34  1  0.168416  0.829647  0.999341  1
  Os  Os35  1  0.329659  0.668420  0.500656  1
  Os  Os36  1  0.831650  0.170362  0.999668  1
  Os  Os37  1  0.670348  0.331633  0.500335  1
