# generated using pymatgen
data_RbCrPtSe4
_symmetry_space_group_name_H-M   'P 1'
_cell_length_a   6.45308100
_cell_length_b   7.53136400
_cell_length_c   16.45266800
_cell_angle_alpha   90.00000000
_cell_angle_beta   90.00000000
_cell_angle_gamma   90.00000000
_symmetry_Int_Tables_number   1
_chemical_formula_structural   RbCrPtSe4
_chemical_formula_sum   'Rb4 Cr4 Pt4 Se16'
_cell_volume   799.60792293
_cell_formula_units_Z   4
loop_
 _symmetry_equiv_pos_site_id
 _symmetry_equiv_pos_as_xyz
  1  'x, y, z'
loop_
 _atom_site_type_symbol
 _atom_site_label
 _atom_site_symmetry_multiplicity
 _atom_site_fract_x
 _atom_site_fract_y
 _atom_site_fract_z
 _atom_site_occupancy
  Rb  Rb0  1  0.351016  0.000000  0.000000  1
  Rb  Rb1  1  0.648984  0.500000  0.500000  1
  Rb  Rb2  1  0.018636  0.000000  0.500000  1
  Rb  Rb3  1  0.981364  0.500000  0.000000  1
  Cr  Cr4  1  0.003033  0.000000  0.250391  1
  Cr  Cr5  1  0.003033  0.000000  0.749609  1
  Cr  Cr6  1  0.996967  0.500000  0.249609  1
  Cr  Cr7  1  0.996967  0.500000  0.750391  1
  Pt  Pt8  1  0.500000  0.250000  0.250000  1
  Pt  Pt9  1  0.500000  0.750000  0.750000  1
  Pt  Pt10  1  0.500000  0.750000  0.250000  1
  Pt  Pt11  1  0.500000  0.250000  0.750000  1
  Se  Se12  1  0.835209  0.250641  0.332979  1
  Se  Se13  1  0.835209  0.749359  0.667021  1
  Se  Se14  1  0.164791  0.750641  0.167021  1
  Se  Se15  1  0.164791  0.249359  0.832979  1
  Se  Se16  1  0.164791  0.249359  0.167021  1
  Se  Se17  1  0.164791  0.750641  0.832979  1
  Se  Se18  1  0.835209  0.749359  0.332979  1
  Se  Se19  1  0.835209  0.250641  0.667021  1
  Se  Se20  1  0.668842  0.000000  0.170157  1
  Se  Se21  1  0.668842  0.000000  0.829843  1
  Se  Se22  1  0.331158  0.500000  0.329843  1
  Se  Se23  1  0.331158  0.500000  0.670157  1
  Se  Se24  1  0.339535  0.000000  0.330702  1
  Se  Se25  1  0.339535  0.000000  0.669298  1
  Se  Se26  1  0.660465  0.500000  0.169298  1
  Se  Se27  1  0.660465  0.500000  0.830702  1
