# generated using pymatgen
data_Tb2Th2ReMoC4
_symmetry_space_group_name_H-M   'P 1'
_cell_length_a   5.28266600
_cell_length_b   6.74553300
_cell_length_c   9.95702800
_cell_angle_alpha   90.00000000
_cell_angle_beta   90.00000000
_cell_angle_gamma   90.00000000
_symmetry_Int_Tables_number   1
_chemical_formula_structural   Tb2Th2ReMoC4
_chemical_formula_sum   'Tb4 Th4 Re2 Mo2 C8'
_cell_volume   354.81269697
_cell_formula_units_Z   2
loop_
 _symmetry_equiv_pos_site_id
 _symmetry_equiv_pos_as_xyz
  1  'x, y, z'
loop_
 _atom_site_type_symbol
 _atom_site_label
 _atom_site_symmetry_multiplicity
 _atom_site_fract_x
 _atom_site_fract_y
 _atom_site_fract_z
 _atom_site_occupancy
  Tb  Tb0  1  0.250000  0.826157  0.053437  1
  Tb  Tb1  1  0.750000  0.673843  0.553437  1
  Tb  Tb2  1  0.250000  0.326609  0.446155  1
  Tb  Tb3  1  0.750000  0.173391  0.946155  1
  Th  Th4  1  0.250000  0.469677  0.787729  1
  Th  Th5  1  0.750000  0.030323  0.287729  1
  Th  Th6  1  0.250000  0.966589  0.713837  1
  Th  Th7  1  0.750000  0.533411  0.213837  1
  Re  Re8  1  0.250000  0.776690  0.365137  1
  Re  Re9  1  0.750000  0.723310  0.865137  1
  Mo  Mo10  1  0.250000  0.276774  0.134979  1
  Mo  Mo11  1  0.750000  0.223226  0.634979  1
  C  C12  1  0.250000  0.172804  0.945574  1
  C  C13  1  0.750000  0.826909  0.050577  1
  C  C14  1  0.250000  0.673091  0.550577  1
  C  C15  1  0.750000  0.327196  0.445574  1
  C  C16  1  0.250000  0.041950  0.262049  1
  C  C17  1  0.750000  0.458050  0.762049  1
  C  C18  1  0.250000  0.547776  0.240527  1
  C  C19  1  0.750000  0.952224  0.740527  1
