# generated using pymatgen
data_SbF31
_symmetry_space_group_name_H-M   'P 1'
_cell_length_a   9.31743665
_cell_length_b   9.31743652
_cell_length_c   7.14942314
_cell_angle_alpha   91.20239639
_cell_angle_beta   88.79760705
_cell_angle_gamma   92.00950420
_symmetry_Int_Tables_number   1
_chemical_formula_structural   SbF31
_chemical_formula_sum   'Sb1 F31'
_cell_volume   620.02884463
_cell_formula_units_Z   1
loop_
 _symmetry_equiv_pos_site_id
 _symmetry_equiv_pos_as_xyz
  1  'x, y, z'
loop_
 _atom_site_type_symbol
 _atom_site_label
 _atom_site_symmetry_multiplicity
 _atom_site_fract_x
 _atom_site_fract_y
 _atom_site_fract_z
 _atom_site_occupancy
  Sb  Sb0  1  0.135147  0.864853  0.530446  1
  F  F1  1  0.827966  0.172034  0.078121  1
  F  F2  1  0.286660  0.282706  0.205739  1
  F  F3  1  0.279557  0.299260  0.717516  1
  F  F4  1  0.349334  0.650666  0.072000  1
  F  F5  1  0.625378  0.374622  0.569895  1
  F  F6  1  0.717294  0.713340  0.205739  1
  F  F7  1  0.700740  0.720443  0.717516  1
  F  F8  1  0.028719  0.120837  0.117442  1
  F  F9  1  0.137849  0.064270  0.585240  1
  F  F10  1  0.070320  0.382145  0.390111  1
  F  F11  1  0.433164  0.075011  0.940514  1
  F  F12  1  0.341996  0.431810  0.785546  1
  F  F13  1  0.430207  0.308594  0.266352  1
  F  F14  1  0.071021  0.591327  0.989278  1
  F  F15  1  0.577859  0.066245  0.463778  1
  F  F16  1  0.696060  0.303940  0.715947  1
  F  F17  1  0.369533  0.630467  0.266341  1
  F  F18  1  0.933755  0.422141  0.463778  1
  F  F19  1  0.408673  0.928979  0.989278  1
  F  F20  1  0.691406  0.569793  0.266352  1
  F  F21  1  0.568190  0.658004  0.785546  1
  F  F22  1  0.924989  0.566836  0.940514  1
  F  F23  1  0.617855  0.929680  0.390111  1
  F  F24  1  0.879163  0.971281  0.117442  1
  F  F25  1  0.935730  0.862151  0.585240  1
  F  F26  1  0.130909  0.668625  0.593006  1
  F  F27  1  0.653357  0.147892  0.043530  1
  F  F28  1  0.848774  0.151226  0.665228  1
  F  F29  1  0.144911  0.855089  0.268643  1
  F  F30  1  0.852108  0.346643  0.043530  1
  F  F31  1  0.331375  0.869091  0.593006  1
