# generated using pymatgen
data_Ca6Al14Si2Ir7
_symmetry_space_group_name_H-M   'P 1'
_cell_length_a   8.92836576
_cell_length_b   8.92835760
_cell_length_c   8.93465500
_cell_angle_alpha   59.97650691
_cell_angle_beta   59.97665275
_cell_angle_gamma   59.89128625
_symmetry_Int_Tables_number   1
_chemical_formula_structural   Ca6Al14Si2Ir7
_chemical_formula_sum   'Ca6 Al14 Si2 Ir7'
_cell_volume   503.03091183
_cell_formula_units_Z   1
loop_
 _symmetry_equiv_pos_site_id
 _symmetry_equiv_pos_as_xyz
  1  'x, y, z'
loop_
 _atom_site_type_symbol
 _atom_site_label
 _atom_site_symmetry_multiplicity
 _atom_site_fract_x
 _atom_site_fract_y
 _atom_site_fract_z
 _atom_site_occupancy
  Ca  Ca0  1  0.203446  0.794113  0.792901  1
  Ca  Ca1  1  0.794113  0.203446  0.209540  1
  Ca  Ca2  1  0.794114  0.203444  0.792902  1
  Ca  Ca3  1  0.793910  0.793910  0.206091  1
  Ca  Ca4  1  0.203444  0.794114  0.209540  1
  Ca  Ca5  1  0.207208  0.207208  0.792791  1
  Al  Al6  1  0.520353  0.826989  0.826329  1
  Al  Al7  1  0.826989  0.520353  0.826329  1
  Al  Al8  1  0.172251  0.172251  0.172871  1
  Al  Al9  1  0.172251  0.172252  0.482626  1
  Al  Al10  1  0.172609  0.480551  0.173420  1
  Al  Al11  1  0.480551  0.172609  0.173420  1
  Al  Al12  1  0.618074  0.618073  0.620460  1
  Al  Al13  1  0.618073  0.618074  0.143393  1
  Al  Al14  1  0.144447  0.617171  0.619191  1
  Al  Al15  1  0.617171  0.144447  0.619192  1
  Al  Al16  1  0.381211  0.381211  0.379762  1
  Al  Al17  1  0.381211  0.381211  0.857815  1
  Al  Al18  1  0.381675  0.858016  0.380154  1
  Al  Al19  1  0.858016  0.381675  0.380155  1
  Si  Si20  1  0.826125  0.826124  0.825649  1
  Si  Si21  1  0.826124  0.826124  0.522103  1
  Ir  Ir22  1  0.500055  0.500055  0.499945  1
  Ir  Ir23  1  0.997026  0.508311  0.499345  1
  Ir  Ir24  1  0.508311  0.997026  0.995318  1
  Ir  Ir25  1  0.508311  0.997026  0.499346  1
  Ir  Ir26  1  0.501586  0.501586  0.998414  1
  Ir  Ir27  1  0.997026  0.508311  0.995317  1
  Ir  Ir28  1  0.994319  0.994319  0.505681  1
