# generated using pymatgen
data_SrYb2WN4
_symmetry_space_group_name_H-M   'P 1'
_cell_length_a   7.86652800
_cell_length_b   6.45603600
_cell_length_c   5.48708200
_cell_angle_alpha   90.00000000
_cell_angle_beta   90.00000000
_cell_angle_gamma   90.00000000
_symmetry_Int_Tables_number   1
_chemical_formula_structural   SrYb2WN4
_chemical_formula_sum   'Sr2 Yb4 W2 N8'
_cell_volume   278.67017265
_cell_formula_units_Z   2
loop_
 _symmetry_equiv_pos_site_id
 _symmetry_equiv_pos_as_xyz
  1  'x, y, z'
loop_
 _atom_site_type_symbol
 _atom_site_label
 _atom_site_symmetry_multiplicity
 _atom_site_fract_x
 _atom_site_fract_y
 _atom_site_fract_z
 _atom_site_occupancy
  Sr  Sr0  1  0.000000  0.339108  0.696470  1
  Sr  Sr1  1  0.500000  0.660892  0.196470  1
  Yb  Yb2  1  0.254838  0.824485  0.705193  1
  Yb  Yb3  1  0.245162  0.175515  0.205193  1
  Yb  Yb4  1  0.745162  0.824485  0.705193  1
  Yb  Yb5  1  0.754838  0.175515  0.205193  1
  W  W6  1  0.000000  0.685699  0.230941  1
  W  W7  1  0.500000  0.314301  0.730941  1
  N  N8  1  0.796338  0.820395  0.131639  1
  N  N9  1  0.703662  0.179605  0.631639  1
  N  N10  1  0.203662  0.820395  0.131639  1
  N  N11  1  0.296338  0.179605  0.631639  1
  N  N12  1  0.000000  0.394567  0.168022  1
  N  N13  1  0.500000  0.605433  0.668022  1
  N  N14  1  0.000000  0.702313  0.570164  1
  N  N15  1  0.500000  0.297687  0.070164  1
