# generated using pymatgen
data_Ti3Mn8Al
_symmetry_space_group_name_H-M   'P 1'
_cell_length_a   4.71940000
_cell_length_b   4.71939925
_cell_length_c   7.77770100
_cell_angle_alpha   90.00000000
_cell_angle_beta   90.00000000
_cell_angle_gamma   119.99999125
_symmetry_Int_Tables_number   1
_chemical_formula_structural   Ti3Mn8Al
_chemical_formula_sum   'Ti3 Mn8 Al1'
_cell_volume   150.02216227
_cell_formula_units_Z   1
loop_
 _symmetry_equiv_pos_site_id
 _symmetry_equiv_pos_as_xyz
  1  'x, y, z'
loop_
 _atom_site_type_symbol
 _atom_site_label
 _atom_site_symmetry_multiplicity
 _atom_site_fract_x
 _atom_site_fract_y
 _atom_site_fract_z
 _atom_site_occupancy
  Ti  Ti0  1  0.000000  0.000000  0.562010  1
  Ti  Ti1  1  0.000000  0.000000  0.935679  1
  Ti  Ti2  1  0.666667  0.333333  0.070488  1
  Mn  Mn3  1  0.333333  0.666667  0.500590  1
  Mn  Mn4  1  0.333333  0.666667  0.995005  1
  Mn  Mn5  1  0.160758  0.839242  0.250621  1
  Mn  Mn6  1  0.160758  0.321517  0.250621  1
  Mn  Mn7  1  0.678483  0.839242  0.250621  1
  Mn  Mn8  1  0.507110  0.492890  0.749108  1
  Mn  Mn9  1  0.507110  0.014220  0.749108  1
  Mn  Mn10  1  0.985780  0.492890  0.749108  1
  Al  Al11  1  0.666667  0.333333  0.437035  1
