# generated using pymatgen
data_Nd2Nb3P7IrRh8
_symmetry_space_group_name_H-M   'P 1'
_cell_length_a   3.93929200
_cell_length_b   9.63149099
_cell_length_c   9.63420200
_cell_angle_alpha   119.91062201
_cell_angle_beta   89.99909823
_cell_angle_gamma   90.00097316
_symmetry_Int_Tables_number   1
_chemical_formula_structural   Nd2Nb3P7IrRh8
_chemical_formula_sum   'Nd2 Nb3 P7 Ir1 Rh8'
_cell_volume   316.84620655
_cell_formula_units_Z   1
loop_
 _symmetry_equiv_pos_site_id
 _symmetry_equiv_pos_as_xyz
  1  'x, y, z'
loop_
 _atom_site_type_symbol
 _atom_site_label
 _atom_site_symmetry_multiplicity
 _atom_site_fract_x
 _atom_site_fract_y
 _atom_site_fract_z
 _atom_site_occupancy
  Nd  Nd0  1  0.262045  0.666500  0.333471  1
  Nd  Nd1  1  0.762136  0.333493  0.666743  1
  Nb  Nb2  1  0.761888  0.095478  0.875252  1
  Nb  Nb3  1  0.761880  0.125136  0.220634  1
  Nb  Nb4  1  0.761876  0.778608  0.904181  1
  P  P5  1  0.261969  0.000804  0.998835  1
  P  P6  1  0.761827  0.881136  0.593937  1
  P  P7  1  0.761795  0.407075  0.288125  1
  P  P8  1  0.761789  0.711844  0.119497  1
  P  P9  1  0.261941  0.115903  0.414243  1
  P  P10  1  0.261932  0.586147  0.700987  1
  P  P11  1  0.261917  0.298056  0.884586  1
  Ir  Ir12  1  0.261877  0.884665  0.160435  1
  Rh  Rh13  1  0.261881  0.839066  0.723543  1
  Rh  Rh14  1  0.261863  0.276989  0.115955  1
  Rh  Rh15  1  0.761910  0.611082  0.559708  1
  Rh  Rh16  1  0.761888  0.441112  0.051872  1
  Rh  Rh17  1  0.761893  0.947844  0.389347  1
  Rh  Rh18  1  0.261896  0.368954  0.436471  1
  Rh  Rh19  1  0.261892  0.562721  0.931365  1
  Rh  Rh20  1  0.261903  0.067390  0.630812  1
