# generated using pymatgen
data_Ca2ScRuO6
_symmetry_space_group_name_H-M   'P 1'
_cell_length_a   5.48363005
_cell_length_b   5.67400200
_cell_length_c   7.85174938
_cell_angle_alpha   90.00000000
_cell_angle_beta   89.71058182
_cell_angle_gamma   90.00000000
_symmetry_Int_Tables_number   1
_chemical_formula_structural   Ca2ScRuO6
_chemical_formula_sum   'Ca4 Sc2 Ru2 O12'
_cell_volume   244.29721740
_cell_formula_units_Z   2
loop_
 _symmetry_equiv_pos_site_id
 _symmetry_equiv_pos_as_xyz
  1  'x, y, z'
loop_
 _atom_site_type_symbol
 _atom_site_label
 _atom_site_symmetry_multiplicity
 _atom_site_fract_x
 _atom_site_fract_y
 _atom_site_fract_z
 _atom_site_occupancy
  Ca  Ca0  1  0.014053  0.943984  0.249576  1
  Ca  Ca1  1  0.485947  0.443984  0.250424  1
  Ca  Ca2  1  0.514053  0.556016  0.749576  1
  Ca  Ca3  1  0.985947  0.056016  0.750424  1
  Sc  Sc4  1  0.000000  0.500000  0.000000  1
  Sc  Sc5  1  0.500000  0.000000  0.500000  1
  Ru  Ru6  1  0.000000  0.500000  0.500000  1
  Ru  Ru7  1  0.500000  0.000000  0.000000  1
  O  O8  1  0.095459  0.468711  0.741799  1
  O  O9  1  0.208586  0.195368  0.048700  1
  O  O10  1  0.191410  0.210882  0.448396  1
  O  O11  1  0.308590  0.710882  0.051604  1
  O  O12  1  0.291414  0.695368  0.451300  1
  O  O13  1  0.404541  0.968711  0.758201  1
  O  O14  1  0.595459  0.031289  0.241799  1
  O  O15  1  0.708586  0.304632  0.548700  1
  O  O16  1  0.691410  0.289118  0.948396  1
  O  O17  1  0.791414  0.804632  0.951300  1
  O  O18  1  0.808590  0.789118  0.551604  1
  O  O19  1  0.904541  0.531289  0.258201  1
