# generated using pymatgen
data_Pr8CoHg3
_symmetry_space_group_name_H-M   'P 1'
_cell_length_a   10.69086000
_cell_length_b   10.69086106
_cell_length_c   7.28841200
_cell_angle_alpha   90.00000000
_cell_angle_beta   90.00000000
_cell_angle_gamma   120.00000289
_symmetry_Int_Tables_number   1
_chemical_formula_structural   Pr8CoHg3
_chemical_formula_sum   'Pr16 Co2 Hg6'
_cell_volume   721.42113515
_cell_formula_units_Z   2
loop_
 _symmetry_equiv_pos_site_id
 _symmetry_equiv_pos_as_xyz
  1  'x, y, z'
loop_
 _atom_site_type_symbol
 _atom_site_label
 _atom_site_symmetry_multiplicity
 _atom_site_fract_x
 _atom_site_fract_y
 _atom_site_fract_z
 _atom_site_occupancy
  Pr  Pr0  1  0.171620  0.828380  0.981808  1
  Pr  Pr1  1  0.343238  0.171620  0.481808  1
  Pr  Pr2  1  0.828380  0.656762  0.481808  1
  Pr  Pr3  1  0.171620  0.343238  0.981808  1
  Pr  Pr4  1  0.656762  0.828380  0.981808  1
  Pr  Pr5  1  0.828380  0.171620  0.481808  1
  Pr  Pr6  1  0.333333  0.666667  0.687568  1
  Pr  Pr7  1  0.666667  0.333333  0.187568  1
  Pr  Pr8  1  0.459346  0.540654  0.291212  1
  Pr  Pr9  1  0.918691  0.459346  0.791212  1
  Pr  Pr10  1  0.540654  0.081309  0.791212  1
  Pr  Pr11  1  0.459346  0.918691  0.291212  1
  Pr  Pr12  1  0.081309  0.540654  0.291212  1
  Pr  Pr13  1  0.540654  0.459346  0.791212  1
  Pr  Pr14  1  0.000000  0.000000  0.289802  1
  Pr  Pr15  1  0.000000  0.000000  0.789802  1
  Co  Co16  1  0.333333  0.666667  0.054877  1
  Co  Co17  1  0.666667  0.333333  0.554877  1
  Hg  Hg18  1  0.167036  0.832964  0.537230  1
  Hg  Hg19  1  0.334072  0.167036  0.037230  1
  Hg  Hg20  1  0.832964  0.665928  0.037230  1
  Hg  Hg21  1  0.167036  0.334072  0.537230  1
  Hg  Hg22  1  0.665928  0.832964  0.537230  1
  Hg  Hg23  1  0.832964  0.167036  0.037230  1
