# generated using pymatgen
data_Zr2Sc2Ta3NbP4
_symmetry_space_group_name_H-M   'P 1'
_cell_length_a   3.55555100
_cell_length_b   6.93185838
_cell_length_c   8.33814687
_cell_angle_alpha   89.90501282
_cell_angle_beta   90.00000000
_cell_angle_gamma   90.00000000
_symmetry_Int_Tables_number   1
_chemical_formula_structural   Zr2Sc2Ta3NbP4
_chemical_formula_sum   'Zr2 Sc2 Ta3 Nb1 P4'
_cell_volume   205.50648799
_cell_formula_units_Z   1
loop_
 _symmetry_equiv_pos_site_id
 _symmetry_equiv_pos_as_xyz
  1  'x, y, z'
loop_
 _atom_site_type_symbol
 _atom_site_label
 _atom_site_symmetry_multiplicity
 _atom_site_fract_x
 _atom_site_fract_y
 _atom_site_fract_z
 _atom_site_occupancy
  Zr  Zr0  1  0.250000  0.032826  0.665779  1
  Zr  Zr1  1  0.750000  0.467221  0.165788  1
  Sc  Sc2  1  0.250000  0.532032  0.832733  1
  Sc  Sc3  1  0.750000  0.968026  0.333142  1
  Ta  Ta4  1  0.750000  0.860951  0.940570  1
  Ta  Ta5  1  0.250000  0.639177  0.440665  1
  Ta  Ta6  1  0.750000  0.361806  0.559266  1
  Nb  Nb7  1  0.250000  0.138129  0.058807  1
  P  P8  1  0.750000  0.733534  0.644589  1
  P  P9  1  0.250000  0.765476  0.144328  1
  P  P10  1  0.750000  0.237456  0.856684  1
  P  P11  1  0.250000  0.263366  0.357648  1
