# generated using pymatgen
data_LiTb13Ho3In3Ir4
_symmetry_space_group_name_H-M   'P 1'
_cell_length_a   9.67323109
_cell_length_b   9.69808664
_cell_length_c   9.66739467
_cell_angle_alpha   60.10692485
_cell_angle_beta   59.71790005
_cell_angle_gamma   60.05357895
_symmetry_Int_Tables_number   1
_chemical_formula_structural   LiTb13Ho3In3Ir4
_chemical_formula_sum   'Li1 Tb13 Ho3 In3 Ir4'
_cell_volume   640.67965333
_cell_formula_units_Z   1
loop_
 _symmetry_equiv_pos_site_id
 _symmetry_equiv_pos_as_xyz
  1  'x, y, z'
loop_
 _atom_site_type_symbol
 _atom_site_label
 _atom_site_symmetry_multiplicity
 _atom_site_fract_x
 _atom_site_fract_y
 _atom_site_fract_z
 _atom_site_occupancy
  Li  Li0  1  0.320960  0.321642  0.320944  1
  Tb  Tb1  1  0.310266  0.691545  0.310987  1
  Tb  Tb2  1  0.937465  0.561731  0.561335  1
  Tb  Tb3  1  0.310375  0.310895  0.690797  1
  Tb  Tb4  1  0.099359  0.099591  0.100290  1
  Tb  Tb5  1  0.561200  0.561270  0.937599  1
  Tb  Tb6  1  0.098041  0.098936  0.704347  1
  Tb  Tb7  1  0.690891  0.308234  0.690340  1
  Tb  Tb8  1  0.690771  0.690639  0.308321  1
  Tb  Tb9  1  0.690883  0.310707  0.310916  1
  Tb  Tb10  1  0.307701  0.691148  0.690806  1
  Tb  Tb11  1  0.561601  0.938092  0.561244  1
  Tb  Tb12  1  0.705036  0.098760  0.098077  1
  Tb  Tb13  1  0.559023  0.942265  0.941086  1
  Ho  Ho14  1  0.098620  0.704811  0.098862  1
  Ho  Ho15  1  0.941801  0.942397  0.558491  1
  Ho  Ho16  1  0.943059  0.557992  0.942496  1
  In  In17  1  0.004579  0.332859  0.332573  1
  In  In18  1  0.332675  0.004539  0.332715  1
  In  In19  1  0.332464  0.332771  0.004708  1
  Ir  Ir20  1  0.893085  0.889893  0.891828  1
  Ir  Ir21  1  0.893141  0.891298  0.325754  1
  Ir  Ir22  1  0.324783  0.890951  0.893152  1
  Ir  Ir23  1  0.892226  0.327034  0.892335  1
