# generated using pymatgen
data_K4MnFe3F14
_symmetry_space_group_name_H-M   'P 1'
_cell_length_a   7.82719000
_cell_length_b   7.82718976
_cell_length_c   7.79789321
_cell_angle_alpha   120.45764118
_cell_angle_beta   116.92209386
_cell_angle_gamma   92.51680338
_symmetry_Int_Tables_number   1
_chemical_formula_structural   K4MnFe3F14
_chemical_formula_sum   'K4 Mn1 Fe3 F14'
_cell_volume   343.15944099
_cell_formula_units_Z   1
loop_
 _symmetry_equiv_pos_site_id
 _symmetry_equiv_pos_as_xyz
  1  'x, y, z'
loop_
 _atom_site_type_symbol
 _atom_site_label
 _atom_site_symmetry_multiplicity
 _atom_site_fract_x
 _atom_site_fract_y
 _atom_site_fract_z
 _atom_site_occupancy
  K  K0  1  0.500000  0.500000  0.000000  1
  K  K1  1  0.000000  0.000000  0.000000  1
  K  K2  1  0.000000  0.500000  0.000000  1
  K  K3  1  0.000000  0.000000  0.500000  1
  Mn  Mn4  1  0.500000  0.500000  0.500000  1
  Fe  Fe5  1  0.500000  0.000000  0.000000  1
  Fe  Fe6  1  0.000000  0.500000  0.500000  1
  Fe  Fe7  1  0.500000  0.000000  0.500000  1
  F  F8  1  0.877122  0.586256  0.291402  1
  F  F9  1  0.205145  0.914279  0.291402  1
  F  F10  1  0.188826  0.799073  0.756584  1
  F  F11  1  0.457391  0.702298  0.383560  1
  F  F12  1  0.457512  0.067760  0.756584  1
  F  F13  1  0.181263  0.426170  0.383560  1
  F  F14  1  0.818737  0.573830  0.616440  1
  F  F15  1  0.542488  0.932240  0.243416  1
  F  F16  1  0.542609  0.297702  0.616440  1
  F  F17  1  0.811174  0.200927  0.243416  1
  F  F18  1  0.392804  0.248889  0.141693  1
  F  F19  1  0.122878  0.413744  0.708598  1
  F  F20  1  0.794855  0.085721  0.708598  1
  F  F21  1  0.607196  0.751111  0.858307  1
