# generated using pymatgen
data_Dy2Ho2Sc3AlPt4
_symmetry_space_group_name_H-M   'P 1'
_cell_length_a   4.51139200
_cell_length_b   7.02389210
_cell_length_c   8.28319765
_cell_angle_alpha   86.93607002
_cell_angle_beta   90.00000000
_cell_angle_gamma   90.00000000
_symmetry_Int_Tables_number   1
_chemical_formula_structural   Dy2Ho2Sc3AlPt4
_chemical_formula_sum   'Dy2 Ho2 Sc3 Al1 Pt4'
_cell_volume   262.09887731
_cell_formula_units_Z   1
loop_
 _symmetry_equiv_pos_site_id
 _symmetry_equiv_pos_as_xyz
  1  'x, y, z'
loop_
 _atom_site_type_symbol
 _atom_site_label
 _atom_site_symmetry_multiplicity
 _atom_site_fract_x
 _atom_site_fract_y
 _atom_site_fract_z
 _atom_site_occupancy
  Dy  Dy0  1  0.250000  0.040220  0.671720  1
  Dy  Dy1  1  0.750000  0.986864  0.339727  1
  Ho  Ho2  1  0.250000  0.522415  0.815651  1
  Ho  Ho3  1  0.750000  0.468209  0.183888  1
  Sc  Sc4  1  0.250000  0.134211  0.069607  1
  Sc  Sc5  1  0.250000  0.637913  0.436135  1
  Sc  Sc6  1  0.750000  0.863289  0.928922  1
  Al  Al7  1  0.750000  0.359825  0.567759  1
  Pt  Pt8  1  0.250000  0.263701  0.383020  1
  Pt  Pt9  1  0.250000  0.748280  0.101716  1
  Pt  Pt10  1  0.750000  0.729142  0.614948  1
  Pt  Pt11  1  0.750000  0.245931  0.886906  1
