# generated using pymatgen
data_Y3Er7Si5P
_symmetry_space_group_name_H-M   'P 1'
_cell_length_a   8.35604100
_cell_length_b   8.36297653
_cell_length_c   6.25509600
_cell_angle_alpha   90.00000000
_cell_angle_beta   90.00000000
_cell_angle_gamma   119.97255845
_symmetry_Int_Tables_number   1
_chemical_formula_structural   Y3Er7Si5P
_chemical_formula_sum   'Y3 Er7 Si5 P1'
_cell_volume   378.65707492
_cell_formula_units_Z   1
loop_
 _symmetry_equiv_pos_site_id
 _symmetry_equiv_pos_as_xyz
  1  'x, y, z'
loop_
 _atom_site_type_symbol
 _atom_site_label
 _atom_site_symmetry_multiplicity
 _atom_site_fract_x
 _atom_site_fract_y
 _atom_site_fract_z
 _atom_site_occupancy
  Y  Y0  1  0.000893  0.756705  0.750000  1
  Y  Y1  1  0.754865  0.000000  0.750000  1
  Y  Y2  1  0.244187  0.243295  0.750000  1
  Er  Er3  1  0.000860  0.244050  0.250000  1
  Er  Er4  1  0.756810  0.755950  0.250000  1
  Er  Er5  1  0.243396  0.000000  0.250000  1
  Er  Er6  1  0.333737  0.667424  0.500062  1
  Er  Er7  1  0.666314  0.332576  0.999938  1
  Er  Er8  1  0.666314  0.332576  0.500062  1
  Er  Er9  1  0.333737  0.667424  0.999938  1
  Si  Si10  1  0.394482  0.393837  0.250000  1
  Si  Si11  1  0.000645  0.606163  0.250000  1
  Si  Si12  1  0.000119  0.394449  0.750000  1
  Si  Si13  1  0.605671  0.605551  0.750000  1
  Si  Si14  1  0.606867  0.000000  0.250000  1
  P  P15  1  0.391102  0.000000  0.750000  1
