# generated using pymatgen
data_Yb3Th(ZnRh)4
_symmetry_space_group_name_H-M   'P 1'
_cell_length_a   4.10453500
_cell_length_b   6.96926966
_cell_length_c   8.07075421
_cell_angle_alpha   89.37720305
_cell_angle_beta   90.00000000
_cell_angle_gamma   90.00000000
_symmetry_Int_Tables_number   1
_chemical_formula_structural   Yb3Th(ZnRh)4
_chemical_formula_sum   'Yb3 Th1 Zn4 Rh4'
_cell_volume   230.85521856
_cell_formula_units_Z   1
loop_
 _symmetry_equiv_pos_site_id
 _symmetry_equiv_pos_as_xyz
  1  'x, y, z'
loop_
 _atom_site_type_symbol
 _atom_site_label
 _atom_site_symmetry_multiplicity
 _atom_site_fract_x
 _atom_site_fract_y
 _atom_site_fract_z
 _atom_site_occupancy
  Yb  Yb0  1  0.750000  0.469951  0.810246  1
  Yb  Yb1  1  0.750000  0.971889  0.681393  1
  Yb  Yb2  1  0.250000  0.029007  0.320156  1
  Th  Th3  1  0.250000  0.529885  0.180662  1
  Zn  Zn4  1  0.250000  0.645097  0.570615  1
  Zn  Zn5  1  0.750000  0.343083  0.445578  1
  Zn  Zn6  1  0.750000  0.869892  0.058570  1
  Zn  Zn7  1  0.250000  0.138791  0.932769  1
  Rh  Rh8  1  0.250000  0.764933  0.880574  1
  Rh  Rh9  1  0.750000  0.245251  0.126084  1
  Rh  Rh10  1  0.750000  0.723510  0.366021  1
  Rh  Rh11  1  0.250000  0.268710  0.627331  1
