# generated using pymatgen
data_Ta2MnNbB7
_symmetry_space_group_name_H-M   'P 1'
_cell_length_a   3.20320100
_cell_length_b   7.33080436
_cell_length_c   8.79130400
_cell_angle_alpha   90.00000000
_cell_angle_beta   90.00000000
_cell_angle_gamma   77.38049364
_symmetry_Int_Tables_number   1
_chemical_formula_structural   Ta2MnNbB7
_chemical_formula_sum   'Ta4 Mn2 Nb2 B14'
_cell_volume   201.45071818
_cell_formula_units_Z   2
loop_
 _symmetry_equiv_pos_site_id
 _symmetry_equiv_pos_as_xyz
  1  'x, y, z'
loop_
 _atom_site_type_symbol
 _atom_site_label
 _atom_site_symmetry_multiplicity
 _atom_site_fract_x
 _atom_site_fract_y
 _atom_site_fract_z
 _atom_site_occupancy
  Ta  Ta0  1  0.106428  0.787144  0.053926  1
  Ta  Ta1  1  0.106428  0.787144  0.446073  1
  Ta  Ta2  1  0.893574  0.212855  0.553927  1
  Ta  Ta3  1  0.893574  0.212855  0.946074  1
  Mn  Mn4  1  0.950974  0.098053  0.250000  1
  Mn  Mn5  1  0.049027  0.901947  0.750000  1
  Nb  Nb6  1  0.750152  0.499700  0.250000  1
  Nb  Nb7  1  0.249850  0.500300  0.750000  1
  B  B8  1  0.273029  0.453943  0.032455  1
  B  B9  1  0.485450  0.029102  0.094714  1
  B  B10  1  0.368303  0.263397  0.151497  1
  B  B11  1  0.566573  0.866858  0.250000  1
  B  B12  1  0.368303  0.263397  0.348504  1
  B  B13  1  0.485450  0.029102  0.405286  1
  B  B14  1  0.273029  0.453943  0.467545  1
  B  B15  1  0.726973  0.546057  0.532455  1
  B  B16  1  0.514553  0.970897  0.594714  1
  B  B17  1  0.631699  0.736602  0.651496  1
  B  B18  1  0.433429  0.133142  0.750000  1
  B  B19  1  0.631699  0.736602  0.848503  1
  B  B20  1  0.514553  0.970897  0.905286  1
  B  B21  1  0.726973  0.546057  0.967545  1
