# generated using pymatgen
data_Y4Al2Ga2PdRh3
_symmetry_space_group_name_H-M   'P 1'
_cell_length_a   4.30693900
_cell_length_b   6.90987503
_cell_length_c   7.87317628
_cell_angle_alpha   90.15466644
_cell_angle_beta   90.00000000
_cell_angle_gamma   90.00000000
_symmetry_Int_Tables_number   1
_chemical_formula_structural   Y4Al2Ga2PdRh3
_chemical_formula_sum   'Y4 Al2 Ga2 Pd1 Rh3'
_cell_volume   234.30810234
_cell_formula_units_Z   1
loop_
 _symmetry_equiv_pos_site_id
 _symmetry_equiv_pos_as_xyz
  1  'x, y, z'
loop_
 _atom_site_type_symbol
 _atom_site_label
 _atom_site_symmetry_multiplicity
 _atom_site_fract_x
 _atom_site_fract_y
 _atom_site_fract_z
 _atom_site_occupancy
  Y  Y0  1  0.250000  0.029706  0.316758  1
  Y  Y1  1  0.250000  0.536108  0.180166  1
  Y  Y2  1  0.750000  0.967671  0.686988  1
  Y  Y3  1  0.750000  0.472195  0.816557  1
  Al  Al4  1  0.250000  0.639636  0.562889  1
  Al  Al5  1  0.750000  0.362501  0.439118  1
  Ga  Ga6  1  0.250000  0.148344  0.932306  1
  Ga  Ga7  1  0.750000  0.845801  0.065705  1
  Pd  Pd8  1  0.750000  0.229129  0.121554  1
  Rh  Rh9  1  0.250000  0.268570  0.611419  1
  Rh  Rh10  1  0.250000  0.767652  0.879685  1
  Rh  Rh11  1  0.750000  0.732688  0.386855  1
