# generated using pymatgen
data_La5ThSc2Bi3Sb7
_symmetry_space_group_name_H-M   'P 1'
_cell_length_a   9.65287000
_cell_length_b   9.65355602
_cell_length_c   6.52669419
_cell_angle_alpha   89.99660655
_cell_angle_beta   90.02517796
_cell_angle_gamma   119.97908754
_symmetry_Int_Tables_number   1
_chemical_formula_structural   La5ThSc2Bi3Sb7
_chemical_formula_sum   'La5 Th1 Sc2 Bi3 Sb7'
_cell_volume   526.81617897
_cell_formula_units_Z   1
loop_
 _symmetry_equiv_pos_site_id
 _symmetry_equiv_pos_as_xyz
  1  'x, y, z'
loop_
 _atom_site_type_symbol
 _atom_site_label
 _atom_site_symmetry_multiplicity
 _atom_site_fract_x
 _atom_site_fract_y
 _atom_site_fract_z
 _atom_site_occupancy
  La  La0  1  0.376807  0.379094  0.251708  1
  La  La1  1  0.380120  0.999112  0.748283  1
  La  La2  1  0.617563  0.621415  0.748210  1
  La  La3  1  0.620902  0.997653  0.251774  1
  La  La4  1  0.002282  0.378874  0.748384  1
  Th  Th5  1  0.002746  0.622294  0.252256  1
  Sc  Sc6  1  0.000016  0.000386  0.998596  1
  Sc  Sc7  1  0.999982  0.000370  0.501424  1
  Bi  Bi8  1  0.670029  0.336637  0.001524  1
  Bi  Bi9  1  0.330294  0.666639  0.001572  1
  Bi  Bi10  1  0.669918  0.336556  0.498592  1
  Sb  Sb11  1  0.999101  0.259455  0.249611  1
  Sb  Sb12  1  0.329143  0.666537  0.497515  1
  Sb  Sb13  1  0.259004  0.257414  0.750449  1
  Sb  Sb14  1  0.741847  0.000181  0.750400  1
  Sb  Sb15  1  0.999227  0.739293  0.750441  1
  Sb  Sb16  1  0.744782  0.740447  0.249611  1
  Sb  Sb17  1  0.256237  0.997642  0.249651  1
