# generated using pymatgen
data_Lu4Al4Ir2PtRh
_symmetry_space_group_name_H-M   'P 1'
_cell_length_a   4.20705200
_cell_length_b   6.75896887
_cell_length_c   7.87802131
_cell_angle_alpha   90.10342118
_cell_angle_beta   90.00000000
_cell_angle_gamma   90.00000000
_symmetry_Int_Tables_number   1
_chemical_formula_structural   Lu4Al4Ir2PtRh
_chemical_formula_sum   'Lu4 Al4 Ir2 Pt1 Rh1'
_cell_volume   224.01379837
_cell_formula_units_Z   1
loop_
 _symmetry_equiv_pos_site_id
 _symmetry_equiv_pos_as_xyz
  1  'x, y, z'
loop_
 _atom_site_type_symbol
 _atom_site_label
 _atom_site_symmetry_multiplicity
 _atom_site_fract_x
 _atom_site_fract_y
 _atom_site_fract_z
 _atom_site_occupancy
  Lu  Lu0  1  0.250000  0.031932  0.674944  1
  Lu  Lu1  1  0.250000  0.538323  0.820292  1
  Lu  Lu2  1  0.750000  0.967478  0.323734  1
  Lu  Lu3  1  0.750000  0.465170  0.180368  1
  Al  Al4  1  0.250000  0.134973  0.062608  1
  Al  Al5  1  0.250000  0.636926  0.441401  1
  Al  Al6  1  0.750000  0.860509  0.940202  1
  Al  Al7  1  0.750000  0.364877  0.558485  1
  Ir  Ir8  1  0.250000  0.263769  0.375662  1
  Ir  Ir9  1  0.750000  0.739119  0.624581  1
  Pt  Pt10  1  0.750000  0.236303  0.875672  1
  Rh  Rh11  1  0.250000  0.760622  0.122051  1
