# generated using pymatgen
data_U2GaCo3
_symmetry_space_group_name_H-M   'P 1'
_cell_length_a   5.13603000
_cell_length_b   5.13602961
_cell_length_c   7.65101500
_cell_angle_alpha   90.00000000
_cell_angle_beta   90.00000000
_cell_angle_gamma   120.00000254
_symmetry_Int_Tables_number   1
_chemical_formula_structural   U2GaCo3
_chemical_formula_sum   'U4 Ga2 Co6'
_cell_volume   174.78523564
_cell_formula_units_Z   2
loop_
 _symmetry_equiv_pos_site_id
 _symmetry_equiv_pos_as_xyz
  1  'x, y, z'
loop_
 _atom_site_type_symbol
 _atom_site_label
 _atom_site_symmetry_multiplicity
 _atom_site_fract_x
 _atom_site_fract_y
 _atom_site_fract_z
 _atom_site_occupancy
  U  U0  1  0.333333  0.666667  0.427431  1
  U  U1  1  0.666667  0.333333  0.572569  1
  U  U2  1  0.666667  0.333333  0.927431  1
  U  U3  1  0.333333  0.666667  0.072569  1
  Ga  Ga4  1  0.000000  0.000000  0.500000  1
  Ga  Ga5  1  0.000000  0.000000  0.000000  1
  Co  Co6  1  0.828983  0.171017  0.250000  1
  Co  Co7  1  0.828983  0.657967  0.250000  1
  Co  Co8  1  0.342033  0.171017  0.250000  1
  Co  Co9  1  0.171017  0.828983  0.750000  1
  Co  Co10  1  0.171017  0.342033  0.750000  1
  Co  Co11  1  0.657967  0.828983  0.750000  1
