# generated using pymatgen
data_Sr3Ca7Au8
_symmetry_space_group_name_H-M   'P 1'
_cell_length_a   8.21980901
_cell_length_b   8.00351003
_cell_length_c   8.20371935
_cell_angle_alpha   70.25214075
_cell_angle_beta   89.96788938
_cell_angle_gamma   90.12565415
_symmetry_Int_Tables_number   1
_chemical_formula_structural   Sr3Ca7Au8
_chemical_formula_sum   'Sr3 Ca7 Au8'
_cell_volume   507.95850029
_cell_formula_units_Z   1
loop_
 _symmetry_equiv_pos_site_id
 _symmetry_equiv_pos_as_xyz
  1  'x, y, z'
loop_
 _atom_site_type_symbol
 _atom_site_label
 _atom_site_symmetry_multiplicity
 _atom_site_fract_x
 _atom_site_fract_y
 _atom_site_fract_z
 _atom_site_occupancy
  Sr  Sr0  1  0.326561  0.064927  0.309318  1
  Sr  Sr1  1  0.176117  0.566317  0.307822  1
  Sr  Sr2  1  0.823175  0.434276  0.691614  1
  Ca  Ca3  1  0.332639  0.251570  0.745480  1
  Ca  Ca4  1  0.998786  0.000177  0.998605  1
  Ca  Ca5  1  0.679062  0.930105  0.696139  1
  Ca  Ca6  1  0.828798  0.245303  0.254112  1
  Ca  Ca7  1  0.168926  0.753281  0.747109  1
  Ca  Ca8  1  0.668517  0.747503  0.253293  1
  Ca  Ca9  1  0.500758  0.502158  0.998147  1
  Au  Au10  1  0.867448  0.632124  0.992029  1
  Au  Au11  1  0.959303  0.860028  0.419657  1
  Au  Au12  1  0.129230  0.371423  0.003934  1
  Au  Au13  1  0.538868  0.359503  0.418005  1
  Au  Au14  1  0.371663  0.871211  0.001591  1
  Au  Au15  1  0.466142  0.645949  0.585544  1
  Au  Au16  1  0.033026  0.137131  0.585661  1
  Au  Au17  1  0.630982  0.127013  0.991942  1
