# generated using pymatgen
data_Ti4V6Si6N
_symmetry_space_group_name_H-M   'P 1'
_cell_length_a   7.27444142
_cell_length_b   7.26621839
_cell_length_c   4.89815948
_cell_angle_alpha   89.68499196
_cell_angle_beta   90.15732287
_cell_angle_gamma   119.96262457
_symmetry_Int_Tables_number   1
_chemical_formula_structural   Ti4V6Si6N
_chemical_formula_sum   'Ti4 V6 Si6 N1'
_cell_volume   224.29961454
_cell_formula_units_Z   1
loop_
 _symmetry_equiv_pos_site_id
 _symmetry_equiv_pos_as_xyz
  1  'x, y, z'
loop_
 _atom_site_type_symbol
 _atom_site_label
 _atom_site_symmetry_multiplicity
 _atom_site_fract_x
 _atom_site_fract_y
 _atom_site_fract_z
 _atom_site_occupancy
  Ti  Ti0  1  0.000000  0.765513  0.254943  1
  Ti  Ti1  1  0.236065  0.234912  0.257498  1
  Ti  Ti2  1  0.763935  0.998847  0.257498  1
  Ti  Ti3  1  0.000000  0.234722  0.748099  1
  V  V4  1  0.765597  0.765621  0.742214  1
  V  V5  1  0.234403  0.000024  0.742214  1
  V  V6  1  0.332689  0.666218  0.498576  1
  V  V7  1  0.667311  0.333527  0.498576  1
  V  V8  1  0.667365  0.333591  0.999512  1
  V  V9  1  0.332635  0.666228  0.999512  1
  Si  Si10  1  0.000000  0.405255  0.241711  1
  Si  Si11  1  0.594162  0.594274  0.239806  1
  Si  Si12  1  0.405838  0.000113  0.239806  1
  Si  Si13  1  0.000000  0.599418  0.758019  1
  Si  Si14  1  0.407596  0.406079  0.757997  1
  Si  Si15  1  0.592404  0.998483  0.757997  1
  N  N16  1  0.000000  0.997176  0.506021  1
