# generated using pymatgen
data_Tb4Er5Lu11Bi12
_symmetry_space_group_name_H-M   'P 1'
_cell_length_a   8.19252332
_cell_length_b   9.41177811
_cell_length_c   11.93698332
_cell_angle_alpha   90.00112445
_cell_angle_beta   89.97329941
_cell_angle_gamma   89.98282739
_symmetry_Int_Tables_number   1
_chemical_formula_structural   Tb4Er5Lu11Bi12
_chemical_formula_sum   'Tb4 Er5 Lu11 Bi12'
_cell_volume   920.41542021
_cell_formula_units_Z   1
loop_
 _symmetry_equiv_pos_site_id
 _symmetry_equiv_pos_as_xyz
  1  'x, y, z'
loop_
 _atom_site_type_symbol
 _atom_site_label
 _atom_site_symmetry_multiplicity
 _atom_site_fract_x
 _atom_site_fract_y
 _atom_site_fract_z
 _atom_site_occupancy
  Tb  Tb0  1  0.313321  0.249986  0.218198  1
  Tb  Tb1  1  0.813183  0.250006  0.281830  1
  Tb  Tb2  1  0.686804  0.750151  0.781672  1
  Tb  Tb3  1  0.186800  0.750018  0.718156  1
  Er  Er4  1  0.352284  0.750183  0.217954  1
  Er  Er5  1  0.852681  0.750326  0.282321  1
  Er  Er6  1  0.647655  0.250129  0.782184  1
  Er  Er7  1  0.147570  0.250005  0.717871  1
  Er  Er8  1  0.692383  0.565916  0.059577  1
  Lu  Lu9  1  0.192651  0.933136  0.440424  1
  Lu  Lu10  1  0.307291  0.066748  0.940369  1
  Lu  Lu11  1  0.807355  0.433156  0.559592  1
  Lu  Lu12  1  0.307553  0.433145  0.940459  1
  Lu  Lu13  1  0.807325  0.066794  0.559575  1
  Lu  Lu14  1  0.692547  0.933384  0.059617  1
  Lu  Lu15  1  0.192669  0.566887  0.440461  1
  Lu  Lu16  1  0.476781  0.250096  0.489008  1
  Lu  Lu17  1  0.976904  0.249995  0.010999  1
  Lu  Lu18  1  0.523229  0.749984  0.511014  1
  Lu  Lu19  1  0.023590  0.750213  0.988902  1
  Bi  Bi20  1  0.403549  0.750296  0.959115  1
  Bi  Bi21  1  0.903770  0.749969  0.540788  1
  Bi  Bi22  1  0.595911  0.248949  0.040593  1
  Bi  Bi23  1  0.096273  0.249989  0.459223  1
  Bi  Bi24  1  0.565520  0.994498  0.326639  1
  Bi  Bi25  1  0.065716  0.505606  0.173485  1
  Bi  Bi26  1  0.434344  0.494477  0.673357  1
  Bi  Bi27  1  0.934506  0.005633  0.826535  1
  Bi  Bi28  1  0.434416  0.005600  0.673413  1
  Bi  Bi29  1  0.934345  0.494558  0.826500  1
  Bi  Bi30  1  0.565459  0.505635  0.326694  1
  Bi  Bi31  1  0.065617  0.994531  0.173476  1
