# generated using pymatgen
data_Eu4ScTiO8
_symmetry_space_group_name_H-M   'P 1'
_cell_length_a   6.73842814
_cell_length_b   6.73842737
_cell_length_c   5.76026247
_cell_angle_alpha   89.92128030
_cell_angle_beta   90.07872006
_cell_angle_gamma   130.80796788
_symmetry_Int_Tables_number   1
_chemical_formula_structural   Eu4ScTiO8
_chemical_formula_sum   'Eu4 Sc1 Ti1 O8'
_cell_volume   197.97020540
_cell_formula_units_Z   1
loop_
 _symmetry_equiv_pos_site_id
 _symmetry_equiv_pos_as_xyz
  1  'x, y, z'
loop_
 _atom_site_type_symbol
 _atom_site_label
 _atom_site_symmetry_multiplicity
 _atom_site_fract_x
 _atom_site_fract_y
 _atom_site_fract_z
 _atom_site_occupancy
  Eu  Eu0  1  0.355821  0.644179  0.983687  1
  Eu  Eu1  1  0.145093  0.854907  0.483021  1
  Eu  Eu2  1  0.854907  0.145093  0.516979  1
  Eu  Eu3  1  0.644179  0.355821  0.016313  1
  Sc  Sc4  1  0.000000  0.000000  0.000000  1
  Ti  Ti5  1  0.500000  0.500000  0.500000  1
  O  O6  1  0.763078  0.724592  0.741233  1
  O  O7  1  0.724592  0.763078  0.258767  1
  O  O8  1  0.336018  0.663982  0.561146  1
  O  O9  1  0.170990  0.829010  0.066306  1
  O  O10  1  0.829010  0.170990  0.933694  1
  O  O11  1  0.663982  0.336018  0.438854  1
  O  O12  1  0.236922  0.275408  0.258767  1
  O  O13  1  0.275408  0.236922  0.741233  1
