# generated using pymatgen
data_Tb2YbY(W2O7)2
_symmetry_space_group_name_H-M   'P 1'
_cell_length_a   7.34365211
_cell_length_b   7.34365203
_cell_length_c   7.45663030
_cell_angle_alpha   60.58017939
_cell_angle_beta   60.58017518
_cell_angle_gamma   60.05763836
_symmetry_Int_Tables_number   1
_chemical_formula_structural   Tb2YbY(W2O7)2
_chemical_formula_sum   'Tb2 Yb1 Y1 W4 O14'
_cell_volume   286.94403980
_cell_formula_units_Z   1
loop_
 _symmetry_equiv_pos_site_id
 _symmetry_equiv_pos_as_xyz
  1  'x, y, z'
loop_
 _atom_site_type_symbol
 _atom_site_label
 _atom_site_symmetry_multiplicity
 _atom_site_fract_x
 _atom_site_fract_y
 _atom_site_fract_z
 _atom_site_occupancy
  Tb  Tb0  1  0.000000  0.500000  0.500000  1
  Tb  Tb1  1  0.500000  0.000000  0.500000  1
  Yb  Yb2  1  0.500000  0.500000  0.000000  1
  Y  Y3  1  0.500000  0.500000  0.500000  1
  W  W4  1  0.500000  0.000000  0.000000  1
  W  W5  1  0.000000  0.500000  0.000000  1
  W  W6  1  0.000000  0.000000  0.000000  1
  W  W7  1  0.000000  0.000000  0.500000  1
  O  O8  1  0.373275  0.373275  0.381454  1
  O  O9  1  0.626725  0.626725  0.618546  1
  O  O10  1  0.083672  0.672337  0.660353  1
  O  O11  1  0.338161  0.924836  0.898931  1
  O  O12  1  0.672337  0.083672  0.660353  1
  O  O13  1  0.084241  0.084241  0.659880  1
  O  O14  1  0.662133  0.662133  0.102640  1
  O  O15  1  0.075164  0.661839  0.101069  1
  O  O16  1  0.661839  0.075164  0.101069  1
  O  O17  1  0.337867  0.337867  0.897360  1
  O  O18  1  0.915759  0.915759  0.340120  1
  O  O19  1  0.916328  0.327663  0.339647  1
  O  O20  1  0.924836  0.338161  0.898931  1
  O  O21  1  0.327663  0.916328  0.339647  1
