# generated using pymatgen
data_Tm2B4Ru5
_symmetry_space_group_name_H-M   'P 1'
_cell_length_a   3.04517800
_cell_length_b   8.77943987
_cell_length_c   10.16677001
_cell_angle_alpha   90.00007732
_cell_angle_beta   90.00000000
_cell_angle_gamma   90.00000000
_symmetry_Int_Tables_number   1
_chemical_formula_structural   Tm2B4Ru5
_chemical_formula_sum   'Tm4 B8 Ru10'
_cell_volume   271.80816038
_cell_formula_units_Z   2
loop_
 _symmetry_equiv_pos_site_id
 _symmetry_equiv_pos_as_xyz
  1  'x, y, z'
loop_
 _atom_site_type_symbol
 _atom_site_label
 _atom_site_symmetry_multiplicity
 _atom_site_fract_x
 _atom_site_fract_y
 _atom_site_fract_z
 _atom_site_occupancy
  Tm  Tm0  1  0.500000  0.838594  0.181726  1
  Tm  Tm1  1  0.500000  0.161406  0.818274  1
  Tm  Tm2  1  0.500000  0.661353  0.681786  1
  Tm  Tm3  1  0.500000  0.338647  0.318214  1
  B  B4  1  0.500000  0.967597  0.587116  1
  B  B5  1  0.500000  0.032403  0.412884  1
  B  B6  1  0.500000  0.854204  0.899133  1
  B  B7  1  0.500000  0.145796  0.100867  1
  B  B8  1  0.500000  0.645865  0.399167  1
  B  B9  1  0.500000  0.354135  0.600833  1
  B  B10  1  0.500000  0.467547  0.912924  1
  B  B11  1  0.500000  0.532453  0.087076  1
  Ru  Ru12  1  0.000000  0.663246  0.952890  1
  Ru  Ru13  1  0.000000  0.336754  0.047110  1
  Ru  Ru14  1  0.000000  0.836712  0.452895  1
  Ru  Ru15  1  0.000000  0.163288  0.547105  1
  Ru  Ru16  1  0.000000  0.000000  0.000000  1
  Ru  Ru17  1  0.000000  0.408789  0.762336  1
  Ru  Ru18  1  0.000000  0.591211  0.237664  1
  Ru  Ru19  1  0.000000  0.500000  0.500000  1
  Ru  Ru20  1  0.000000  0.908818  0.737666  1
  Ru  Ru21  1  0.000000  0.091182  0.262334  1
