# generated using pymatgen
data_MgS2(O3F)2
_symmetry_space_group_name_H-M   'P 1'
_cell_length_a   6.92367590
_cell_length_b   6.92367539
_cell_length_c   8.95412000
_cell_angle_alpha   113.13646097
_cell_angle_beta   102.89850203
_cell_angle_gamma   101.72186621
_symmetry_Int_Tables_number   1
_chemical_formula_structural   MgS2(O3F)2
_chemical_formula_sum   'Mg2 S4 O12 F4'
_cell_volume   363.93304252
_cell_formula_units_Z   2
loop_
 _symmetry_equiv_pos_site_id
 _symmetry_equiv_pos_as_xyz
  1  'x, y, z'
loop_
 _atom_site_type_symbol
 _atom_site_label
 _atom_site_symmetry_multiplicity
 _atom_site_fract_x
 _atom_site_fract_y
 _atom_site_fract_z
 _atom_site_occupancy
  Mg  Mg0  1  0.671722  0.421722  0.750000  1
  Mg  Mg1  1  0.328278  0.578278  0.250000  1
  S  S2  1  0.169194  0.364097  0.807442  1
  S  S3  1  0.556654  0.861752  0.692558  1
  S  S4  1  0.830806  0.635903  0.192558  1
  S  S5  1  0.443346  0.138248  0.307442  1
  O  O6  1  0.341875  0.402332  0.744366  1
  O  O7  1  0.657966  0.097510  0.755634  1
  O  O8  1  0.658125  0.597668  0.255634  1
  O  O9  1  0.342034  0.902490  0.244366  1
  O  O10  1  0.995888  0.435154  0.749177  1
  O  O11  1  0.685978  0.746712  0.750823  1
  O  O12  1  0.004112  0.564846  0.250823  1
  O  O13  1  0.314022  0.253288  0.249177  1
  O  O14  1  0.232960  0.422709  0.990000  1
  O  O15  1  0.432709  0.742961  0.510000  1
  O  O16  1  0.767040  0.577291  0.010000  1
  O  O17  1  0.567291  0.257039  0.490000  1
  F  F18  1  0.073624  0.099930  0.716339  1
  F  F19  1  0.383591  0.857283  0.783661  1
  F  F20  1  0.926376  0.900070  0.283661  1
  F  F21  1  0.616409  0.142717  0.216339  1
