# generated using pymatgen
data_Ca3Ac6NdSn6
_symmetry_space_group_name_H-M   'P 1'
_cell_length_a   9.68547100
_cell_length_b   9.68547081
_cell_length_c   7.08299500
_cell_angle_alpha   90.00000000
_cell_angle_beta   90.00000000
_cell_angle_gamma   119.99999724
_symmetry_Int_Tables_number   1
_chemical_formula_structural   Ca3Ac6NdSn6
_chemical_formula_sum   'Ca3 Ac6 Nd1 Sn6'
_cell_volume   575.42544279
_cell_formula_units_Z   1
loop_
 _symmetry_equiv_pos_site_id
 _symmetry_equiv_pos_as_xyz
  1  'x, y, z'
loop_
 _atom_site_type_symbol
 _atom_site_label
 _atom_site_symmetry_multiplicity
 _atom_site_fract_x
 _atom_site_fract_y
 _atom_site_fract_z
 _atom_site_occupancy
  Ca  Ca0  1  0.333333  0.666667  0.000000  1
  Ca  Ca1  1  0.666667  0.333333  0.500000  1
  Ca  Ca2  1  0.666667  0.333333  0.000000  1
  Ac  Ac3  1  0.255710  0.003370  0.250089  1
  Ac  Ac4  1  0.255710  0.252340  0.749911  1
  Ac  Ac5  1  0.996630  0.744290  0.749911  1
  Ac  Ac6  1  0.996630  0.252340  0.250089  1
  Ac  Ac7  1  0.747660  0.744290  0.250089  1
  Ac  Ac8  1  0.747660  0.003370  0.749911  1
  Nd  Nd9  1  0.333333  0.666667  0.500000  1
  Sn  Sn10  1  0.602598  0.995371  0.251372  1
  Sn  Sn11  1  0.602598  0.607227  0.748628  1
  Sn  Sn12  1  0.004629  0.397402  0.748628  1
  Sn  Sn13  1  0.004629  0.607227  0.251372  1
  Sn  Sn14  1  0.392773  0.397402  0.251372  1
  Sn  Sn15  1  0.392773  0.995371  0.748628  1
