# generated using pymatgen
data_HoTm3Pd3PtO14
_symmetry_space_group_name_H-M   'P 1'
_cell_length_a   7.20447579
_cell_length_b   7.19608972
_cell_length_c   7.20447600
_cell_angle_alpha   59.96144158
_cell_angle_beta   59.99999906
_cell_angle_gamma   59.96144189
_symmetry_Int_Tables_number   1
_chemical_formula_structural   HoTm3Pd3PtO14
_chemical_formula_sum   'Ho1 Tm3 Pd3 Pt1 O14'
_cell_volume   263.95688689
_cell_formula_units_Z   1
loop_
 _symmetry_equiv_pos_site_id
 _symmetry_equiv_pos_as_xyz
  1  'x, y, z'
loop_
 _atom_site_type_symbol
 _atom_site_label
 _atom_site_symmetry_multiplicity
 _atom_site_fract_x
 _atom_site_fract_y
 _atom_site_fract_z
 _atom_site_occupancy
  Ho  Ho0  1  0.625000  0.125000  0.625000  1
  Tm  Tm1  1  0.625000  0.625000  0.125000  1
  Tm  Tm2  1  0.625000  0.625000  0.625000  1
  Tm  Tm3  1  0.125000  0.625000  0.625000  1
  Pd  Pd4  1  0.125000  0.125000  0.125000  1
  Pd  Pd5  1  0.625000  0.125000  0.125000  1
  Pd  Pd6  1  0.125000  0.125000  0.625000  1
  Pt  Pt7  1  0.125000  0.625000  0.125000  1
  O  O8  1  0.031983  0.469013  0.467021  1
  O  O9  1  0.782979  0.780987  0.218017  1
  O  O10  1  0.782947  0.218115  0.215992  1
  O  O11  1  0.467053  0.031885  0.467053  1
  O  O12  1  0.034008  0.031885  0.467053  1
  O  O13  1  0.031983  0.469013  0.031983  1
  O  O14  1  0.751103  0.746691  0.751103  1
  O  O15  1  0.498897  0.503309  0.498897  1
  O  O16  1  0.782947  0.218115  0.782947  1
  O  O17  1  0.218017  0.780987  0.218017  1
  O  O18  1  0.215992  0.218115  0.782947  1
  O  O19  1  0.467053  0.031885  0.034008  1
  O  O20  1  0.467021  0.469013  0.031983  1
  O  O21  1  0.218017  0.780987  0.782979  1
