# generated using pymatgen
data_Er4Tm6BiPb5
_symmetry_space_group_name_H-M   'P 1'
_cell_length_a   6.48554300
_cell_length_b   8.98870356
_cell_length_c   8.98623003
_cell_angle_alpha   120.00911247
_cell_angle_beta   90.00028552
_cell_angle_gamma   89.99941101
_symmetry_Int_Tables_number   1
_chemical_formula_structural   Er4Tm6BiPb5
_chemical_formula_sum   'Er4 Tm6 Bi1 Pb5'
_cell_volume   453.64035171
_cell_formula_units_Z   1
loop_
 _symmetry_equiv_pos_site_id
 _symmetry_equiv_pos_as_xyz
  1  'x, y, z'
loop_
 _atom_site_type_symbol
 _atom_site_label
 _atom_site_symmetry_multiplicity
 _atom_site_fract_x
 _atom_site_fract_y
 _atom_site_fract_z
 _atom_site_occupancy
  Er  Er0  1  0.750006  0.235041  0.000000  1
  Er  Er1  1  0.749993  0.764545  0.760584  1
  Er  Er2  1  0.749993  0.003961  0.239416  1
  Er  Er3  1  0.250010  0.763258  0.000000  1
  Tm  Tm4  1  0.499040  0.331370  0.664317  1
  Tm  Tm5  1  0.499040  0.667053  0.335683  1
  Tm  Tm6  1  0.000964  0.667058  0.335690  1
  Tm  Tm7  1  0.000964  0.331368  0.664310  1
  Tm  Tm8  1  0.250003  0.236681  0.237286  1
  Tm  Tm9  1  0.250003  0.999395  0.762714  1
  Bi  Bi10  1  0.749991  0.606704  0.000000  1
  Pb  Pb11  1  0.749989  0.395437  0.394940  1
  Pb  Pb12  1  0.749989  0.000497  0.605060  1
  Pb  Pb13  1  0.249990  0.393608  0.000000  1
  Pb  Pb14  1  0.250013  0.605337  0.606650  1
  Pb  Pb15  1  0.250013  0.998687  0.393350  1
