# generated using pymatgen
data_Yb2Al4Si2Pd
_symmetry_space_group_name_H-M   'P 1'
_cell_length_a   4.22832048
_cell_length_b   4.22832373
_cell_length_c   10.52097700
_cell_angle_alpha   101.58950723
_cell_angle_beta   101.58948860
_cell_angle_gamma   90.03657687
_symmetry_Int_Tables_number   1
_chemical_formula_structural   Yb2Al4Si2Pd
_chemical_formula_sum   'Yb2 Al4 Si2 Pd1'
_cell_volume   180.34485738
_cell_formula_units_Z   1
loop_
 _symmetry_equiv_pos_site_id
 _symmetry_equiv_pos_as_xyz
  1  'x, y, z'
loop_
 _atom_site_type_symbol
 _atom_site_label
 _atom_site_symmetry_multiplicity
 _atom_site_fract_x
 _atom_site_fract_y
 _atom_site_fract_z
 _atom_site_occupancy
  Yb  Yb0  1  0.187380  0.187381  0.375278  1
  Yb  Yb1  1  0.812621  0.812621  0.624722  1
  Al  Al2  1  0.571152  0.071012  0.142390  1
  Al  Al3  1  0.071012  0.571152  0.142390  1
  Al  Al4  1  0.928989  0.428849  0.857610  1
  Al  Al5  1  0.428850  0.928989  0.857610  1
  Si  Si6  1  0.650669  0.650669  0.302001  1
  Si  Si7  1  0.349331  0.349332  0.697999  1
  Pd  Pd8  1  0.000002  0.000000  0.000000  1
