# generated using pymatgen
data_Tb2Yb3Sm(CoSn6)2
_symmetry_space_group_name_H-M   'P 1'
_cell_length_a   8.44473264
_cell_length_b   8.44473220
_cell_length_c   13.26863169
_cell_angle_alpha   90.07314333
_cell_angle_beta   89.92686240
_cell_angle_gamma   148.05178607
_symmetry_Int_Tables_number   1
_chemical_formula_structural   Tb2Yb3Sm(CoSn6)2
_chemical_formula_sum   'Tb2 Yb3 Sm1 Co2 Sn12'
_cell_volume   500.70097314
_cell_formula_units_Z   1
loop_
 _symmetry_equiv_pos_site_id
 _symmetry_equiv_pos_as_xyz
  1  'x, y, z'
loop_
 _atom_site_type_symbol
 _atom_site_label
 _atom_site_symmetry_multiplicity
 _atom_site_fract_x
 _atom_site_fract_y
 _atom_site_fract_z
 _atom_site_occupancy
  Tb  Tb0  1  0.901093  0.098907  0.753687  1
  Tb  Tb1  1  0.099023  0.900977  0.248990  1
  Yb  Yb2  1  0.100790  0.899210  0.597423  1
  Yb  Yb3  1  0.101034  0.898966  0.902702  1
  Yb  Yb4  1  0.899755  0.100245  0.402786  1
  Sm  Sm5  1  0.899173  0.100827  0.093981  1
  Co  Co6  1  0.298697  0.701303  0.250056  1
  Co  Co7  1  0.702759  0.297241  0.749562  1
  Sn  Sn8  1  0.758940  0.241060  0.572168  1
  Sn  Sn9  1  0.426057  0.573943  0.578444  1
  Sn  Sn10  1  0.573058  0.426942  0.423436  1
  Sn  Sn11  1  0.733425  0.266575  0.249116  1
  Sn  Sn12  1  0.266678  0.733322  0.749915  1
  Sn  Sn13  1  0.241013  0.758987  0.072261  1
  Sn  Sn14  1  0.242462  0.757538  0.427837  1
  Sn  Sn15  1  0.572226  0.427774  0.075840  1
  Sn  Sn16  1  0.455080  0.544920  0.250330  1
  Sn  Sn17  1  0.545820  0.454180  0.749598  1
  Sn  Sn18  1  0.755839  0.244161  0.928618  1
  Sn  Sn19  1  0.427077  0.572923  0.923254  1
