# generated using pymatgen
data_TbLu3(WN2)4
_symmetry_space_group_name_H-M   'P 1'
_cell_length_a   3.16904200
_cell_length_b   5.66595216
_cell_length_c   10.48174749
_cell_angle_alpha   90.15440525
_cell_angle_beta   90.00000000
_cell_angle_gamma   90.00000000
_symmetry_Int_Tables_number   1
_chemical_formula_structural   TbLu3(WN2)4
_chemical_formula_sum   'Tb1 Lu3 W4 N8'
_cell_volume   188.20580482
_cell_formula_units_Z   1
loop_
 _symmetry_equiv_pos_site_id
 _symmetry_equiv_pos_as_xyz
  1  'x, y, z'
loop_
 _atom_site_type_symbol
 _atom_site_label
 _atom_site_symmetry_multiplicity
 _atom_site_fract_x
 _atom_site_fract_y
 _atom_site_fract_z
 _atom_site_occupancy
  Tb  Tb0  1  0.750000  0.419619  0.354318  1
  Lu  Lu1  1  0.250000  0.078718  0.854566  1
  Lu  Lu2  1  0.250000  0.579049  0.646637  1
  Lu  Lu3  1  0.750000  0.921041  0.144485  1
  W  W4  1  0.250000  0.433251  0.094026  1
  W  W5  1  0.250000  0.930953  0.404491  1
  W  W6  1  0.750000  0.567798  0.904447  1
  W  W7  1  0.750000  0.067560  0.596326  1
  N  N8  1  0.250000  0.160816  0.246072  1
  N  N9  1  0.250000  0.669594  0.248886  1
  N  N10  1  0.750000  0.835387  0.752887  1
  N  N11  1  0.750000  0.336015  0.748232  1
  N  N12  1  0.250000  0.768587  0.993779  1
  N  N13  1  0.250000  0.264518  0.509132  1
  N  N14  1  0.750000  0.232221  0.004717  1
  N  N15  1  0.750000  0.734873  0.496999  1
