# generated using pymatgen
data_Eu6MgCd32
_symmetry_space_group_name_H-M   'P 1'
_cell_length_a   9.85389200
_cell_length_b   9.85389200
_cell_length_c   9.85389200
_cell_angle_alpha   90.00000000
_cell_angle_beta   90.00000000
_cell_angle_gamma   90.00000000
_symmetry_Int_Tables_number   1
_chemical_formula_structural   Eu6MgCd32
_chemical_formula_sum   'Eu6 Mg1 Cd32'
_cell_volume   956.80490738
_cell_formula_units_Z   1
loop_
 _symmetry_equiv_pos_site_id
 _symmetry_equiv_pos_as_xyz
  1  'x, y, z'
loop_
 _atom_site_type_symbol
 _atom_site_label
 _atom_site_symmetry_multiplicity
 _atom_site_fract_x
 _atom_site_fract_y
 _atom_site_fract_z
 _atom_site_occupancy
  Eu  Eu0  1  0.203425  0.000000  0.500000  1
  Eu  Eu1  1  0.796575  0.000000  0.500000  1
  Eu  Eu2  1  0.500000  0.203425  0.000000  1
  Eu  Eu3  1  0.500000  0.796575  0.000000  1
  Eu  Eu4  1  0.000000  0.500000  0.203425  1
  Eu  Eu5  1  0.000000  0.500000  0.796575  1
  Mg  Mg6  1  0.000000  0.000000  0.000000  1
  Cd  Cd7  1  0.328321  0.500000  0.000000  1
  Cd  Cd8  1  0.671679  0.500000  0.000000  1
  Cd  Cd9  1  0.000000  0.328321  0.500000  1
  Cd  Cd10  1  0.000000  0.671679  0.500000  1
  Cd  Cd11  1  0.500000  0.000000  0.328321  1
  Cd  Cd12  1  0.500000  0.000000  0.671679  1
  Cd  Cd13  1  0.281677  0.281677  0.281677  1
  Cd  Cd14  1  0.718323  0.718323  0.718323  1
  Cd  Cd15  1  0.718323  0.718323  0.281677  1
  Cd  Cd16  1  0.718323  0.281677  0.718323  1
  Cd  Cd17  1  0.281677  0.281677  0.718323  1
  Cd  Cd18  1  0.281677  0.718323  0.281677  1
  Cd  Cd19  1  0.281677  0.718323  0.718323  1
  Cd  Cd20  1  0.718323  0.281677  0.281677  1
  Cd  Cd21  1  0.264174  0.500000  0.500000  1
  Cd  Cd22  1  0.735826  0.500000  0.500000  1
  Cd  Cd23  1  0.500000  0.264174  0.500000  1
  Cd  Cd24  1  0.500000  0.735826  0.500000  1
  Cd  Cd25  1  0.500000  0.500000  0.264174  1
  Cd  Cd26  1  0.500000  0.500000  0.735826  1
  Cd  Cd27  1  0.000000  0.152389  0.262604  1
  Cd  Cd28  1  0.000000  0.847611  0.737396  1
  Cd  Cd29  1  0.000000  0.847611  0.262604  1
  Cd  Cd30  1  0.000000  0.152389  0.737396  1
  Cd  Cd31  1  0.262604  0.000000  0.152389  1
  Cd  Cd32  1  0.737396  0.000000  0.847611  1
  Cd  Cd33  1  0.262604  0.000000  0.847611  1
  Cd  Cd34  1  0.737396  0.000000  0.152389  1
  Cd  Cd35  1  0.152389  0.262604  0.000000  1
  Cd  Cd36  1  0.847611  0.737396  0.000000  1
  Cd  Cd37  1  0.152389  0.737396  0.000000  1
  Cd  Cd38  1  0.847611  0.262604  0.000000  1
