# generated using pymatgen
data_ThCoP3Ru4
_symmetry_space_group_name_H-M   'P 1'
_cell_length_a   3.89384800
_cell_length_b   10.79964800
_cell_length_c   12.38568700
_cell_angle_alpha   90.00000000
_cell_angle_beta   90.00000000
_cell_angle_gamma   90.00000000
_symmetry_Int_Tables_number   1
_chemical_formula_structural   ThCoP3Ru4
_chemical_formula_sum   'Th4 Co4 P12 Ru16'
_cell_volume   520.84523533
_cell_formula_units_Z   4
loop_
 _symmetry_equiv_pos_site_id
 _symmetry_equiv_pos_as_xyz
  1  'x, y, z'
loop_
 _atom_site_type_symbol
 _atom_site_label
 _atom_site_symmetry_multiplicity
 _atom_site_fract_x
 _atom_site_fract_y
 _atom_site_fract_z
 _atom_site_occupancy
  Th  Th0  1  0.250000  0.584460  0.705360  1
  Th  Th1  1  0.250000  0.915540  0.205360  1
  Th  Th2  1  0.750000  0.415540  0.294640  1
  Th  Th3  1  0.750000  0.084460  0.794640  1
  Co  Co4  1  0.250000  0.464398  0.937099  1
  Co  Co5  1  0.250000  0.035602  0.437099  1
  Co  Co6  1  0.750000  0.535602  0.062901  1
  Co  Co7  1  0.750000  0.964398  0.562901  1
  P  P8  1  0.250000  0.422559  0.106617  1
  P  P9  1  0.250000  0.077441  0.606617  1
  P  P10  1  0.750000  0.577441  0.893383  1
  P  P11  1  0.750000  0.922559  0.393383  1
  P  P12  1  0.250000  0.277679  0.869488  1
  P  P13  1  0.250000  0.222321  0.369488  1
  P  P14  1  0.750000  0.722321  0.130512  1
  P  P15  1  0.750000  0.777679  0.630512  1
  P  P16  1  0.250000  0.603843  0.393786  1
  P  P17  1  0.250000  0.896157  0.893786  1
  P  P18  1  0.750000  0.396157  0.606214  1
  P  P19  1  0.750000  0.103843  0.106214  1
  Ru  Ru20  1  0.250000  0.707184  0.986477  1
  Ru  Ru21  1  0.250000  0.792816  0.486477  1
  Ru  Ru22  1  0.750000  0.292816  0.013523  1
  Ru  Ru23  1  0.750000  0.207184  0.513523  1
  Ru  Ru24  1  0.250000  0.403167  0.485263  1
  Ru  Ru25  1  0.250000  0.096833  0.985263  1
  Ru  Ru26  1  0.750000  0.596833  0.514737  1
  Ru  Ru27  1  0.750000  0.903167  0.014737  1
  Ru  Ru28  1  0.250000  0.227199  0.176379  1
  Ru  Ru29  1  0.250000  0.272801  0.676379  1
  Ru  Ru30  1  0.750000  0.772801  0.823621  1
  Ru  Ru31  1  0.750000  0.727199  0.323621  1
  Ru  Ru32  1  0.250000  0.889267  0.698412  1
  Ru  Ru33  1  0.250000  0.610733  0.198412  1
  Ru  Ru34  1  0.750000  0.110733  0.301588  1
  Ru  Ru35  1  0.750000  0.389267  0.801588  1
