# generated using pymatgen
data_Tb16Yb3InIr12
_symmetry_space_group_name_H-M   'P 1'
_cell_length_a   10.90514100
_cell_length_b   10.90514100
_cell_length_c   6.31866400
_cell_angle_alpha   90.00000000
_cell_angle_beta   90.00000000
_cell_angle_gamma   90.00000000
_symmetry_Int_Tables_number   1
_chemical_formula_structural   Tb16Yb3InIr12
_chemical_formula_sum   'Tb16 Yb3 In1 Ir12'
_cell_volume   751.42879353
_cell_formula_units_Z   1
loop_
 _symmetry_equiv_pos_site_id
 _symmetry_equiv_pos_as_xyz
  1  'x, y, z'
loop_
 _atom_site_type_symbol
 _atom_site_label
 _atom_site_symmetry_multiplicity
 _atom_site_fract_x
 _atom_site_fract_y
 _atom_site_fract_z
 _atom_site_occupancy
  Tb  Tb0  1  0.283488  0.087614  0.382204  1
  Tb  Tb1  1  0.289358  0.911295  0.880888  1
  Tb  Tb2  1  0.710642  0.088705  0.880888  1
  Tb  Tb3  1  0.716512  0.912386  0.382204  1
  Tb  Tb4  1  0.588899  0.791144  0.883226  1
  Tb  Tb5  1  0.589705  0.208922  0.380071  1
  Tb  Tb6  1  0.410295  0.791078  0.380071  1
  Tb  Tb7  1  0.411101  0.208856  0.883226  1
  Tb  Tb8  1  0.208922  0.410295  0.619929  1
  Tb  Tb9  1  0.208856  0.588899  0.116774  1
  Tb  Tb10  1  0.791144  0.411101  0.116774  1
  Tb  Tb11  1  0.791078  0.589705  0.619929  1
  Tb  Tb12  1  0.911295  0.710642  0.119112  1
  Tb  Tb13  1  0.912386  0.283488  0.617796  1
  Tb  Tb14  1  0.087614  0.716512  0.617796  1
  Tb  Tb15  1  0.088705  0.289358  0.119112  1
  Yb  Yb16  1  0.000000  0.000000  0.000000  1
  Yb  Yb17  1  0.500000  0.500000  0.000000  1
  Yb  Yb18  1  0.500000  0.500000  0.500000  1
  In  In19  1  0.000000  0.000000  0.500000  1
  Ir  Ir20  1  0.845117  0.156332  0.248441  1
  Ir  Ir21  1  0.843668  0.845117  0.751559  1
  Ir  Ir22  1  0.156332  0.154883  0.751559  1
  Ir  Ir23  1  0.154883  0.843668  0.248441  1
  Ir  Ir24  1  0.658294  0.342513  0.747505  1
  Ir  Ir25  1  0.657487  0.658294  0.252495  1
  Ir  Ir26  1  0.342513  0.341706  0.252495  1
  Ir  Ir27  1  0.341706  0.657487  0.747505  1
  Ir  Ir28  1  0.500000  0.000000  0.124913  1
  Ir  Ir29  1  0.500000  0.000000  0.619225  1
  Ir  Ir30  1  0.000000  0.500000  0.875087  1
  Ir  Ir31  1  0.000000  0.500000  0.380775  1
