# generated using pymatgen
data_Pr2Al16IrPt8
_symmetry_space_group_name_H-M   'P 1'
_cell_length_a   11.17309300
_cell_length_b   11.17309333
_cell_length_c   11.17316992
_cell_angle_alpha   158.40199836
_cell_angle_beta   115.74589549
_cell_angle_gamma   68.64291036
_symmetry_Int_Tables_number   1
_chemical_formula_structural   Pr2Al16IrPt8
_chemical_formula_sum   'Pr2 Al16 Ir1 Pt8'
_cell_volume   459.13209870
_cell_formula_units_Z   1
loop_
 _symmetry_equiv_pos_site_id
 _symmetry_equiv_pos_as_xyz
  1  'x, y, z'
loop_
 _atom_site_type_symbol
 _atom_site_label
 _atom_site_symmetry_multiplicity
 _atom_site_fract_x
 _atom_site_fract_y
 _atom_site_fract_z
 _atom_site_occupancy
  Pr  Pr0  1  0.229183  0.229217  0.999973  1
  Pr  Pr1  1  0.770756  0.770790  0.999973  1
  Al  Al2  1  0.274625  0.392191  0.882510  1
  Al  Al3  1  0.093080  0.922287  0.170845  1
  Al  Al4  1  0.509132  0.203430  0.305674  1
  Al  Al5  1  0.248558  0.077764  0.170845  1
  Al  Al6  1  0.912535  0.415272  0.497187  1
  Al  Al7  1  0.723409  0.603403  0.119914  1
  Al  Al8  1  0.898086  0.205369  0.692777  1
  Al  Al9  1  0.487408  0.794690  0.692777  1
  Al  Al10  1  0.388138  0.000043  0.388181  1
  Al  Al11  1  0.621605  0.999958  0.621562  1
  Al  Al12  1  0.490321  0.607885  0.882510  1
  Al  Al13  1  0.102245  0.796541  0.305674  1
  Al  Al14  1  0.903430  0.080115  0.823315  1
  Al  Al15  1  0.743200  0.919886  0.823315  1
  Al  Al16  1  0.516509  0.396505  0.119914  1
  Al  Al17  1  0.081915  0.584652  0.497187  1
  Ir  Ir18  1  0.760529  0.500015  0.260544  1
  Pt  Pt19  1  0.026862  0.341451  0.685426  1
  Pt  Pt20  1  0.626084  0.124664  0.501412  1
  Pt  Pt21  1  0.254264  0.500058  0.754321  1
  Pt  Pt22  1  0.376748  0.875328  0.501412  1
  Pt  Pt23  1  0.994167  0.999915  0.994081  1
  Pt  Pt24  1  0.650625  0.339012  0.311623  1
  Pt  Pt25  1  0.343976  0.658565  0.685426  1
  Pt  Pt26  1  0.972611  0.660998  0.311623  1
