# generated using pymatgen
data_Ac9Tb11Sn16
_symmetry_space_group_name_H-M   'P 1'
_cell_length_a   8.45239400
_cell_length_b   8.50903010
_cell_length_c   16.24604400
_cell_angle_alpha   90.00000000
_cell_angle_beta   90.00000000
_cell_angle_gamma   90.06861465
_symmetry_Int_Tables_number   1
_chemical_formula_structural   Ac9Tb11Sn16
_chemical_formula_sum   'Ac9 Tb11 Sn16'
_cell_volume   1168.44185836
_cell_formula_units_Z   1
loop_
 _symmetry_equiv_pos_site_id
 _symmetry_equiv_pos_as_xyz
  1  'x, y, z'
loop_
 _atom_site_type_symbol
 _atom_site_label
 _atom_site_symmetry_multiplicity
 _atom_site_fract_x
 _atom_site_fract_y
 _atom_site_fract_z
 _atom_site_occupancy
  Ac  Ac0  1  0.518417  0.320889  0.901913  1
  Ac  Ac1  1  0.018129  0.178092  0.599023  1
  Ac  Ac2  1  0.483409  0.677729  0.405207  1
  Ac  Ac3  1  0.982764  0.819078  0.094310  1
  Ac  Ac4  1  0.483409  0.677729  0.094793  1
  Ac  Ac5  1  0.982764  0.819078  0.405690  1
  Ac  Ac6  1  0.518417  0.320889  0.598087  1
  Ac  Ac7  1  0.018129  0.178092  0.900977  1
  Ac  Ac8  1  0.296612  0.000930  0.250000  1
  Tb  Tb9  1  0.363815  0.840287  0.876089  1
  Tb  Tb10  1  0.864887  0.660453  0.623155  1
  Tb  Tb11  1  0.636126  0.160413  0.380438  1
  Tb  Tb12  1  0.134102  0.339313  0.119096  1
  Tb  Tb13  1  0.636126  0.160413  0.119562  1
  Tb  Tb14  1  0.134102  0.339313  0.380904  1
  Tb  Tb15  1  0.363815  0.840287  0.623911  1
  Tb  Tb16  1  0.864887  0.660453  0.876845  1
  Tb  Tb17  1  0.201374  0.504416  0.750000  1
  Tb  Tb18  1  0.700662  0.995038  0.750000  1
  Tb  Tb19  1  0.798617  0.497143  0.250000  1
  Sn  Sn20  1  0.302782  0.047122  0.038875  1
  Sn  Sn21  1  0.801354  0.457131  0.455534  1
  Sn  Sn22  1  0.698572  0.955231  0.545387  1
  Sn  Sn23  1  0.198585  0.544335  0.954275  1
  Sn  Sn24  1  0.698572  0.955231  0.954613  1
  Sn  Sn25  1  0.198585  0.544335  0.545725  1
  Sn  Sn26  1  0.302782  0.047122  0.461125  1
  Sn  Sn27  1  0.801354  0.457131  0.044466  1
  Sn  Sn28  1  0.564466  0.632557  0.750000  1
  Sn  Sn29  1  0.063542  0.866695  0.750000  1
  Sn  Sn30  1  0.439091  0.379615  0.250000  1
  Sn  Sn31  1  0.923152  0.138591  0.250000  1
  Sn  Sn32  1  0.325848  0.136741  0.750000  1
  Sn  Sn33  1  0.826107  0.365286  0.750000  1
  Sn  Sn34  1  0.686445  0.861392  0.250000  1
  Sn  Sn35  1  0.168201  0.621456  0.250000  1
