# generated using pymatgen
data_Tb8Dy8CdIn3Rh4
_symmetry_space_group_name_H-M   'P 1'
_cell_length_a   9.67548903
_cell_length_b   9.66858600
_cell_length_c   9.67273779
_cell_angle_alpha   60.00533742
_cell_angle_beta   59.97644954
_cell_angle_gamma   60.00475178
_symmetry_Int_Tables_number   1
_chemical_formula_structural   Tb8Dy8CdIn3Rh4
_chemical_formula_sum   'Tb8 Dy8 Cd1 In3 Rh4'
_cell_volume   639.77320732
_cell_formula_units_Z   1
loop_
 _symmetry_equiv_pos_site_id
 _symmetry_equiv_pos_as_xyz
  1  'x, y, z'
loop_
 _atom_site_type_symbol
 _atom_site_label
 _atom_site_symmetry_multiplicity
 _atom_site_fract_x
 _atom_site_fract_y
 _atom_site_fract_z
 _atom_site_occupancy
  Tb  Tb0  1  0.564806  0.561087  0.936550  1
  Tb  Tb1  1  0.151024  0.549597  0.148692  1
  Tb  Tb2  1  0.688482  0.310438  0.312085  1
  Tb  Tb3  1  0.938343  0.560516  0.562944  1
  Tb  Tb4  1  0.937559  0.561125  0.936380  1
  Tb  Tb5  1  0.688896  0.691020  0.311545  1
  Tb  Tb6  1  0.564105  0.934988  0.936600  1
  Tb  Tb7  1  0.153208  0.149814  0.150570  1
  Dy  Dy8  1  0.308309  0.690681  0.311826  1
  Dy  Dy9  1  0.546058  0.150027  0.150729  1
  Dy  Dy10  1  0.310330  0.312593  0.688952  1
  Dy  Dy11  1  0.309431  0.690615  0.689981  1
  Dy  Dy12  1  0.150950  0.148802  0.549444  1
  Dy  Dy13  1  0.688108  0.312139  0.689324  1
  Dy  Dy14  1  0.938180  0.936314  0.562574  1
  Dy  Dy15  1  0.562896  0.936506  0.562616  1
  Cd  Cd16  1  0.917905  0.245507  0.918467  1
  In  In17  1  0.916682  0.919584  0.916858  1
  In  In18  1  0.246783  0.919505  0.916899  1
  In  In19  1  0.916639  0.919743  0.246817  1
  Rh  Rh20  1  0.358651  0.358121  0.925627  1
  Rh  Rh21  1  0.357476  0.357488  0.357832  1
  Rh  Rh22  1  0.927374  0.357326  0.358220  1
  Rh  Rh23  1  0.357805  0.926467  0.358468  1
