# generated using pymatgen
data_DyY4Rh3
_symmetry_space_group_name_H-M   'P 1'
_cell_length_a   10.94465000
_cell_length_b   10.94465000
_cell_length_c   6.37065600
_cell_angle_alpha   90.00000000
_cell_angle_beta   90.00000000
_cell_angle_gamma   90.00000000
_symmetry_Int_Tables_number   1
_chemical_formula_structural   DyY4Rh3
_chemical_formula_sum   'Dy4 Y16 Rh12'
_cell_volume   763.11134547
_cell_formula_units_Z   4
loop_
 _symmetry_equiv_pos_site_id
 _symmetry_equiv_pos_as_xyz
  1  'x, y, z'
loop_
 _atom_site_type_symbol
 _atom_site_label
 _atom_site_symmetry_multiplicity
 _atom_site_fract_x
 _atom_site_fract_y
 _atom_site_fract_z
 _atom_site_occupancy
  Dy  Dy0  1  0.000000  0.000000  0.500000  1
  Dy  Dy1  1  0.000000  0.000000  0.000000  1
  Dy  Dy2  1  0.500000  0.500000  0.000000  1
  Dy  Dy3  1  0.500000  0.500000  0.500000  1
  Y  Y4  1  0.290908  0.088872  0.378565  1
  Y  Y5  1  0.290908  0.911128  0.878565  1
  Y  Y6  1  0.709092  0.088872  0.878565  1
  Y  Y7  1  0.709092  0.911128  0.378565  1
  Y  Y8  1  0.588872  0.790908  0.878565  1
  Y  Y9  1  0.588872  0.209092  0.378565  1
  Y  Y10  1  0.411128  0.790908  0.378565  1
  Y  Y11  1  0.411128  0.209092  0.878565  1
  Y  Y12  1  0.209092  0.411128  0.621435  1
  Y  Y13  1  0.209092  0.588872  0.121435  1
  Y  Y14  1  0.790908  0.411128  0.121435  1
  Y  Y15  1  0.790908  0.588872  0.621435  1
  Y  Y16  1  0.911128  0.709092  0.121435  1
  Y  Y17  1  0.911128  0.290908  0.621435  1
  Y  Y18  1  0.088872  0.709092  0.621435  1
  Y  Y19  1  0.088872  0.290908  0.121435  1
  Rh  Rh20  1  0.847032  0.152968  0.250000  1
  Rh  Rh21  1  0.847032  0.847032  0.750000  1
  Rh  Rh22  1  0.152968  0.152968  0.750000  1
  Rh  Rh23  1  0.152968  0.847032  0.250000  1
  Rh  Rh24  1  0.652968  0.347032  0.750000  1
  Rh  Rh25  1  0.652968  0.652968  0.250000  1
  Rh  Rh26  1  0.347032  0.347032  0.250000  1
  Rh  Rh27  1  0.347032  0.652968  0.750000  1
  Rh  Rh28  1  0.500000  0.000000  0.124788  1
  Rh  Rh29  1  0.500000  0.000000  0.624788  1
  Rh  Rh30  1  0.000000  0.500000  0.875212  1
  Rh  Rh31  1  0.000000  0.500000  0.375212  1
