# generated using pymatgen
data_Ca4Ga7Ag5
_symmetry_space_group_name_H-M   'P 1'
_cell_length_a   4.47027100
_cell_length_b   7.06829020
_cell_length_c   10.53338102
_cell_angle_alpha   89.50412173
_cell_angle_beta   90.00000000
_cell_angle_gamma   90.00000000
_symmetry_Int_Tables_number   1
_chemical_formula_structural   Ca4Ga7Ag5
_chemical_formula_sum   'Ca4 Ga7 Ag5'
_cell_volume   332.81259457
_cell_formula_units_Z   1
loop_
 _symmetry_equiv_pos_site_id
 _symmetry_equiv_pos_as_xyz
  1  'x, y, z'
loop_
 _atom_site_type_symbol
 _atom_site_label
 _atom_site_symmetry_multiplicity
 _atom_site_fract_x
 _atom_site_fract_y
 _atom_site_fract_z
 _atom_site_occupancy
  Ca  Ca0  1  0.500000  0.780917  0.172818  1
  Ca  Ca1  1  0.500000  0.273621  0.329387  1
  Ca  Ca2  1  0.000000  0.221320  0.826315  1
  Ca  Ca3  1  0.000000  0.722435  0.671124  1
  Ga  Ga4  1  0.500000  0.918398  0.850134  1
  Ga  Ga5  1  0.500000  0.417346  0.650863  1
  Ga  Ga6  1  0.000000  0.078642  0.147855  1
  Ga  Ga7  1  0.000000  0.579013  0.351127  1
  Ga  Ga8  1  0.500000  0.204039  0.035632  1
  Ga  Ga9  1  0.000000  0.299873  0.534866  1
  Ga  Ga10  1  0.000000  0.797421  0.964300  1
  Ag  Ag11  1  0.500000  0.537700  0.901655  1
  Ag  Ag12  1  0.500000  0.042287  0.601645  1
  Ag  Ag13  1  0.000000  0.461684  0.097722  1
  Ag  Ag14  1  0.000000  0.965347  0.403854  1
  Ag  Ag15  1  0.500000  0.699958  0.460701  1
