# generated using pymatgen
data_Pa2NiB8Ru7
_symmetry_space_group_name_H-M   'P 1'
_cell_length_a   9.16131278
_cell_length_b   7.42051113
_cell_length_c   7.42198200
_cell_angle_alpha   90.05728412
_cell_angle_beta   113.88819495
_cell_angle_gamma   114.52267049
_symmetry_Int_Tables_number   1
_chemical_formula_structural   Pa2NiB8Ru7
_chemical_formula_sum   'Pa4 Ni2 B16 Ru14'
_cell_volume   410.96167674
_cell_formula_units_Z   2
loop_
 _symmetry_equiv_pos_site_id
 _symmetry_equiv_pos_as_xyz
  1  'x, y, z'
loop_
 _atom_site_type_symbol
 _atom_site_label
 _atom_site_symmetry_multiplicity
 _atom_site_fract_x
 _atom_site_fract_y
 _atom_site_fract_z
 _atom_site_occupancy
  Pa  Pa0  1  0.746123  0.873054  0.123726  1
  Pa  Pa1  1  0.246649  0.623727  0.373112  1
  Pa  Pa2  1  0.752552  0.376096  0.626942  1
  Pa  Pa3  1  0.250537  0.123248  0.877719  1
  Ni  Ni4  1  0.883962  0.559011  0.040291  1
  Ni  Ni5  1  0.376818  0.840314  0.057224  1
  B  B6  1  0.916984  0.295425  0.066442  1
  B  B7  1  0.419193  0.574655  0.128455  1
  B  B8  1  0.081566  0.209939  0.149663  1
  B  B9  1  0.579779  0.140839  0.200804  1
  B  B10  1  0.409356  0.059045  0.278067  1
  B  B11  1  0.918010  0.626657  0.346858  1
  B  B12  1  0.586341  0.644548  0.373019  1
  B  B13  1  0.083514  0.874028  0.438791  1
  B  B14  1  0.913666  0.127918  0.565297  1
  B  B15  1  0.416307  0.348095  0.629224  1
  B  B16  1  0.086909  0.374328  0.651702  1
  B  B17  1  0.578210  0.929587  0.707348  1
  B  B18  1  0.417535  0.858405  0.799276  1
  B  B19  1  0.909646  0.780417  0.850906  1
  B  B20  1  0.594797  0.444712  0.875809  1
  B  B21  1  0.085583  0.709437  0.942462  1
  Ru  Ru22  1  0.116247  0.940992  0.161475  1
  Ru  Ru23  1  0.627140  0.461434  0.176883  1
  Ru  Ru24  1  0.370542  0.333331  0.318358  1
  Ru  Ru25  1  0.873531  0.322181  0.340178  1
  Ru  Ru26  1  0.619976  0.957276  0.438294  1
  Ru  Ru27  1  0.125117  0.177952  0.463136  1
  Ru  Ru28  1  0.874725  0.822739  0.539316  1
  Ru  Ru29  1  0.372108  0.034705  0.548296  1
  Ru  Ru30  1  0.132526  0.684668  0.670774  1
  Ru  Ru31  1  0.620211  0.660477  0.671531  1
  Ru  Ru32  1  0.378073  0.536473  0.825258  1
  Ru  Ru33  1  0.869094  0.050085  0.835679  1
  Ru  Ru34  1  0.636152  0.174700  0.940518  1
  Ru  Ru35  1  0.130520  0.449503  0.967171  1
