# generated using pymatgen
data_YbZn2(AsO4)2
_symmetry_space_group_name_H-M   'P 1'
_cell_length_a   9.08997400
_cell_length_b   5.36331196
_cell_length_c   9.22389724
_cell_angle_alpha   59.74445023
_cell_angle_beta   90.00000000
_cell_angle_gamma   90.00000000
_symmetry_Int_Tables_number   1
_chemical_formula_structural   YbZn2(AsO4)2
_chemical_formula_sum   'Yb2 Zn4 As4 O16'
_cell_volume   388.43349398
_cell_formula_units_Z   2
loop_
 _symmetry_equiv_pos_site_id
 _symmetry_equiv_pos_as_xyz
  1  'x, y, z'
loop_
 _atom_site_type_symbol
 _atom_site_label
 _atom_site_symmetry_multiplicity
 _atom_site_fract_x
 _atom_site_fract_y
 _atom_site_fract_z
 _atom_site_occupancy
  Yb  Yb0  1  0.000000  0.000000  0.000000  1
  Yb  Yb1  1  0.500000  0.000000  0.500000  1
  Zn  Zn2  1  0.369662  0.969222  0.115357  1
  Zn  Zn3  1  0.630338  0.030778  0.884643  1
  Zn  Zn4  1  0.869662  0.030778  0.384643  1
  Zn  Zn5  1  0.130338  0.969222  0.615357  1
  As  As6  1  0.698807  0.654437  0.302384  1
  As  As7  1  0.301193  0.345563  0.697616  1
  As  As8  1  0.198807  0.345563  0.197616  1
  As  As9  1  0.801193  0.654437  0.802384  1
  O  O10  1  0.641589  0.692909  0.464748  1
  O  O11  1  0.358411  0.307091  0.535252  1
  O  O12  1  0.141589  0.307091  0.035252  1
  O  O13  1  0.858411  0.692909  0.964748  1
  O  O14  1  0.577276  0.817564  0.133459  1
  O  O15  1  0.422724  0.182436  0.866541  1
  O  O16  1  0.077276  0.182436  0.366541  1
  O  O17  1  0.922724  0.817564  0.633459  1
  O  O18  1  0.866498  0.834859  0.247450  1
  O  O19  1  0.133502  0.165141  0.752550  1
  O  O20  1  0.366498  0.165141  0.252550  1
  O  O21  1  0.633502  0.834859  0.747450  1
  O  O22  1  0.707119  0.295965  0.359301  1
  O  O23  1  0.292881  0.704035  0.640699  1
  O  O24  1  0.207119  0.704035  0.140699  1
  O  O25  1  0.792881  0.295965  0.859301  1
