# generated using pymatgen
data_Rb4Na2ErInAs4
_symmetry_space_group_name_H-M   'P 1'
_cell_length_a   9.48263202
_cell_length_b   9.48263182
_cell_length_c   9.48263023
_cell_angle_alpha   136.19822209
_cell_angle_beta   137.44506302
_cell_angle_gamma   62.71815715
_symmetry_Int_Tables_number   1
_chemical_formula_structural   Rb4Na2ErInAs4
_chemical_formula_sum   'Rb4 Na2 Er1 In1 As4'
_cell_volume   394.22604382
_cell_formula_units_Z   1
loop_
 _symmetry_equiv_pos_site_id
 _symmetry_equiv_pos_as_xyz
  1  'x, y, z'
loop_
 _atom_site_type_symbol
 _atom_site_label
 _atom_site_symmetry_multiplicity
 _atom_site_fract_x
 _atom_site_fract_y
 _atom_site_fract_z
 _atom_site_occupancy
  Rb  Rb0  1  0.669845  0.403058  0.717546  1
  Rb  Rb1  1  0.830155  0.047701  0.233213  1
  Rb  Rb2  1  0.185512  0.952299  0.782454  1
  Rb  Rb3  1  0.314488  0.596942  0.266787  1
  Na  Na4  1  0.750000  0.000000  0.750000  1
  Na  Na5  1  0.250000  0.000000  0.250000  1
  Er  Er6  1  0.750000  0.500000  0.250000  1
  In  In7  1  0.250000  0.500000  0.750000  1
  As  As8  1  0.400774  0.183861  0.778793  1
  As  As9  1  0.594932  0.816139  0.216914  1
  As  As10  1  0.099226  0.378017  0.283086  1
  As  As11  1  0.905068  0.621983  0.721207  1
