# generated using pymatgen
data_Tb3Y(Mn5P3)4
_symmetry_space_group_name_H-M   'P 1'
_cell_length_a   3.60569300
_cell_length_b   10.72293400
_cell_length_c   12.21832500
_cell_angle_alpha   89.99877591
_cell_angle_beta   90.00000000
_cell_angle_gamma   90.00000000
_symmetry_Int_Tables_number   1
_chemical_formula_structural   Tb3Y(Mn5P3)4
_chemical_formula_sum   'Tb3 Y1 Mn20 P12'
_cell_volume   472.40452894
_cell_formula_units_Z   1
loop_
 _symmetry_equiv_pos_site_id
 _symmetry_equiv_pos_as_xyz
  1  'x, y, z'
loop_
 _atom_site_type_symbol
 _atom_site_label
 _atom_site_symmetry_multiplicity
 _atom_site_fract_x
 _atom_site_fract_y
 _atom_site_fract_z
 _atom_site_occupancy
  Tb  Tb0  1  0.750000  0.412485  0.294216  1
  Tb  Tb1  1  0.750000  0.087447  0.794175  1
  Tb  Tb2  1  0.250000  0.912564  0.205768  1
  Y  Y3  1  0.250000  0.587472  0.705822  1
  Mn  Mn4  1  0.250000  0.409728  0.493754  1
  Mn  Mn5  1  0.750000  0.711408  0.319494  1
  Mn  Mn6  1  0.750000  0.788489  0.819434  1
  Mn  Mn7  1  0.250000  0.288711  0.680556  1
  Mn  Mn8  1  0.250000  0.616954  0.192044  1
  Mn  Mn9  1  0.750000  0.383188  0.807894  1
  Mn  Mn10  1  0.750000  0.116974  0.307948  1
  Mn  Mn11  1  0.250000  0.882914  0.692082  1
  Mn  Mn12  1  0.250000  0.033100  0.434745  1
  Mn  Mn13  1  0.750000  0.966813  0.565336  1
  Mn  Mn14  1  0.750000  0.533100  0.065162  1
  Mn  Mn15  1  0.250000  0.466978  0.934559  1
  Mn  Mn16  1  0.750000  0.909652  0.006284  1
  Mn  Mn17  1  0.250000  0.090264  0.993710  1
  Mn  Mn18  1  0.250000  0.717717  0.982126  1
  Mn  Mn19  1  0.750000  0.282388  0.017952  1
  Mn  Mn20  1  0.750000  0.217704  0.517960  1
  Mn  Mn21  1  0.250000  0.782300  0.482069  1
  Mn  Mn22  1  0.250000  0.211391  0.180551  1
  Mn  Mn23  1  0.750000  0.590303  0.506438  1
  P  P24  1  0.250000  0.591285  0.383250  1
  P  P25  1  0.750000  0.408918  0.616837  1
  P  P26  1  0.750000  0.091298  0.116771  1
  P  P27  1  0.250000  0.908664  0.883270  1
  P  P28  1  0.750000  0.765387  0.624282  1
  P  P29  1  0.250000  0.234304  0.375783  1
  P  P30  1  0.250000  0.410144  0.114925  1
  P  P31  1  0.750000  0.589843  0.884820  1
  P  P32  1  0.750000  0.910213  0.385067  1
  P  P33  1  0.250000  0.089808  0.614937  1
  P  P34  1  0.250000  0.265733  0.875789  1
  P  P35  1  0.750000  0.734355  0.124191  1
