# generated using pymatgen
data_Y4Sc4Re3B24Os
_symmetry_space_group_name_H-M   'P 1'
_cell_length_a   3.58217700
_cell_length_b   9.00408810
_cell_length_c   11.39941332
_cell_angle_alpha   90.03392798
_cell_angle_beta   90.00000000
_cell_angle_gamma   90.00000000
_symmetry_Int_Tables_number   1
_chemical_formula_structural   Y4Sc4Re3B24Os
_chemical_formula_sum   'Y4 Sc4 Re3 B24 Os1'
_cell_volume   367.67931781
_cell_formula_units_Z   1
loop_
 _symmetry_equiv_pos_site_id
 _symmetry_equiv_pos_as_xyz
  1  'x, y, z'
loop_
 _atom_site_type_symbol
 _atom_site_label
 _atom_site_symmetry_multiplicity
 _atom_site_fract_x
 _atom_site_fract_y
 _atom_site_fract_z
 _atom_site_occupancy
  Y  Y0  1  0.000000  0.320082  0.414399  1
  Y  Y1  1  0.000000  0.679519  0.587200  1
  Y  Y2  1  0.000000  0.821908  0.084611  1
  Y  Y3  1  0.000000  0.178997  0.913301  1
  Sc  Sc4  1  0.000000  0.943743  0.370789  1
  Sc  Sc5  1  0.000000  0.055567  0.628907  1
  Sc  Sc6  1  0.000000  0.443377  0.128590  1
  Sc  Sc7  1  0.000000  0.556288  0.871322  1
  Re  Re8  1  0.000000  0.360568  0.680612  1
  Re  Re9  1  0.000000  0.139913  0.181983  1
  Re  Re10  1  0.000000  0.860487  0.818882  1
  B  B11  1  0.500000  0.554934  0.432529  1
  B  B12  1  0.500000  0.446044  0.567034  1
  B  B13  1  0.500000  0.054276  0.067374  1
  B  B14  1  0.500000  0.946202  0.932418  1
  B  B15  1  0.500000  0.752902  0.418188  1
  B  B16  1  0.500000  0.245630  0.581284  1
  B  B17  1  0.500000  0.253861  0.081567  1
  B  B18  1  0.500000  0.746435  0.918547  1
  B  B19  1  0.500000  0.793272  0.265374  1
  B  B20  1  0.500000  0.205806  0.734563  1
  B  B21  1  0.500000  0.294395  0.235150  1
  B  B22  1  0.500000  0.705786  0.765601  1
  B  B23  1  0.500000  0.628615  0.183679  1
  B  B24  1  0.500000  0.371937  0.816421  1
  B  B25  1  0.500000  0.128137  0.316957  1
  B  B26  1  0.500000  0.871528  0.683429  1
  B  B27  1  0.500000  0.980645  0.213848  1
  B  B28  1  0.500000  0.019215  0.785801  1
  B  B29  1  0.500000  0.481681  0.286486  1
  B  B30  1  0.500000  0.519439  0.713991  1
  B  B31  1  0.500000  0.596730  0.026996  1
  B  B32  1  0.500000  0.403866  0.973852  1
  B  B33  1  0.500000  0.095489  0.473424  1
  B  B34  1  0.500000  0.902934  0.526251  1
  Os  Os35  1  0.000000  0.639791  0.318640  1
