# generated using pymatgen
data_Dy4MgCo2Pb
_symmetry_space_group_name_H-M   'P 1'
_cell_length_a   9.01019553
_cell_length_b   9.01019663
_cell_length_c   9.01019565
_cell_angle_alpha   132.47010184
_cell_angle_beta   132.47010053
_cell_angle_gamma   69.48755900
_symmetry_Int_Tables_number   1
_chemical_formula_structural   Dy4MgCo2Pb
_chemical_formula_sum   'Dy8 Mg2 Co4 Pb2'
_cell_volume   390.44464881
_cell_formula_units_Z   2
loop_
 _symmetry_equiv_pos_site_id
 _symmetry_equiv_pos_as_xyz
  1  'x, y, z'
loop_
 _atom_site_type_symbol
 _atom_site_label
 _atom_site_symmetry_multiplicity
 _atom_site_fract_x
 _atom_site_fract_y
 _atom_site_fract_z
 _atom_site_occupancy
  Dy  Dy0  1  0.803724  0.303724  0.862604  1
  Dy  Dy1  1  0.196276  0.696276  0.137397  1
  Dy  Dy2  1  0.441122  0.941122  0.137397  1
  Dy  Dy3  1  0.303724  0.441122  0.500000  1
  Dy  Dy4  1  0.058878  0.196276  0.500000  1
  Dy  Dy5  1  0.558878  0.058878  0.862603  1
  Dy  Dy6  1  0.696276  0.558878  0.500000  1
  Dy  Dy7  1  0.941122  0.803724  0.500000  1
  Mg  Mg8  1  0.000000  0.000000  0.000000  1
  Mg  Mg9  1  0.500000  0.500000  0.000000  1
  Co  Co10  1  0.111928  0.611928  0.723856  1
  Co  Co11  1  0.888072  0.388072  0.276144  1
  Co  Co12  1  0.611928  0.888072  0.500000  1
  Co  Co13  1  0.388072  0.111928  0.500000  1
  Pb  Pb14  1  0.250000  0.250000  0.000000  1
  Pb  Pb15  1  0.750000  0.750000  0.000000  1
