# generated using pymatgen
data_Tb16Ho3MgIr12
_symmetry_space_group_name_H-M   'P 1'
_cell_length_a   10.91064800
_cell_length_b   10.91064800
_cell_length_c   6.32793300
_cell_angle_alpha   90.00000000
_cell_angle_beta   90.00000000
_cell_angle_gamma   90.00000000
_symmetry_Int_Tables_number   1
_chemical_formula_structural   Tb16Ho3MgIr12
_chemical_formula_sum   'Tb16 Ho3 Mg1 Ir12'
_cell_volume   753.29131750
_cell_formula_units_Z   1
loop_
 _symmetry_equiv_pos_site_id
 _symmetry_equiv_pos_as_xyz
  1  'x, y, z'
loop_
 _atom_site_type_symbol
 _atom_site_label
 _atom_site_symmetry_multiplicity
 _atom_site_fract_x
 _atom_site_fract_y
 _atom_site_fract_z
 _atom_site_occupancy
  Tb  Tb0  1  0.284137  0.084929  0.379213  1
  Tb  Tb1  1  0.290058  0.911954  0.879410  1
  Tb  Tb2  1  0.709942  0.088046  0.879410  1
  Tb  Tb3  1  0.715863  0.915071  0.379213  1
  Tb  Tb4  1  0.588833  0.791477  0.879747  1
  Tb  Tb5  1  0.587842  0.208362  0.377912  1
  Tb  Tb6  1  0.412158  0.791638  0.377912  1
  Tb  Tb7  1  0.411167  0.208523  0.879747  1
  Tb  Tb8  1  0.208362  0.412158  0.622088  1
  Tb  Tb9  1  0.208523  0.588833  0.120253  1
  Tb  Tb10  1  0.791477  0.411167  0.120253  1
  Tb  Tb11  1  0.791638  0.587842  0.622088  1
  Tb  Tb12  1  0.911954  0.709942  0.120590  1
  Tb  Tb13  1  0.915071  0.284137  0.620787  1
  Tb  Tb14  1  0.084929  0.715863  0.620787  1
  Tb  Tb15  1  0.088046  0.290058  0.120590  1
  Ho  Ho16  1  0.000000  0.000000  0.000000  1
  Ho  Ho17  1  0.500000  0.500000  0.000000  1
  Ho  Ho18  1  0.500000  0.500000  0.500000  1
  Mg  Mg19  1  0.000000  0.000000  0.500000  1
  Ir  Ir20  1  0.846868  0.153574  0.247758  1
  Ir  Ir21  1  0.846426  0.846868  0.752242  1
  Ir  Ir22  1  0.153574  0.153132  0.752242  1
  Ir  Ir23  1  0.153132  0.846426  0.247758  1
  Ir  Ir24  1  0.653653  0.346788  0.748446  1
  Ir  Ir25  1  0.653212  0.653653  0.251554  1
  Ir  Ir26  1  0.346788  0.346347  0.251554  1
  Ir  Ir27  1  0.346347  0.653212  0.748446  1
  Ir  Ir28  1  0.500000  0.000000  0.123400  1
  Ir  Ir29  1  0.500000  0.000000  0.620097  1
  Ir  Ir30  1  0.000000  0.500000  0.876600  1
  Ir  Ir31  1  0.000000  0.500000  0.379903  1
