# generated using pymatgen
data_Li4La3SmSi8
_symmetry_space_group_name_H-M   'P 1'
_cell_length_a   3.90471300
_cell_length_b   7.77792878
_cell_length_c   10.64343509
_cell_angle_alpha   90.07193563
_cell_angle_beta   90.00000000
_cell_angle_gamma   90.00000000
_symmetry_Int_Tables_number   1
_chemical_formula_structural   Li4La3SmSi8
_chemical_formula_sum   'Li4 La3 Sm1 Si8'
_cell_volume   323.24703810
_cell_formula_units_Z   1
loop_
 _symmetry_equiv_pos_site_id
 _symmetry_equiv_pos_as_xyz
  1  'x, y, z'
loop_
 _atom_site_type_symbol
 _atom_site_label
 _atom_site_symmetry_multiplicity
 _atom_site_fract_x
 _atom_site_fract_y
 _atom_site_fract_z
 _atom_site_occupancy
  Li  Li0  1  0.250000  0.993072  0.390598  1
  Li  Li1  1  0.250000  0.495577  0.110117  1
  Li  Li2  1  0.750000  0.005436  0.608406  1
  Li  Li3  1  0.750000  0.505217  0.890346  1
  La  La4  1  0.250000  0.139916  0.865832  1
  La  La5  1  0.250000  0.638328  0.633632  1
  La  La6  1  0.750000  0.861460  0.135575  1
  Sm  Sm7  1  0.750000  0.364157  0.366078  1
  Si  Si8  1  0.250000  0.227023  0.568199  1
  Si  Si9  1  0.250000  0.726610  0.927287  1
  Si  Si10  1  0.750000  0.768114  0.427410  1
  Si  Si11  1  0.750000  0.276756  0.076367  1
  Si  Si12  1  0.250000  0.660270  0.321643  1
  Si  Si13  1  0.250000  0.167870  0.182023  1
  Si  Si14  1  0.750000  0.335009  0.674327  1
  Si  Si15  1  0.750000  0.835187  0.822156  1
