# generated using pymatgen
data_Nd16Cd2InHgIr4
_symmetry_space_group_name_H-M   'P 1'
_cell_length_a   9.96864838
_cell_length_b   9.96864856
_cell_length_c   9.97807139
_cell_angle_alpha   59.92131961
_cell_angle_beta   59.92131714
_cell_angle_gamma   59.93373748
_symmetry_Int_Tables_number   1
_chemical_formula_structural   Nd16Cd2InHgIr4
_chemical_formula_sum   'Nd16 Cd2 In1 Hg1 Ir4'
_cell_volume   699.95353810
_cell_formula_units_Z   1
loop_
 _symmetry_equiv_pos_site_id
 _symmetry_equiv_pos_as_xyz
  1  'x, y, z'
loop_
 _atom_site_type_symbol
 _atom_site_label
 _atom_site_symmetry_multiplicity
 _atom_site_fract_x
 _atom_site_fract_y
 _atom_site_fract_z
 _atom_site_occupancy
  Nd  Nd0  1  0.348128  0.348128  0.347950  1
  Nd  Nd1  1  0.349791  0.349791  0.953619  1
  Nd  Nd2  1  0.350036  0.952508  0.349957  1
  Nd  Nd3  1  0.952508  0.350036  0.349957  1
  Nd  Nd4  1  0.809664  0.189535  0.190409  1
  Nd  Nd5  1  0.189676  0.807734  0.807971  1
  Nd  Nd6  1  0.189535  0.809664  0.190409  1
  Nd  Nd7  1  0.807734  0.189676  0.807971  1
  Nd  Nd8  1  0.189366  0.189366  0.810264  1
  Nd  Nd9  1  0.807150  0.807150  0.190587  1
  Nd  Nd10  1  0.941543  0.561232  0.561841  1
  Nd  Nd11  1  0.559704  0.939146  0.940413  1
  Nd  Nd12  1  0.561232  0.941543  0.561841  1
  Nd  Nd13  1  0.939146  0.559704  0.940413  1
  Nd  Nd14  1  0.561115  0.561115  0.943478  1
  Nd  Nd15  1  0.939176  0.939176  0.560514  1
  Cd  Cd16  1  0.578939  0.259743  0.579751  1
  Cd  Cd17  1  0.259743  0.578939  0.579751  1
  In  In18  1  0.580649  0.580649  0.580738  1
  Hg  Hg19  1  0.582795  0.582795  0.249173  1
  Ir  Ir20  1  0.141900  0.141900  0.141957  1
  Ir  Ir21  1  0.142473  0.142473  0.575628  1
  Ir  Ir22  1  0.142555  0.575442  0.142702  1
  Ir  Ir23  1  0.575442  0.142555  0.142702  1
