# generated using pymatgen
data_MnAl(SiRu2)2
_symmetry_space_group_name_H-M   'P 1'
_cell_length_a   7.25429545
_cell_length_b   7.25429536
_cell_length_c   7.25429533
_cell_angle_alpha   33.46712263
_cell_angle_beta   33.46712692
_cell_angle_gamma   33.46712922
_symmetry_Int_Tables_number   1
_chemical_formula_structural   MnAl(SiRu2)2
_chemical_formula_sum   'Mn1 Al1 Si2 Ru4'
_cell_volume   103.39270462
_cell_formula_units_Z   1
loop_
 _symmetry_equiv_pos_site_id
 _symmetry_equiv_pos_as_xyz
  1  'x, y, z'
loop_
 _atom_site_type_symbol
 _atom_site_label
 _atom_site_symmetry_multiplicity
 _atom_site_fract_x
 _atom_site_fract_y
 _atom_site_fract_z
 _atom_site_occupancy
  Mn  Mn0  1  0.000000  0.000000  0.000000  1
  Al  Al1  1  0.500000  0.500000  0.500000  1
  Si  Si2  1  0.249719  0.249719  0.249719  1
  Si  Si3  1  0.750281  0.750281  0.750281  1
  Ru  Ru4  1  0.626848  0.626848  0.626848  1
  Ru  Ru5  1  0.123897  0.123897  0.123897  1
  Ru  Ru6  1  0.876103  0.876103  0.876103  1
  Ru  Ru7  1  0.373152  0.373152  0.373152  1
