# generated using pymatgen
data_U4Pb3O13
_symmetry_space_group_name_H-M   'P 1'
_cell_length_a   7.99567840
_cell_length_b   7.99567820
_cell_length_c   7.99567882
_cell_angle_alpha   60.21152215
_cell_angle_beta   60.21152578
_cell_angle_gamma   60.21152795
_symmetry_Int_Tables_number   1
_chemical_formula_structural   U4Pb3O13
_chemical_formula_sum   'U4 Pb3 O13'
_cell_volume   363.18340822
_cell_formula_units_Z   1
loop_
 _symmetry_equiv_pos_site_id
 _symmetry_equiv_pos_as_xyz
  1  'x, y, z'
loop_
 _atom_site_type_symbol
 _atom_site_label
 _atom_site_symmetry_multiplicity
 _atom_site_fract_x
 _atom_site_fract_y
 _atom_site_fract_z
 _atom_site_occupancy
  U  U0  1  0.499397  0.499397  0.499397  1
  U  U1  1  0.999758  0.499601  0.499601  1
  U  U2  1  0.499601  0.499601  0.999758  1
  U  U3  1  0.499601  0.999758  0.499601  1
  Pb  Pb4  1  0.478774  0.008137  0.008137  1
  Pb  Pb5  1  0.008137  0.008137  0.478774  1
  Pb  Pb6  1  0.008137  0.478774  0.008137  1
  O  O7  1  0.823580  0.422648  0.422648  1
  O  O8  1  0.441708  0.816243  0.816243  1
  O  O9  1  0.422648  0.422648  0.823580  1
  O  O10  1  0.816243  0.816243  0.441708  1
  O  O11  1  0.816243  0.441708  0.816243  1
  O  O12  1  0.422648  0.823580  0.422648  1
  O  O13  1  0.179636  0.572378  0.572378  1
  O  O14  1  0.556793  0.183058  0.183058  1
  O  O15  1  0.572378  0.572378  0.179636  1
  O  O16  1  0.183058  0.183058  0.556793  1
  O  O17  1  0.183058  0.556793  0.183058  1
  O  O18  1  0.572378  0.179636  0.572378  1
  O  O19  1  0.141221  0.141221  0.141221  1
