# generated using pymatgen
data_UNiPt4
_symmetry_space_group_name_H-M   'P 1'
_cell_length_a   5.09858720
_cell_length_b   5.09858617
_cell_length_c   5.09858685
_cell_angle_alpha   62.72573575
_cell_angle_beta   62.72574471
_cell_angle_gamma   62.72574030
_symmetry_Int_Tables_number   1
_chemical_formula_structural   UNiPt4
_chemical_formula_sum   'U1 Ni1 Pt4'
_cell_volume   99.40371119
_cell_formula_units_Z   1
loop_
 _symmetry_equiv_pos_site_id
 _symmetry_equiv_pos_as_xyz
  1  'x, y, z'
loop_
 _atom_site_type_symbol
 _atom_site_label
 _atom_site_symmetry_multiplicity
 _atom_site_fract_x
 _atom_site_fract_y
 _atom_site_fract_z
 _atom_site_occupancy
  U  U0  1  0.002380  0.002380  0.002380  1
  Ni  Ni1  1  0.624015  0.624015  0.624015  1
  Pt  Pt2  1  0.249942  0.249942  0.249942  1
  Pt  Pt3  1  0.624237  0.624237  0.125188  1
  Pt  Pt4  1  0.624237  0.125188  0.624237  1
  Pt  Pt5  1  0.125188  0.624237  0.624237  1
