# generated using pymatgen
data_Ba11ErSb9
_symmetry_space_group_name_H-M   'P 1'
_cell_length_a   13.35362728
_cell_length_b   13.35362771
_cell_length_c   13.35362800
_cell_angle_alpha   120.90199171
_cell_angle_beta   117.15435216
_cell_angle_gamma   91.72140935
_symmetry_Int_Tables_number   1
_chemical_formula_structural   Ba11ErSb9
_chemical_formula_sum   'Ba22 Er2 Sb18'
_cell_volume   1705.46769178
_cell_formula_units_Z   2
loop_
 _symmetry_equiv_pos_site_id
 _symmetry_equiv_pos_as_xyz
  1  'x, y, z'
loop_
 _atom_site_type_symbol
 _atom_site_label
 _atom_site_symmetry_multiplicity
 _atom_site_fract_x
 _atom_site_fract_y
 _atom_site_fract_z
 _atom_site_occupancy
  Ba  Ba0  1  0.323668  0.323668  0.000000  1
  Ba  Ba1  1  0.820677  0.836195  0.659511  1
  Ba  Ba2  1  0.434969  0.066500  0.180777  1
  Ba  Ba3  1  0.823668  0.823668  0.000000  1
  Ba  Ba4  1  0.690049  0.947098  0.375522  1
  Ba  Ba5  1  0.426607  0.687817  0.370236  1
  Ba  Ba6  1  0.320677  0.661166  0.984482  1
  Ba  Ba7  1  0.817581  0.187817  0.261210  1
  Ba  Ba8  1  0.618873  0.418919  0.353711  1
  Ba  Ba9  1  0.885723  0.254192  0.819223  1
  Ba  Ba10  1  0.118873  0.765162  0.199954  1
  Ba  Ba11  1  0.190049  0.814527  0.742951  1
  Ba  Ba12  1  0.926607  0.556371  0.738790  1
  Ba  Ba13  1  0.385723  0.566500  0.631532  1
  Ba  Ba14  1  0.065208  0.265162  0.646289  1
  Ba  Ba15  1  0.565208  0.918919  0.800046  1
  Ba  Ba16  1  0.934969  0.754192  0.368468  1
  Ba  Ba17  1  0.676684  0.336195  0.015518  1
  Ba  Ba18  1  0.571577  0.314527  0.624478  1
  Ba  Ba19  1  0.176684  0.161166  0.340489  1
  Ba  Ba20  1  0.071577  0.447098  0.257049  1
  Ba  Ba21  1  0.317581  0.056371  0.629764  1
  Er  Er22  1  0.603578  0.603578  0.000000  1
  Er  Er23  1  0.103578  0.103578  0.000000  1
  Sb  Sb24  1  0.643098  0.642999  0.649245  1
  Sb  Sb25  1  0.403347  0.970159  0.367665  1
  Sb  Sb26  1  0.993754  0.993853  0.350755  1
  Sb  Sb27  1  0.615187  0.623260  0.239585  1
  Sb  Sb28  1  0.050573  0.041979  0.721818  1
  Sb  Sb29  1  0.249858  0.749858  0.500000  1
  Sb  Sb30  1  0.550573  0.828755  0.008594  1
  Sb  Sb31  1  0.749858  0.249858  0.500000  1
  Sb  Sb32  1  0.883675  0.123260  0.008073  1
  Sb  Sb33  1  0.493754  0.142999  0.999902  1
  Sb  Sb34  1  0.143098  0.493853  0.000098  1
  Sb  Sb35  1  0.383675  0.375602  0.760415  1
  Sb  Sb36  1  0.320161  0.328755  0.278182  1
  Sb  Sb37  1  0.903347  0.535683  0.433189  1
  Sb  Sb38  1  0.102494  0.470159  0.566811  1
  Sb  Sb39  1  0.820161  0.541979  0.991406  1
  Sb  Sb40  1  0.602494  0.035683  0.632335  1
  Sb  Sb41  1  0.115187  0.875602  0.991927  1
