# generated using pymatgen
data_DySc6Co6Sn23
_symmetry_space_group_name_H-M   'P 1'
_cell_length_a   9.55744300
_cell_length_b   9.55744374
_cell_length_c   9.81538700
_cell_angle_alpha   90.00000000
_cell_angle_beta   90.00000000
_cell_angle_gamma   120.00000090
_symmetry_Int_Tables_number   1
_chemical_formula_structural   DySc6Co6Sn23
_chemical_formula_sum   'Dy1 Sc6 Co6 Sn23'
_cell_volume   776.46435279
_cell_formula_units_Z   1
loop_
 _symmetry_equiv_pos_site_id
 _symmetry_equiv_pos_as_xyz
  1  'x, y, z'
loop_
 _atom_site_type_symbol
 _atom_site_label
 _atom_site_symmetry_multiplicity
 _atom_site_fract_x
 _atom_site_fract_y
 _atom_site_fract_z
 _atom_site_occupancy
  Dy  Dy0  1  0.000000  0.000000  0.000000  1
  Sc  Sc1  1  0.481497  0.518503  0.307753  1
  Sc  Sc2  1  0.518503  0.481497  0.692247  1
  Sc  Sc3  1  0.481497  0.962993  0.307753  1
  Sc  Sc4  1  0.518503  0.037007  0.692247  1
  Sc  Sc5  1  0.037007  0.518503  0.307753  1
  Sc  Sc6  1  0.962993  0.481497  0.692247  1
  Co  Co7  1  0.831166  0.168834  0.198552  1
  Co  Co8  1  0.168834  0.831166  0.801448  1
  Co  Co9  1  0.831166  0.662330  0.198552  1
  Co  Co10  1  0.168834  0.337670  0.801448  1
  Co  Co11  1  0.337670  0.168834  0.198552  1
  Co  Co12  1  0.662330  0.831166  0.801448  1
  Sn  Sn13  1  0.347867  0.000000  0.000000  1
  Sn  Sn14  1  0.652133  0.000000  0.000000  1
  Sn  Sn15  1  0.000000  0.347867  0.000000  1
  Sn  Sn16  1  0.000000  0.652133  0.000000  1
  Sn  Sn17  1  0.652133  0.652133  0.000000  1
  Sn  Sn18  1  0.347867  0.347867  0.000000  1
  Sn  Sn19  1  0.333333  0.666667  0.820831  1
  Sn  Sn20  1  0.666667  0.333333  0.179169  1
  Sn  Sn21  1  0.000000  0.000000  0.500000  1
  Sn  Sn22  1  0.779289  0.220711  0.453053  1
  Sn  Sn23  1  0.220711  0.779289  0.546947  1
  Sn  Sn24  1  0.779289  0.558579  0.453053  1
  Sn  Sn25  1  0.220711  0.441421  0.546947  1
  Sn  Sn26  1  0.441421  0.220711  0.453053  1
  Sn  Sn27  1  0.558579  0.779289  0.546947  1
  Sn  Sn28  1  0.333333  0.666667  0.135156  1
  Sn  Sn29  1  0.666667  0.333333  0.864844  1
  Sn  Sn30  1  0.121850  0.878150  0.276683  1
  Sn  Sn31  1  0.878150  0.121850  0.723317  1
  Sn  Sn32  1  0.121850  0.243701  0.276683  1
  Sn  Sn33  1  0.878150  0.756299  0.723317  1
  Sn  Sn34  1  0.756299  0.878150  0.276683  1
  Sn  Sn35  1  0.243701  0.121850  0.723317  1
