# generated using pymatgen
data_ErTm2Pa(ZnRh)4
_symmetry_space_group_name_H-M   'P 1'
_cell_length_a   3.83713200
_cell_length_b   7.06995772
_cell_length_c   8.30320035
_cell_angle_alpha   90.83768462
_cell_angle_beta   90.00000000
_cell_angle_gamma   90.00000000
_symmetry_Int_Tables_number   1
_chemical_formula_structural   ErTm2Pa(ZnRh)4
_chemical_formula_sum   'Er1 Tm2 Pa1 Zn4 Rh4'
_cell_volume   225.22814275
_cell_formula_units_Z   1
loop_
 _symmetry_equiv_pos_site_id
 _symmetry_equiv_pos_as_xyz
  1  'x, y, z'
loop_
 _atom_site_type_symbol
 _atom_site_label
 _atom_site_symmetry_multiplicity
 _atom_site_fract_x
 _atom_site_fract_y
 _atom_site_fract_z
 _atom_site_occupancy
  Er  Er0  1  0.250000  0.053274  0.322332  1
  Tm  Tm1  1  0.750000  0.442213  0.808643  1
  Tm  Tm2  1  0.750000  0.940476  0.686141  1
  Pa  Pa3  1  0.250000  0.553963  0.178362  1
  Zn  Zn4  1  0.250000  0.620438  0.564438  1
  Zn  Zn5  1  0.750000  0.368818  0.442903  1
  Zn  Zn6  1  0.750000  0.895493  0.062982  1
  Zn  Zn7  1  0.250000  0.127296  0.934295  1
  Rh  Rh8  1  0.250000  0.738470  0.887327  1
  Rh  Rh9  1  0.750000  0.281769  0.128797  1
  Rh  Rh10  1  0.750000  0.743434  0.356918  1
  Rh  Rh11  1  0.250000  0.234357  0.626862  1
