# generated using pymatgen
data_Y4Ga6AgPd
_symmetry_space_group_name_H-M   'P 1'
_cell_length_a   7.06296500
_cell_length_b   8.88269637
_cell_length_c   8.88269400
_cell_angle_alpha   120.00012525
_cell_angle_beta   90.00001622
_cell_angle_gamma   89.99999189
_symmetry_Int_Tables_number   1
_chemical_formula_structural   Y4Ga6AgPd
_chemical_formula_sum   'Y8 Ga12 Ag2 Pd2'
_cell_volume   482.62149010
_cell_formula_units_Z   2
loop_
 _symmetry_equiv_pos_site_id
 _symmetry_equiv_pos_as_xyz
  1  'x, y, z'
loop_
 _atom_site_type_symbol
 _atom_site_label
 _atom_site_symmetry_multiplicity
 _atom_site_fract_x
 _atom_site_fract_y
 _atom_site_fract_z
 _atom_site_occupancy
  Y  Y0  1  0.744943  0.999997  0.000004  1
  Y  Y1  1  0.255060  0.000004  0.999995  1
  Y  Y2  1  0.746415  0.484944  0.515058  1
  Y  Y3  1  0.253586  0.515056  0.484943  1
  Y  Y4  1  0.746407  0.030095  0.515007  1
  Y  Y5  1  0.253593  0.969904  0.484994  1
  Y  Y6  1  0.746405  0.484992  0.969903  1
  Y  Y7  1  0.253595  0.515006  0.030096  1
  Ga  Ga8  1  0.965078  0.835507  0.164495  1
  Ga  Ga9  1  0.034922  0.164497  0.835505  1
  Ga  Ga10  1  0.965163  0.328922  0.164454  1
  Ga  Ga11  1  0.463367  0.167496  0.832505  1
  Ga  Ga12  1  0.034840  0.671076  0.835546  1
  Ga  Ga13  1  0.536632  0.832505  0.167494  1
  Ga  Ga14  1  0.965162  0.835546  0.671075  1
  Ga  Ga15  1  0.463424  0.665040  0.832526  1
  Ga  Ga16  1  0.034840  0.164453  0.328923  1
  Ga  Ga17  1  0.536573  0.334961  0.167476  1
  Ga  Ga18  1  0.463424  0.167474  0.334961  1
  Ga  Ga19  1  0.536573  0.832525  0.665038  1
  Ag  Ag20  1  0.953942  0.666659  0.333342  1
  Ag  Ag21  1  0.046063  0.333341  0.666660  1
  Pd  Pd22  1  0.476697  0.333339  0.666661  1
  Pd  Pd23  1  0.523300  0.666659  0.333339  1
