# generated using pymatgen
data_LaNd2(ZnPt)4
_symmetry_space_group_name_H-M   'P 1'
_cell_length_a   8.40095931
_cell_length_b   8.40095898
_cell_length_c   8.40095979
_cell_angle_alpha   151.37497139
_cell_angle_beta   126.92430385
_cell_angle_gamma   61.41035207
_symmetry_Int_Tables_number   1
_chemical_formula_structural   LaNd2(ZnPt)4
_chemical_formula_sum   'La1 Nd2 Zn4 Pt4'
_cell_volume   225.22507212
_cell_formula_units_Z   1
loop_
 _symmetry_equiv_pos_site_id
 _symmetry_equiv_pos_as_xyz
  1  'x, y, z'
loop_
 _atom_site_type_symbol
 _atom_site_label
 _atom_site_symmetry_multiplicity
 _atom_site_fract_x
 _atom_site_fract_y
 _atom_site_fract_z
 _atom_site_occupancy
  La  La0  1  0.500000  0.000000  0.500000  1
  Nd  Nd1  1  0.872346  0.872346  0.000000  1
  Nd  Nd2  1  0.127654  0.127654  0.000000  1
  Zn  Zn3  1  0.479268  0.673651  0.805618  1
  Zn  Zn4  1  0.868033  0.673651  0.194382  1
  Zn  Zn5  1  0.131967  0.326349  0.805618  1
  Zn  Zn6  1  0.520732  0.326349  0.194382  1
  Pt  Pt7  1  0.281644  0.781644  0.500000  1
  Pt  Pt8  1  0.718356  0.218356  0.500000  1
  Pt  Pt9  1  0.802547  0.500000  0.302547  1
  Pt  Pt10  1  0.197453  0.500000  0.697453  1
