# generated using pymatgen
data_VFe2ClO4
_symmetry_space_group_name_H-M   'P 1'
_cell_length_a   6.84361401
_cell_length_b   5.13058931
_cell_length_c   7.15695293
_cell_angle_alpha   87.95858098
_cell_angle_beta   89.99394266
_cell_angle_gamma   89.99758247
_symmetry_Int_Tables_number   1
_chemical_formula_structural   VFe2ClO4
_chemical_formula_sum   'V2 Fe4 Cl2 O8'
_cell_volume   251.13381755
_cell_formula_units_Z   2
loop_
 _symmetry_equiv_pos_site_id
 _symmetry_equiv_pos_as_xyz
  1  'x, y, z'
loop_
 _atom_site_type_symbol
 _atom_site_label
 _atom_site_symmetry_multiplicity
 _atom_site_fract_x
 _atom_site_fract_y
 _atom_site_fract_z
 _atom_site_occupancy
  V  V0  1  0.750055  0.505316  0.766616  1
  V  V1  1  0.249945  0.494684  0.233384  1
  Fe  Fe2  1  0.000000  0.000000  0.000000  1
  Fe  Fe3  1  0.250068  0.345322  0.736331  1
  Fe  Fe4  1  0.500000  0.000000  0.000000  1
  Fe  Fe5  1  0.749932  0.654678  0.263669  1
  Cl  Cl6  1  0.250027  0.832476  0.763708  1
  Cl  Cl7  1  0.749973  0.167524  0.236292  1
  O  O8  1  0.040449  0.693283  0.195001  1
  O  O9  1  0.249933  0.367280  0.452609  1
  O  O10  1  0.459474  0.693294  0.195009  1
  O  O11  1  0.959551  0.306717  0.804999  1
  O  O12  1  0.750067  0.632720  0.547391  1
  O  O13  1  0.250005  0.234772  0.073514  1
  O  O14  1  0.540526  0.306706  0.804991  1
  O  O15  1  0.749995  0.765228  0.926486  1
