# generated using pymatgen
data_Tb16In4Ir2PdRu
_symmetry_space_group_name_H-M   'P 1'
_cell_length_a   9.72207701
_cell_length_b   9.72207616
_cell_length_c   9.71965584
_cell_angle_alpha   60.28965246
_cell_angle_beta   60.28964868
_cell_angle_gamma   60.26360161
_symmetry_Int_Tables_number   1
_chemical_formula_structural   Tb16In4Ir2PdRu
_chemical_formula_sum   'Tb16 In4 Ir2 Pd1 Ru1'
_cell_volume   653.74258890
_cell_formula_units_Z   1
loop_
 _symmetry_equiv_pos_site_id
 _symmetry_equiv_pos_as_xyz
  1  'x, y, z'
loop_
 _atom_site_type_symbol
 _atom_site_label
 _atom_site_symmetry_multiplicity
 _atom_site_fract_x
 _atom_site_fract_y
 _atom_site_fract_z
 _atom_site_occupancy
  Tb  Tb0  1  0.103294  0.697617  0.104594  1
  Tb  Tb1  1  0.940970  0.940970  0.551970  1
  Tb  Tb2  1  0.941184  0.553045  0.941073  1
  Tb  Tb3  1  0.311127  0.690246  0.311825  1
  Tb  Tb4  1  0.940818  0.560564  0.558300  1
  Tb  Tb5  1  0.311669  0.311669  0.690086  1
  Tb  Tb6  1  0.096241  0.096241  0.097005  1
  Tb  Tb7  1  0.559240  0.559240  0.940922  1
  Tb  Tb8  1  0.103974  0.103974  0.697206  1
  Tb  Tb9  1  0.689620  0.314312  0.689748  1
  Tb  Tb10  1  0.689927  0.689927  0.314527  1
  Tb  Tb11  1  0.690246  0.311127  0.311825  1
  Tb  Tb12  1  0.314312  0.689620  0.689748  1
  Tb  Tb13  1  0.560564  0.940818  0.558300  1
  Tb  Tb14  1  0.697617  0.103294  0.104594  1
  Tb  Tb15  1  0.553045  0.941184  0.941073  1
  In  In16  1  0.332965  0.332965  0.333126  1
  In  In17  1  0.002595  0.332061  0.332219  1
  In  In18  1  0.332061  0.002595  0.332219  1
  In  In19  1  0.332086  0.332086  0.002651  1
  Ir  Ir20  1  0.324599  0.889762  0.889634  1
  Ir  Ir21  1  0.889762  0.324599  0.889634  1
  Pd  Pd22  1  0.892464  0.892464  0.892482  1
  Ru  Ru23  1  0.889622  0.889622  0.325238  1
