# generated using pymatgen
data_Tm6Ti12Al4Ir6Rh
_symmetry_space_group_name_H-M   'P 1'
_cell_length_a   9.06001822
_cell_length_b   9.06001744
_cell_length_c   9.06001900
_cell_angle_alpha   59.99999794
_cell_angle_beta   60.00000080
_cell_angle_gamma   59.99999768
_symmetry_Int_Tables_number   1
_chemical_formula_structural   Tm6Ti12Al4Ir6Rh
_chemical_formula_sum   'Tm6 Ti12 Al4 Ir6 Rh1'
_cell_volume   525.86250196
_cell_formula_units_Z   1
loop_
 _symmetry_equiv_pos_site_id
 _symmetry_equiv_pos_as_xyz
  1  'x, y, z'
loop_
 _atom_site_type_symbol
 _atom_site_label
 _atom_site_symmetry_multiplicity
 _atom_site_fract_x
 _atom_site_fract_y
 _atom_site_fract_z
 _atom_site_occupancy
  Tm  Tm0  1  0.699352  0.300647  0.300647  1
  Tm  Tm1  1  0.300647  0.699352  0.699352  1
  Tm  Tm2  1  0.300647  0.699352  0.300647  1
  Tm  Tm3  1  0.300647  0.300647  0.699352  1
  Tm  Tm4  1  0.699352  0.300647  0.699352  1
  Tm  Tm5  1  0.699352  0.699352  0.300647  1
  Ti  Ti6  1  0.326634  0.326634  0.326634  1
  Ti  Ti7  1  0.326634  0.326634  0.020098  1
  Ti  Ti8  1  0.020098  0.326634  0.326634  1
  Ti  Ti9  1  0.326634  0.020098  0.326634  1
  Ti  Ti10  1  0.669632  0.669632  0.669632  1
  Ti  Ti11  1  0.669632  0.669632  0.991104  1
  Ti  Ti12  1  0.669632  0.991104  0.669632  1
  Ti  Ti13  1  0.991104  0.669632  0.669632  1
  Ti  Ti14  1  0.117967  0.117967  0.117967  1
  Ti  Ti15  1  0.117967  0.117967  0.646099  1
  Ti  Ti16  1  0.646099  0.117967  0.117967  1
  Ti  Ti17  1  0.117967  0.646099  0.117967  1
  Al  Al18  1  0.881848  0.881848  0.881848  1
  Al  Al19  1  0.881848  0.881848  0.354456  1
  Al  Al20  1  0.881848  0.354456  0.881848  1
  Al  Al21  1  0.354456  0.881848  0.881848  1
  Ir  Ir22  1  0.502383  0.997617  0.997617  1
  Ir  Ir23  1  0.997617  0.502383  0.502383  1
  Ir  Ir24  1  0.997617  0.502383  0.997617  1
  Ir  Ir25  1  0.997617  0.997617  0.502383  1
  Ir  Ir26  1  0.502383  0.997617  0.502383  1
  Ir  Ir27  1  0.502383  0.502383  0.997617  1
  Rh  Rh28  1  0.000000  0.000000  0.000000  1
