# generated using pymatgen
data_Tb19DyIr7Ru5
_symmetry_space_group_name_H-M   'P 1'
_cell_length_a   10.88828441
_cell_length_b   10.88856541
_cell_length_c   6.42174001
_cell_angle_alpha   89.96906134
_cell_angle_beta   89.96857784
_cell_angle_gamma   89.99681759
_symmetry_Int_Tables_number   1
_chemical_formula_structural   Tb19DyIr7Ru5
_chemical_formula_sum   'Tb19 Dy1 Ir7 Ru5'
_cell_volume   761.34712206
_cell_formula_units_Z   1
loop_
 _symmetry_equiv_pos_site_id
 _symmetry_equiv_pos_as_xyz
  1  'x, y, z'
loop_
 _atom_site_type_symbol
 _atom_site_label
 _atom_site_symmetry_multiplicity
 _atom_site_fract_x
 _atom_site_fract_y
 _atom_site_fract_z
 _atom_site_occupancy
  Tb  Tb0  1  0.293467  0.086686  0.379166  1
  Tb  Tb1  1  0.292843  0.913216  0.879277  1
  Tb  Tb2  1  0.707366  0.087100  0.879610  1
  Tb  Tb3  1  0.706970  0.913540  0.378421  1
  Tb  Tb4  1  0.586755  0.793523  0.879235  1
  Tb  Tb5  1  0.587589  0.206776  0.379521  1
  Tb  Tb6  1  0.413194  0.793326  0.379373  1
  Tb  Tb7  1  0.413090  0.206393  0.878636  1
  Tb  Tb8  1  0.206532  0.413269  0.620697  1
  Tb  Tb9  1  0.206611  0.586822  0.120696  1
  Tb  Tb10  1  0.793293  0.412395  0.120546  1
  Tb  Tb11  1  0.793548  0.586895  0.621296  1
  Tb  Tb12  1  0.913324  0.706550  0.120825  1
  Tb  Tb13  1  0.912883  0.292650  0.620397  1
  Tb  Tb14  1  0.086790  0.707124  0.620728  1
  Tb  Tb15  1  0.086443  0.293019  0.121571  1
  Tb  Tb16  1  0.999515  0.001062  0.499411  1
  Tb  Tb17  1  0.998928  0.000487  0.000605  1
  Tb  Tb18  1  0.500164  0.500077  0.000140  1
  Dy  Dy19  1  0.499925  0.499838  0.499847  1
  Ir  Ir20  1  0.846852  0.846591  0.749782  1
  Ir  Ir21  1  0.153436  0.153126  0.750225  1
  Ir  Ir22  1  0.153099  0.846898  0.250005  1
  Ir  Ir23  1  0.651891  0.348080  0.749692  1
  Ir  Ir24  1  0.652896  0.652570  0.250071  1
  Ir  Ir25  1  0.347407  0.347119  0.250536  1
  Ir  Ir26  1  0.347558  0.652463  0.749691  1
  Ru  Ru27  1  0.847817  0.152198  0.249991  1
  Ru  Ru28  1  0.500214  0.000192  0.123351  1
  Ru  Ru29  1  0.499857  0.000084  0.623394  1
  Ru  Ru30  1  0.999921  0.500141  0.876591  1
  Ru  Ru31  1  0.999822  0.499793  0.376671  1
