# generated using pymatgen
data_Pr4Mn5In3O20
_symmetry_space_group_name_H-M   'P 1'
_cell_length_a   5.96394000
_cell_length_b   7.75743142
_cell_length_c   8.94440815
_cell_angle_alpha   89.90510962
_cell_angle_beta   90.00000000
_cell_angle_gamma   90.00000000
_symmetry_Int_Tables_number   1
_chemical_formula_structural   Pr4Mn5In3O20
_chemical_formula_sum   'Pr4 Mn5 In3 O20'
_cell_volume   413.81118335
_cell_formula_units_Z   1
loop_
 _symmetry_equiv_pos_site_id
 _symmetry_equiv_pos_as_xyz
  1  'x, y, z'
loop_
 _atom_site_type_symbol
 _atom_site_label
 _atom_site_symmetry_multiplicity
 _atom_site_fract_x
 _atom_site_fract_y
 _atom_site_fract_z
 _atom_site_occupancy
  Pr  Pr0  1  0.000000  0.358471  0.668256  1
  Pr  Pr1  1  0.000000  0.637447  0.331160  1
  Pr  Pr2  1  0.000000  0.861390  0.829293  1
  Pr  Pr3  1  0.000000  0.139122  0.173027  1
  Mn  Mn4  1  0.500000  0.403486  0.347375  1
  Mn  Mn5  1  0.250501  0.499112  0.002242  1
  Mn  Mn6  1  0.749176  0.003082  0.498731  1
  Mn  Mn7  1  0.749499  0.499112  0.002242  1
  Mn  Mn8  1  0.250824  0.003082  0.498731  1
  In  In9  1  0.500000  0.111106  0.848632  1
  In  In10  1  0.500000  0.891092  0.152051  1
  In  In11  1  0.500000  0.609273  0.649164  1
  O  O12  1  0.232149  0.900490  0.303402  1
  O  O13  1  0.232530  0.101424  0.696705  1
  O  O14  1  0.750185  0.400559  0.204376  1
  O  O15  1  0.768709  0.595004  0.801873  1
  O  O16  1  0.767470  0.101424  0.696705  1
  O  O17  1  0.767851  0.900490  0.303402  1
  O  O18  1  0.231291  0.595004  0.801873  1
  O  O19  1  0.249815  0.400559  0.204376  1
  O  O20  1  0.500000  0.359714  0.938028  1
  O  O21  1  0.500000  0.643007  0.059614  1
  O  O22  1  0.500000  0.861675  0.564016  1
  O  O23  1  0.500000  0.148600  0.432793  1
  O  O24  1  0.257481  0.000058  0.999926  1
  O  O25  1  0.728399  0.490069  0.491672  1
  O  O26  1  0.742519  0.000058  0.999926  1
  O  O27  1  0.271601  0.490069  0.491672  1
  O  O28  1  0.000000  0.154310  0.445406  1
  O  O29  1  0.000000  0.845489  0.554922  1
  O  O30  1  0.000000  0.650444  0.057277  1
  O  O31  1  0.000000  0.345782  0.951131  1
