# generated using pymatgen
data_Zr5Be4(Fe5P4)3
_symmetry_space_group_name_H-M   'P 1'
_cell_length_a   11.78081400
_cell_length_b   11.78081519
_cell_length_c   3.63151100
_cell_angle_alpha   90.00000000
_cell_angle_beta   90.00000000
_cell_angle_gamma   120.00000227
_symmetry_Int_Tables_number   1
_chemical_formula_structural   Zr5Be4(Fe5P4)3
_chemical_formula_sum   'Zr5 Be4 Fe15 P12'
_cell_volume   436.48430108
_cell_formula_units_Z   1
loop_
 _symmetry_equiv_pos_site_id
 _symmetry_equiv_pos_as_xyz
  1  'x, y, z'
loop_
 _atom_site_type_symbol
 _atom_site_label
 _atom_site_symmetry_multiplicity
 _atom_site_fract_x
 _atom_site_fract_y
 _atom_site_fract_z
 _atom_site_occupancy
  Zr  Zr0  1  0.333333  0.666667  0.500000  1
  Zr  Zr1  1  0.666667  0.333333  0.500000  1
  Zr  Zr2  1  0.818637  0.996473  0.000000  1
  Zr  Zr3  1  0.003527  0.822162  0.000000  1
  Zr  Zr4  1  0.177838  0.181363  0.000000  1
  Be  Be5  1  0.470949  0.355565  0.000000  1
  Be  Be6  1  0.884615  0.529051  0.000000  1
  Be  Be7  1  0.644435  0.115385  0.000000  1
  Be  Be8  1  0.000000  0.000000  0.500000  1
  Fe  Fe9  1  0.624951  0.798792  0.500000  1
  Fe  Fe10  1  0.201208  0.826159  0.500000  1
  Fe  Fe11  1  0.173841  0.375049  0.500000  1
  Fe  Fe12  1  0.385225  0.191442  0.500000  1
  Fe  Fe13  1  0.806216  0.614775  0.500000  1
  Fe  Fe14  1  0.808558  0.193784  0.500000  1
  Fe  Fe15  1  0.284408  0.004873  0.000000  1
  Fe  Fe16  1  0.995127  0.279535  0.000000  1
  Fe  Fe17  1  0.720465  0.715592  0.000000  1
  Fe  Fe18  1  0.451060  0.008046  0.500000  1
  Fe  Fe19  1  0.991954  0.443015  0.500000  1
  Fe  Fe20  1  0.556985  0.548940  0.500000  1
  Fe  Fe21  1  0.519717  0.881331  0.000000  1
  Fe  Fe22  1  0.118669  0.638386  0.000000  1
  Fe  Fe23  1  0.361614  0.480283  0.000000  1
  P  P24  1  0.184241  0.005473  0.500000  1
  P  P25  1  0.994527  0.178768  0.500000  1
  P  P26  1  0.821232  0.815759  0.500000  1
  P  P27  1  0.520034  0.686808  0.000000  1
  P  P28  1  0.313192  0.833227  0.000000  1
  P  P29  1  0.166773  0.479966  0.000000  1
  P  P30  1  0.482961  0.168191  0.000000  1
  P  P31  1  0.685230  0.517039  0.000000  1
  P  P32  1  0.831809  0.314770  0.000000  1
  P  P33  1  0.633584  0.990527  0.500000  1
  P  P34  1  0.009473  0.643057  0.500000  1
  P  P35  1  0.356943  0.366416  0.500000  1
