# generated using pymatgen
data_Ho3In3Pd2Pt
_symmetry_space_group_name_H-M   'P 1'
_cell_length_a   7.72850300
_cell_length_b   7.72850331
_cell_length_c   3.81109200
_cell_angle_alpha   90.00000000
_cell_angle_beta   90.00000000
_cell_angle_gamma   120.00000296
_symmetry_Int_Tables_number   1
_chemical_formula_structural   Ho3In3Pd2Pt
_chemical_formula_sum   'Ho3 In3 Pd2 Pt1'
_cell_volume   197.13821897
_cell_formula_units_Z   1
loop_
 _symmetry_equiv_pos_site_id
 _symmetry_equiv_pos_as_xyz
  1  'x, y, z'
loop_
 _atom_site_type_symbol
 _atom_site_label
 _atom_site_symmetry_multiplicity
 _atom_site_fract_x
 _atom_site_fract_y
 _atom_site_fract_z
 _atom_site_occupancy
  Ho  Ho0  1  0.596575  0.009077  0.500000  1
  Ho  Ho1  1  0.412502  0.403425  0.500000  1
  Ho  Ho2  1  0.990923  0.587498  0.500000  1
  In  In3  1  0.737336  0.741442  0.000000  1
  In  In4  1  0.004106  0.262664  0.000000  1
  In  In5  1  0.258558  0.995894  0.000000  1
  Pd  Pd6  1  0.333333  0.666667  0.000000  1
  Pd  Pd7  1  0.000000  0.000000  0.500000  1
  Pt  Pt8  1  0.666667  0.333333  0.000000  1
