# generated using pymatgen
data_Yb4Sc(TcO4)3
_symmetry_space_group_name_H-M   'P 1'
_cell_length_a   5.37667012
_cell_length_b   5.61596772
_cell_length_c   7.74656453
_cell_angle_alpha   90.14203598
_cell_angle_beta   89.92822537
_cell_angle_gamma   89.98032241
_symmetry_Int_Tables_number   1
_chemical_formula_structural   Yb4Sc(TcO4)3
_chemical_formula_sum   'Yb4 Sc1 Tc3 O12'
_cell_volume   233.90819445
_cell_formula_units_Z   1
loop_
 _symmetry_equiv_pos_site_id
 _symmetry_equiv_pos_as_xyz
  1  'x, y, z'
loop_
 _atom_site_type_symbol
 _atom_site_label
 _atom_site_symmetry_multiplicity
 _atom_site_fract_x
 _atom_site_fract_y
 _atom_site_fract_z
 _atom_site_occupancy
  Yb  Yb0  1  0.014844  0.438530  0.249541  1
  Yb  Yb1  1  0.985156  0.561470  0.750459  1
  Yb  Yb2  1  0.516833  0.062895  0.749723  1
  Yb  Yb3  1  0.483167  0.937105  0.250277  1
  Sc  Sc4  1  0.500000  0.500000  0.500000  1
  Tc  Tc5  1  0.000000  0.000000  0.000000  1
  Tc  Tc6  1  0.500000  0.500000  0.000000  1
  Tc  Tc7  1  0.000000  0.000000  0.500000  1
  O  O8  1  0.302838  0.203260  0.050770  1
  O  O9  1  0.697162  0.796740  0.949230  1
  O  O10  1  0.801446  0.297095  0.950411  1
  O  O11  1  0.700985  0.809990  0.552118  1
  O  O12  1  0.198554  0.702905  0.049589  1
  O  O13  1  0.299015  0.190010  0.447882  1
  O  O14  1  0.185269  0.704023  0.446872  1
  O  O15  1  0.814731  0.295977  0.553128  1
  O  O16  1  0.601558  0.534428  0.244560  1
  O  O17  1  0.398442  0.465572  0.755440  1
  O  O18  1  0.098355  0.969127  0.749087  1
  O  O19  1  0.901645  0.030873  0.250913  1
