# generated using pymatgen
data_Y4HfZr3F28
_symmetry_space_group_name_H-M   'P 1'
_cell_length_a   5.74754427
_cell_length_b   9.11369810
_cell_length_c   12.26616543
_cell_angle_alpha   62.33143129
_cell_angle_beta   90.01459454
_cell_angle_gamma   89.99864182
_symmetry_Int_Tables_number   1
_chemical_formula_structural   Y4HfZr3F28
_chemical_formula_sum   'Y4 Hf1 Zr3 F28'
_cell_volume   569.04570552
_cell_formula_units_Z   1
loop_
 _symmetry_equiv_pos_site_id
 _symmetry_equiv_pos_as_xyz
  1  'x, y, z'
loop_
 _atom_site_type_symbol
 _atom_site_label
 _atom_site_symmetry_multiplicity
 _atom_site_fract_x
 _atom_site_fract_y
 _atom_site_fract_z
 _atom_site_occupancy
  Y  Y0  1  0.257202  0.815301  0.265639  1
  Y  Y1  1  0.742379  0.183179  0.734158  1
  Y  Y2  1  0.756966  0.185403  0.232964  1
  Y  Y3  1  0.242405  0.814993  0.767881  1
  Hf  Hf4  1  0.756279  0.725321  0.045463  1
  Zr  Zr5  1  0.243765  0.273803  0.954906  1
  Zr  Zr6  1  0.256662  0.274225  0.454953  1
  Zr  Zr7  1  0.743295  0.726383  0.545303  1
  F  F8  1  0.963579  0.710579  0.421206  1
  F  F9  1  0.034709  0.290588  0.577861  1
  F  F10  1  0.466076  0.290299  0.077672  1
  F  F11  1  0.534139  0.710502  0.925051  1
  F  F12  1  0.493381  0.734264  0.149804  1
  F  F13  1  0.513072  0.265172  0.849874  1
  F  F14  1  0.987340  0.266885  0.349294  1
  F  F15  1  0.014127  0.733700  0.650325  1
  F  F16  1  0.970488  0.743882  0.169727  1
  F  F17  1  0.031314  0.252964  0.827612  1
  F  F18  1  0.467521  0.256116  0.325956  1
  F  F19  1  0.531815  0.745698  0.673796  1
  F  F20  1  0.771371  0.477781  0.138811  1
  F  F21  1  0.230507  0.525194  0.859783  1
  F  F22  1  0.274421  0.526021  0.360546  1
  F  F23  1  0.726741  0.474640  0.640026  1
  F  F24  1  0.950442  0.278256  0.048932  1
  F  F25  1  0.040711  0.720999  0.950051  1
  F  F26  1  0.449259  0.724968  0.450370  1
  F  F27  1  0.550117  0.276151  0.549961  1
  F  F28  1  0.740617  0.977495  0.441834  1
  F  F29  1  0.260304  0.023640  0.558894  1
  F  F30  1  0.241307  0.023091  0.058539  1
  F  F31  1  0.760239  0.972226  0.943133  1
  F  F32  1  0.571662  0.974343  0.233761  1
  F  F33  1  0.426539  0.025845  0.767321  1
  F  F34  1  0.071311  0.026026  0.265322  1
  F  F35  1  0.927936  0.974065  0.733273  1
