# generated using pymatgen
data_LaEr3(Rh2O7)2
_symmetry_space_group_name_H-M   'P 1'
_cell_length_a   7.21295953
_cell_length_b   7.21295894
_cell_length_c   7.28936895
_cell_angle_alpha   60.34615140
_cell_angle_beta   60.34615510
_cell_angle_gamma   60.00000294
_symmetry_Int_Tables_number   1
_chemical_formula_structural   LaEr3(Rh2O7)2
_chemical_formula_sum   'La1 Er3 Rh4 O14'
_cell_volume   269.55939227
_cell_formula_units_Z   1
loop_
 _symmetry_equiv_pos_site_id
 _symmetry_equiv_pos_as_xyz
  1  'x, y, z'
loop_
 _atom_site_type_symbol
 _atom_site_label
 _atom_site_symmetry_multiplicity
 _atom_site_fract_x
 _atom_site_fract_y
 _atom_site_fract_z
 _atom_site_occupancy
  La  La0  1  0.125000  0.125000  0.625000  1
  Er  Er1  1  0.125000  0.125000  0.125000  1
  Er  Er2  1  0.125000  0.625000  0.125000  1
  Er  Er3  1  0.625000  0.125000  0.125000  1
  Rh  Rh4  1  0.625000  0.625000  0.625000  1
  Rh  Rh5  1  0.625000  0.625000  0.125000  1
  Rh  Rh6  1  0.125000  0.625000  0.625000  1
  Rh  Rh7  1  0.625000  0.125000  0.625000  1
  O  O8  1  0.254587  0.254587  0.236239  1
  O  O9  1  0.289026  0.711798  0.287378  1
  O  O10  1  0.960420  0.960420  0.527854  1
  O  O11  1  0.551307  0.960420  0.527854  1
  O  O12  1  0.711798  0.711798  0.287378  1
  O  O13  1  0.960420  0.551307  0.527854  1
  O  O14  1  0.698693  0.289580  0.722146  1
  O  O15  1  0.289580  0.289580  0.722146  1
  O  O16  1  0.711798  0.289026  0.287378  1
  O  O17  1  0.289580  0.698693  0.722146  1
  O  O18  1  0.960974  0.538202  0.962622  1
  O  O19  1  0.538202  0.538202  0.962622  1
  O  O20  1  0.995413  0.995413  0.013761  1
  O  O21  1  0.538202  0.960974  0.962622  1
