# generated using pymatgen
data_Dy3Si6(Pd9Pt)2
_symmetry_space_group_name_H-M   'P 1'
_cell_length_a   8.73086572
_cell_length_b   8.73086665
_cell_length_c   8.73086700
_cell_angle_alpha   59.67534321
_cell_angle_beta   59.67533963
_cell_angle_gamma   59.67533814
_symmetry_Int_Tables_number   1
_chemical_formula_structural   Dy3Si6(Pd9Pt)2
_chemical_formula_sum   'Dy3 Si6 Pd18 Pt2'
_cell_volume   467.13448440
_cell_formula_units_Z   1
loop_
 _symmetry_equiv_pos_site_id
 _symmetry_equiv_pos_as_xyz
  1  'x, y, z'
loop_
 _atom_site_type_symbol
 _atom_site_label
 _atom_site_symmetry_multiplicity
 _atom_site_fract_x
 _atom_site_fract_y
 _atom_site_fract_z
 _atom_site_occupancy
  Dy  Dy0  1  0.250707  0.250707  0.250707  1
  Dy  Dy1  1  0.749293  0.749293  0.749293  1
  Dy  Dy2  1  0.000000  0.000000  0.000000  1
  Si  Si3  1  0.730661  0.267952  0.267952  1
  Si  Si4  1  0.269339  0.732048  0.732048  1
  Si  Si5  1  0.267952  0.730661  0.267952  1
  Si  Si6  1  0.732048  0.269339  0.732048  1
  Si  Si7  1  0.267952  0.267952  0.730661  1
  Si  Si8  1  0.732048  0.732048  0.269339  1
  Pd  Pd9  1  0.381819  0.381819  0.850950  1
  Pd  Pd10  1  0.381819  0.850950  0.381819  1
  Pd  Pd11  1  0.618181  0.618181  0.149050  1
  Pd  Pd12  1  0.618181  0.149050  0.618181  1
  Pd  Pd13  1  0.850950  0.381819  0.381819  1
  Pd  Pd14  1  0.149050  0.618181  0.618181  1
  Pd  Pd15  1  0.345086  0.000155  0.000155  1
  Pd  Pd16  1  0.654914  0.999845  0.999845  1
  Pd  Pd17  1  0.000000  0.344952  0.655048  1
  Pd  Pd18  1  0.000000  0.655048  0.344952  1
  Pd  Pd19  1  0.000155  0.345086  0.000155  1
  Pd  Pd20  1  0.655048  0.000000  0.344952  1
  Pd  Pd21  1  0.999845  0.654914  0.999845  1
  Pd  Pd22  1  0.344952  0.000000  0.655048  1
  Pd  Pd23  1  0.000155  0.000155  0.345086  1
  Pd  Pd24  1  0.999845  0.999845  0.654914  1
  Pd  Pd25  1  0.655048  0.344952  0.000000  1
  Pd  Pd26  1  0.344952  0.655048  0.000000  1
  Pt  Pt27  1  0.384325  0.384325  0.384325  1
  Pt  Pt28  1  0.615675  0.615675  0.615675  1
