# generated using pymatgen
data_CoTc(WBr3)4
_symmetry_space_group_name_H-M   'P 1'
_cell_length_a   9.96126613
_cell_length_b   9.96126451
_cell_length_c   12.17838900
_cell_angle_alpha   90.00000000
_cell_angle_beta   90.00000000
_cell_angle_gamma   106.04087639
_symmetry_Int_Tables_number   1
_chemical_formula_structural   CoTc(WBr3)4
_chemical_formula_sum   'Co2 Tc2 W8 Br24'
_cell_volume   1161.37248009
_cell_formula_units_Z   2
loop_
 _symmetry_equiv_pos_site_id
 _symmetry_equiv_pos_as_xyz
  1  'x, y, z'
loop_
 _atom_site_type_symbol
 _atom_site_label
 _atom_site_symmetry_multiplicity
 _atom_site_fract_x
 _atom_site_fract_y
 _atom_site_fract_z
 _atom_site_occupancy
  Co  Co0  1  0.064731  0.064731  0.877179  1
  Co  Co1  1  0.435269  0.435269  0.377179  1
  Tc  Tc2  1  0.568600  0.568600  0.635560  1
  Tc  Tc3  1  0.931400  0.931400  0.135560  1
  W  W4  1  0.864005  0.864005  0.928272  1
  W  W5  1  0.635995  0.635995  0.428272  1
  W  W6  1  0.358376  0.358376  0.565014  1
  W  W7  1  0.141624  0.141624  0.065014  1
  W  W8  1  0.380753  0.614940  0.496495  1
  W  W9  1  0.119247  0.885060  0.996495  1
  W  W10  1  0.614940  0.380753  0.496495  1
  W  W11  1  0.885060  0.119247  0.996495  1
  Br  Br12  1  0.657839  0.657839  0.845250  1
  Br  Br13  1  0.842161  0.842161  0.345250  1
  Br  Br14  1  0.162366  0.162366  0.653987  1
  Br  Br15  1  0.337634  0.337634  0.153987  1
  Br  Br16  1  0.220685  0.776349  0.499092  1
  Br  Br17  1  0.279315  0.723651  0.999092  1
  Br  Br18  1  0.776349  0.220685  0.499092  1
  Br  Br19  1  0.723651  0.279315  0.999092  1
  Br  Br20  1  0.330426  0.090605  0.933575  1
  Br  Br21  1  0.169574  0.409395  0.433575  1
  Br  Br22  1  0.592026  0.821666  0.569481  1
  Br  Br23  1  0.907974  0.678334  0.069481  1
  Br  Br24  1  0.953189  0.182685  0.205031  1
  Br  Br25  1  0.546811  0.317315  0.705031  1
  Br  Br26  1  0.694269  0.455174  0.293696  1
  Br  Br27  1  0.805731  0.044826  0.793696  1
  Br  Br28  1  0.044826  0.805731  0.793696  1
  Br  Br29  1  0.455174  0.694269  0.293696  1
  Br  Br30  1  0.317315  0.546811  0.705031  1
  Br  Br31  1  0.182685  0.953189  0.205031  1
  Br  Br32  1  0.090605  0.330426  0.933575  1
  Br  Br33  1  0.409395  0.169574  0.433575  1
  Br  Br34  1  0.821666  0.592026  0.569481  1
  Br  Br35  1  0.678334  0.907974  0.069481  1
