# generated using pymatgen
data_Ti4N3
_symmetry_space_group_name_H-M   'P 1'
_cell_length_a   3.00909759
_cell_length_b   5.18553472
_cell_length_c   5.19271941
_cell_angle_alpha   79.77875339
_cell_angle_beta   90.08774379
_cell_angle_gamma   73.14283539
_symmetry_Int_Tables_number   1
_chemical_formula_structural   Ti4N3
_chemical_formula_sum   'Ti4 N3'
_cell_volume   76.19289912
_cell_formula_units_Z   1
loop_
 _symmetry_equiv_pos_site_id
 _symmetry_equiv_pos_as_xyz
  1  'x, y, z'
loop_
 _atom_site_type_symbol
 _atom_site_label
 _atom_site_symmetry_multiplicity
 _atom_site_fract_x
 _atom_site_fract_y
 _atom_site_fract_z
 _atom_site_occupancy
  Ti  Ti0  1  0.405263  0.339483  0.146428  1
  Ti  Ti1  1  0.139840  0.869719  0.409486  1
  Ti  Ti2  1  0.898824  0.350636  0.663931  1
  Ti  Ti3  1  0.646800  0.858685  0.891979  1
  N  N4  1  0.024339  0.101014  0.029358  1
  N  N5  1  0.272851  0.604624  0.778001  1
  N  N6  1  0.520981  0.108222  0.526573  1
