# generated using pymatgen
data_Sr6HPb2N
_symmetry_space_group_name_H-M   'P 1'
_cell_length_a   7.50496855
_cell_length_b   7.50496884
_cell_length_c   7.50496700
_cell_angle_alpha   59.99999487
_cell_angle_beta   59.99999361
_cell_angle_gamma   59.99999446
_symmetry_Int_Tables_number   1
_chemical_formula_structural   Sr6HPb2N
_chemical_formula_sum   'Sr6 H1 Pb2 N1'
_cell_volume   298.90384590
_cell_formula_units_Z   1
loop_
 _symmetry_equiv_pos_site_id
 _symmetry_equiv_pos_as_xyz
  1  'x, y, z'
loop_
 _atom_site_type_symbol
 _atom_site_label
 _atom_site_symmetry_multiplicity
 _atom_site_fract_x
 _atom_site_fract_y
 _atom_site_fract_z
 _atom_site_occupancy
  Sr  Sr0  1  0.259144  0.740856  0.740856  1
  Sr  Sr1  1  0.259144  0.740856  0.259144  1
  Sr  Sr2  1  0.740856  0.259144  0.740856  1
  Sr  Sr3  1  0.740856  0.740856  0.259144  1
  Sr  Sr4  1  0.259144  0.259144  0.740856  1
  Sr  Sr5  1  0.740856  0.259144  0.259144  1
  H  H6  1  0.000000  0.000000  0.000000  1
  Pb  Pb7  1  0.250000  0.250000  0.250000  1
  Pb  Pb8  1  0.750000  0.750000  0.750000  1
  N  N9  1  0.500000  0.500000  0.500000  1
