# generated using pymatgen
data_Ce3Y5(SiPd)8
_symmetry_space_group_name_H-M   'P 1'
_cell_length_a   4.36145000
_cell_length_b   7.52030057
_cell_length_c   14.16546115
_cell_angle_alpha   90.04522588
_cell_angle_beta   90.00000000
_cell_angle_gamma   90.00000000
_symmetry_Int_Tables_number   1
_chemical_formula_structural   Ce3Y5(SiPd)8
_chemical_formula_sum   'Ce3 Y5 Si8 Pd8'
_cell_volume   464.61869268
_cell_formula_units_Z   1
loop_
 _symmetry_equiv_pos_site_id
 _symmetry_equiv_pos_as_xyz
  1  'x, y, z'
loop_
 _atom_site_type_symbol
 _atom_site_label
 _atom_site_symmetry_multiplicity
 _atom_site_fract_x
 _atom_site_fract_y
 _atom_site_fract_z
 _atom_site_occupancy
  Ce  Ce0  1  0.500000  0.791322  0.747993  1
  Ce  Ce1  1  0.500000  0.707652  0.999543  1
  Ce  Ce2  1  0.500000  0.697148  0.498420  1
  Y  Y3  1  0.000000  0.217211  0.752268  1
  Y  Y4  1  0.500000  0.790581  0.250820  1
  Y  Y5  1  0.000000  0.210662  0.249049  1
  Y  Y6  1  0.000000  0.291288  0.499343  1
  Y  Y7  1  0.000000  0.298960  0.001864  1
  Si  Si8  1  0.500000  0.405494  0.644529  1
  Si  Si9  1  0.000000  0.587122  0.852371  1
  Si  Si10  1  0.500000  0.406108  0.353775  1
  Si  Si11  1  0.000000  0.591750  0.143874  1
  Si  Si12  1  0.500000  0.093626  0.095527  1
  Si  Si13  1  0.000000  0.911287  0.405196  1
  Si  Si14  1  0.500000  0.092729  0.909509  1
  Si  Si15  1  0.000000  0.913452  0.590332  1
  Pd  Pd16  1  0.500000  0.077796  0.607902  1
  Pd  Pd17  1  0.000000  0.924627  0.893159  1
  Pd  Pd18  1  0.500000  0.075737  0.389822  1
  Pd  Pd19  1  0.000000  0.924617  0.110616  1
  Pd  Pd20  1  0.500000  0.417553  0.158462  1
  Pd  Pd21  1  0.000000  0.578443  0.341298  1
  Pd  Pd22  1  0.500000  0.413941  0.850087  1
  Pd  Pd23  1  0.000000  0.580894  0.654241  1
