# generated using pymatgen
data_Lu3ThMgRh
_symmetry_space_group_name_H-M   'P 1'
_cell_length_a   9.64680371
_cell_length_b   9.64680348
_cell_length_c   9.64680400
_cell_angle_alpha   59.99999821
_cell_angle_beta   59.99999902
_cell_angle_gamma   60.00000052
_symmetry_Int_Tables_number   1
_chemical_formula_structural   Lu3ThMgRh
_chemical_formula_sum   'Lu12 Th4 Mg4 Rh4'
_cell_volume   634.79766819
_cell_formula_units_Z   4
loop_
 _symmetry_equiv_pos_site_id
 _symmetry_equiv_pos_as_xyz
  1  'x, y, z'
loop_
 _atom_site_type_symbol
 _atom_site_label
 _atom_site_symmetry_multiplicity
 _atom_site_fract_x
 _atom_site_fract_y
 _atom_site_fract_z
 _atom_site_occupancy
  Lu  Lu0  1  0.813558  0.186442  0.186442  1
  Lu  Lu1  1  0.186442  0.813558  0.813558  1
  Lu  Lu2  1  0.186442  0.813558  0.186442  1
  Lu  Lu3  1  0.813558  0.186442  0.813558  1
  Lu  Lu4  1  0.186442  0.186442  0.813558  1
  Lu  Lu5  1  0.813558  0.813558  0.186442  1
  Lu  Lu6  1  0.933151  0.566849  0.566849  1
  Lu  Lu7  1  0.566849  0.933151  0.933151  1
  Lu  Lu8  1  0.566849  0.933151  0.566849  1
  Lu  Lu9  1  0.933151  0.566849  0.933151  1
  Lu  Lu10  1  0.566849  0.566849  0.933151  1
  Lu  Lu11  1  0.933151  0.933151  0.566849  1
  Th  Th12  1  0.349940  0.349940  0.349940  1
  Th  Th13  1  0.349940  0.349940  0.950181  1
  Th  Th14  1  0.349940  0.950181  0.349940  1
  Th  Th15  1  0.950181  0.349940  0.349940  1
  Mg  Mg16  1  0.581039  0.581039  0.581039  1
  Mg  Mg17  1  0.581039  0.581039  0.256881  1
  Mg  Mg18  1  0.581039  0.256881  0.581039  1
  Mg  Mg19  1  0.256881  0.581039  0.581039  1
  Rh  Rh20  1  0.142864  0.142864  0.142864  1
  Rh  Rh21  1  0.142864  0.142864  0.571407  1
  Rh  Rh22  1  0.142864  0.571407  0.142864  1
  Rh  Rh23  1  0.571407  0.142864  0.142864  1
