# generated using pymatgen
data_Tb3Dy5(Ho3Pb4)4
_symmetry_space_group_name_H-M   'P 1'
_cell_length_a   8.19798707
_cell_length_b   8.27991202
_cell_length_c   15.62037214
_cell_angle_alpha   90.00613226
_cell_angle_beta   90.01375852
_cell_angle_gamma   89.99494387
_symmetry_Int_Tables_number   1
_chemical_formula_structural   Tb3Dy5(Ho3Pb4)4
_chemical_formula_sum   'Tb3 Dy5 Ho12 Pb16'
_cell_volume   1060.28913330
_cell_formula_units_Z   1
loop_
 _symmetry_equiv_pos_site_id
 _symmetry_equiv_pos_as_xyz
  1  'x, y, z'
loop_
 _atom_site_type_symbol
 _atom_site_label
 _atom_site_symmetry_multiplicity
 _atom_site_fract_x
 _atom_site_fract_y
 _atom_site_fract_z
 _atom_site_occupancy
  Tb  Tb0  1  0.965825  0.822921  0.399966  1
  Tb  Tb1  1  0.534175  0.322938  0.600019  1
  Tb  Tb2  1  0.034195  0.177042  0.899973  1
  Dy  Dy3  1  0.534247  0.323004  0.899894  1
  Dy  Dy4  1  0.034232  0.177016  0.600118  1
  Dy  Dy5  1  0.465768  0.676991  0.399905  1
  Dy  Dy6  1  0.965757  0.822967  0.100121  1
  Dy  Dy7  1  0.465753  0.677018  0.100070  1
  Ho  Ho8  1  0.376725  0.840738  0.879438  1
  Ho  Ho9  1  0.876694  0.659239  0.620628  1
  Ho  Ho10  1  0.623302  0.159224  0.379369  1
  Ho  Ho11  1  0.123331  0.340829  0.120607  1
  Ho  Ho12  1  0.623311  0.159189  0.120573  1
  Ho  Ho13  1  0.123344  0.340791  0.379406  1
  Ho  Ho14  1  0.376657  0.840785  0.620591  1
  Ho  Ho15  1  0.876689  0.659248  0.879422  1
  Ho  Ho16  1  0.208304  0.504144  0.750019  1
  Ho  Ho17  1  0.708298  0.995853  0.749986  1
  Ho  Ho18  1  0.791634  0.495914  0.249983  1
  Ho  Ho19  1  0.291733  0.004104  0.249951  1
  Pb  Pb20  1  0.281887  0.033431  0.042811  1
  Pb  Pb21  1  0.781812  0.466452  0.457206  1
  Pb  Pb22  1  0.718196  0.966456  0.542750  1
  Pb  Pb23  1  0.218319  0.533638  0.957323  1
  Pb  Pb24  1  0.718054  0.966327  0.957348  1
  Pb  Pb25  1  0.218044  0.533682  0.542641  1
  Pb  Pb26  1  0.281971  0.033682  0.457312  1
  Pb  Pb27  1  0.781787  0.466462  0.042715  1
  Pb  Pb28  1  0.571836  0.627008  0.750000  1
  Pb  Pb29  1  0.071826  0.872973  0.750013  1
  Pb  Pb30  1  0.428181  0.373035  0.249977  1
  Pb  Pb31  1  0.928177  0.127036  0.249999  1
  Pb  Pb32  1  0.345042  0.151811  0.750076  1
  Pb  Pb33  1  0.845045  0.348188  0.749932  1
  Pb  Pb34  1  0.654835  0.848043  0.249961  1
  Pb  Pb35  1  0.155013  0.651820  0.249896  1
