# generated using pymatgen
data_Zr10Si4Ge2C
_symmetry_space_group_name_H-M   'P 1'
_cell_length_a   8.01279605
_cell_length_b   8.01615305
_cell_length_c   5.66587502
_cell_angle_alpha   89.99639960
_cell_angle_beta   90.00180750
_cell_angle_gamma   120.01384801
_symmetry_Int_Tables_number   1
_chemical_formula_structural   Zr10Si4Ge2C
_chemical_formula_sum   'Zr10 Si4 Ge2 C1'
_cell_volume   315.12807095
_cell_formula_units_Z   1
loop_
 _symmetry_equiv_pos_site_id
 _symmetry_equiv_pos_as_xyz
  1  'x, y, z'
loop_
 _atom_site_type_symbol
 _atom_site_label
 _atom_site_symmetry_multiplicity
 _atom_site_fract_x
 _atom_site_fract_y
 _atom_site_fract_z
 _atom_site_occupancy
  Zr  Zr0  1  0.000000  0.757906  0.258970  1
  Zr  Zr1  1  0.241017  0.240812  0.260555  1
  Zr  Zr2  1  0.758983  0.999796  0.260555  1
  Zr  Zr3  1  0.000000  0.243246  0.739600  1
  Zr  Zr4  1  0.761688  0.758876  0.739127  1
  Zr  Zr5  1  0.238312  0.997186  0.739127  1
  Zr  Zr6  1  0.331560  0.666465  0.001903  1
  Zr  Zr7  1  0.668440  0.334904  0.001903  1
  Zr  Zr8  1  0.669356  0.334780  0.498137  1
  Zr  Zr9  1  0.330644  0.665424  0.498137  1
  Si  Si10  1  0.000000  0.396582  0.247063  1
  Si  Si11  1  0.603127  0.603814  0.249478  1
  Si  Si12  1  0.396873  0.000688  0.249478  1
  Si  Si13  1  0.000000  0.602066  0.753144  1
  Ge  Ge14  1  0.397607  0.397047  0.751425  1
  Ge  Ge15  1  0.602393  0.999440  0.751425  1
  C  C16  1  0.000000  0.000971  0.499975  1
