# generated using pymatgen
data_Lu11Sc(Si3Ru)4
_symmetry_space_group_name_H-M   'P 1'
_cell_length_a   4.09716600
_cell_length_b   10.59370279
_cell_length_c   12.08481919
_cell_angle_alpha   89.91678504
_cell_angle_beta   90.00000000
_cell_angle_gamma   90.00000000
_symmetry_Int_Tables_number   1
_chemical_formula_structural   Lu11Sc(Si3Ru)4
_chemical_formula_sum   'Lu11 Sc1 Si12 Ru4'
_cell_volume   524.53085901
_cell_formula_units_Z   1
loop_
 _symmetry_equiv_pos_site_id
 _symmetry_equiv_pos_as_xyz
  1  'x, y, z'
loop_
 _atom_site_type_symbol
 _atom_site_label
 _atom_site_symmetry_multiplicity
 _atom_site_fract_x
 _atom_site_fract_y
 _atom_site_fract_z
 _atom_site_occupancy
  Lu  Lu0  1  0.250000  0.880076  0.018486  1
  Lu  Lu1  1  0.250000  0.620461  0.519254  1
  Lu  Lu2  1  0.750000  0.120853  0.978613  1
  Lu  Lu3  1  0.750000  0.377660  0.482459  1
  Lu  Lu4  1  0.250000  0.922929  0.605417  1
  Lu  Lu5  1  0.250000  0.578262  0.105016  1
  Lu  Lu6  1  0.750000  0.077659  0.396574  1
  Lu  Lu7  1  0.750000  0.420942  0.893793  1
  Lu  Lu8  1  0.250000  0.661591  0.799185  1
  Lu  Lu9  1  0.250000  0.839281  0.299496  1
  Lu  Lu10  1  0.750000  0.336635  0.200635  1
  Sc  Sc11  1  0.750000  0.160387  0.702218  1
  Si  Si12  1  0.250000  0.016660  0.820739  1
  Si  Si13  1  0.250000  0.484429  0.322064  1
  Si  Si14  1  0.750000  0.986285  0.177836  1
  Si  Si15  1  0.750000  0.515585  0.678079  1
  Si  Si16  1  0.250000  0.248937  0.838176  1
  Si  Si17  1  0.250000  0.249151  0.344751  1
  Si  Si18  1  0.750000  0.750438  0.157326  1
  Si  Si19  1  0.750000  0.750296  0.657242  1
  Si  Si20  1  0.250000  0.197802  0.549838  1
  Si  Si21  1  0.250000  0.301092  0.041963  1
  Si  Si22  1  0.750000  0.801353  0.456426  1
  Si  Si23  1  0.750000  0.698903  0.955925  1
  Ru  Ru24  1  0.250000  0.391008  0.679936  1
  Ru  Ru25  1  0.250000  0.110126  0.180745  1
  Ru  Ru26  1  0.750000  0.609029  0.319556  1
  Ru  Ru27  1  0.750000  0.892168  0.818251  1
