# generated using pymatgen
data_DyAl4Si2Au
_symmetry_space_group_name_H-M   'P 1'
_cell_length_a   10.50401298
_cell_length_b   10.50393631
_cell_length_c   10.50403513
_cell_angle_alpha   23.15622500
_cell_angle_beta   23.15666222
_cell_angle_gamma   23.15619379
_symmetry_Int_Tables_number   1
_chemical_formula_structural   DyAl4Si2Au
_chemical_formula_sum   'Dy1 Al4 Si2 Au1'
_cell_volume   157.31930769
_cell_formula_units_Z   1
loop_
 _symmetry_equiv_pos_site_id
 _symmetry_equiv_pos_as_xyz
  1  'x, y, z'
loop_
 _atom_site_type_symbol
 _atom_site_label
 _atom_site_symmetry_multiplicity
 _atom_site_fract_x
 _atom_site_fract_y
 _atom_site_fract_z
 _atom_site_occupancy
  Dy  Dy0  1  0.500028  0.499981  0.500000  1
  Al  Al1  1  0.695269  0.695243  0.695245  1
  Al  Al2  1  0.304771  0.304740  0.304757  1
  Al  Al3  1  0.086416  0.086377  0.086394  1
  Al  Al4  1  0.913642  0.913594  0.913605  1
  Si  Si5  1  0.777769  0.777716  0.777744  1
  Si  Si6  1  0.222288  0.222253  0.222254  1
  Au  Au7  1  0.000020  0.999992  0.000001  1
