# generated using pymatgen
data_Hf8In2Cu3Ni5Hg2
_symmetry_space_group_name_H-M   'P 1'
_cell_length_a   7.16715557
_cell_length_b   7.18690052
_cell_length_c   6.65471409
_cell_angle_alpha   90.01728899
_cell_angle_beta   89.99418276
_cell_angle_gamma   90.23816480
_symmetry_Int_Tables_number   1
_chemical_formula_structural   Hf8In2Cu3Ni5Hg2
_chemical_formula_sum   'Hf8 In2 Cu3 Ni5 Hg2'
_cell_volume   342.77890889
_cell_formula_units_Z   1
loop_
 _symmetry_equiv_pos_site_id
 _symmetry_equiv_pos_as_xyz
  1  'x, y, z'
loop_
 _atom_site_type_symbol
 _atom_site_label
 _atom_site_symmetry_multiplicity
 _atom_site_fract_x
 _atom_site_fract_y
 _atom_site_fract_z
 _atom_site_occupancy
  Hf  Hf0  1  0.144754  0.158293  0.004223  1
  Hf  Hf1  1  0.834313  0.847392  0.998234  1
  Hf  Hf2  1  0.663138  0.342171  0.495803  1
  Hf  Hf3  1  0.357440  0.647947  0.495498  1
  Hf  Hf4  1  0.686342  0.318806  0.004306  1
  Hf  Hf5  1  0.328909  0.679447  0.003243  1
  Hf  Hf6  1  0.806710  0.820049  0.500591  1
  Hf  Hf7  1  0.175867  0.189416  0.495975  1
  In  In8  1  0.002172  0.504633  0.249113  1
  In  In9  1  0.000324  0.503894  0.750076  1
  Cu  Cu10  1  0.375660  0.371202  0.788395  1
  Cu  Cu11  1  0.125223  0.873372  0.287991  1
  Cu  Cu12  1  0.126924  0.874024  0.712142  1
  Ni  Ni13  1  0.375728  0.373977  0.218489  1
  Ni  Ni14  1  0.624127  0.621535  0.777860  1
  Ni  Ni15  1  0.628344  0.625054  0.219010  1
  Ni  Ni16  1  0.875755  0.122212  0.721908  1
  Ni  Ni17  1  0.875537  0.121423  0.278115  1
  Hg  Hg18  1  0.496389  0.003121  0.250496  1
  Hg  Hg19  1  0.496344  0.002031  0.748533  1
