# generated using pymatgen
data_Ce7Er(Si3Ir)4
_symmetry_space_group_name_H-M   'P 1'
_cell_length_a   8.23935800
_cell_length_b   8.23935857
_cell_length_c   8.06522500
_cell_angle_alpha   90.00000000
_cell_angle_beta   90.00000000
_cell_angle_gamma   119.99999770
_symmetry_Int_Tables_number   1
_chemical_formula_structural   Ce7Er(Si3Ir)4
_chemical_formula_sum   'Ce7 Er1 Si12 Ir4'
_cell_volume   474.16981758
_cell_formula_units_Z   1
loop_
 _symmetry_equiv_pos_site_id
 _symmetry_equiv_pos_as_xyz
  1  'x, y, z'
loop_
 _atom_site_type_symbol
 _atom_site_label
 _atom_site_symmetry_multiplicity
 _atom_site_fract_x
 _atom_site_fract_y
 _atom_site_fract_z
 _atom_site_occupancy
  Ce  Ce0  1  0.500550  0.001103  0.250000  1
  Ce  Ce1  1  0.499342  0.998684  0.750000  1
  Ce  Ce2  1  0.998897  0.499450  0.250000  1
  Ce  Ce3  1  0.001316  0.500658  0.750000  1
  Ce  Ce4  1  0.500550  0.499450  0.250000  1
  Ce  Ce5  1  0.499342  0.500658  0.750000  1
  Ce  Ce6  1  0.000000  0.000000  0.250000  1
  Er  Er7  1  0.000000  0.000000  0.750000  1
  Si  Si8  1  0.165171  0.330341  0.999647  1
  Si  Si9  1  0.834789  0.669577  0.998887  1
  Si  Si10  1  0.669659  0.834829  0.999647  1
  Si  Si11  1  0.834789  0.669577  0.501113  1
  Si  Si12  1  0.330423  0.165211  0.998887  1
  Si  Si13  1  0.165171  0.330341  0.500353  1
  Si  Si14  1  0.165171  0.834829  0.999647  1
  Si  Si15  1  0.330423  0.165211  0.501113  1
  Si  Si16  1  0.834789  0.165211  0.998887  1
  Si  Si17  1  0.669659  0.834829  0.500353  1
  Si  Si18  1  0.834789  0.165211  0.501113  1
  Si  Si19  1  0.165171  0.834829  0.500353  1
  Ir  Ir20  1  0.333333  0.666667  0.999267  1
  Ir  Ir21  1  0.666667  0.333333  0.994694  1
  Ir  Ir22  1  0.666667  0.333333  0.505306  1
  Ir  Ir23  1  0.333333  0.666667  0.500733  1
