# generated using pymatgen
data_Cr2Fe2Cl7F
_symmetry_space_group_name_H-M   'P 1'
_cell_length_a   7.42390080
_cell_length_b   7.41574954
_cell_length_c   7.41575000
_cell_angle_alpha   58.77762842
_cell_angle_beta   57.92609199
_cell_angle_gamma   57.92608720
_symmetry_Int_Tables_number   1
_chemical_formula_structural   Cr2Fe2Cl7F
_chemical_formula_sum   'Cr2 Fe2 Cl7 F1'
_cell_volume   276.80315504
_cell_formula_units_Z   1
loop_
 _symmetry_equiv_pos_site_id
 _symmetry_equiv_pos_as_xyz
  1  'x, y, z'
loop_
 _atom_site_type_symbol
 _atom_site_label
 _atom_site_symmetry_multiplicity
 _atom_site_fract_x
 _atom_site_fract_y
 _atom_site_fract_z
 _atom_site_occupancy
  Cr  Cr0  1  0.133262  0.136060  0.613048  1
  Cr  Cr1  1  0.133262  0.613048  0.136060  1
  Fe  Fe2  1  0.623343  0.130714  0.130714  1
  Fe  Fe3  1  0.126183  0.126504  0.126504  1
  Cl  Cl4  1  0.382307  0.360337  0.893362  1
  Cl  Cl5  1  0.916124  0.881084  0.881084  1
  Cl  Cl6  1  0.872089  0.890903  0.362944  1
  Cl  Cl7  1  0.372066  0.885748  0.885748  1
  Cl  Cl8  1  0.382307  0.893362  0.360337  1
  Cl  Cl9  1  0.872089  0.362944  0.890903  1
  Cl  Cl10  1  0.875638  0.368980  0.368980  1
  F  F11  1  0.311329  0.350315  0.350315  1
