# generated using pymatgen
data_Tb2YbCo7C2
_symmetry_space_group_name_H-M   'P 1'
_cell_length_a   5.04566100
_cell_length_b   5.04565986
_cell_length_c   13.75730600
_cell_angle_alpha   90.00000000
_cell_angle_beta   90.00000000
_cell_angle_gamma   120.00001403
_symmetry_Int_Tables_number   1
_chemical_formula_structural   Tb2YbCo7C2
_chemical_formula_sum   'Tb4 Yb2 Co14 C4'
_cell_volume   303.31927300
_cell_formula_units_Z   2
loop_
 _symmetry_equiv_pos_site_id
 _symmetry_equiv_pos_as_xyz
  1  'x, y, z'
loop_
 _atom_site_type_symbol
 _atom_site_label
 _atom_site_symmetry_multiplicity
 _atom_site_fract_x
 _atom_site_fract_y
 _atom_site_fract_z
 _atom_site_occupancy
  Tb  Tb0  1  0.666667  0.333333  0.537354  1
  Tb  Tb1  1  0.333333  0.666667  0.462646  1
  Tb  Tb2  1  0.333333  0.666667  0.037354  1
  Tb  Tb3  1  0.666667  0.333333  0.962646  1
  Yb  Yb4  1  0.666667  0.333333  0.750000  1
  Yb  Yb5  1  0.333333  0.666667  0.250000  1
  Co  Co6  1  0.164361  0.328721  0.655653  1
  Co  Co7  1  0.328721  0.164361  0.344347  1
  Co  Co8  1  0.328721  0.164361  0.155653  1
  Co  Co9  1  0.164361  0.835639  0.844347  1
  Co  Co10  1  0.835639  0.671279  0.344347  1
  Co  Co11  1  0.835639  0.164361  0.155653  1
  Co  Co12  1  0.671279  0.835639  0.655653  1
  Co  Co13  1  0.671279  0.835639  0.844347  1
  Co  Co14  1  0.164361  0.835639  0.655653  1
  Co  Co15  1  0.835639  0.671279  0.155653  1
  Co  Co16  1  0.000000  0.000000  0.000000  1
  Co  Co17  1  0.164361  0.328721  0.844347  1
  Co  Co18  1  0.835639  0.164361  0.344347  1
  Co  Co19  1  0.000000  0.000000  0.500000  1
  C  C20  1  0.666667  0.333333  0.250000  1
  C  C21  1  0.000000  0.000000  0.750000  1
  C  C22  1  0.333333  0.666667  0.750000  1
  C  C23  1  0.000000  0.000000  0.250000  1
