# generated using pymatgen
data_LaTb3Ta4(Bi2O11)2
_symmetry_space_group_name_H-M   'P 1'
_cell_length_a   6.62794552
_cell_length_b   7.71144606
_cell_length_c   9.80287822
_cell_angle_alpha   101.34393053
_cell_angle_beta   90.34507370
_cell_angle_gamma   90.12263125
_symmetry_Int_Tables_number   1
_chemical_formula_structural   LaTb3Ta4(Bi2O11)2
_chemical_formula_sum   'La1 Tb3 Ta4 Bi4 O22'
_cell_volume   491.23544896
_cell_formula_units_Z   1
loop_
 _symmetry_equiv_pos_site_id
 _symmetry_equiv_pos_as_xyz
  1  'x, y, z'
loop_
 _atom_site_type_symbol
 _atom_site_label
 _atom_site_symmetry_multiplicity
 _atom_site_fract_x
 _atom_site_fract_y
 _atom_site_fract_z
 _atom_site_occupancy
  La  La0  1  0.747253  0.372456  0.491905  1
  Tb  Tb1  1  0.249860  0.634687  0.520760  1
  Tb  Tb2  1  0.757703  0.871601  0.487395  1
  Tb  Tb3  1  0.239846  0.125927  0.510694  1
  Ta  Ta4  1  0.914793  0.703738  0.807783  1
  Ta  Ta5  1  0.088084  0.299420  0.195924  1
  Ta  Ta6  1  0.916934  0.198483  0.807691  1
  Ta  Ta7  1  0.086678  0.800026  0.195332  1
  Bi  Bi8  1  0.436640  0.956508  0.815142  1
  Bi  Bi9  1  0.566657  0.043329  0.185035  1
  Bi  Bi10  1  0.386511  0.455666  0.828303  1
  Bi  Bi11  1  0.607737  0.544768  0.174231  1
  O  O12  1  0.218452  0.725739  0.760526  1
  O  O13  1  0.785017  0.272751  0.239057  1
  O  O14  1  0.632242  0.660508  0.838323  1
  O  O15  1  0.369805  0.334165  0.154164  1
  O  O16  1  0.632146  0.254595  0.836511  1
  O  O17  1  0.368921  0.746011  0.154776  1
  O  O18  1  0.898560  0.141743  0.588292  1
  O  O19  1  0.110648  0.843521  0.409121  1
  O  O20  1  0.217316  0.150584  0.753771  1
  O  O21  1  0.785484  0.849467  0.246673  1
  O  O22  1  0.902002  0.653342  0.592418  1
  O  O23  1  0.113461  0.361748  0.406392  1
  O  O24  1  0.026199  0.549950  0.197207  1
  O  O25  1  0.971437  0.447811  0.794267  1
  O  O26  1  0.997219  0.782329  0.001490  1
  O  O27  1  0.004226  0.218231  0.998081  1
  O  O28  1  0.564502  0.604371  0.393222  1
  O  O29  1  0.411931  0.402641  0.608613  1
  O  O30  1  0.163231  0.055830  0.221540  1
  O  O31  1  0.832545  0.945876  0.785312  1
  O  O32  1  0.540065  0.096409  0.402277  1
  O  O33  1  0.455898  0.895770  0.597775  1
