# generated using pymatgen
data_Sc22ReRh7
_symmetry_space_group_name_H-M   'P 1'
_cell_length_a   9.51070203
_cell_length_b   9.51070354
_cell_length_c   9.51070300
_cell_angle_alpha   59.99999839
_cell_angle_beta   59.99999316
_cell_angle_gamma   60.00000067
_symmetry_Int_Tables_number   1
_chemical_formula_structural   Sc22ReRh7
_chemical_formula_sum   'Sc22 Re1 Rh7'
_cell_volume   608.30700309
_cell_formula_units_Z   1
loop_
 _symmetry_equiv_pos_site_id
 _symmetry_equiv_pos_as_xyz
  1  'x, y, z'
loop_
 _atom_site_type_symbol
 _atom_site_label
 _atom_site_symmetry_multiplicity
 _atom_site_fract_x
 _atom_site_fract_y
 _atom_site_fract_z
 _atom_site_occupancy
  Sc  Sc0  1  0.801845  0.801845  0.198155  1
  Sc  Sc1  1  0.198155  0.801845  0.198155  1
  Sc  Sc2  1  0.801845  0.198155  0.198155  1
  Sc  Sc3  1  0.198155  0.198155  0.801845  1
  Sc  Sc4  1  0.801845  0.198155  0.801845  1
  Sc  Sc5  1  0.198155  0.801845  0.801845  1
  Sc  Sc6  1  0.616478  0.616478  0.150565  1
  Sc  Sc7  1  0.616478  0.150565  0.616478  1
  Sc  Sc8  1  0.150565  0.616478  0.616478  1
  Sc  Sc9  1  0.616478  0.616478  0.616478  1
  Sc  Sc10  1  0.383522  0.383522  0.849435  1
  Sc  Sc11  1  0.383522  0.849435  0.383522  1
  Sc  Sc12  1  0.849435  0.383522  0.383522  1
  Sc  Sc13  1  0.383522  0.383522  0.383522  1
  Sc  Sc14  1  0.842714  0.842714  0.471855  1
  Sc  Sc15  1  0.842714  0.471855  0.842714  1
  Sc  Sc16  1  0.471855  0.842714  0.842714  1
  Sc  Sc17  1  0.842714  0.842714  0.842714  1
  Sc  Sc18  1  0.157286  0.157286  0.528145  1
  Sc  Sc19  1  0.157286  0.528145  0.157286  1
  Sc  Sc20  1  0.528145  0.157286  0.157286  1
  Sc  Sc21  1  0.157286  0.157286  0.157286  1
  Re  Re22  1  0.500000  0.500000  0.500000  1
  Rh  Rh23  1  0.000000  0.000000  0.000000  1
  Rh  Rh24  1  0.000000  0.000000  0.500000  1
  Rh  Rh25  1  0.500000  0.000000  0.500000  1
  Rh  Rh26  1  0.000000  0.500000  0.500000  1
  Rh  Rh27  1  0.500000  0.500000  0.000000  1
  Rh  Rh28  1  0.000000  0.500000  0.000000  1
  Rh  Rh29  1  0.500000  0.000000  0.000000  1
