# generated using pymatgen
data_TbY(HfPd5)3
_symmetry_space_group_name_H-M   'P 1'
_cell_length_a   4.06094200
_cell_length_b   4.06094200
_cell_length_c   20.31335600
_cell_angle_alpha   90.00000000
_cell_angle_beta   90.00000000
_cell_angle_gamma   90.00000000
_symmetry_Int_Tables_number   1
_chemical_formula_structural   TbY(HfPd5)3
_chemical_formula_sum   'Tb1 Y1 Hf3 Pd15'
_cell_volume   334.99263066
_cell_formula_units_Z   1
loop_
 _symmetry_equiv_pos_site_id
 _symmetry_equiv_pos_as_xyz
  1  'x, y, z'
loop_
 _atom_site_type_symbol
 _atom_site_label
 _atom_site_symmetry_multiplicity
 _atom_site_fract_x
 _atom_site_fract_y
 _atom_site_fract_z
 _atom_site_occupancy
  Tb  Tb0  1  0.000000  0.000000  0.000632  1
  Y  Y1  1  0.000000  0.000000  0.799318  1
  Hf  Hf2  1  0.000000  0.000000  0.201571  1
  Hf  Hf3  1  0.000000  0.000000  0.400001  1
  Hf  Hf4  1  0.000000  0.000000  0.598416  1
  Pd  Pd5  1  0.500000  0.500000  0.005089  1
  Pd  Pd6  1  0.500000  0.500000  0.205817  1
  Pd  Pd7  1  0.500000  0.500000  0.399983  1
  Pd  Pd8  1  0.500000  0.500000  0.594167  1
  Pd  Pd9  1  0.500000  0.500000  0.794974  1
  Pd  Pd10  1  0.500000  0.000000  0.108996  1
  Pd  Pd11  1  0.500000  0.000000  0.302836  1
  Pd  Pd12  1  0.500000  0.000000  0.497136  1
  Pd  Pd13  1  0.500000  0.000000  0.690951  1
  Pd  Pd14  1  0.500000  0.000000  0.900098  1
  Pd  Pd15  1  0.000000  0.500000  0.108996  1
  Pd  Pd16  1  0.000000  0.500000  0.302836  1
  Pd  Pd17  1  0.000000  0.500000  0.497136  1
  Pd  Pd18  1  0.000000  0.500000  0.690951  1
  Pd  Pd19  1  0.000000  0.500000  0.900098  1
