# generated using pymatgen
data_Pa3Co4P6Rh5
_symmetry_space_group_name_H-M   'P 1'
_cell_length_a   3.87464700
_cell_length_b   10.64158700
_cell_length_c   12.58450500
_cell_angle_alpha   90.00000000
_cell_angle_beta   90.00000000
_cell_angle_gamma   90.00000000
_symmetry_Int_Tables_number   1
_chemical_formula_structural   Pa3Co4P6Rh5
_chemical_formula_sum   'Pa6 Co8 P12 Rh10'
_cell_volume   518.88925769
_cell_formula_units_Z   2
loop_
 _symmetry_equiv_pos_site_id
 _symmetry_equiv_pos_as_xyz
  1  'x, y, z'
loop_
 _atom_site_type_symbol
 _atom_site_label
 _atom_site_symmetry_multiplicity
 _atom_site_fract_x
 _atom_site_fract_y
 _atom_site_fract_z
 _atom_site_occupancy
  Pa  Pa0  1  0.000000  0.500000  0.527016  1
  Pa  Pa1  1  0.500000  0.000000  0.472984  1
  Pa  Pa2  1  0.500000  0.821643  0.199188  1
  Pa  Pa3  1  0.500000  0.178357  0.199188  1
  Pa  Pa4  1  0.000000  0.678357  0.800812  1
  Pa  Pa5  1  0.000000  0.321643  0.800812  1
  Co  Co6  1  0.000000  0.500000  0.977600  1
  Co  Co7  1  0.500000  0.000000  0.022400  1
  Co  Co8  1  0.500000  0.333920  0.993963  1
  Co  Co9  1  0.500000  0.666080  0.993963  1
  Co  Co10  1  0.000000  0.166080  0.006037  1
  Co  Co11  1  0.000000  0.833920  0.006037  1
  Co  Co12  1  0.500000  0.500000  0.708170  1
  Co  Co13  1  0.000000  0.000000  0.291830  1
  P  P14  1  0.500000  0.324252  0.622489  1
  P  P15  1  0.500000  0.675748  0.622489  1
  P  P16  1  0.000000  0.175748  0.377511  1
  P  P17  1  0.000000  0.824252  0.377511  1
  P  P18  1  0.500000  0.500000  0.883920  1
  P  P19  1  0.000000  0.000000  0.116080  1
  P  P20  1  0.500000  0.845259  0.906028  1
  P  P21  1  0.500000  0.154741  0.906028  1
  P  P22  1  0.000000  0.654741  0.093972  1
  P  P23  1  0.000000  0.345259  0.093972  1
  P  P24  1  0.500000  0.500000  0.341976  1
  P  P25  1  0.000000  0.000000  0.658024  1
  Rh  Rh26  1  0.500000  0.303189  0.433554  1
  Rh  Rh27  1  0.500000  0.696811  0.433554  1
  Rh  Rh28  1  0.000000  0.196811  0.566446  1
  Rh  Rh29  1  0.000000  0.803189  0.566446  1
  Rh  Rh30  1  0.500000  0.867550  0.716611  1
  Rh  Rh31  1  0.500000  0.132450  0.716611  1
  Rh  Rh32  1  0.000000  0.632450  0.283389  1
  Rh  Rh33  1  0.000000  0.367550  0.283389  1
  Rh  Rh34  1  0.500000  0.500000  0.155264  1
  Rh  Rh35  1  0.000000  0.000000  0.844736  1
