# generated using pymatgen
data_Pu4V3B16W
_symmetry_space_group_name_H-M   'P 1'
_cell_length_a   3.55754600
_cell_length_b   5.96758613
_cell_length_c   11.56466326
_cell_angle_alpha   90.02427596
_cell_angle_beta   90.00000000
_cell_angle_gamma   90.00000000
_symmetry_Int_Tables_number   1
_chemical_formula_structural   Pu4V3B16W
_chemical_formula_sum   'Pu4 V3 B16 W1'
_cell_volume   245.51734159
_cell_formula_units_Z   1
loop_
 _symmetry_equiv_pos_site_id
 _symmetry_equiv_pos_as_xyz
  1  'x, y, z'
loop_
 _atom_site_type_symbol
 _atom_site_label
 _atom_site_symmetry_multiplicity
 _atom_site_fract_x
 _atom_site_fract_y
 _atom_site_fract_z
 _atom_site_occupancy
  Pu  Pu0  1  0.000000  0.624843  0.347046  1
  Pu  Pu1  1  0.000000  0.373334  0.652195  1
  Pu  Pu2  1  0.000000  0.125425  0.150390  1
  Pu  Pu3  1  0.000000  0.874788  0.851775  1
  V  V4  1  0.000000  0.627517  0.083040  1
  V  V5  1  0.000000  0.372580  0.917242  1
  V  V6  1  0.000000  0.130706  0.414667  1
  B  B7  1  0.500000  0.784080  0.184992  1
  B  B8  1  0.500000  0.216637  0.815495  1
  B  B9  1  0.500000  0.284490  0.313521  1
  B  B10  1  0.500000  0.712019  0.688285  1
  B  B11  1  0.500000  0.864987  0.032907  1
  B  B12  1  0.500000  0.135205  0.967647  1
  B  B13  1  0.500000  0.365150  0.466140  1
  B  B14  1  0.500000  0.632052  0.531479  1
  B  B15  1  0.500000  0.886504  0.451061  1
  B  B16  1  0.500000  0.117253  0.545862  1
  B  B17  1  0.500000  0.386018  0.046864  1
  B  B18  1  0.500000  0.613570  0.953703  1
  B  B19  1  0.500000  0.975813  0.306861  1
  B  B20  1  0.500000  0.027465  0.693706  1
  B  B21  1  0.500000  0.475417  0.191619  1
  B  B22  1  0.500000  0.523585  0.808980  1
  W  W23  1  0.000000  0.870562  0.584522  1
