# generated using pymatgen
data_HoNbB6W
_symmetry_space_group_name_H-M   'P 1'
_cell_length_a   3.54933800
_cell_length_b   8.93279200
_cell_length_c   11.28502800
_cell_angle_alpha   90.00000000
_cell_angle_beta   90.00000000
_cell_angle_gamma   90.00000000
_symmetry_Int_Tables_number   1
_chemical_formula_structural   HoNbB6W
_chemical_formula_sum   'Ho4 Nb4 B24 W4'
_cell_volume   357.79743372
_cell_formula_units_Z   4
loop_
 _symmetry_equiv_pos_site_id
 _symmetry_equiv_pos_as_xyz
  1  'x, y, z'
loop_
 _atom_site_type_symbol
 _atom_site_label
 _atom_site_symmetry_multiplicity
 _atom_site_fract_x
 _atom_site_fract_y
 _atom_site_fract_z
 _atom_site_occupancy
  Ho  Ho0  1  0.000000  0.321505  0.413718  1
  Ho  Ho1  1  0.000000  0.678495  0.586282  1
  Ho  Ho2  1  0.000000  0.821505  0.086282  1
  Ho  Ho3  1  0.000000  0.178495  0.913718  1
  Nb  Nb4  1  0.000000  0.946167  0.373731  1
  Nb  Nb5  1  0.000000  0.053833  0.626269  1
  Nb  Nb6  1  0.000000  0.446167  0.126269  1
  Nb  Nb7  1  0.000000  0.553833  0.873731  1
  B  B8  1  0.500000  0.553670  0.434074  1
  B  B9  1  0.500000  0.446330  0.565926  1
  B  B10  1  0.500000  0.053670  0.065926  1
  B  B11  1  0.500000  0.946330  0.934074  1
  B  B12  1  0.500000  0.756208  0.419370  1
  B  B13  1  0.500000  0.243792  0.580630  1
  B  B14  1  0.500000  0.256208  0.080630  1
  B  B15  1  0.500000  0.743792  0.919370  1
  B  B16  1  0.500000  0.798288  0.263261  1
  B  B17  1  0.500000  0.201712  0.736739  1
  B  B18  1  0.500000  0.298288  0.236739  1
  B  B19  1  0.500000  0.701712  0.763261  1
  B  B20  1  0.500000  0.630158  0.180217  1
  B  B21  1  0.500000  0.369842  0.819783  1
  B  B22  1  0.500000  0.130158  0.319783  1
  B  B23  1  0.500000  0.869842  0.680217  1
  B  B24  1  0.500000  0.980321  0.214195  1
  B  B25  1  0.500000  0.019679  0.785805  1
  B  B26  1  0.500000  0.480321  0.285805  1
  B  B27  1  0.500000  0.519679  0.714195  1
  B  B28  1  0.500000  0.598358  0.025959  1
  B  B29  1  0.500000  0.401642  0.974041  1
  B  B30  1  0.500000  0.098358  0.474041  1
  B  B31  1  0.500000  0.901642  0.525959  1
  W  W32  1  0.000000  0.643404  0.316281  1
  W  W33  1  0.000000  0.356596  0.683719  1
  W  W34  1  0.000000  0.143404  0.183719  1
  W  W35  1  0.000000  0.856596  0.816281  1
