# generated using pymatgen
data_LiCa3Bi2H
_symmetry_space_group_name_H-M   'P 1'
_cell_length_a   4.63494900
_cell_length_b   12.33151400
_cell_length_c   12.51234900
_cell_angle_alpha   90.00000000
_cell_angle_beta   90.00000000
_cell_angle_gamma   90.00000000
_symmetry_Int_Tables_number   1
_chemical_formula_structural   LiCa3Bi2H
_chemical_formula_sum   'Li4 Ca12 Bi8 H4'
_cell_volume   715.15504972
_cell_formula_units_Z   4
loop_
 _symmetry_equiv_pos_site_id
 _symmetry_equiv_pos_as_xyz
  1  'x, y, z'
loop_
 _atom_site_type_symbol
 _atom_site_label
 _atom_site_symmetry_multiplicity
 _atom_site_fract_x
 _atom_site_fract_y
 _atom_site_fract_z
 _atom_site_occupancy
  Li  Li0  1  0.250000  0.135728  0.860350  1
  Li  Li1  1  0.250000  0.635728  0.639650  1
  Li  Li2  1  0.750000  0.864272  0.139650  1
  Li  Li3  1  0.750000  0.364272  0.360350  1
  Ca  Ca4  1  0.250000  0.061371  0.625055  1
  Ca  Ca5  1  0.250000  0.561371  0.874945  1
  Ca  Ca6  1  0.750000  0.938629  0.374945  1
  Ca  Ca7  1  0.750000  0.438629  0.125055  1
  Ca  Ca8  1  0.250000  0.361097  0.564163  1
  Ca  Ca9  1  0.250000  0.861097  0.935837  1
  Ca  Ca10  1  0.750000  0.638903  0.435837  1
  Ca  Ca11  1  0.750000  0.138903  0.064163  1
  Ca  Ca12  1  0.250000  0.218620  0.288020  1
  Ca  Ca13  1  0.250000  0.718620  0.211980  1
  Ca  Ca14  1  0.750000  0.781380  0.711980  1
  Ca  Ca15  1  0.750000  0.281380  0.788020  1
  Bi  Bi16  1  0.250000  0.484386  0.322651  1
  Bi  Bi17  1  0.250000  0.984386  0.177349  1
  Bi  Bi18  1  0.750000  0.515614  0.677349  1
  Bi  Bi19  1  0.750000  0.015614  0.822651  1
  Bi  Bi20  1  0.250000  0.317413  0.989665  1
  Bi  Bi21  1  0.250000  0.817413  0.510335  1
  Bi  Bi22  1  0.750000  0.682587  0.010335  1
  Bi  Bi23  1  0.750000  0.182587  0.489665  1
  H  H24  1  0.250000  0.233085  0.720921  1
  H  H25  1  0.250000  0.733085  0.779079  1
  H  H26  1  0.750000  0.766915  0.279079  1
  H  H27  1  0.750000  0.266915  0.220921  1
