# generated using pymatgen
data_Ca6LaNi4Sn13
_symmetry_space_group_name_H-M   'P 1'
_cell_length_a   11.32116900
_cell_length_b   11.32116900
_cell_length_c   4.65479800
_cell_angle_alpha   90.00000000
_cell_angle_beta   90.00000000
_cell_angle_gamma   90.00000000
_symmetry_Int_Tables_number   1
_chemical_formula_structural   Ca6LaNi4Sn13
_chemical_formula_sum   'Ca6 La1 Ni4 Sn13'
_cell_volume   596.60018822
_cell_formula_units_Z   1
loop_
 _symmetry_equiv_pos_site_id
 _symmetry_equiv_pos_as_xyz
  1  'x, y, z'
loop_
 _atom_site_type_symbol
 _atom_site_label
 _atom_site_symmetry_multiplicity
 _atom_site_fract_x
 _atom_site_fract_y
 _atom_site_fract_z
 _atom_site_occupancy
  Ca  Ca0  1  0.837550  0.169885  0.000000  1
  Ca  Ca1  1  0.830115  0.837550  0.000000  1
  Ca  Ca2  1  0.162450  0.830115  0.000000  1
  Ca  Ca3  1  0.169885  0.162450  0.000000  1
  Ca  Ca4  1  0.000000  0.500000  0.000000  1
  Ca  Ca5  1  0.500000  0.000000  0.000000  1
  La  La6  1  0.500000  0.500000  0.500000  1
  Ni  Ni7  1  0.776488  0.619115  0.500000  1
  Ni  Ni8  1  0.380885  0.776488  0.500000  1
  Ni  Ni9  1  0.619115  0.223512  0.500000  1
  Ni  Ni10  1  0.223512  0.380885  0.500000  1
  Sn  Sn11  1  0.018074  0.284654  0.500000  1
  Sn  Sn12  1  0.981926  0.715346  0.500000  1
  Sn  Sn13  1  0.215417  0.611899  0.500000  1
  Sn  Sn14  1  0.577707  0.305507  0.000000  1
  Sn  Sn15  1  0.694493  0.577707  0.000000  1
  Sn  Sn16  1  0.784583  0.388101  0.500000  1
  Sn  Sn17  1  0.715346  0.018074  0.500000  1
  Sn  Sn18  1  0.000000  0.000000  0.500000  1
  Sn  Sn19  1  0.284654  0.981926  0.500000  1
  Sn  Sn20  1  0.422293  0.694493  0.000000  1
  Sn  Sn21  1  0.611899  0.784583  0.500000  1
  Sn  Sn22  1  0.305507  0.422293  0.000000  1
  Sn  Sn23  1  0.388101  0.215417  0.500000  1
