# generated using pymatgen
data_Ho2Er6CrRe3C8
_symmetry_space_group_name_H-M   'P 1'
_cell_length_a   5.05549400
_cell_length_b   6.51837511
_cell_length_c   9.75116455
_cell_angle_alpha   89.82498533
_cell_angle_beta   90.00000000
_cell_angle_gamma   90.00000000
_symmetry_Int_Tables_number   1
_chemical_formula_structural   Ho2Er6CrRe3C8
_chemical_formula_sum   'Ho2 Er6 Cr1 Re3 C8'
_cell_volume   321.33453792
_cell_formula_units_Z   1
loop_
 _symmetry_equiv_pos_site_id
 _symmetry_equiv_pos_as_xyz
  1  'x, y, z'
loop_
 _atom_site_type_symbol
 _atom_site_label
 _atom_site_symmetry_multiplicity
 _atom_site_fract_x
 _atom_site_fract_y
 _atom_site_fract_z
 _atom_site_occupancy
  Ho  Ho0  1  0.750000  0.533104  0.782202  1
  Ho  Ho1  1  0.250000  0.964892  0.283828  1
  Er  Er2  1  0.750000  0.678683  0.444291  1
  Er  Er3  1  0.250000  0.825459  0.943537  1
  Er  Er4  1  0.750000  0.181309  0.054567  1
  Er  Er5  1  0.250000  0.318233  0.559273  1
  Er  Er6  1  0.250000  0.464964  0.215954  1
  Er  Er7  1  0.750000  0.032706  0.717410  1
  Cr  Cr8  1  0.250000  0.278122  0.864851  1
  Re  Re9  1  0.250000  0.779207  0.635062  1
  Re  Re10  1  0.750000  0.218362  0.368225  1
  Re  Re11  1  0.750000  0.719140  0.132457  1
  C  C12  1  0.250000  0.675557  0.449700  1
  C  C13  1  0.250000  0.542810  0.762864  1
  C  C14  1  0.750000  0.450685  0.240852  1
  C  C15  1  0.750000  0.824879  0.947820  1
  C  C16  1  0.250000  0.052079  0.743388  1
  C  C17  1  0.250000  0.183685  0.041491  1
  C  C18  1  0.750000  0.323979  0.553384  1
  C  C19  1  0.750000  0.952145  0.258842  1
