# generated using pymatgen
data_HoErSc3P12Ru19
_symmetry_space_group_name_H-M   'P 1'
_cell_length_a   12.45046400
_cell_length_b   12.45046527
_cell_length_c   3.94876400
_cell_angle_alpha   90.00000000
_cell_angle_beta   90.00000000
_cell_angle_gamma   120.00000194
_symmetry_Int_Tables_number   1
_chemical_formula_structural   HoErSc3P12Ru19
_chemical_formula_sum   'Ho1 Er1 Sc3 P12 Ru19'
_cell_volume   530.10624419
_cell_formula_units_Z   1
loop_
 _symmetry_equiv_pos_site_id
 _symmetry_equiv_pos_as_xyz
  1  'x, y, z'
loop_
 _atom_site_type_symbol
 _atom_site_label
 _atom_site_symmetry_multiplicity
 _atom_site_fract_x
 _atom_site_fract_y
 _atom_site_fract_z
 _atom_site_occupancy
  Ho  Ho0  1  0.333333  0.666667  0.000000  1
  Er  Er1  1  0.666667  0.333333  0.000000  1
  Sc  Sc2  1  0.999997  0.182248  0.500000  1
  Sc  Sc3  1  0.817752  0.817748  0.500000  1
  Sc  Sc4  1  0.182252  0.000003  0.500000  1
  P  P5  1  0.999938  0.818893  0.000000  1
  P  P6  1  0.181107  0.181045  0.000000  1
  P  P7  1  0.818955  0.000062  0.000000  1
  P  P8  1  0.693124  0.169924  0.500000  1
  P  P9  1  0.830076  0.523200  0.500000  1
  P  P10  1  0.476800  0.306876  0.500000  1
  P  P11  1  0.169742  0.693149  0.500000  1
  P  P12  1  0.523407  0.830258  0.500000  1
  P  P13  1  0.306851  0.476593  0.500000  1
  P  P14  1  0.000010  0.372282  0.000000  1
  P  P15  1  0.627718  0.627728  0.000000  1
  P  P16  1  0.372272  0.999990  0.000000  1
  Ru  Ru17  1  0.999998  0.555806  0.000000  1
  Ru  Ru18  1  0.444194  0.444193  0.000000  1
  Ru  Ru19  1  0.555807  0.000002  0.000000  1
  Ru  Ru20  1  0.999937  0.721130  0.500000  1
  Ru  Ru21  1  0.278870  0.278807  0.500000  1
  Ru  Ru22  1  0.721193  0.000063  0.500000  1
  Ru  Ru23  1  0.811848  0.184671  0.000000  1
  Ru  Ru24  1  0.815329  0.627177  0.000000  1
  Ru  Ru25  1  0.372823  0.188152  0.000000  1
  Ru  Ru26  1  0.184551  0.811914  0.000000  1
  Ru  Ru27  1  0.627362  0.815449  0.000000  1
  Ru  Ru28  1  0.188086  0.372638  0.000000  1
  Ru  Ru29  1  0.873591  0.364943  0.500000  1
  Ru  Ru30  1  0.635057  0.508648  0.500000  1
  Ru  Ru31  1  0.491352  0.126409  0.500000  1
  Ru  Ru32  1  0.364978  0.873937  0.500000  1
  Ru  Ru33  1  0.508960  0.635022  0.500000  1
  Ru  Ru34  1  0.126063  0.491040  0.500000  1
  Ru  Ru35  1  0.000000  0.000000  0.000000  1
