# generated using pymatgen
data_Lu4Ge2B8Mo
_symmetry_space_group_name_H-M   'P 1'
_cell_length_a   7.06492200
_cell_length_b   7.06492200
_cell_length_c   7.49044100
_cell_angle_alpha   90.00000000
_cell_angle_beta   90.00000000
_cell_angle_gamma   90.00000000
_symmetry_Int_Tables_number   1
_chemical_formula_structural   Lu4Ge2B8Mo
_chemical_formula_sum   'Lu8 Ge4 B16 Mo2'
_cell_volume   373.87130195
_cell_formula_units_Z   2
loop_
 _symmetry_equiv_pos_site_id
 _symmetry_equiv_pos_as_xyz
  1  'x, y, z'
loop_
 _atom_site_type_symbol
 _atom_site_label
 _atom_site_symmetry_multiplicity
 _atom_site_fract_x
 _atom_site_fract_y
 _atom_site_fract_z
 _atom_site_occupancy
  Lu  Lu0  1  0.678650  0.178650  0.233568  1
  Lu  Lu1  1  0.321350  0.821350  0.766432  1
  Lu  Lu2  1  0.321350  0.821350  0.233568  1
  Lu  Lu3  1  0.821350  0.678650  0.233568  1
  Lu  Lu4  1  0.821350  0.678650  0.766432  1
  Lu  Lu5  1  0.678650  0.178650  0.766432  1
  Lu  Lu6  1  0.178650  0.321350  0.766432  1
  Lu  Lu7  1  0.178650  0.321350  0.233568  1
  Ge  Ge8  1  0.129443  0.629443  0.500000  1
  Ge  Ge9  1  0.870557  0.370557  0.500000  1
  Ge  Ge10  1  0.370557  0.129443  0.500000  1
  Ge  Ge11  1  0.629443  0.870557  0.500000  1
  B  B12  1  0.172429  0.039398  0.000000  1
  B  B13  1  0.827571  0.960602  0.000000  1
  B  B14  1  0.960602  0.172429  0.000000  1
  B  B15  1  0.327571  0.539398  0.000000  1
  B  B16  1  0.039398  0.827571  0.000000  1
  B  B17  1  0.672429  0.460602  0.000000  1
  B  B18  1  0.539398  0.672429  0.000000  1
  B  B19  1  0.460602  0.327571  0.000000  1
  B  B20  1  0.089986  0.589986  0.000000  1
  B  B21  1  0.910014  0.410014  0.000000  1
  B  B22  1  0.410014  0.089986  0.000000  1
  B  B23  1  0.589986  0.910014  0.000000  1
  B  B24  1  0.000000  0.000000  0.179640  1
  B  B25  1  0.000000  0.000000  0.820360  1
  B  B26  1  0.500000  0.500000  0.820360  1
  B  B27  1  0.500000  0.500000  0.179640  1
  Mo  Mo28  1  0.000000  0.000000  0.500000  1
  Mo  Mo29  1  0.500000  0.500000  0.500000  1
