# generated using pymatgen
data_Er4MnRu7
_symmetry_space_group_name_H-M   'P 1'
_cell_length_a   5.30556100
_cell_length_b   5.19785138
_cell_length_c   8.87571000
_cell_angle_alpha   90.00000000
_cell_angle_beta   90.00000000
_cell_angle_gamma   120.68787071
_symmetry_Int_Tables_number   1
_chemical_formula_structural   Er4MnRu7
_chemical_formula_sum   'Er4 Mn1 Ru7'
_cell_volume   210.49253219
_cell_formula_units_Z   1
loop_
 _symmetry_equiv_pos_site_id
 _symmetry_equiv_pos_as_xyz
  1  'x, y, z'
loop_
 _atom_site_type_symbol
 _atom_site_label
 _atom_site_symmetry_multiplicity
 _atom_site_fract_x
 _atom_site_fract_y
 _atom_site_fract_z
 _atom_site_occupancy
  Er  Er0  1  0.332259  0.664519  0.432829  1
  Er  Er1  1  0.667687  0.335373  0.565766  1
  Er  Er2  1  0.667687  0.335373  0.934234  1
  Er  Er3  1  0.332259  0.664519  0.067171  1
  Mn  Mn4  1  0.168351  0.336702  0.750000  1
  Ru  Ru5  1  0.172516  0.826600  0.750000  1
  Ru  Ru6  1  0.342956  0.170796  0.250000  1
  Ru  Ru7  1  0.831215  0.662431  0.250000  1
  Ru  Ru8  1  0.654084  0.826600  0.750000  1
  Ru  Ru9  1  0.001573  0.003147  0.997806  1
  Ru  Ru10  1  0.827840  0.170796  0.250000  1
  Ru  Ru11  1  0.001573  0.003147  0.502194  1
