# generated using pymatgen
data_Lu6Nb(Al3Co8)2
_symmetry_space_group_name_H-M   'P 1'
_cell_length_a   8.43198320
_cell_length_b   8.43198420
_cell_length_c   8.43198400
_cell_angle_alpha   60.00000862
_cell_angle_beta   60.00000470
_cell_angle_gamma   60.00000705
_symmetry_Int_Tables_number   1
_chemical_formula_structural   Lu6Nb(Al3Co8)2
_chemical_formula_sum   'Lu6 Nb1 Al6 Co16'
_cell_volume   423.91068082
_cell_formula_units_Z   1
loop_
 _symmetry_equiv_pos_site_id
 _symmetry_equiv_pos_as_xyz
  1  'x, y, z'
loop_
 _atom_site_type_symbol
 _atom_site_label
 _atom_site_symmetry_multiplicity
 _atom_site_fract_x
 _atom_site_fract_y
 _atom_site_fract_z
 _atom_site_occupancy
  Lu  Lu0  1  0.715992  0.284008  0.284008  1
  Lu  Lu1  1  0.284008  0.715992  0.715992  1
  Lu  Lu2  1  0.284008  0.715992  0.284008  1
  Lu  Lu3  1  0.284008  0.284008  0.715992  1
  Lu  Lu4  1  0.715992  0.284008  0.715992  1
  Lu  Lu5  1  0.715992  0.715992  0.284008  1
  Nb  Nb6  1  0.000000  0.000000  0.000000  1
  Al  Al7  1  0.500000  0.000000  0.000000  1
  Al  Al8  1  0.000000  0.500000  0.500000  1
  Al  Al9  1  0.000000  0.500000  0.000000  1
  Al  Al10  1  0.000000  0.000000  0.500000  1
  Al  Al11  1  0.500000  0.000000  0.500000  1
  Al  Al12  1  0.500000  0.500000  0.000000  1
  Co  Co13  1  0.321967  0.321967  0.321967  1
  Co  Co14  1  0.321967  0.321967  0.034103  1
  Co  Co15  1  0.034103  0.321967  0.321967  1
  Co  Co16  1  0.321967  0.034103  0.321967  1
  Co  Co17  1  0.678033  0.678033  0.678033  1
  Co  Co18  1  0.678033  0.678033  0.965897  1
  Co  Co19  1  0.678033  0.965897  0.678033  1
  Co  Co20  1  0.965897  0.678033  0.678033  1
  Co  Co21  1  0.124815  0.124815  0.124815  1
  Co  Co22  1  0.124815  0.124815  0.625555  1
  Co  Co23  1  0.625555  0.124815  0.124815  1
  Co  Co24  1  0.124815  0.625555  0.124815  1
  Co  Co25  1  0.875185  0.875185  0.875185  1
  Co  Co26  1  0.875185  0.875185  0.374445  1
  Co  Co27  1  0.875185  0.374445  0.875185  1
  Co  Co28  1  0.374445  0.875185  0.875185  1
