# generated using pymatgen
data_La2MnZn(AsO)2
_symmetry_space_group_name_H-M   'P 1'
_cell_length_a   4.14932500
_cell_length_b   4.14932500
_cell_length_c   9.18484600
_cell_angle_alpha   90.00000000
_cell_angle_beta   90.00000000
_cell_angle_gamma   90.00000000
_symmetry_Int_Tables_number   1
_chemical_formula_structural   La2MnZn(AsO)2
_chemical_formula_sum   'La2 Mn1 Zn1 As2 O2'
_cell_volume   158.13455632
_cell_formula_units_Z   1
loop_
 _symmetry_equiv_pos_site_id
 _symmetry_equiv_pos_as_xyz
  1  'x, y, z'
loop_
 _atom_site_type_symbol
 _atom_site_label
 _atom_site_symmetry_multiplicity
 _atom_site_fract_x
 _atom_site_fract_y
 _atom_site_fract_z
 _atom_site_occupancy
  La  La0  1  0.500000  0.000000  0.869596  1
  La  La1  1  0.000000  0.500000  0.130404  1
  Mn  Mn2  1  0.000000  0.000000  0.500000  1
  Zn  Zn3  1  0.500000  0.500000  0.500000  1
  As  As4  1  0.500000  0.000000  0.325140  1
  As  As5  1  0.000000  0.500000  0.674860  1
  O  O6  1  0.500000  0.500000  0.000000  1
  O  O7  1  0.000000  0.000000  0.000000  1
