# generated using pymatgen
data_Tm15LuTl5InFeCo
_symmetry_space_group_name_H-M   'P 1'
_cell_length_a   10.18648400
_cell_length_b   10.18647847
_cell_length_c   6.90611200
_cell_angle_alpha   90.00008437
_cell_angle_beta   89.99996625
_cell_angle_gamma   119.99997898
_symmetry_Int_Tables_number   1
_chemical_formula_structural   Tm15LuTl5InFeCo
_chemical_formula_sum   'Tm15 Lu1 Tl5 In1 Fe1 Co1'
_cell_volume   620.60135572
_cell_formula_units_Z   1
loop_
 _symmetry_equiv_pos_site_id
 _symmetry_equiv_pos_as_xyz
  1  'x, y, z'
loop_
 _atom_site_type_symbol
 _atom_site_label
 _atom_site_symmetry_multiplicity
 _atom_site_fract_x
 _atom_site_fract_y
 _atom_site_fract_z
 _atom_site_occupancy
  Tm  Tm0  1  0.535355  0.072005  0.522392  1
  Tm  Tm1  1  0.927989  0.464635  0.522389  1
  Tm  Tm2  1  0.536389  0.463600  0.523252  1
  Tm  Tm3  1  0.464533  0.929253  0.023896  1
  Tm  Tm4  1  0.070737  0.535464  0.023899  1
  Tm  Tm5  1  0.464492  0.535489  0.023660  1
  Tm  Tm6  1  0.178656  0.357633  0.726084  1
  Tm  Tm7  1  0.642364  0.821340  0.726095  1
  Tm  Tm8  1  0.178761  0.821232  0.727378  1
  Tm  Tm9  1  0.821287  0.642687  0.226482  1
  Tm  Tm10  1  0.357319  0.178717  0.226495  1
  Tm  Tm11  1  0.821455  0.178531  0.226555  1
  Tm  Tm12  1  0.666718  0.333271  0.910578  1
  Tm  Tm13  1  0.333142  0.666857  0.411059  1
  Tm  Tm14  1  0.000503  0.999493  0.508378  1
  Lu  Lu15  1  0.000580  0.999501  0.009094  1
  Tl  Tl16  1  0.837554  0.675150  0.771082  1
  Tl  Tl17  1  0.324858  0.162452  0.771090  1
  Tl  Tl18  1  0.837489  0.162508  0.770938  1
  Tl  Tl19  1  0.162863  0.325762  0.270146  1
  Tl  Tl20  1  0.674241  0.837145  0.270139  1
  In  In21  1  0.162680  0.837309  0.269640  1
  Fe  Fe22  1  0.666600  0.333399  0.297823  1
  Co  Co23  1  0.333431  0.666564  0.797137  1
