# generated using pymatgen
data_Tl2Pd2O7
_symmetry_space_group_name_H-M   'P 1'
_cell_length_a   7.27899000
_cell_length_b   7.27898816
_cell_length_c   7.27899000
_cell_angle_alpha   119.99999928
_cell_angle_beta   90.00000000
_cell_angle_gamma   119.99999928
_symmetry_Int_Tables_number   1
_chemical_formula_structural   Tl2Pd2O7
_chemical_formula_sum   'Tl4 Pd4 O14'
_cell_volume   272.70824597
_cell_formula_units_Z   2
loop_
 _symmetry_equiv_pos_site_id
 _symmetry_equiv_pos_as_xyz
  1  'x, y, z'
loop_
 _atom_site_type_symbol
 _atom_site_label
 _atom_site_symmetry_multiplicity
 _atom_site_fract_x
 _atom_site_fract_y
 _atom_site_fract_z
 _atom_site_occupancy
  Tl  Tl0  1  0.000000  0.000000  0.000000  1
  Tl  Tl1  1  0.500001  0.000000  0.000000  1
  Tl  Tl2  1  0.500001  0.500001  0.000000  1
  Tl  Tl3  1  0.500001  0.500001  0.500001  1
  Pd  Pd4  1  0.000000  0.500001  0.000000  1
  Pd  Pd5  1  0.500000  0.000000  0.500000  1
  Pd  Pd6  1  0.000000  0.000000  0.500001  1
  Pd  Pd7  1  0.000000  0.500001  0.500001  1
  O  O8  1  0.375001  0.250000  0.125000  1
  O  O9  1  0.334764  0.749999  0.165235  1
  O  O10  1  0.915235  0.330472  0.165236  1
  O  O11  1  0.915235  0.749999  0.165236  1
  O  O12  1  0.665235  0.250000  0.415235  1
  O  O13  1  0.665235  0.830471  0.415235  1
  O  O14  1  0.084765  0.250000  0.415236  1
  O  O15  1  0.915235  0.749999  0.584764  1
  O  O16  1  0.334764  0.169528  0.584765  1
  O  O17  1  0.334764  0.749999  0.584765  1
  O  O18  1  0.084765  0.250000  0.834764  1
  O  O19  1  0.084765  0.669527  0.834764  1
  O  O20  1  0.665235  0.250000  0.834765  1
  O  O21  1  0.624999  0.749999  0.874999  1
