# generated using pymatgen
data_Hf6Al16Cu4IrRu2
_symmetry_space_group_name_H-M   'P 1'
_cell_length_a   8.66044609
_cell_length_b   8.66044622
_cell_length_c   8.60658900
_cell_angle_alpha   60.20549872
_cell_angle_beta   60.20549824
_cell_angle_gamma   59.64260722
_symmetry_Int_Tables_number   1
_chemical_formula_structural   Hf6Al16Cu4IrRu2
_chemical_formula_sum   'Hf6 Al16 Cu4 Ir1 Ru2'
_cell_volume   456.60919825
_cell_formula_units_Z   1
loop_
 _symmetry_equiv_pos_site_id
 _symmetry_equiv_pos_as_xyz
  1  'x, y, z'
loop_
 _atom_site_type_symbol
 _atom_site_label
 _atom_site_symmetry_multiplicity
 _atom_site_fract_x
 _atom_site_fract_y
 _atom_site_fract_z
 _atom_site_occupancy
  Hf  Hf0  1  0.685398  0.314602  0.313789  1
  Hf  Hf1  1  0.314602  0.685398  0.686211  1
  Hf  Hf2  1  0.314602  0.685398  0.313789  1
  Hf  Hf3  1  0.685398  0.314602  0.686211  1
  Hf  Hf4  1  0.306171  0.306171  0.693829  1
  Hf  Hf5  1  0.693829  0.693829  0.306171  1
  Al  Al6  1  0.333917  0.333917  0.335056  1
  Al  Al7  1  0.666083  0.666083  0.664944  1
  Al  Al8  1  0.333917  0.333917  0.997109  1
  Al  Al9  1  0.337257  0.996495  0.333124  1
  Al  Al10  1  0.666083  0.666083  0.002891  1
  Al  Al11  1  0.662743  0.003505  0.666876  1
  Al  Al12  1  0.996495  0.337257  0.333124  1
  Al  Al13  1  0.003505  0.662743  0.666876  1
  Al  Al14  1  0.116205  0.116205  0.123514  1
  Al  Al15  1  0.883795  0.883795  0.876486  1
  Al  Al16  1  0.116205  0.116205  0.644076  1
  Al  Al17  1  0.126638  0.643821  0.114770  1
  Al  Al18  1  0.883795  0.883795  0.355924  1
  Al  Al19  1  0.873362  0.356179  0.885230  1
  Al  Al20  1  0.643821  0.126638  0.114770  1
  Al  Al21  1  0.356179  0.873362  0.885230  1
  Cu  Cu22  1  0.500000  0.000000  0.000000  1
  Cu  Cu23  1  0.000000  0.500000  0.500000  1
  Cu  Cu24  1  0.000000  0.500000  0.000000  1
  Cu  Cu25  1  0.500000  0.000000  0.500000  1
  Ir  Ir26  1  0.000000  0.000000  0.500000  1
  Ru  Ru27  1  0.500000  0.500000  0.000000  1
  Ru  Ru28  1  0.000000  0.000000  0.000000  1
