# generated using pymatgen
data_TiPd4Au3
_symmetry_space_group_name_H-M   'P 1'
_cell_length_a   5.74311991
_cell_length_b   5.74312012
_cell_length_c   3.96559800
_cell_angle_alpha   90.00000000
_cell_angle_beta   90.00000000
_cell_angle_gamma   92.33044750
_symmetry_Int_Tables_number   1
_chemical_formula_structural   TiPd4Au3
_chemical_formula_sum   'Ti1 Pd4 Au3'
_cell_volume   130.69083392
_cell_formula_units_Z   1
loop_
 _symmetry_equiv_pos_site_id
 _symmetry_equiv_pos_as_xyz
  1  'x, y, z'
loop_
 _atom_site_type_symbol
 _atom_site_label
 _atom_site_symmetry_multiplicity
 _atom_site_fract_x
 _atom_site_fract_y
 _atom_site_fract_z
 _atom_site_occupancy
  Ti  Ti0  1  0.500000  0.500000  0.500000  1
  Pd  Pd1  1  0.263506  0.263506  0.000000  1
  Pd  Pd2  1  0.736495  0.736495  0.000000  1
  Pd  Pd3  1  0.500000  0.000000  0.500000  1
  Pd  Pd4  1  0.000000  0.500000  0.500000  1
  Au  Au5  1  0.746139  0.253861  0.000000  1
  Au  Au6  1  0.253861  0.746139  0.000000  1
  Au  Au7  1  0.000000  0.000000  0.500000  1
