# generated using pymatgen
data_LuZr2Co7B2
_symmetry_space_group_name_H-M   'P 1'
_cell_length_a   4.95010907
_cell_length_b   4.95647040
_cell_length_c   13.84755800
_cell_angle_alpha   90.00000000
_cell_angle_beta   90.00000000
_cell_angle_gamma   119.98498200
_symmetry_Int_Tables_number   1
_chemical_formula_structural   LuZr2Co7B2
_chemical_formula_sum   'Lu2 Zr4 Co14 B4'
_cell_volume   294.27733367
_cell_formula_units_Z   2
loop_
 _symmetry_equiv_pos_site_id
 _symmetry_equiv_pos_as_xyz
  1  'x, y, z'
loop_
 _atom_site_type_symbol
 _atom_site_label
 _atom_site_symmetry_multiplicity
 _atom_site_fract_x
 _atom_site_fract_y
 _atom_site_fract_z
 _atom_site_occupancy
  Lu  Lu0  1  0.333363  0.666770  0.250000  1
  Lu  Lu1  1  0.666637  0.333230  0.750000  1
  Zr  Zr2  1  0.333386  0.666725  0.034712  1
  Zr  Zr3  1  0.666614  0.333275  0.534712  1
  Zr  Zr4  1  0.666614  0.333275  0.965288  1
  Zr  Zr5  1  0.333386  0.666725  0.465288  1
  Co  Co6  1  0.000000  0.000000  0.000000  1
  Co  Co7  1  0.000000  0.000000  0.500000  1
  Co  Co8  1  0.834088  0.668185  0.143581  1
  Co  Co9  1  0.165893  0.833949  0.643590  1
  Co  Co10  1  0.668090  0.833960  0.643620  1
  Co  Co11  1  0.331910  0.166040  0.143620  1
  Co  Co12  1  0.834107  0.166051  0.143590  1
  Co  Co13  1  0.165912  0.331815  0.856419  1
  Co  Co14  1  0.165893  0.833949  0.856410  1
  Co  Co15  1  0.165912  0.331815  0.643581  1
  Co  Co16  1  0.668090  0.833960  0.856380  1
  Co  Co17  1  0.331910  0.166040  0.356380  1
  Co  Co18  1  0.834088  0.668185  0.356419  1
  Co  Co19  1  0.834107  0.166051  0.356410  1
  B  B20  1  0.000197  0.000304  0.250000  1
  B  B21  1  0.999803  0.999696  0.750000  1
  B  B22  1  0.333558  0.666906  0.750000  1
  B  B23  1  0.666442  0.333094  0.250000  1
