# generated using pymatgen
data_PrTh2(AlPt)3
_symmetry_space_group_name_H-M   'P 1'
_cell_length_a   7.32633201
_cell_length_b   7.32633102
_cell_length_c   4.17162400
_cell_angle_alpha   90.00000000
_cell_angle_beta   90.00000000
_cell_angle_gamma   119.91519492
_symmetry_Int_Tables_number   1
_chemical_formula_structural   PrTh2(AlPt)3
_chemical_formula_sum   'Pr1 Th2 Al3 Pt3'
_cell_volume   194.07938867
_cell_formula_units_Z   1
loop_
 _symmetry_equiv_pos_site_id
 _symmetry_equiv_pos_as_xyz
  1  'x, y, z'
loop_
 _atom_site_type_symbol
 _atom_site_label
 _atom_site_symmetry_multiplicity
 _atom_site_fract_x
 _atom_site_fract_y
 _atom_site_fract_z
 _atom_site_occupancy
  Pr  Pr0  1  0.416949  0.416949  0.500000  1
  Th  Th1  1  0.579798  0.000955  0.500000  1
  Th  Th2  1  0.000955  0.579798  0.500000  1
  Al  Al3  1  0.764469  0.764469  0.000000  1
  Al  Al4  1  0.229859  0.001816  0.000000  1
  Al  Al5  1  0.001816  0.229859  0.000000  1
  Pt  Pt6  1  0.681644  0.332539  0.000000  1
  Pt  Pt7  1  0.332539  0.681644  0.000000  1
  Pt  Pt8  1  0.991971  0.991971  0.500000  1
