# generated using pymatgen
data_Dy4PaVOs6
_symmetry_space_group_name_H-M   'P 1'
_cell_length_a   5.29274017
_cell_length_b   5.29274072
_cell_length_c   9.11812900
_cell_angle_alpha   90.00000000
_cell_angle_beta   90.00000000
_cell_angle_gamma   116.01085631
_symmetry_Int_Tables_number   1
_chemical_formula_structural   Dy4PaVOs6
_chemical_formula_sum   'Dy4 Pa1 V1 Os6'
_cell_volume   229.55511118
_cell_formula_units_Z   1
loop_
 _symmetry_equiv_pos_site_id
 _symmetry_equiv_pos_as_xyz
  1  'x, y, z'
loop_
 _atom_site_type_symbol
 _atom_site_label
 _atom_site_symmetry_multiplicity
 _atom_site_fract_x
 _atom_site_fract_y
 _atom_site_fract_z
 _atom_site_occupancy
  Dy  Dy0  1  0.331054  0.668946  0.446424  1
  Dy  Dy1  1  0.667173  0.332827  0.573006  1
  Dy  Dy2  1  0.667173  0.332827  0.926994  1
  Dy  Dy3  1  0.331054  0.668946  0.053576  1
  Pa  Pa4  1  0.844724  0.155276  0.250000  1
  V  V5  1  0.145376  0.854624  0.750000  1
  Os  Os6  1  0.006973  0.993027  0.509625  1
  Os  Os7  1  0.006973  0.993027  0.990375  1
  Os  Os8  1  0.829335  0.645128  0.250000  1
  Os  Os9  1  0.354872  0.170665  0.250000  1
  Os  Os10  1  0.176605  0.361311  0.750000  1
  Os  Os11  1  0.638689  0.823395  0.750000  1
