# generated using pymatgen
data_Ca7Yb3(Sb3Br)2
_symmetry_space_group_name_H-M   'P 1'
_cell_length_a   9.18852200
_cell_length_b   9.18860494
_cell_length_c   7.13178000
_cell_angle_alpha   90.00000000
_cell_angle_beta   90.00000000
_cell_angle_gamma   120.00030312
_symmetry_Int_Tables_number   1
_chemical_formula_structural   Ca7Yb3(Sb3Br)2
_chemical_formula_sum   'Ca7 Yb3 Sb6 Br2'
_cell_volume   521.46177918
_cell_formula_units_Z   1
loop_
 _symmetry_equiv_pos_site_id
 _symmetry_equiv_pos_as_xyz
  1  'x, y, z'
loop_
 _atom_site_type_symbol
 _atom_site_label
 _atom_site_symmetry_multiplicity
 _atom_site_fract_x
 _atom_site_fract_y
 _atom_site_fract_z
 _atom_site_occupancy
  Ca  Ca0  1  0.263984  0.000078  0.250000  1
  Ca  Ca1  1  0.000000  0.736091  0.750000  1
  Ca  Ca2  1  0.736016  0.736095  0.250000  1
  Ca  Ca3  1  0.666666  0.333190  0.500156  1
  Ca  Ca4  1  0.333334  0.666525  0.999844  1
  Ca  Ca5  1  0.333334  0.666525  0.500156  1
  Ca  Ca6  1  0.666666  0.333190  0.999844  1
  Yb  Yb7  1  0.262303  0.262391  0.750000  1
  Yb  Yb8  1  0.737697  0.000088  0.750000  1
  Yb  Yb9  1  0.000000  0.262385  0.250000  1
  Sb  Sb10  1  0.608058  0.608178  0.750000  1
  Sb  Sb11  1  0.000000  0.608054  0.250000  1
  Sb  Sb12  1  0.608950  0.000131  0.250000  1
  Sb  Sb13  1  0.391942  0.000120  0.750000  1
  Sb  Sb14  1  0.000000  0.391059  0.750000  1
  Sb  Sb15  1  0.391050  0.391180  0.250000  1
  Br  Br16  1  0.000000  0.002359  0.500977  1
  Br  Br17  1  0.000000  0.002359  0.999023  1
