# generated using pymatgen
data_NdEr2AuO7
_symmetry_space_group_name_H-M   'P 1'
_cell_length_a   6.47108567
_cell_length_b   6.47108628
_cell_length_c   7.50021100
_cell_angle_alpha   90.00000000
_cell_angle_beta   90.00000000
_cell_angle_gamma   108.61517162
_symmetry_Int_Tables_number   1
_chemical_formula_structural   NdEr2AuO7
_chemical_formula_sum   'Nd2 Er4 Au2 O14'
_cell_volume   297.64002434
_cell_formula_units_Z   2
loop_
 _symmetry_equiv_pos_site_id
 _symmetry_equiv_pos_as_xyz
  1  'x, y, z'
loop_
 _atom_site_type_symbol
 _atom_site_label
 _atom_site_symmetry_multiplicity
 _atom_site_fract_x
 _atom_site_fract_y
 _atom_site_fract_z
 _atom_site_occupancy
  Nd  Nd0  1  0.000000  0.000000  0.000000  1
  Nd  Nd1  1  0.000000  0.000000  0.500000  1
  Er  Er2  1  0.489453  0.946629  0.750000  1
  Er  Er3  1  0.510547  0.053371  0.250000  1
  Er  Er4  1  0.946629  0.489453  0.750000  1
  Er  Er5  1  0.053371  0.510547  0.250000  1
  Au  Au6  1  0.500000  0.500000  0.000000  1
  Au  Au7  1  0.500000  0.500000  0.500000  1
  O  O8  1  0.605869  0.605869  0.750000  1
  O  O9  1  0.394131  0.394131  0.250000  1
  O  O10  1  0.840264  0.127032  0.750000  1
  O  O11  1  0.159736  0.872968  0.250000  1
  O  O12  1  0.127032  0.840264  0.750000  1
  O  O13  1  0.872968  0.159736  0.250000  1
  O  O14  1  0.433645  0.170623  0.970183  1
  O  O15  1  0.566355  0.829377  0.470183  1
  O  O16  1  0.170623  0.433645  0.970183  1
  O  O17  1  0.829377  0.566355  0.470183  1
  O  O18  1  0.433645  0.170623  0.529817  1
  O  O19  1  0.566355  0.829377  0.029817  1
  O  O20  1  0.829377  0.566355  0.029817  1
  O  O21  1  0.170623  0.433645  0.529817  1
