# generated using pymatgen
data_Ho12Th4Zn3Fe4Hg
_symmetry_space_group_name_H-M   'P 1'
_cell_length_a   9.35430849
_cell_length_b   9.35430729
_cell_length_c   9.35430800
_cell_angle_alpha   60.00196367
_cell_angle_beta   60.00197497
_cell_angle_gamma   60.00197036
_symmetry_Int_Tables_number   1
_chemical_formula_structural   Ho12Th4Zn3Fe4Hg
_chemical_formula_sum   'Ho12 Th4 Zn3 Fe4 Hg1'
_cell_volume   578.81447292
_cell_formula_units_Z   1
loop_
 _symmetry_equiv_pos_site_id
 _symmetry_equiv_pos_as_xyz
  1  'x, y, z'
loop_
 _atom_site_type_symbol
 _atom_site_label
 _atom_site_symmetry_multiplicity
 _atom_site_fract_x
 _atom_site_fract_y
 _atom_site_fract_z
 _atom_site_occupancy
  Ho  Ho0  1  0.810482  0.189532  0.189532  1
  Ho  Ho1  1  0.188825  0.811217  0.811217  1
  Ho  Ho2  1  0.189532  0.810482  0.189532  1
  Ho  Ho3  1  0.811217  0.188825  0.811217  1
  Ho  Ho4  1  0.189532  0.189532  0.810482  1
  Ho  Ho5  1  0.811217  0.811217  0.188825  1
  Ho  Ho6  1  0.939378  0.563487  0.563487  1
  Ho  Ho7  1  0.564079  0.936529  0.936529  1
  Ho  Ho8  1  0.563487  0.939378  0.563487  1
  Ho  Ho9  1  0.936529  0.564079  0.936529  1
  Ho  Ho10  1  0.563487  0.563487  0.939378  1
  Ho  Ho11  1  0.936529  0.936529  0.564079  1
  Th  Th12  1  0.346856  0.346856  0.346856  1
  Th  Th13  1  0.346278  0.346278  0.959148  1
  Th  Th14  1  0.346278  0.959148  0.346278  1
  Th  Th15  1  0.959148  0.346278  0.346278  1
  Zn  Zn16  1  0.577724  0.577724  0.263060  1
  Zn  Zn17  1  0.577724  0.263060  0.577724  1
  Zn  Zn18  1  0.263060  0.577724  0.577724  1
  Fe  Fe19  1  0.143306  0.143306  0.143306  1
  Fe  Fe20  1  0.142911  0.142911  0.568508  1
  Fe  Fe21  1  0.142911  0.568508  0.142911  1
  Fe  Fe22  1  0.568508  0.142911  0.142911  1
  Hg  Hg23  1  0.581003  0.581003  0.581003  1
