# generated using pymatgen
data_Nd3InHg2Pd3
_symmetry_space_group_name_H-M   'P 1'
_cell_length_a   7.86416200
_cell_length_b   7.94801629
_cell_length_c   3.89337600
_cell_angle_alpha   90.00000000
_cell_angle_beta   90.00000000
_cell_angle_gamma   119.65160689
_symmetry_Int_Tables_number   1
_chemical_formula_structural   Nd3InHg2Pd3
_chemical_formula_sum   'Nd3 In1 Hg2 Pd3'
_cell_volume   211.48625676
_cell_formula_units_Z   1
loop_
 _symmetry_equiv_pos_site_id
 _symmetry_equiv_pos_as_xyz
  1  'x, y, z'
loop_
 _atom_site_type_symbol
 _atom_site_label
 _atom_site_symmetry_multiplicity
 _atom_site_fract_x
 _atom_site_fract_y
 _atom_site_fract_z
 _atom_site_occupancy
  Nd  Nd0  1  0.995848  0.592191  0.000000  1
  Nd  Nd1  1  0.403658  0.407809  0.000000  1
  Nd  Nd2  1  0.604644  0.000000  0.000000  1
  In  In3  1  0.257714  0.000000  0.500000  1
  Hg  Hg4  1  0.736564  0.733299  0.500000  1
  Hg  Hg5  1  0.003265  0.266701  0.500000  1
  Pd  Pd6  1  0.332230  0.676522  0.500000  1
  Pd  Pd7  1  0.010366  0.000000  0.000000  1
  Pd  Pd8  1  0.655710  0.323478  0.500000  1
