# generated using pymatgen
data_Sm8Sc12Ga15Ge
_symmetry_space_group_name_H-M   'P 1'
_cell_length_a   7.37779865
_cell_length_b   7.61942353
_cell_length_c   14.57308600
_cell_angle_alpha   90.00000000
_cell_angle_beta   90.00000000
_cell_angle_gamma   89.98489579
_symmetry_Int_Tables_number   1
_chemical_formula_structural   Sm8Sc12Ga15Ge
_chemical_formula_sum   'Sm8 Sc12 Ga15 Ge1'
_cell_volume   819.21977318
_cell_formula_units_Z   1
loop_
 _symmetry_equiv_pos_site_id
 _symmetry_equiv_pos_as_xyz
  1  'x, y, z'
loop_
 _atom_site_type_symbol
 _atom_site_label
 _atom_site_symmetry_multiplicity
 _atom_site_fract_x
 _atom_site_fract_y
 _atom_site_fract_z
 _atom_site_occupancy
  Sm  Sm0  1  0.011503  0.178044  0.094857  1
  Sm  Sm1  1  0.988141  0.820161  0.904388  1
  Sm  Sm2  1  0.487933  0.678797  0.904681  1
  Sm  Sm3  1  0.988141  0.820161  0.595612  1
  Sm  Sm4  1  0.511324  0.320882  0.094336  1
  Sm  Sm5  1  0.011503  0.178044  0.405143  1
  Sm  Sm6  1  0.511324  0.320882  0.405664  1
  Sm  Sm7  1  0.487933  0.678797  0.595319  1
  Sc  Sc8  1  0.160008  0.500076  0.750000  1
  Sc  Sc9  1  0.836788  0.498990  0.250000  1
  Sc  Sc10  1  0.337880  0.000153  0.250000  1
  Sc  Sc11  1  0.663621  0.997842  0.750000  1
  Sc  Sc12  1  0.332927  0.172824  0.624020  1
  Sc  Sc13  1  0.669615  0.827875  0.375645  1
  Sc  Sc14  1  0.169518  0.671834  0.374980  1
  Sc  Sc15  1  0.669615  0.827875  0.124355  1
  Sc  Sc16  1  0.828849  0.329843  0.624136  1
  Sc  Sc17  1  0.332927  0.172824  0.875980  1
  Sc  Sc18  1  0.828849  0.329843  0.875864  1
  Sc  Sc19  1  0.169518  0.671834  0.125020  1
  Ga  Ga20  1  0.032588  0.121183  0.750000  1
  Ga  Ga21  1  0.968087  0.881017  0.250000  1
  Ga  Ga22  1  0.468052  0.618901  0.250000  1
  Ga  Ga23  1  0.529173  0.384484  0.750000  1
  Ga  Ga24  1  0.285949  0.875098  0.750000  1
  Ga  Ga25  1  0.714947  0.125934  0.250000  1
  Ga  Ga26  1  0.215246  0.373041  0.250000  1
  Ga  Ga27  1  0.159674  0.464108  0.540884  1
  Ga  Ga28  1  0.840110  0.535915  0.459495  1
  Ga  Ga29  1  0.339454  0.962687  0.460168  1
  Ga  Ga30  1  0.840110  0.535915  0.040505  1
  Ga  Ga31  1  0.661578  0.035852  0.541124  1
  Ga  Ga32  1  0.159674  0.464108  0.959116  1
  Ga  Ga33  1  0.661578  0.035852  0.958876  1
  Ga  Ga34  1  0.339454  0.962687  0.039832  1
  Ge  Ge35  1  0.786412  0.625638  0.750000  1
