# generated using pymatgen
data_Tm3CdIn3Ni2
_symmetry_space_group_name_H-M   'P 1'
_cell_length_a   7.80716900
_cell_length_b   7.80716729
_cell_length_c   3.60125600
_cell_angle_alpha   90.00000000
_cell_angle_beta   90.00000000
_cell_angle_gamma   120.00000301
_symmetry_Int_Tables_number   1
_chemical_formula_structural   Tm3CdIn3Ni2
_chemical_formula_sum   'Tm3 Cd1 In3 Ni2'
_cell_volume   190.09543134
_cell_formula_units_Z   1
loop_
 _symmetry_equiv_pos_site_id
 _symmetry_equiv_pos_as_xyz
  1  'x, y, z'
loop_
 _atom_site_type_symbol
 _atom_site_label
 _atom_site_symmetry_multiplicity
 _atom_site_fract_x
 _atom_site_fract_y
 _atom_site_fract_z
 _atom_site_occupancy
  Tm  Tm0  1  0.037023  0.617623  0.500000  1
  Tm  Tm1  1  0.580600  0.962977  0.500000  1
  Tm  Tm2  1  0.382377  0.419400  0.500000  1
  Cd  Cd3  1  0.666667  0.333333  0.000000  1
  In  In4  1  0.993540  0.250174  0.000000  1
  In  In5  1  0.256634  0.006460  0.000000  1
  In  In6  1  0.749826  0.743366  0.000000  1
  Ni  Ni7  1  0.000000  0.000000  0.500000  1
  Ni  Ni8  1  0.333333  0.666667  0.000000  1
