# generated using pymatgen
data_Cs4Co(MoO4)3
_symmetry_space_group_name_H-M   'P 1'
_cell_length_a   6.38628112
_cell_length_b   6.38628137
_cell_length_c   24.81521000
_cell_angle_alpha   89.87125604
_cell_angle_beta   89.87125604
_cell_angle_gamma   120.06999353
_symmetry_Int_Tables_number   1
_chemical_formula_structural   Cs4Co(MoO4)3
_chemical_formula_sum   'Cs8 Co2 Mo6 O24'
_cell_volume   875.85765842
_cell_formula_units_Z   2
loop_
 _symmetry_equiv_pos_site_id
 _symmetry_equiv_pos_as_xyz
  1  'x, y, z'
loop_
 _atom_site_type_symbol
 _atom_site_label
 _atom_site_symmetry_multiplicity
 _atom_site_fract_x
 _atom_site_fract_y
 _atom_site_fract_z
 _atom_site_occupancy
  Cs  Cs0  1  0.332567  0.665924  0.157893  1
  Cs  Cs1  1  0.334012  0.667394  0.336452  1
  Cs  Cs2  1  0.665924  0.332567  0.657893  1
  Cs  Cs3  1  0.667394  0.334012  0.836452  1
  Cs  Cs4  1  0.666455  0.333392  0.032787  1
  Cs  Cs5  1  0.667016  0.333449  0.472562  1
  Cs  Cs6  1  0.333392  0.666455  0.532787  1
  Cs  Cs7  1  0.333449  0.667016  0.972562  1
  Co  Co8  1  0.998465  0.999303  0.251230  1
  Co  Co9  1  0.999303  0.998465  0.751230  1
  Mo  Mo10  1  0.000100  0.000290  0.095224  1
  Mo  Mo11  1  0.000265  0.999993  0.405031  1
  Mo  Mo12  1  0.000290  0.000100  0.595224  1
  Mo  Mo13  1  0.999993  0.000265  0.905031  1
  Mo  Mo14  1  0.666672  0.333149  0.228884  1
  Mo  Mo15  1  0.333149  0.666672  0.728884  1
  O  O16  1  0.149054  0.845864  0.070010  1
  O  O17  1  0.155089  0.304010  0.069772  1
  O  O18  1  0.696811  0.851512  0.070036  1
  O  O19  1  0.149045  0.843729  0.429058  1
  O  O20  1  0.156219  0.305173  0.428893  1
  O  O21  1  0.694510  0.850188  0.429048  1
  O  O22  1  0.845864  0.149054  0.570010  1
  O  O23  1  0.304010  0.155089  0.569772  1
  O  O24  1  0.851512  0.696811  0.570036  1
  O  O25  1  0.843729  0.149045  0.929058  1
  O  O26  1  0.305173  0.156219  0.928893  1
  O  O27  1  0.850188  0.694510  0.929048  1
  O  O28  1  0.000020  0.000354  0.168884  1
  O  O29  1  0.000762  0.000669  0.331416  1
  O  O30  1  0.000354  0.000020  0.668884  1
  O  O31  1  0.000669  0.000762  0.831416  1
  O  O32  1  0.667155  0.334397  0.158001  1
  O  O33  1  0.334397  0.667155  0.658001  1
  O  O34  1  0.367743  0.101834  0.251579  1
  O  O35  1  0.896979  0.264957  0.251506  1
  O  O36  1  0.734640  0.631041  0.251813  1
  O  O37  1  0.101834  0.367743  0.751579  1
  O  O38  1  0.264957  0.896979  0.751506  1
  O  O39  1  0.631041  0.734640  0.751813  1
