# generated using pymatgen
data_ThZr3(ScRu2)4
_symmetry_space_group_name_H-M   'P 1'
_cell_length_a   6.56258700
_cell_length_b   4.62542800
_cell_length_c   9.32465901
_cell_angle_alpha   90.00000000
_cell_angle_beta   90.00437271
_cell_angle_gamma   90.00000000
_symmetry_Int_Tables_number   1
_chemical_formula_structural   ThZr3(ScRu2)4
_chemical_formula_sum   'Th1 Zr3 Sc4 Ru8'
_cell_volume   283.04791301
_cell_formula_units_Z   1
loop_
 _symmetry_equiv_pos_site_id
 _symmetry_equiv_pos_as_xyz
  1  'x, y, z'
loop_
 _atom_site_type_symbol
 _atom_site_label
 _atom_site_symmetry_multiplicity
 _atom_site_fract_x
 _atom_site_fract_y
 _atom_site_fract_z
 _atom_site_occupancy
  Th  Th0  1  0.749876  0.250000  0.125022  1
  Zr  Zr1  1  0.249914  0.750000  0.377557  1
  Zr  Zr2  1  0.750085  0.250000  0.625031  1
  Zr  Zr3  1  0.250066  0.750000  0.872418  1
  Sc  Sc4  1  0.249947  0.250000  0.124982  1
  Sc  Sc5  1  0.749895  0.750000  0.385702  1
  Sc  Sc6  1  0.250153  0.250000  0.624992  1
  Sc  Sc7  1  0.750106  0.750000  0.864326  1
  Ru  Ru8  1  0.494252  0.750000  0.124941  1
  Ru  Ru9  1  0.005576  0.750000  0.124940  1
  Ru  Ru10  1  0.497458  0.250000  0.379096  1
  Ru  Ru11  1  0.002359  0.250000  0.379081  1
  Ru  Ru12  1  0.000699  0.750000  0.624951  1
  Ru  Ru13  1  0.499439  0.750000  0.624955  1
  Ru  Ru14  1  0.002524  0.250000  0.870986  1
  Ru  Ru15  1  0.497647  0.250000  0.871021  1
