# generated using pymatgen
data_Sm4GaCl6
_symmetry_space_group_name_H-M   'P 1'
_cell_length_a   4.04559700
_cell_length_b   13.16911500
_cell_length_c   13.98848600
_cell_angle_alpha   90.00000000
_cell_angle_beta   90.00000000
_cell_angle_gamma   90.00000000
_symmetry_Int_Tables_number   1
_chemical_formula_structural   Sm4GaCl6
_chemical_formula_sum   'Sm8 Ga2 Cl12'
_cell_volume   745.26361932
_cell_formula_units_Z   2
loop_
 _symmetry_equiv_pos_site_id
 _symmetry_equiv_pos_as_xyz
  1  'x, y, z'
loop_
 _atom_site_type_symbol
 _atom_site_label
 _atom_site_symmetry_multiplicity
 _atom_site_fract_x
 _atom_site_fract_y
 _atom_site_fract_z
 _atom_site_occupancy
  Sm  Sm0  1  0.500000  0.122218  0.334938  1
  Sm  Sm1  1  0.500000  0.877782  0.665062  1
  Sm  Sm2  1  0.500000  0.622218  0.165062  1
  Sm  Sm3  1  0.500000  0.377782  0.834938  1
  Sm  Sm4  1  0.000000  0.127391  0.583612  1
  Sm  Sm5  1  0.000000  0.872609  0.416388  1
  Sm  Sm6  1  0.000000  0.627391  0.916388  1
  Sm  Sm7  1  0.000000  0.372609  0.083612  1
  Ga  Ga8  1  0.500000  0.000000  0.500000  1
  Ga  Ga9  1  0.500000  0.500000  0.000000  1
  Cl  Cl10  1  0.500000  0.244987  0.163819  1
  Cl  Cl11  1  0.500000  0.755013  0.836181  1
  Cl  Cl12  1  0.500000  0.744987  0.336181  1
  Cl  Cl13  1  0.500000  0.255013  0.663819  1
  Cl  Cl14  1  0.000000  0.249334  0.408547  1
  Cl  Cl15  1  0.000000  0.750666  0.591453  1
  Cl  Cl16  1  0.000000  0.749334  0.091453  1
  Cl  Cl17  1  0.000000  0.250666  0.908547  1
  Cl  Cl18  1  0.000000  0.005356  0.248550  1
  Cl  Cl19  1  0.000000  0.994644  0.751450  1
  Cl  Cl20  1  0.000000  0.505356  0.251450  1
  Cl  Cl21  1  0.000000  0.494644  0.748550  1
