# generated using pymatgen
data_Tb4Cd3In5
_symmetry_space_group_name_H-M   'P 1'
_cell_length_a   4.92357000
_cell_length_b   7.33964051
_cell_length_c   8.50020911
_cell_angle_alpha   89.96178257
_cell_angle_beta   90.00000000
_cell_angle_gamma   90.00000000
_symmetry_Int_Tables_number   1
_chemical_formula_structural   Tb4Cd3In5
_chemical_formula_sum   'Tb4 Cd3 In5'
_cell_volume   307.17397580
_cell_formula_units_Z   1
loop_
 _symmetry_equiv_pos_site_id
 _symmetry_equiv_pos_as_xyz
  1  'x, y, z'
loop_
 _atom_site_type_symbol
 _atom_site_label
 _atom_site_symmetry_multiplicity
 _atom_site_fract_x
 _atom_site_fract_y
 _atom_site_fract_z
 _atom_site_occupancy
  Tb  Tb0  1  0.500000  0.500082  0.750883  1
  Tb  Tb1  1  0.500000  0.994226  0.749896  1
  Tb  Tb2  1  0.000000  0.501448  0.249973  1
  Tb  Tb3  1  0.000000  0.996419  0.249300  1
  Cd  Cd4  1  0.500000  0.782095  0.417306  1
  Cd  Cd5  1  0.000000  0.779920  0.915300  1
  Cd  Cd6  1  0.000000  0.289918  0.582094  1
  In  In7  1  0.500000  0.726861  0.084180  1
  In  In8  1  0.500000  0.214168  0.420720  1
  In  In9  1  0.000000  0.213337  0.912137  1
  In  In10  1  0.000000  0.719182  0.583046  1
  In  In11  1  0.500000  0.282344  0.085164  1
