# generated using pymatgen
data_Ho14Lu2TlIn5Co2
_symmetry_space_group_name_H-M   'P 1'
_cell_length_a   10.29248708
_cell_length_b   10.30799659
_cell_length_c   6.97430000
_cell_angle_alpha   89.97032380
_cell_angle_beta   89.99278548
_cell_angle_gamma   120.01683649
_symmetry_Int_Tables_number   1
_chemical_formula_structural   Ho14Lu2TlIn5Co2
_chemical_formula_sum   'Ho14 Lu2 Tl1 In5 Co2'
_cell_volume   640.69604981
_cell_formula_units_Z   1
loop_
 _symmetry_equiv_pos_site_id
 _symmetry_equiv_pos_as_xyz
  1  'x, y, z'
loop_
 _atom_site_type_symbol
 _atom_site_label
 _atom_site_symmetry_multiplicity
 _atom_site_fract_x
 _atom_site_fract_y
 _atom_site_fract_z
 _atom_site_occupancy
  Ho  Ho0  1  0.535770  0.464145  0.504729  1
  Ho  Ho1  1  0.464647  0.928983  0.005359  1
  Ho  Ho2  1  0.071959  0.535099  0.006652  1
  Ho  Ho3  1  0.463431  0.535330  0.006322  1
  Ho  Ho4  1  0.177634  0.356301  0.711625  1
  Ho  Ho5  1  0.643776  0.821997  0.711814  1
  Ho  Ho6  1  0.177519  0.821231  0.711750  1
  Ho  Ho7  1  0.822219  0.643252  0.209951  1
  Ho  Ho8  1  0.356832  0.177869  0.212256  1
  Ho  Ho9  1  0.821507  0.178391  0.212671  1
  Ho  Ho10  1  0.666430  0.332756  0.894501  1
  Ho  Ho11  1  0.333520  0.667254  0.395759  1
  Ho  Ho12  1  0.000700  0.001373  0.492082  1
  Ho  Ho13  1  0.000662  0.001664  0.993192  1
  Lu  Lu14  1  0.535414  0.071288  0.505280  1
  Lu  Lu15  1  0.928139  0.464142  0.504835  1
  Tl  Tl16  1  0.836835  0.674145  0.753365  1
  In  In17  1  0.324974  0.162026  0.752731  1
  In  In18  1  0.836216  0.162667  0.751781  1
  In  In19  1  0.163303  0.325520  0.253234  1
  In  In20  1  0.675274  0.837231  0.253001  1
  In  In21  1  0.162833  0.837618  0.253307  1
  Co  Co22  1  0.667141  0.333229  0.281050  1
  Co  Co23  1  0.333266  0.666485  0.780796  1
