# generated using pymatgen
data_Tb15NdCd4Ni3Ru
_symmetry_space_group_name_H-M   'P 1'
_cell_length_a   9.63622402
_cell_length_b   9.63622338
_cell_length_c   9.64278345
_cell_angle_alpha   59.74347444
_cell_angle_beta   59.74347478
_cell_angle_gamma   59.57917065
_symmetry_Int_Tables_number   1
_chemical_formula_structural   Tb15NdCd4Ni3Ru
_chemical_formula_sum   'Tb15 Nd1 Cd4 Ni3 Ru1'
_cell_volume   628.66132506
_cell_formula_units_Z   1
loop_
 _symmetry_equiv_pos_site_id
 _symmetry_equiv_pos_as_xyz
  1  'x, y, z'
loop_
 _atom_site_type_symbol
 _atom_site_label
 _atom_site_symmetry_multiplicity
 _atom_site_fract_x
 _atom_site_fract_y
 _atom_site_fract_z
 _atom_site_occupancy
  Tb  Tb0  1  0.597713  0.597713  0.597968  1
  Tb  Tb1  1  0.600167  0.600167  0.205675  1
  Tb  Tb2  1  0.601246  0.205690  0.599166  1
  Tb  Tb3  1  0.205690  0.601246  0.599166  1
  Tb  Tb4  1  0.060118  0.438917  0.437149  1
  Tb  Tb5  1  0.438046  0.060025  0.060976  1
  Tb  Tb6  1  0.438917  0.060118  0.437149  1
  Tb  Tb7  1  0.060025  0.438046  0.060976  1
  Tb  Tb8  1  0.438250  0.438250  0.060465  1
  Tb  Tb9  1  0.060328  0.060328  0.436769  1
  Tb  Tb10  1  0.186535  0.813871  0.815692  1
  Tb  Tb11  1  0.806947  0.188017  0.189054  1
  Tb  Tb12  1  0.813871  0.186535  0.815692  1
  Tb  Tb13  1  0.188017  0.806947  0.189054  1
  Tb  Tb14  1  0.815519  0.815519  0.186861  1
  Nd  Nd15  1  0.187337  0.187337  0.809209  1
  Cd  Cd16  1  0.830558  0.830558  0.830385  1
  Cd  Cd17  1  0.830223  0.830223  0.506324  1
  Cd  Cd18  1  0.828214  0.508173  0.830208  1
  Cd  Cd19  1  0.508173  0.828214  0.830208  1
  Ni  Ni20  1  0.393270  0.393270  0.825015  1
  Ni  Ni21  1  0.392890  0.824794  0.392918  1
  Ni  Ni22  1  0.824794  0.392890  0.392918  1
  Ru  Ru23  1  0.393151  0.393151  0.391000  1
