# generated using pymatgen
data_Sc4Mn7Os
_symmetry_space_group_name_H-M   'P 1'
_cell_length_a   4.88779900
_cell_length_b   4.88779866
_cell_length_c   8.32034500
_cell_angle_alpha   90.00000000
_cell_angle_beta   90.00000000
_cell_angle_gamma   119.99999553
_symmetry_Int_Tables_number   1
_chemical_formula_structural   Sc4Mn7Os
_chemical_formula_sum   'Sc4 Mn7 Os1'
_cell_volume   172.14667235
_cell_formula_units_Z   1
loop_
 _symmetry_equiv_pos_site_id
 _symmetry_equiv_pos_as_xyz
  1  'x, y, z'
loop_
 _atom_site_type_symbol
 _atom_site_label
 _atom_site_symmetry_multiplicity
 _atom_site_fract_x
 _atom_site_fract_y
 _atom_site_fract_z
 _atom_site_occupancy
  Sc  Sc0  1  0.333333  0.666667  0.064482  1
  Sc  Sc1  1  0.666667  0.333333  0.564442  1
  Sc  Sc2  1  0.666667  0.333333  0.935518  1
  Sc  Sc3  1  0.333333  0.666667  0.435558  1
  Mn  Mn4  1  0.000000  0.000000  0.500000  1
  Mn  Mn5  1  0.826591  0.653181  0.254282  1
  Mn  Mn6  1  0.173409  0.826591  0.745718  1
  Mn  Mn7  1  0.653181  0.826591  0.745718  1
  Mn  Mn8  1  0.346819  0.173409  0.254282  1
  Mn  Mn9  1  0.826591  0.173409  0.254282  1
  Mn  Mn10  1  0.173409  0.346819  0.745718  1
  Os  Os11  1  0.000000  0.000000  0.000000  1
