# generated using pymatgen
data_AlOsCl8
_symmetry_space_group_name_H-M   'P 1'
_cell_length_a   9.82935481
_cell_length_b   9.82935328
_cell_length_c   8.76051100
_cell_angle_alpha   90.00000000
_cell_angle_beta   90.00000000
_cell_angle_gamma   128.15541459
_symmetry_Int_Tables_number   1
_chemical_formula_structural   AlOsCl8
_chemical_formula_sum   'Al2 Os2 Cl16'
_cell_volume   665.56211282
_cell_formula_units_Z   2
loop_
 _symmetry_equiv_pos_site_id
 _symmetry_equiv_pos_as_xyz
  1  'x, y, z'
loop_
 _atom_site_type_symbol
 _atom_site_label
 _atom_site_symmetry_multiplicity
 _atom_site_fract_x
 _atom_site_fract_y
 _atom_site_fract_z
 _atom_site_occupancy
  Al  Al0  1  0.315616  0.684384  0.750000  1
  Al  Al1  1  0.684384  0.315616  0.250000  1
  Os  Os2  1  0.878680  0.121320  0.250000  1
  Os  Os3  1  0.121320  0.878680  0.750000  1
  Cl  Cl4  1  0.376965  0.623035  0.545170  1
  Cl  Cl5  1  0.623035  0.376965  0.454830  1
  Cl  Cl6  1  0.418058  0.962456  0.750000  1
  Cl  Cl7  1  0.962456  0.418058  0.250000  1
  Cl  Cl8  1  0.581942  0.037544  0.250000  1
  Cl  Cl9  1  0.037544  0.581942  0.750000  1
  Cl  Cl10  1  0.234554  0.158093  0.750000  1
  Cl  Cl11  1  0.158093  0.234554  0.250000  1
  Cl  Cl12  1  0.765446  0.841907  0.250000  1
  Cl  Cl13  1  0.841907  0.765446  0.750000  1
  Cl  Cl14  1  0.129057  0.870943  0.489310  1
  Cl  Cl15  1  0.870943  0.129057  0.510690  1
  Cl  Cl16  1  0.870943  0.129057  0.989310  1
  Cl  Cl17  1  0.129057  0.870943  0.010690  1
  Cl  Cl18  1  0.376965  0.623035  0.954830  1
  Cl  Cl19  1  0.623035  0.376965  0.045170  1
