# generated using pymatgen
data_Lu10PtAu5C2
_symmetry_space_group_name_H-M   'P 1'
_cell_length_a   8.44363000
_cell_length_b   8.44362904
_cell_length_c   6.21035600
_cell_angle_alpha   90.00000000
_cell_angle_beta   90.00000000
_cell_angle_gamma   120.00182195
_symmetry_Int_Tables_number   1
_chemical_formula_structural   Lu10PtAu5C2
_chemical_formula_sum   'Lu10 Pt1 Au5 C2'
_cell_volume   383.44006856
_cell_formula_units_Z   1
loop_
 _symmetry_equiv_pos_site_id
 _symmetry_equiv_pos_as_xyz
  1  'x, y, z'
loop_
 _atom_site_type_symbol
 _atom_site_label
 _atom_site_symmetry_multiplicity
 _atom_site_fract_x
 _atom_site_fract_y
 _atom_site_fract_z
 _atom_site_occupancy
  Lu  Lu0  1  0.660698  0.334943  0.498083  1
  Lu  Lu1  1  0.334943  0.660698  0.498083  1
  Lu  Lu2  1  0.334943  0.660698  0.001917  1
  Lu  Lu3  1  0.660698  0.334943  0.001917  1
  Lu  Lu4  1  0.778921  0.778921  0.250000  1
  Lu  Lu5  1  0.220366  0.005860  0.250000  1
  Lu  Lu6  1  0.005860  0.220366  0.250000  1
  Lu  Lu7  1  0.219143  0.219143  0.750000  1
  Lu  Lu8  1  0.782833  0.000925  0.750000  1
  Lu  Lu9  1  0.000925  0.782833  0.750000  1
  Pt  Pt10  1  0.414596  0.414596  0.250000  1
  Au  Au11  1  0.587654  0.000727  0.250000  1
  Au  Au12  1  0.000727  0.587654  0.250000  1
  Au  Au13  1  0.588900  0.588900  0.750000  1
  Au  Au14  1  0.412410  0.998557  0.750000  1
  Au  Au15  1  0.998557  0.412410  0.750000  1
  C  C16  1  0.998914  0.998914  0.500582  1
  C  C17  1  0.998914  0.998914  0.999418  1
