# generated using pymatgen
data_La3Er(Tm4Bi3)4
_symmetry_space_group_name_H-M   'P 1'
_cell_length_a   8.28604082
_cell_length_b   9.45979100
_cell_length_c   12.07211517
_cell_angle_alpha   90.00000000
_cell_angle_beta   89.94938425
_cell_angle_gamma   90.00000000
_symmetry_Int_Tables_number   1
_chemical_formula_structural   La3Er(Tm4Bi3)4
_chemical_formula_sum   'La3 Er1 Tm16 Bi12'
_cell_volume   946.26289347
_cell_formula_units_Z   1
loop_
 _symmetry_equiv_pos_site_id
 _symmetry_equiv_pos_as_xyz
  1  'x, y, z'
loop_
 _atom_site_type_symbol
 _atom_site_label
 _atom_site_symmetry_multiplicity
 _atom_site_fract_x
 _atom_site_fract_y
 _atom_site_fract_z
 _atom_site_occupancy
  La  La0  1  0.316109  0.250000  0.219941  1
  La  La1  1  0.815792  0.250000  0.279915  1
  La  La2  1  0.684860  0.750000  0.780633  1
  Er  Er3  1  0.186264  0.750000  0.716789  1
  Tm  Tm4  1  0.350197  0.750000  0.218402  1
  Tm  Tm5  1  0.851824  0.750000  0.282593  1
  Tm  Tm6  1  0.647393  0.250000  0.779898  1
  Tm  Tm7  1  0.148613  0.250000  0.719050  1
  Tm  Tm8  1  0.690051  0.567589  0.061016  1
  Tm  Tm9  1  0.192007  0.933006  0.439942  1
  Tm  Tm10  1  0.309653  0.066894  0.937581  1
  Tm  Tm11  1  0.807656  0.432899  0.561494  1
  Tm  Tm12  1  0.309653  0.433106  0.937581  1
  Tm  Tm13  1  0.807656  0.067101  0.561494  1
  Tm  Tm14  1  0.690051  0.932411  0.061016  1
  Tm  Tm15  1  0.192007  0.566994  0.439942  1
  Tm  Tm16  1  0.477037  0.250000  0.490495  1
  Tm  Tm17  1  0.978959  0.250000  0.010309  1
  Tm  Tm18  1  0.521713  0.750000  0.513090  1
  Tm  Tm19  1  0.022526  0.750000  0.987754  1
  Bi  Bi20  1  0.399022  0.750000  0.962546  1
  Bi  Bi21  1  0.906657  0.750000  0.539445  1
  Bi  Bi22  1  0.598858  0.250000  0.034514  1
  Bi  Bi23  1  0.097735  0.250000  0.464789  1
  Bi  Bi24  1  0.564107  0.988628  0.328942  1
  Bi  Bi25  1  0.063703  0.510844  0.171819  1
  Bi  Bi26  1  0.430247  0.492496  0.672946  1
  Bi  Bi27  1  0.940798  0.007378  0.826178  1
  Bi  Bi28  1  0.430247  0.007504  0.672946  1
  Bi  Bi29  1  0.940798  0.492622  0.826178  1
  Bi  Bi30  1  0.564107  0.511372  0.328942  1
  Bi  Bi31  1  0.063703  0.989156  0.171819  1
