# generated using pymatgen
data_Dy7Ho9In6RuPt
_symmetry_space_group_name_H-M   'P 1'
_cell_length_a   10.42650100
_cell_length_b   10.42605741
_cell_length_c   7.02681100
_cell_angle_alpha   89.99899914
_cell_angle_beta   89.99881678
_cell_angle_gamma   120.00128120
_symmetry_Int_Tables_number   1
_chemical_formula_structural   Dy7Ho9In6RuPt
_chemical_formula_sum   'Dy7 Ho9 In6 Ru1 Pt1'
_cell_volume   661.51850591
_cell_formula_units_Z   1
loop_
 _symmetry_equiv_pos_site_id
 _symmetry_equiv_pos_as_xyz
  1  'x, y, z'
loop_
 _atom_site_type_symbol
 _atom_site_label
 _atom_site_symmetry_multiplicity
 _atom_site_fract_x
 _atom_site_fract_y
 _atom_site_fract_z
 _atom_site_occupancy
  Dy  Dy0  1  0.530421  0.060843  0.507595  1
  Dy  Dy1  1  0.938781  0.469621  0.507588  1
  Dy  Dy2  1  0.530832  0.469623  0.507608  1
  Dy  Dy3  1  0.465631  0.931251  0.006988  1
  Dy  Dy4  1  0.068764  0.534620  0.007339  1
  Dy  Dy5  1  0.465851  0.534620  0.007331  1
  Dy  Dy6  1  0.176273  0.352550  0.714582  1
  Ho  Ho7  1  0.647145  0.823536  0.714468  1
  Ho  Ho8  1  0.176397  0.823532  0.714472  1
  Ho  Ho9  1  0.824808  0.649624  0.212664  1
  Ho  Ho10  1  0.350368  0.175201  0.212876  1
  Ho  Ho11  1  0.824834  0.175191  0.212870  1
  Ho  Ho12  1  0.666642  0.333277  0.884067  1
  Ho  Ho13  1  0.333437  0.666867  0.387539  1
  Ho  Ho14  1  0.999928  0.999860  0.490766  1
  Ho  Ho15  1  0.999798  0.999598  0.993247  1
  In  In16  1  0.837094  0.674190  0.751495  1
  In  In17  1  0.325978  0.162720  0.751559  1
  In  In18  1  0.836741  0.162719  0.751557  1
  In  In19  1  0.162693  0.325398  0.252883  1
  In  In20  1  0.674693  0.837345  0.253556  1
  In  In21  1  0.162653  0.837346  0.253559  1
  Ru  Ru22  1  0.333585  0.667164  0.781008  1
  Pt  Pt23  1  0.666652  0.333304  0.280422  1
