# generated using pymatgen
data_TbPr2Nd3Nb2O14
_symmetry_space_group_name_H-M   'P 1'
_cell_length_a   6.68079117
_cell_length_b   6.65581022
_cell_length_c   7.75296800
_cell_angle_alpha   90.00000000
_cell_angle_beta   90.00000000
_cell_angle_gamma   108.83529500
_symmetry_Int_Tables_number   1
_chemical_formula_structural   TbPr2Nd3Nb2O14
_chemical_formula_sum   'Tb1 Pr2 Nd3 Nb2 O14'
_cell_volume   326.28322877
_cell_formula_units_Z   1
loop_
 _symmetry_equiv_pos_site_id
 _symmetry_equiv_pos_as_xyz
  1  'x, y, z'
loop_
 _atom_site_type_symbol
 _atom_site_label
 _atom_site_symmetry_multiplicity
 _atom_site_fract_x
 _atom_site_fract_y
 _atom_site_fract_z
 _atom_site_occupancy
  Tb  Tb0  1  0.003082  0.534267  0.250000  1
  Pr  Pr1  1  0.531634  0.526301  0.499030  1
  Pr  Pr2  1  0.531634  0.526301  0.000970  1
  Nd  Nd3  1  0.005492  0.462308  0.750000  1
  Nd  Nd4  1  0.534680  0.002647  0.750000  1
  Nd  Nd5  1  0.462456  0.003316  0.250000  1
  Nb  Nb6  1  0.002385  0.002611  0.498157  1
  Nb  Nb7  1  0.002385  0.002611  0.001843  1
  O  O8  1  0.942505  0.058951  0.750000  1
  O  O9  1  0.060594  0.933771  0.250000  1
  O  O10  1  0.354691  0.635283  0.250000  1
  O  O11  1  0.642178  0.367131  0.750000  1
  O  O12  1  0.370654  0.631633  0.750000  1
  O  O13  1  0.643001  0.375069  0.250000  1
  O  O14  1  0.309978  0.068918  0.969132  1
  O  O15  1  0.676722  0.919382  0.472656  1
  O  O16  1  0.309978  0.068918  0.530868  1
  O  O17  1  0.676722  0.919382  0.027344  1
  O  O18  1  0.040575  0.302554  0.459492  1
  O  O19  1  0.929038  0.678047  0.975696  1
  O  O20  1  0.929038  0.678047  0.524304  1
  O  O21  1  0.040575  0.302554  0.040508  1
