# generated using pymatgen
data_Y8CdHgIr2
_symmetry_space_group_name_H-M   'P 1'
_cell_length_a   9.65705487
_cell_length_b   9.65705417
_cell_length_c   9.66656900
_cell_angle_alpha   59.96739865
_cell_angle_beta   59.96740107
_cell_angle_gamma   59.95503572
_symmetry_Int_Tables_number   1
_chemical_formula_structural   Y8CdHgIr2
_chemical_formula_sum   'Y16 Cd2 Hg2 Ir4'
_cell_volume   636.92001454
_cell_formula_units_Z   2
loop_
 _symmetry_equiv_pos_site_id
 _symmetry_equiv_pos_as_xyz
  1  'x, y, z'
loop_
 _atom_site_type_symbol
 _atom_site_label
 _atom_site_symmetry_multiplicity
 _atom_site_fract_x
 _atom_site_fract_y
 _atom_site_fract_z
 _atom_site_occupancy
  Y  Y0  1  0.349837  0.349837  0.348024  1
  Y  Y1  1  0.349837  0.349837  0.952303  1
  Y  Y2  1  0.351690  0.948736  0.349787  1
  Y  Y3  1  0.948736  0.351690  0.349787  1
  Y  Y4  1  0.808627  0.189214  0.191988  1
  Y  Y5  1  0.189214  0.808627  0.810171  1
  Y  Y6  1  0.189214  0.808627  0.191988  1
  Y  Y7  1  0.808627  0.189214  0.810171  1
  Y  Y8  1  0.190165  0.190165  0.809835  1
  Y  Y9  1  0.808805  0.808805  0.191195  1
  Y  Y10  1  0.937978  0.561274  0.561818  1
  Y  Y11  1  0.561274  0.937978  0.938930  1
  Y  Y12  1  0.561274  0.937978  0.561818  1
  Y  Y13  1  0.937978  0.561274  0.938930  1
  Y  Y14  1  0.561213  0.561213  0.938787  1
  Y  Y15  1  0.938282  0.938282  0.561718  1
  Cd  Cd16  1  0.580433  0.257104  0.581232  1
  Cd  Cd17  1  0.257104  0.580433  0.581232  1
  Hg  Hg18  1  0.583732  0.583732  0.585689  1
  Hg  Hg19  1  0.583732  0.583732  0.246848  1
  Ir  Ir20  1  0.141990  0.141990  0.140654  1
  Ir  Ir21  1  0.141990  0.141990  0.575366  1
  Ir  Ir22  1  0.142189  0.576080  0.140865  1
  Ir  Ir23  1  0.576080  0.142189  0.140865  1
