# generated using pymatgen
data_Dy3Co6B2Ru
_symmetry_space_group_name_H-M   'P 1'
_cell_length_a   5.06011200
_cell_length_b   5.06011153
_cell_length_c   14.36161100
_cell_angle_alpha   90.00000000
_cell_angle_beta   90.00000000
_cell_angle_gamma   120.00000305
_symmetry_Int_Tables_number   1
_chemical_formula_structural   Dy3Co6B2Ru
_chemical_formula_sum   'Dy6 Co12 B4 Ru2'
_cell_volume   318.45934442
_cell_formula_units_Z   2
loop_
 _symmetry_equiv_pos_site_id
 _symmetry_equiv_pos_as_xyz
  1  'x, y, z'
loop_
 _atom_site_type_symbol
 _atom_site_label
 _atom_site_symmetry_multiplicity
 _atom_site_fract_x
 _atom_site_fract_y
 _atom_site_fract_z
 _atom_site_occupancy
  Dy  Dy0  1  0.333333  0.666667  0.464243  1
  Dy  Dy1  1  0.666667  0.333333  0.964243  1
  Dy  Dy2  1  0.666667  0.333333  0.535757  1
  Dy  Dy3  1  0.333333  0.666667  0.035757  1
  Dy  Dy4  1  0.666667  0.333333  0.750000  1
  Dy  Dy5  1  0.333333  0.666667  0.250000  1
  Co  Co6  1  0.834751  0.669502  0.350230  1
  Co  Co7  1  0.330498  0.165249  0.350230  1
  Co  Co8  1  0.834751  0.165249  0.149770  1
  Co  Co9  1  0.669502  0.834751  0.649770  1
  Co  Co10  1  0.165249  0.330498  0.649770  1
  Co  Co11  1  0.834751  0.669502  0.149770  1
  Co  Co12  1  0.330498  0.165249  0.149770  1
  Co  Co13  1  0.669502  0.834751  0.850230  1
  Co  Co14  1  0.165249  0.330498  0.850230  1
  Co  Co15  1  0.165249  0.834751  0.649770  1
  Co  Co16  1  0.165249  0.834751  0.850230  1
  Co  Co17  1  0.834751  0.165249  0.350230  1
  B  B18  1  0.666667  0.333333  0.250000  1
  B  B19  1  0.333333  0.666667  0.750000  1
  B  B20  1  0.000000  0.000000  0.750000  1
  B  B21  1  0.000000  0.000000  0.250000  1
  Ru  Ru22  1  0.000000  0.000000  0.000000  1
  Ru  Ru23  1  0.000000  0.000000  0.500000  1
