# generated using pymatgen
data_Zr3(NbSi2)2
_symmetry_space_group_name_H-M   'P 1'
_cell_length_a   6.98589129
_cell_length_b   6.98759003
_cell_length_c   12.88466932
_cell_angle_alpha   90.37101023
_cell_angle_beta   89.97926708
_cell_angle_gamma   89.97411978
_symmetry_Int_Tables_number   1
_chemical_formula_structural   Zr3(NbSi2)2
_chemical_formula_sum   'Zr12 Nb8 Si16'
_cell_volume   628.94597020
_cell_formula_units_Z   4
loop_
 _symmetry_equiv_pos_site_id
 _symmetry_equiv_pos_as_xyz
  1  'x, y, z'
loop_
 _atom_site_type_symbol
 _atom_site_label
 _atom_site_symmetry_multiplicity
 _atom_site_fract_x
 _atom_site_fract_y
 _atom_site_fract_z
 _atom_site_occupancy
  Zr  Zr0  1  0.650142  0.496943  0.876402  1
  Zr  Zr1  1  0.502739  0.351783  0.622674  1
  Zr  Zr2  1  0.499387  0.647499  0.125287  1
  Zr  Zr3  1  0.147163  0.999689  0.873699  1
  Zr  Zr4  1  0.001181  0.652543  0.036884  1
  Zr  Zr5  1  0.001187  0.346708  0.530130  1
  Zr  Zr6  1  0.653424  0.999026  0.967328  1
  Zr  Zr7  1  0.151866  0.498555  0.782071  1
  Zr  Zr8  1  0.846853  0.500946  0.283137  1
  Zr  Zr9  1  0.500545  0.153414  0.220171  1
  Zr  Zr10  1  0.501769  0.846436  0.713861  1
  Zr  Zr11  1  0.343913  0.001328  0.466687  1
  Nb  Nb12  1  0.349897  0.507268  0.375523  1
  Nb  Nb13  1  0.853674  0.996838  0.374208  1
  Nb  Nb14  1  0.006612  0.148149  0.127225  1
  Nb  Nb15  1  0.995580  0.851574  0.624630  1
  Nb  Nb16  1  0.672925  0.673497  0.498312  1
  Nb  Nb17  1  0.828332  0.171855  0.748383  1
  Nb  Nb18  1  0.171793  0.830068  0.251792  1
  Nb  Nb19  1  0.327329  0.325105  0.001481  1
  Si  Si20  1  0.046883  0.704064  0.436499  1
  Si  Si21  1  0.954703  0.298744  0.938422  1
  Si  Si22  1  0.705240  0.045972  0.561173  1
  Si  Si23  1  0.201286  0.449148  0.187969  1
  Si  Si24  1  0.801641  0.550473  0.683819  1
  Si  Si25  1  0.451791  0.198308  0.813539  1
  Si  Si26  1  0.549970  0.799290  0.315546  1
  Si  Si27  1  0.298738  0.954711  0.065577  1
  Si  Si28  1  0.854840  0.796441  0.817945  1
  Si  Si29  1  0.138210  0.208803  0.323464  1
  Si  Si30  1  0.797394  0.864871  0.179953  1
  Si  Si31  1  0.289836  0.643055  0.571036  1
  Si  Si32  1  0.709599  0.352282  0.074597  1
  Si  Si33  1  0.638021  0.293207  0.424639  1
  Si  Si34  1  0.354079  0.701979  0.929868  1
  Si  Si35  1  0.201456  0.139427  0.676071  1
