# generated using pymatgen
data_Tb6YbIrI12
_symmetry_space_group_name_H-M   'P 1'
_cell_length_a   9.87648310
_cell_length_b   9.87648255
_cell_length_c   9.87648238
_cell_angle_alpha   107.24424351
_cell_angle_beta   107.24424331
_cell_angle_gamma   107.24424966
_symmetry_Int_Tables_number   1
_chemical_formula_structural   Tb6YbIrI12
_chemical_formula_sum   'Tb6 Yb1 Ir1 I12'
_cell_volume   796.92311058
_cell_formula_units_Z   1
loop_
 _symmetry_equiv_pos_site_id
 _symmetry_equiv_pos_as_xyz
  1  'x, y, z'
loop_
 _atom_site_type_symbol
 _atom_site_label
 _atom_site_symmetry_multiplicity
 _atom_site_fract_x
 _atom_site_fract_y
 _atom_site_fract_z
 _atom_site_occupancy
  Tb  Tb0  1  0.023045  0.095699  0.298835  1
  Tb  Tb1  1  0.095699  0.298835  0.023045  1
  Tb  Tb2  1  0.298835  0.023045  0.095699  1
  Tb  Tb3  1  0.976955  0.904301  0.701165  1
  Tb  Tb4  1  0.904301  0.701165  0.976955  1
  Tb  Tb5  1  0.701165  0.976955  0.904301  1
  Yb  Yb6  1  0.500000  0.500000  0.500000  1
  Ir  Ir7  1  0.000000  0.000000  0.000000  1
  I  I8  1  0.152995  0.457444  0.379551  1
  I  I9  1  0.457444  0.379551  0.152995  1
  I  I10  1  0.379551  0.152995  0.457444  1
  I  I11  1  0.847005  0.542556  0.620449  1
  I  I12  1  0.542556  0.620449  0.847005  1
  I  I13  1  0.620449  0.847005  0.542556  1
  I  I14  1  0.679055  0.072163  0.223835  1
  I  I15  1  0.072163  0.223835  0.679055  1
  I  I16  1  0.223835  0.679055  0.072163  1
  I  I17  1  0.320945  0.927837  0.776165  1
  I  I18  1  0.927837  0.776165  0.320945  1
  I  I19  1  0.776165  0.320945  0.927837  1
