# generated using pymatgen
data_TbNdHoGa8Ag3
_symmetry_space_group_name_H-M   'P 1'
_cell_length_a   4.35698383
_cell_length_b   8.42580511
_cell_length_c   8.42580463
_cell_angle_alpha   69.14971721
_cell_angle_beta   75.01595148
_cell_angle_gamma   75.01594813
_symmetry_Int_Tables_number   1
_chemical_formula_structural   TbNdHoGa8Ag3
_chemical_formula_sum   'Tb1 Nd1 Ho1 Ga8 Ag3'
_cell_volume   274.44342951
_cell_formula_units_Z   1
loop_
 _symmetry_equiv_pos_site_id
 _symmetry_equiv_pos_as_xyz
  1  'x, y, z'
loop_
 _atom_site_type_symbol
 _atom_site_label
 _atom_site_symmetry_multiplicity
 _atom_site_fract_x
 _atom_site_fract_y
 _atom_site_fract_z
 _atom_site_occupancy
  Tb  Tb0  1  0.199645  0.800355  0.800355  1
  Nd  Nd1  1  0.500224  0.499776  0.499776  1
  Ho  Ho2  1  0.800620  0.199380  0.199380  1
  Ga  Ga3  1  0.355531  0.361069  0.927868  1
  Ga  Ga4  1  0.644472  0.638645  0.072413  1
  Ga  Ga5  1  0.355531  0.927868  0.361069  1
  Ga  Ga6  1  0.644472  0.072413  0.638645  1
  Ga  Ga7  1  0.160244  0.471845  0.207664  1
  Ga  Ga8  1  0.840027  0.527820  0.792128  1
  Ga  Ga9  1  0.160244  0.207664  0.471845  1
  Ga  Ga10  1  0.840027  0.792128  0.527820  1
  Ag  Ag11  1  0.499645  0.000355  0.000355  1
  Ag  Ag12  1  0.999659  0.805690  0.194991  1
  Ag  Ag13  1  0.999659  0.194991  0.805690  1
