# generated using pymatgen
data_Lu12MgCo2Si2Sn
_symmetry_space_group_name_H-M   'P 1'
_cell_length_a   8.28641230
_cell_length_b   8.28641298
_cell_length_c   8.28641289
_cell_angle_alpha   113.31773625
_cell_angle_beta   111.56104320
_cell_angle_gamma   103.69054257
_symmetry_Int_Tables_number   1
_chemical_formula_structural   Lu12MgCo2Si2Sn
_chemical_formula_sum   'Lu12 Mg1 Co2 Si2 Sn1'
_cell_volume   434.59146905
_cell_formula_units_Z   1
loop_
 _symmetry_equiv_pos_site_id
 _symmetry_equiv_pos_as_xyz
  1  'x, y, z'
loop_
 _atom_site_type_symbol
 _atom_site_label
 _atom_site_symmetry_multiplicity
 _atom_site_fract_x
 _atom_site_fract_y
 _atom_site_fract_z
 _atom_site_occupancy
  Lu  Lu0  1  0.443063  0.243763  0.199298  1
  Lu  Lu1  1  0.556937  0.756237  0.800702  1
  Lu  Lu2  1  0.044463  0.243763  0.800702  1
  Lu  Lu3  1  0.955537  0.756237  0.199298  1
  Lu  Lu4  1  0.184804  0.288486  0.473291  1
  Lu  Lu5  1  0.815196  0.711514  0.526709  1
  Lu  Lu6  1  0.184804  0.711514  0.896317  1
  Lu  Lu7  1  0.815196  0.288486  0.103683  1
  Lu  Lu8  1  0.305332  0.617911  0.312579  1
  Lu  Lu9  1  0.694668  0.382089  0.687421  1
  Lu  Lu10  1  0.305332  0.992751  0.687421  1
  Lu  Lu11  1  0.694668  0.007249  0.312579  1
  Mg  Mg12  1  0.000000  0.000000  0.000000  1
  Co  Co13  1  0.110002  0.610002  0.500000  1
  Co  Co14  1  0.889998  0.389998  0.500000  1
  Si  Si15  1  0.345349  0.000000  0.345349  1
  Si  Si16  1  0.654651  0.000000  0.654651  1
  Sn  Sn17  1  0.500000  0.500000  0.000000  1
