# generated using pymatgen
data_Na2Pd5S6
_symmetry_space_group_name_H-M   'P 1'
_cell_length_a   6.99189915
_cell_length_b   7.04450200
_cell_length_c   11.06024816
_cell_angle_alpha   90.00178620
_cell_angle_beta   100.26621343
_cell_angle_gamma   89.99969759
_symmetry_Int_Tables_number   1
_chemical_formula_structural   Na2Pd5S6
_chemical_formula_sum   'Na4 Pd10 S12'
_cell_volume   536.04486862
_cell_formula_units_Z   2
loop_
 _symmetry_equiv_pos_site_id
 _symmetry_equiv_pos_as_xyz
  1  'x, y, z'
loop_
 _atom_site_type_symbol
 _atom_site_label
 _atom_site_symmetry_multiplicity
 _atom_site_fract_x
 _atom_site_fract_y
 _atom_site_fract_z
 _atom_site_occupancy
  Na  Na0  1  0.383743  0.253700  0.036187  1
  Na  Na1  1  0.116242  0.753684  0.463811  1
  Na  Na2  1  0.883757  0.246318  0.536189  1
  Na  Na3  1  0.616256  0.746303  0.963813  1
  Pd  Pd4  1  0.000000  0.000000  0.000000  1
  Pd  Pd5  1  0.226198  0.573850  0.230882  1
  Pd  Pd6  1  0.743842  0.313563  0.243769  1
  Pd  Pd7  1  0.756146  0.813562  0.256224  1
  Pd  Pd8  1  0.273791  0.073849  0.269107  1
  Pd  Pd9  1  0.500000  0.500000  0.500000  1
  Pd  Pd10  1  0.726209  0.926151  0.730893  1
  Pd  Pd11  1  0.243854  0.186438  0.743775  1
  Pd  Pd12  1  0.256159  0.686437  0.756231  1
  Pd  Pd13  1  0.773802  0.426149  0.769120  1
  S  S14  1  0.276560  0.841142  0.110663  1
  S  S15  1  0.892256  0.564880  0.154838  1
  S  S16  1  0.937171  0.063367  0.195901  1
  S  S17  1  0.562812  0.563377  0.304093  1
  S  S18  1  0.607733  0.064896  0.345154  1
  S  S19  1  0.223439  0.341158  0.389326  1
  S  S20  1  0.776561  0.658841  0.610675  1
  S  S21  1  0.392269  0.935104  0.654846  1
  S  S22  1  0.437189  0.436623  0.695907  1
  S  S23  1  0.062829  0.936633  0.804099  1
  S  S24  1  0.107744  0.435120  0.845163  1
  S  S25  1  0.723440  0.158856  0.889337  1
