# generated using pymatgen
data_Tm9Si16W11
_symmetry_space_group_name_H-M   'P 1'
_cell_length_a   6.73690411
_cell_length_b   6.93371313
_cell_length_c   13.03611487
_cell_angle_alpha   89.85614070
_cell_angle_beta   89.87851496
_cell_angle_gamma   89.79741001
_symmetry_Int_Tables_number   1
_chemical_formula_structural   Tm9Si16W11
_chemical_formula_sum   'Tm9 Si16 W11'
_cell_volume   608.93279145
_cell_formula_units_Z   1
loop_
 _symmetry_equiv_pos_site_id
 _symmetry_equiv_pos_as_xyz
  1  'x, y, z'
loop_
 _atom_site_type_symbol
 _atom_site_label
 _atom_site_symmetry_multiplicity
 _atom_site_fract_x
 _atom_site_fract_y
 _atom_site_fract_z
 _atom_site_occupancy
  Tm  Tm0  1  0.998169  0.170995  0.093669  1
  Tm  Tm1  1  0.002775  0.831483  0.903196  1
  Tm  Tm2  1  0.499691  0.668241  0.905471  1
  Tm  Tm3  1  0.003953  0.830573  0.593250  1
  Tm  Tm4  1  0.499907  0.326213  0.095708  1
  Tm  Tm5  1  0.997253  0.172171  0.409742  1
  Tm  Tm6  1  0.497832  0.327410  0.408798  1
  Tm  Tm7  1  0.503311  0.668890  0.593615  1
  Tm  Tm8  1  0.168168  0.669582  0.122423  1
  Si  Si9  1  0.032571  0.126052  0.748152  1
  Si  Si10  1  0.963602  0.881291  0.256076  1
  Si  Si11  1  0.473558  0.624270  0.255223  1
  Si  Si12  1  0.530676  0.371770  0.747714  1
  Si  Si13  1  0.302018  0.863682  0.748377  1
  Si  Si14  1  0.702277  0.136937  0.252059  1
  Si  Si15  1  0.204843  0.359905  0.252168  1
  Si  Si16  1  0.799398  0.634765  0.749493  1
  Si  Si17  1  0.164099  0.458041  0.545540  1
  Si  Si18  1  0.835388  0.544234  0.457519  1
  Si  Si19  1  0.336309  0.956121  0.457635  1
  Si  Si20  1  0.822557  0.540968  0.039358  1
  Si  Si21  1  0.662970  0.041971  0.547170  1
  Si  Si22  1  0.159263  0.452841  0.946217  1
  Si  Si23  1  0.664006  0.040893  0.954386  1
  Si  Si24  1  0.345370  0.969859  0.039317  1
  W  W25  1  0.160619  0.495728  0.746922  1
  W  W26  1  0.840410  0.505532  0.254644  1
  W  W27  1  0.341003  0.996151  0.254536  1
  W  W28  1  0.664685  0.998859  0.749159  1
  W  W29  1  0.327949  0.160341  0.623193  1
  W  W30  1  0.669188  0.840061  0.378163  1
  W  W31  1  0.166842  0.663488  0.378338  1
  W  W32  1  0.672241  0.837019  0.126741  1
  W  W33  1  0.829704  0.337923  0.624941  1
  W  W34  1  0.334025  0.162302  0.868989  1
  W  W35  1  0.823367  0.333438  0.872097  1
