# generated using pymatgen
data_TbY3V4F28
_symmetry_space_group_name_H-M   'P 1'
_cell_length_a   5.52750201
_cell_length_b   8.84164666
_cell_length_c   11.82013302
_cell_angle_alpha   63.36415474
_cell_angle_beta   89.99523109
_cell_angle_gamma   89.99530664
_symmetry_Int_Tables_number   1
_chemical_formula_structural   TbY3V4F28
_chemical_formula_sum   'Tb1 Y3 V4 F28'
_cell_volume   516.36964001
_cell_formula_units_Z   1
loop_
 _symmetry_equiv_pos_site_id
 _symmetry_equiv_pos_as_xyz
  1  'x, y, z'
loop_
 _atom_site_type_symbol
 _atom_site_label
 _atom_site_symmetry_multiplicity
 _atom_site_fract_x
 _atom_site_fract_y
 _atom_site_fract_z
 _atom_site_occupancy
  Tb  Tb0  1  0.258274  0.807360  0.270290  1
  Y  Y1  1  0.741681  0.192440  0.729730  1
  Y  Y2  1  0.758344  0.192548  0.229725  1
  Y  Y3  1  0.241691  0.807550  0.770284  1
  V  V4  1  0.754343  0.726349  0.045315  1
  V  V5  1  0.245613  0.273669  0.954629  1
  V  V6  1  0.254372  0.273575  0.454650  1
  V  V7  1  0.745602  0.726330  0.545434  1
  F  F8  1  0.950603  0.705312  0.424983  1
  F  F9  1  0.049290  0.294725  0.575068  1
  F  F10  1  0.450684  0.294685  0.075071  1
  F  F11  1  0.549271  0.705300  0.924906  1
  F  F12  1  0.481514  0.731520  0.140919  1
  F  F13  1  0.518687  0.268453  0.858946  1
  F  F14  1  0.981320  0.268443  0.358950  1
  F  F15  1  0.018702  0.731546  0.641056  1
  F  F16  1  0.957805  0.747397  0.168436  1
  F  F17  1  0.041785  0.252546  0.831397  1
  F  F18  1  0.458209  0.252528  0.331397  1
  F  F19  1  0.541772  0.747453  0.668618  1
  F  F20  1  0.766876  0.494108  0.138213  1
  F  F21  1  0.233113  0.505869  0.861789  1
  F  F22  1  0.266890  0.505757  0.361849  1
  F  F23  1  0.733108  0.494111  0.638228  1
  F  F24  1  0.964030  0.285391  0.044836  1
  F  F25  1  0.036031  0.714613  0.955148  1
  F  F26  1  0.464180  0.714541  0.455297  1
  F  F27  1  0.536006  0.285414  0.544841  1
  F  F28  1  0.742971  0.956093  0.454907  1
  F  F29  1  0.257044  0.043866  0.545067  1
  F  F30  1  0.242977  0.043790  0.045184  1
  F  F31  1  0.757049  0.956150  0.954915  1
  F  F32  1  0.578338  0.973509  0.231155  1
  F  F33  1  0.422083  0.026721  0.768789  1
  F  F34  1  0.077670  0.027047  0.268770  1
  F  F35  1  0.922073  0.973293  0.731209  1
