# generated using pymatgen
data_LaTh2Al7Cu2
_symmetry_space_group_name_H-M   'P 1'
_cell_length_a   9.24654633
_cell_length_b   9.24654742
_cell_length_c   9.24654653
_cell_angle_alpha   35.53783578
_cell_angle_beta   35.53782678
_cell_angle_gamma   35.53782088
_symmetry_Int_Tables_number   1
_chemical_formula_structural   LaTh2Al7Cu2
_chemical_formula_sum   'La1 Th2 Al7 Cu2'
_cell_volume   238.69617488
_cell_formula_units_Z   1
loop_
 _symmetry_equiv_pos_site_id
 _symmetry_equiv_pos_as_xyz
  1  'x, y, z'
loop_
 _atom_site_type_symbol
 _atom_site_label
 _atom_site_symmetry_multiplicity
 _atom_site_fract_x
 _atom_site_fract_y
 _atom_site_fract_z
 _atom_site_occupancy
  La  La0  1  0.000000  0.000000  0.000000  1
  Th  Th1  1  0.858565  0.858565  0.858565  1
  Th  Th2  1  0.141435  0.141435  0.141435  1
  Al  Al3  1  0.418277  0.418277  0.929413  1
  Al  Al4  1  0.929413  0.418277  0.418277  1
  Al  Al5  1  0.418277  0.929413  0.418277  1
  Al  Al6  1  0.500000  0.500000  0.500000  1
  Al  Al7  1  0.581723  0.070587  0.581723  1
  Al  Al8  1  0.070587  0.581723  0.581723  1
  Al  Al9  1  0.581723  0.581723  0.070587  1
  Cu  Cu10  1  0.664058  0.664058  0.664058  1
  Cu  Cu11  1  0.335942  0.335942  0.335942  1
