# generated using pymatgen
data_Tb8LuSc11Si15P
_symmetry_space_group_name_H-M   'P 1'
_cell_length_a   7.12435438
_cell_length_b   7.41225545
_cell_length_c   14.04211105
_cell_angle_alpha   89.90659871
_cell_angle_beta   90.02690800
_cell_angle_gamma   90.30538724
_symmetry_Int_Tables_number   1
_chemical_formula_structural   Tb8LuSc11Si15P
_chemical_formula_sum   'Tb8 Lu1 Sc11 Si15 P1'
_cell_volume   741.51766747
_cell_formula_units_Z   1
loop_
 _symmetry_equiv_pos_site_id
 _symmetry_equiv_pos_as_xyz
  1  'x, y, z'
loop_
 _atom_site_type_symbol
 _atom_site_label
 _atom_site_symmetry_multiplicity
 _atom_site_fract_x
 _atom_site_fract_y
 _atom_site_fract_z
 _atom_site_occupancy
  Tb  Tb0  1  0.010327  0.174878  0.096880  1
  Tb  Tb1  1  0.991328  0.827061  0.900430  1
  Tb  Tb2  1  0.490627  0.674283  0.905192  1
  Tb  Tb3  1  0.989988  0.825629  0.600507  1
  Tb  Tb4  1  0.511348  0.324762  0.096625  1
  Tb  Tb5  1  0.010158  0.174367  0.402940  1
  Tb  Tb6  1  0.512402  0.324352  0.402130  1
  Tb  Tb7  1  0.490598  0.674890  0.596079  1
  Lu  Lu8  1  0.326236  0.172732  0.626166  1
  Sc  Sc9  1  0.159324  0.503567  0.751389  1
  Sc  Sc10  1  0.838944  0.497930  0.249760  1
  Sc  Sc11  1  0.339406  0.001855  0.249514  1
  Sc  Sc12  1  0.663566  0.997954  0.750840  1
  Sc  Sc13  1  0.668655  0.823551  0.374330  1
  Sc  Sc14  1  0.167887  0.676608  0.373858  1
  Sc  Sc15  1  0.668630  0.823918  0.124891  1
  Sc  Sc16  1  0.830913  0.323755  0.626727  1
  Sc  Sc17  1  0.326318  0.172374  0.872977  1
  Sc  Sc18  1  0.831737  0.323978  0.874570  1
  Sc  Sc19  1  0.167861  0.676929  0.124870  1
  Si  Si20  1  0.965320  0.882193  0.249457  1
  Si  Si21  1  0.466104  0.616260  0.249645  1
  Si  Si22  1  0.532713  0.384721  0.752166  1
  Si  Si23  1  0.298821  0.859700  0.751484  1
  Si  Si24  1  0.714004  0.125042  0.249789  1
  Si  Si25  1  0.214106  0.374646  0.249594  1
  Si  Si26  1  0.787540  0.627838  0.750689  1
  Si  Si27  1  0.152318  0.468322  0.538940  1
  Si  Si28  1  0.842469  0.536718  0.461063  1
  Si  Si29  1  0.342205  0.962286  0.457410  1
  Si  Si30  1  0.842852  0.536495  0.038831  1
  Si  Si31  1  0.664731  0.035865  0.538709  1
  Si  Si32  1  0.157071  0.463217  0.960335  1
  Si  Si33  1  0.657960  0.036682  0.959962  1
  Si  Si34  1  0.341486  0.965241  0.039233  1
  P  P35  1  0.024046  0.129400  0.752016  1
