# generated using pymatgen
data_TmLu5(Si3Os2)2
_symmetry_space_group_name_H-M   'P 1'
_cell_length_a   5.64586926
_cell_length_b   5.64586793
_cell_length_c   13.49646300
_cell_angle_alpha   90.00000000
_cell_angle_beta   90.00000000
_cell_angle_gamma   136.80084180
_symmetry_Int_Tables_number   1
_chemical_formula_structural   TmLu5(Si3Os2)2
_chemical_formula_sum   'Tm1 Lu5 Si6 Os4'
_cell_volume   294.49508010
_cell_formula_units_Z   1
loop_
 _symmetry_equiv_pos_site_id
 _symmetry_equiv_pos_as_xyz
  1  'x, y, z'
loop_
 _atom_site_type_symbol
 _atom_site_label
 _atom_site_symmetry_multiplicity
 _atom_site_fract_x
 _atom_site_fract_y
 _atom_site_fract_z
 _atom_site_occupancy
  Tm  Tm0  1  0.640835  0.359165  0.250000  1
  Lu  Lu1  1  0.358510  0.641490  0.750000  1
  Lu  Lu2  1  0.924107  0.075893  0.115227  1
  Lu  Lu3  1  0.075790  0.924210  0.884546  1
  Lu  Lu4  1  0.075790  0.924210  0.615454  1
  Lu  Lu5  1  0.924107  0.075893  0.384773  1
  Si  Si6  1  0.329592  0.670408  0.250000  1
  Si  Si7  1  0.670921  0.329079  0.750000  1
  Si  Si8  1  0.613761  0.386239  0.037546  1
  Si  Si9  1  0.386272  0.613728  0.961917  1
  Si  Si10  1  0.386272  0.613728  0.538083  1
  Si  Si11  1  0.613761  0.386239  0.462454  1
  Os  Os12  1  0.788297  0.211703  0.583004  1
  Os  Os13  1  0.211844  0.788156  0.417446  1
  Os  Os14  1  0.211844  0.788156  0.082554  1
  Os  Os15  1  0.788297  0.211703  0.916996  1
