# generated using pymatgen
data_Yb20Pt3Au13
_symmetry_space_group_name_H-M   'P 1'
_cell_length_a   7.69788022
_cell_length_b   7.84886741
_cell_length_c   14.98821200
_cell_angle_alpha   90.00000000
_cell_angle_beta   90.00000000
_cell_angle_gamma   89.78009707
_symmetry_Int_Tables_number   1
_chemical_formula_structural   Yb20Pt3Au13
_chemical_formula_sum   'Yb20 Pt3 Au13'
_cell_volume   905.57572070
_cell_formula_units_Z   1
loop_
 _symmetry_equiv_pos_site_id
 _symmetry_equiv_pos_as_xyz
  1  'x, y, z'
loop_
 _atom_site_type_symbol
 _atom_site_label
 _atom_site_symmetry_multiplicity
 _atom_site_fract_x
 _atom_site_fract_y
 _atom_site_fract_z
 _atom_site_occupancy
  Yb  Yb0  1  0.018986  0.183390  0.398293  1
  Yb  Yb1  1  0.865913  0.658038  0.378340  1
  Yb  Yb2  1  0.532016  0.325741  0.102038  1
  Yb  Yb3  1  0.142110  0.337400  0.623510  1
  Yb  Yb4  1  0.366755  0.835228  0.380299  1
  Yb  Yb5  1  0.142110  0.337400  0.876490  1
  Yb  Yb6  1  0.366755  0.835228  0.119701  1
  Yb  Yb7  1  0.196248  0.493326  0.250000  1
  Yb  Yb8  1  0.532016  0.325741  0.397962  1
  Yb  Yb9  1  0.789631  0.507418  0.750000  1
  Yb  Yb10  1  0.965560  0.826527  0.895934  1
  Yb  Yb11  1  0.965560  0.826527  0.604066  1
  Yb  Yb12  1  0.478522  0.674132  0.607361  1
  Yb  Yb13  1  0.627770  0.163408  0.624363  1
  Yb  Yb14  1  0.305574  0.999271  0.750000  1
  Yb  Yb15  1  0.627770  0.163408  0.875637  1
  Yb  Yb16  1  0.705231  0.011631  0.250000  1
  Yb  Yb17  1  0.865913  0.658038  0.121660  1
  Yb  Yb18  1  0.478522  0.674132  0.892639  1
  Yb  Yb19  1  0.018986  0.183390  0.101707  1
  Pt  Pt20  1  0.833880  0.362059  0.250000  1
  Pt  Pt21  1  0.431195  0.375668  0.750000  1
  Pt  Pt22  1  0.668082  0.862051  0.750000  1
  Au  Au23  1  0.804040  0.468627  0.545316  1
  Au  Au24  1  0.699773  0.972298  0.044608  1
  Au  Au25  1  0.804040  0.468627  0.954684  1
  Au  Au26  1  0.203328  0.526376  0.455692  1
  Au  Au27  1  0.203328  0.526376  0.044308  1
  Au  Au28  1  0.169959  0.641604  0.750000  1
  Au  Au29  1  0.331819  0.139452  0.250000  1
  Au  Au30  1  0.567320  0.619273  0.250000  1
  Au  Au31  1  0.068119  0.876330  0.250000  1
  Au  Au32  1  0.295487  0.024637  0.955003  1
  Au  Au33  1  0.932421  0.120317  0.750000  1
  Au  Au34  1  0.699773  0.972298  0.455392  1
  Au  Au35  1  0.295487  0.024637  0.544997  1
