# generated using pymatgen
data_Tb11In9HgRh3
_symmetry_space_group_name_H-M   'P 1'
_cell_length_a   3.69029500
_cell_length_b   13.30373343
_cell_length_c   13.27189397
_cell_angle_alpha   110.93014491
_cell_angle_beta   90.00000000
_cell_angle_gamma   90.00000000
_symmetry_Int_Tables_number   1
_chemical_formula_structural   Tb11In9HgRh3
_chemical_formula_sum   'Tb11 In9 Hg1 Rh3'
_cell_volume   608.58626012
_cell_formula_units_Z   1
loop_
 _symmetry_equiv_pos_site_id
 _symmetry_equiv_pos_as_xyz
  1  'x, y, z'
loop_
 _atom_site_type_symbol
 _atom_site_label
 _atom_site_symmetry_multiplicity
 _atom_site_fract_x
 _atom_site_fract_y
 _atom_site_fract_z
 _atom_site_occupancy
  Tb  Tb0  1  0.000000  0.941324  0.587099  1
  Tb  Tb1  1  0.000000  0.083725  0.421457  1
  Tb  Tb2  1  0.000000  0.579863  0.924403  1
  Tb  Tb3  1  0.000000  0.417117  0.076580  1
  Tb  Tb4  1  0.000000  0.159583  0.843252  1
  Tb  Tb5  1  0.000000  0.842383  0.157041  1
  Tb  Tb6  1  0.000000  0.372646  0.625350  1
  Tb  Tb7  1  0.000000  0.611334  0.354529  1
  Tb  Tb8  1  0.000000  0.677493  0.699939  1
  Tb  Tb9  1  0.000000  0.310551  0.311528  1
  Tb  Tb10  1  0.000000  0.999950  0.000464  1
  In  In11  1  0.500000  0.165033  0.636196  1
  In  In12  1  0.500000  0.848463  0.365847  1
  In  In13  1  0.500000  0.634730  0.155902  1
  In  In14  1  0.500000  0.366638  0.840497  1
  In  In15  1  0.500000  0.929623  0.784757  1
  In  In16  1  0.500000  0.076006  0.219116  1
  In  In17  1  0.500000  0.781376  0.926474  1
  In  In18  1  0.500000  0.218178  0.076013  1
  In  In19  1  0.500000  0.494604  0.497905  1
  Hg  Hg20  1  0.500000  0.747564  0.546157  1
  Rh  Rh21  1  0.500000  0.246958  0.449142  1
  Rh  Rh22  1  0.500000  0.546904  0.756982  1
  Rh  Rh23  1  0.500000  0.447953  0.243370  1
