# generated using pymatgen
data_Nd2CoSi8Ni17
_symmetry_space_group_name_H-M   'P 1'
_cell_length_a   7.92604930
_cell_length_b   7.92604939
_cell_length_c   7.94607747
_cell_angle_alpha   121.04499071
_cell_angle_beta   121.04499333
_cell_angle_gamma   88.04995004
_symmetry_Int_Tables_number   1
_chemical_formula_structural   Nd2CoSi8Ni17
_chemical_formula_sum   'Nd2 Co1 Si8 Ni17'
_cell_volume   347.65548292
_cell_formula_units_Z   1
loop_
 _symmetry_equiv_pos_site_id
 _symmetry_equiv_pos_as_xyz
  1  'x, y, z'
loop_
 _atom_site_type_symbol
 _atom_site_label
 _atom_site_symmetry_multiplicity
 _atom_site_fract_x
 _atom_site_fract_y
 _atom_site_fract_z
 _atom_site_occupancy
  Nd  Nd0  1  0.750000  0.750000  0.000000  1
  Nd  Nd1  1  0.250000  0.250000  0.000000  1
  Co  Co2  1  0.500000  0.000000  0.500000  1
  Si  Si3  1  0.287160  0.787160  0.839039  1
  Si  Si4  1  0.051879  0.551879  0.839039  1
  Si  Si5  1  0.552271  0.713960  0.500000  1
  Si  Si6  1  0.786040  0.947729  0.500000  1
  Si  Si7  1  0.447729  0.286040  0.500000  1
  Si  Si8  1  0.948121  0.448121  0.160961  1
  Si  Si9  1  0.712840  0.212840  0.160961  1
  Si  Si10  1  0.213960  0.052271  0.500000  1
  Ni  Ni11  1  0.681465  0.447774  0.500000  1
  Ni  Ni12  1  0.447428  0.947428  0.764264  1
  Ni  Ni13  1  0.183164  0.683164  0.235736  1
  Ni  Ni14  1  0.552572  0.052572  0.235736  1
  Ni  Ni15  1  0.947774  0.181465  0.500000  1
  Ni  Ni16  1  0.203235  0.929900  0.133135  1
  Ni  Ni17  1  0.796765  0.070100  0.866865  1
  Ni  Ni18  1  0.429900  0.703235  0.133135  1
  Ni  Ni19  1  0.570100  0.296765  0.866865  1
  Ni  Ni20  1  0.702801  0.569001  0.271802  1
  Ni  Ni21  1  0.297199  0.430999  0.728198  1
  Ni  Ni22  1  0.930999  0.797199  0.728198  1
  Ni  Ni23  1  0.318535  0.552226  0.500000  1
  Ni  Ni24  1  0.816836  0.316836  0.764264  1
  Ni  Ni25  1  0.000000  0.500000  0.500000  1
  Ni  Ni26  1  0.069001  0.202801  0.271802  1
  Ni  Ni27  1  0.052226  0.818535  0.500000  1
