# generated using pymatgen
data_Cs3Li2TaP3
_symmetry_space_group_name_H-M   'P 1'
_cell_length_a   9.61651517
_cell_length_b   9.61651572
_cell_length_c   22.56007700
_cell_angle_alpha   90.00000000
_cell_angle_beta   90.00000000
_cell_angle_gamma   142.46264685
_symmetry_Int_Tables_number   1
_chemical_formula_structural   Cs3Li2TaP3
_chemical_formula_sum   'Cs12 Li8 Ta4 P12'
_cell_volume   1271.13567719
_cell_formula_units_Z   4
loop_
 _symmetry_equiv_pos_site_id
 _symmetry_equiv_pos_as_xyz
  1  'x, y, z'
loop_
 _atom_site_type_symbol
 _atom_site_label
 _atom_site_symmetry_multiplicity
 _atom_site_fract_x
 _atom_site_fract_y
 _atom_site_fract_z
 _atom_site_occupancy
  Cs  Cs0  1  0.941673  0.600909  0.861181  1
  Cs  Cs1  1  0.558327  0.899091  0.361181  1
  Cs  Cs2  1  0.399091  0.058327  0.138819  1
  Cs  Cs3  1  0.058327  0.399091  0.138819  1
  Cs  Cs4  1  0.899091  0.558327  0.361181  1
  Cs  Cs5  1  0.441673  0.100909  0.638819  1
  Cs  Cs6  1  0.600909  0.941673  0.861181  1
  Cs  Cs7  1  0.263130  0.263130  0.351340  1
  Cs  Cs8  1  0.763130  0.763130  0.148660  1
  Cs  Cs9  1  0.236870  0.236870  0.851340  1
  Cs  Cs10  1  0.736870  0.736870  0.648660  1
  Cs  Cs11  1  0.100909  0.441673  0.638819  1
  Li  Li12  1  0.919348  0.080652  0.000000  1
  Li  Li13  1  0.580652  0.419348  0.500000  1
  Li  Li14  1  0.080652  0.919348  0.000000  1
  Li  Li15  1  0.419348  0.580652  0.500000  1
  Li  Li16  1  0.754474  0.245526  0.000000  1
  Li  Li17  1  0.745526  0.254474  0.500000  1
  Li  Li18  1  0.245526  0.754474  0.000000  1
  Li  Li19  1  0.254474  0.745526  0.500000  1
  Ta  Ta20  1  0.586451  0.413549  0.000000  1
  Ta  Ta21  1  0.913549  0.086451  0.500000  1
  Ta  Ta22  1  0.413549  0.586451  0.000000  1
  Ta  Ta23  1  0.086451  0.913549  0.500000  1
  P  P24  1  0.890066  0.568375  0.059100  1
  P  P25  1  0.431625  0.109934  0.940900  1
  P  P26  1  0.609934  0.931625  0.559100  1
  P  P27  1  0.931625  0.609934  0.559100  1
  P  P28  1  0.109934  0.431625  0.940900  1
  P  P29  1  0.568375  0.890066  0.059100  1
  P  P30  1  0.390066  0.068375  0.440900  1
  P  P31  1  0.219746  0.219746  0.558735  1
  P  P32  1  0.719746  0.719746  0.941265  1
  P  P33  1  0.280254  0.280254  0.058735  1
  P  P34  1  0.068375  0.390066  0.440900  1
  P  P35  1  0.780254  0.780254  0.441265  1
