# generated using pymatgen
data_YbCu3HgPd
_symmetry_space_group_name_H-M   'P 1'
_cell_length_a   5.12711402
_cell_length_b   5.19096255
_cell_length_c   5.12711500
_cell_angle_alpha   60.40605155
_cell_angle_beta   60.00000016
_cell_angle_gamma   60.40604417
_symmetry_Int_Tables_number   1
_chemical_formula_structural   YbCu3HgPd
_chemical_formula_sum   'Yb1 Cu3 Hg1 Pd1'
_cell_volume   97.07721046
_cell_formula_units_Z   1
loop_
 _symmetry_equiv_pos_site_id
 _symmetry_equiv_pos_as_xyz
  1  'x, y, z'
loop_
 _atom_site_type_symbol
 _atom_site_label
 _atom_site_symmetry_multiplicity
 _atom_site_fract_x
 _atom_site_fract_y
 _atom_site_fract_z
 _atom_site_occupancy
  Yb  Yb0  1  0.750107  0.749680  0.750107  1
  Cu  Cu1  1  0.375735  0.373517  0.375735  1
  Cu  Cu2  1  0.875014  0.373517  0.375735  1
  Cu  Cu3  1  0.375735  0.373517  0.875014  1
  Hg  Hg4  1  0.998028  0.005916  0.998028  1
  Pd  Pd5  1  0.375382  0.873855  0.375382  1
