# generated using pymatgen
data_Tm2Al2RuPt
_symmetry_space_group_name_H-M   'P 1'
_cell_length_a   4.20618400
_cell_length_b   6.85859800
_cell_length_c   7.91985400
_cell_angle_alpha   90.00000000
_cell_angle_beta   90.00000000
_cell_angle_gamma   90.00000000
_symmetry_Int_Tables_number   1
_chemical_formula_structural   Tm2Al2RuPt
_chemical_formula_sum   'Tm4 Al4 Ru2 Pt2'
_cell_volume   228.47610746
_cell_formula_units_Z   2
loop_
 _symmetry_equiv_pos_site_id
 _symmetry_equiv_pos_as_xyz
  1  'x, y, z'
loop_
 _atom_site_type_symbol
 _atom_site_label
 _atom_site_symmetry_multiplicity
 _atom_site_fract_x
 _atom_site_fract_y
 _atom_site_fract_z
 _atom_site_occupancy
  Tm  Tm0  1  0.250000  0.035118  0.675185  1
  Tm  Tm1  1  0.250000  0.535118  0.824815  1
  Tm  Tm2  1  0.750000  0.968756  0.318893  1
  Tm  Tm3  1  0.750000  0.468756  0.181107  1
  Al  Al4  1  0.250000  0.137186  0.061328  1
  Al  Al5  1  0.250000  0.637186  0.438672  1
  Al  Al6  1  0.750000  0.858104  0.942972  1
  Al  Al7  1  0.750000  0.358104  0.557028  1
  Ru  Ru8  1  0.250000  0.266175  0.378752  1
  Ru  Ru9  1  0.250000  0.766175  0.121248  1
  Pt  Pt10  1  0.750000  0.734661  0.625528  1
  Pt  Pt11  1  0.750000  0.234661  0.874472  1
