# generated using pymatgen
data_PrAlGaPt2
_symmetry_space_group_name_H-M   'P 1'
_cell_length_a   4.37266600
_cell_length_b   4.37266600
_cell_length_c   10.21246100
_cell_angle_alpha   90.00000000
_cell_angle_beta   90.00000000
_cell_angle_gamma   90.00000000
_symmetry_Int_Tables_number   1
_chemical_formula_structural   PrAlGaPt2
_chemical_formula_sum   'Pr2 Al2 Ga2 Pt4'
_cell_volume   195.26437798
_cell_formula_units_Z   2
loop_
 _symmetry_equiv_pos_site_id
 _symmetry_equiv_pos_as_xyz
  1  'x, y, z'
loop_
 _atom_site_type_symbol
 _atom_site_label
 _atom_site_symmetry_multiplicity
 _atom_site_fract_x
 _atom_site_fract_y
 _atom_site_fract_z
 _atom_site_occupancy
  Pr  Pr0  1  0.000000  0.500000  0.252204  1
  Pr  Pr1  1  0.500000  0.000000  0.747796  1
  Al  Al2  1  0.000000  0.500000  0.876512  1
  Al  Al3  1  0.500000  0.000000  0.123488  1
  Ga  Ga4  1  0.000000  0.000000  0.500000  1
  Ga  Ga5  1  0.500000  0.500000  0.500000  1
  Pt  Pt6  1  0.000000  0.000000  0.000000  1
  Pt  Pt7  1  0.500000  0.500000  0.000000  1
  Pt  Pt8  1  0.000000  0.500000  0.634371  1
  Pt  Pt9  1  0.500000  0.000000  0.365629  1
