# generated using pymatgen
data_K3Rb(CeI6)2
_symmetry_space_group_name_H-M   'P 1'
_cell_length_a   8.90018367
_cell_length_b   8.33959556
_cell_length_c   14.42581200
_cell_angle_alpha   54.89697053
_cell_angle_beta   90.19897359
_cell_angle_gamma   89.94381620
_symmetry_Int_Tables_number   1
_chemical_formula_structural   K3Rb(CeI6)2
_chemical_formula_sum   'K3 Rb1 Ce2 I12'
_cell_volume   875.98239130
_cell_formula_units_Z   1
loop_
 _symmetry_equiv_pos_site_id
 _symmetry_equiv_pos_as_xyz
  1  'x, y, z'
loop_
 _atom_site_type_symbol
 _atom_site_label
 _atom_site_symmetry_multiplicity
 _atom_site_fract_x
 _atom_site_fract_y
 _atom_site_fract_z
 _atom_site_occupancy
  K  K0  1  0.087103  0.275794  0.248323  1
  K  K1  1  0.412350  0.276005  0.747941  1
  K  K2  1  0.912785  0.724600  0.751788  1
  Rb  Rb3  1  0.585824  0.724453  0.251123  1
  Ce  Ce4  1  0.000331  0.000952  0.999286  1
  Ce  Ce5  1  0.499494  0.999201  0.500913  1
  I  I6  1  0.986040  0.854442  0.246788  1
  I  I7  1  0.477599  0.155653  0.252086  1
  I  I8  1  0.020576  0.148084  0.752131  1
  I  I9  1  0.521316  0.851947  0.748255  1
  I  I10  1  0.683360  0.645550  0.554693  1
  I  I11  1  0.183519  0.353641  0.945683  1
  I  I12  1  0.311547  0.347229  0.449882  1
  I  I13  1  0.818917  0.646866  0.052517  1
  I  I14  1  0.707955  0.228347  0.950004  1
  I  I15  1  0.208416  0.772310  0.549310  1
  I  I16  1  0.290221  0.772068  0.046753  1
  I  I17  1  0.792646  0.222857  0.452524  1
