# generated using pymatgen
data_Ho3(GaRh)2
_symmetry_space_group_name_H-M   'P 1'
_cell_length_a   5.56816700
_cell_length_b   7.74771100
_cell_length_c   13.56251200
_cell_angle_alpha   90.00000000
_cell_angle_beta   90.00000000
_cell_angle_gamma   90.00000000
_symmetry_Int_Tables_number   1
_chemical_formula_structural   Ho3(GaRh)2
_chemical_formula_sum   'Ho12 Ga8 Rh8'
_cell_volume   585.09420964
_cell_formula_units_Z   4
loop_
 _symmetry_equiv_pos_site_id
 _symmetry_equiv_pos_as_xyz
  1  'x, y, z'
loop_
 _atom_site_type_symbol
 _atom_site_label
 _atom_site_symmetry_multiplicity
 _atom_site_fract_x
 _atom_site_fract_y
 _atom_site_fract_z
 _atom_site_occupancy
  Ho  Ho0  1  0.632182  0.261659  0.250000  1
  Ho  Ho1  1  0.367818  0.738341  0.750000  1
  Ho  Ho2  1  0.367818  0.761659  0.250000  1
  Ho  Ho3  1  0.632182  0.238341  0.750000  1
  Ho  Ho4  1  0.156008  0.399625  0.096735  1
  Ho  Ho5  1  0.843992  0.600375  0.903265  1
  Ho  Ho6  1  0.843992  0.600375  0.596735  1
  Ho  Ho7  1  0.843992  0.899625  0.403265  1
  Ho  Ho8  1  0.156008  0.399625  0.403265  1
  Ho  Ho9  1  0.156008  0.100375  0.596735  1
  Ho  Ho10  1  0.156008  0.100375  0.903265  1
  Ho  Ho11  1  0.843992  0.899625  0.096735  1
  Ga  Ga12  1  0.124790  0.108702  0.250000  1
  Ga  Ga13  1  0.875210  0.891298  0.750000  1
  Ga  Ga14  1  0.875210  0.608702  0.250000  1
  Ga  Ga15  1  0.124790  0.391298  0.750000  1
  Ga  Ga16  1  0.658588  0.250000  0.000000  1
  Ga  Ga17  1  0.341412  0.750000  0.000000  1
  Ga  Ga18  1  0.341412  0.750000  0.500000  1
  Ga  Ga19  1  0.658588  0.250000  0.500000  1
  Rh  Rh20  1  0.365757  0.040463  0.094717  1
  Rh  Rh21  1  0.634243  0.959537  0.905283  1
  Rh  Rh22  1  0.634243  0.959537  0.594717  1
  Rh  Rh23  1  0.634243  0.540463  0.405283  1
  Rh  Rh24  1  0.365757  0.040463  0.405283  1
  Rh  Rh25  1  0.365757  0.459537  0.594717  1
  Rh  Rh26  1  0.365757  0.459537  0.905283  1
  Rh  Rh27  1  0.634243  0.540463  0.094717  1
