# generated using pymatgen
data_Er(ThH5)3
_symmetry_space_group_name_H-M   'P 1'
_cell_length_a   7.80885047
_cell_length_b   7.80578213
_cell_length_c   7.76922935
_cell_angle_alpha   109.45154746
_cell_angle_beta   109.46759189
_cell_angle_gamma   109.69220015
_symmetry_Int_Tables_number   1
_chemical_formula_structural   Er(ThH5)3
_chemical_formula_sum   'Er2 Th6 H30'
_cell_volume   363.65849675
_cell_formula_units_Z   2
loop_
 _symmetry_equiv_pos_site_id
 _symmetry_equiv_pos_as_xyz
  1  'x, y, z'
loop_
 _atom_site_type_symbol
 _atom_site_label
 _atom_site_symmetry_multiplicity
 _atom_site_fract_x
 _atom_site_fract_y
 _atom_site_fract_z
 _atom_site_occupancy
  Er  Er0  1  0.914339  0.915184  0.915862  1
  Er  Er1  1  0.498476  0.999321  0.084138  1
  Th  Th2  1  0.993362  0.078995  0.494405  1
  Th  Th3  1  0.085046  0.505185  0.001018  1
  Th  Th4  1  0.998957  0.584591  0.505595  1
  Th  Th5  1  0.584028  0.504167  0.998982  1
  Th  Th6  1  0.504697  0.998598  0.587999  1
  Th  Th7  1  0.416698  0.410599  0.412001  1
  H  H8  1  0.649561  0.963997  0.368354  1
  H  H9  1  0.218092  0.316285  0.846514  1
  H  H10  1  0.186705  0.403931  0.534816  1
  H  H11  1  0.094852  0.278313  0.124618  1
  H  H12  1  0.281298  0.121252  0.092077  1
  H  H13  1  0.123864  0.092178  0.274918  1
  H  H14  1  0.470235  0.153695  0.875382  1
  H  H15  1  0.719233  0.350783  0.813319  1
  H  H16  1  0.627329  0.379249  0.250680  1
  H  H17  1  0.250312  0.624224  0.376264  1
  H  H18  1  0.749861  0.873129  0.125984  1
  H  H19  1  0.123878  0.747146  0.874016  1
  H  H20  1  0.374048  0.247960  0.623736  1
  H  H21  1  0.876649  0.128569  0.749320  1
  H  H22  1  0.781207  0.595643  0.631646  1
  H  H23  1  0.318352  0.849930  0.220920  1
  H  H24  1  0.374239  0.659694  0.967453  1
  H  H25  1  0.963404  0.368340  0.650543  1
  H  H26  1  0.536942  0.185026  0.404893  1
  H  H27  1  0.405913  0.537464  0.186681  1
  H  H28  1  0.839259  0.216457  0.310859  1
  H  H29  1  0.906786  0.692241  0.032547  1
  H  H30  1  0.812860  0.717797  0.349457  1
  H  H31  1  0.151889  0.869115  0.465184  1
  H  H32  1  0.689221  0.029174  0.907923  1
  H  H33  1  0.348947  0.817260  0.725082  1
  H  H34  1  0.871578  0.469771  0.153486  1
  H  H35  1  0.632050  0.780133  0.595107  1
  H  H36  1  0.597433  0.629010  0.779080  1
  H  H37  1  0.028399  0.905599  0.689141  1
