# generated using pymatgen
data_Na4Yb2MnAs4
_symmetry_space_group_name_H-M   'P 1'
_cell_length_a   9.39362409
_cell_length_b   9.39362361
_cell_length_c   7.24567000
_cell_angle_alpha   88.99950793
_cell_angle_beta   88.99951408
_cell_angle_gamma   119.84364138
_symmetry_Int_Tables_number   1
_chemical_formula_structural   Na4Yb2MnAs4
_chemical_formula_sum   'Na8 Yb4 Mn2 As8'
_cell_volume   554.23492519
_cell_formula_units_Z   2
loop_
 _symmetry_equiv_pos_site_id
 _symmetry_equiv_pos_as_xyz
  1  'x, y, z'
loop_
 _atom_site_type_symbol
 _atom_site_label
 _atom_site_symmetry_multiplicity
 _atom_site_fract_x
 _atom_site_fract_y
 _atom_site_fract_z
 _atom_site_occupancy
  Na  Na0  1  0.474865  0.944936  0.383124  1
  Na  Na1  1  0.944936  0.474865  0.883124  1
  Na  Na2  1  0.865205  0.725164  0.181335  1
  Na  Na3  1  0.279296  0.132447  0.223711  1
  Na  Na4  1  0.853432  0.137433  0.201973  1
  Na  Na5  1  0.132447  0.279296  0.723711  1
  Na  Na6  1  0.725164  0.865205  0.681335  1
  Na  Na7  1  0.137433  0.853432  0.701973  1
  Yb  Yb8  1  0.052157  0.527155  0.384215  1
  Yb  Yb9  1  0.480028  0.527373  0.379062  1
  Yb  Yb10  1  0.527155  0.052157  0.884215  1
  Yb  Yb11  1  0.527373  0.480028  0.879062  1
  Mn  Mn12  1  0.663677  0.329433  0.497634  1
  Mn  Mn13  1  0.329433  0.663677  0.997634  1
  As  As14  1  0.200852  0.387354  0.119628  1
  As  As15  1  0.612221  0.802697  0.083798  1
  As  As16  1  0.199019  0.809755  0.099709  1
  As  As17  1  0.802697  0.612221  0.583798  1
  As  As18  1  0.387354  0.200852  0.619628  1
  As  As19  1  0.809755  0.199019  0.599709  1
  As  As20  1  0.658724  0.336626  0.165789  1
  As  As21  1  0.336626  0.658724  0.665789  1
