# generated using pymatgen
data_Y9Th3Ru3Rh
_symmetry_space_group_name_H-M   'P 1'
_cell_length_a   6.37894413
_cell_length_b   7.24470254
_cell_length_c   9.61731300
_cell_angle_alpha   90.00000000
_cell_angle_beta   90.00000000
_cell_angle_gamma   89.31287167
_symmetry_Int_Tables_number   1
_chemical_formula_structural   Y9Th3Ru3Rh
_chemical_formula_sum   'Y9 Th3 Ru3 Rh1'
_cell_volume   444.41824066
_cell_formula_units_Z   1
loop_
 _symmetry_equiv_pos_site_id
 _symmetry_equiv_pos_as_xyz
  1  'x, y, z'
loop_
 _atom_site_type_symbol
 _atom_site_label
 _atom_site_symmetry_multiplicity
 _atom_site_fract_x
 _atom_site_fract_y
 _atom_site_fract_z
 _atom_site_occupancy
  Y  Y0  1  0.860284  0.537146  0.250000  1
  Y  Y1  1  0.168592  0.173972  0.065830  1
  Y  Y2  1  0.831977  0.823271  0.935423  1
  Y  Y3  1  0.668775  0.324447  0.932911  1
  Y  Y4  1  0.831977  0.823271  0.564577  1
  Y  Y5  1  0.329392  0.677434  0.068077  1
  Y  Y6  1  0.168592  0.173972  0.434170  1
  Y  Y7  1  0.329392  0.677434  0.431923  1
  Y  Y8  1  0.668775  0.324447  0.567089  1
  Th  Th9  1  0.659132  0.045924  0.250000  1
  Th  Th10  1  0.346365  0.951159  0.750000  1
  Th  Th11  1  0.151632  0.453229  0.750000  1
  Ru  Ru12  1  0.526687  0.629687  0.750000  1
  Ru  Ru13  1  0.973223  0.131546  0.750000  1
  Ru  Ru14  1  0.030526  0.884111  0.250000  1
  Rh  Rh15  1  0.454683  0.368946  0.250000  1
