# generated using pymatgen
data_Tb2Al9FePd2
_symmetry_space_group_name_H-M   'P 1'
_cell_length_a   7.60416000
_cell_length_b   7.60415824
_cell_length_c   9.50501200
_cell_angle_alpha   90.00000000
_cell_angle_beta   90.00000000
_cell_angle_gamma   119.79366357
_symmetry_Int_Tables_number   1
_chemical_formula_structural   Tb2Al9FePd2
_chemical_formula_sum   'Tb4 Al18 Fe2 Pd4'
_cell_volume   476.96325371
_cell_formula_units_Z   2
loop_
 _symmetry_equiv_pos_site_id
 _symmetry_equiv_pos_as_xyz
  1  'x, y, z'
loop_
 _atom_site_type_symbol
 _atom_site_label
 _atom_site_symmetry_multiplicity
 _atom_site_fract_x
 _atom_site_fract_y
 _atom_site_fract_z
 _atom_site_occupancy
  Tb  Tb0  1  0.993381  0.663582  0.250000  1
  Tb  Tb1  1  0.006619  0.336418  0.750000  1
  Tb  Tb2  1  0.663582  0.993381  0.250000  1
  Tb  Tb3  1  0.336418  0.006619  0.750000  1
  Al  Al4  1  0.111782  0.111782  0.250000  1
  Al  Al5  1  0.888218  0.888218  0.750000  1
  Al  Al6  1  0.999479  0.321792  0.074381  1
  Al  Al7  1  0.000521  0.678208  0.925619  1
  Al  Al8  1  0.000521  0.678208  0.574381  1
  Al  Al9  1  0.321792  0.999479  0.425619  1
  Al  Al10  1  0.999479  0.321792  0.425619  1
  Al  Al11  1  0.678208  0.000521  0.574381  1
  Al  Al12  1  0.678208  0.000521  0.925619  1
  Al  Al13  1  0.321792  0.999479  0.074381  1
  Al  Al14  1  0.322610  0.322610  0.552015  1
  Al  Al15  1  0.677390  0.677391  0.447985  1
  Al  Al16  1  0.677390  0.677391  0.052015  1
  Al  Al17  1  0.322610  0.322610  0.947985  1
  Al  Al18  1  0.339878  0.542395  0.250000  1
  Al  Al19  1  0.660122  0.457605  0.750000  1
  Al  Al20  1  0.542395  0.339878  0.250000  1
  Al  Al21  1  0.457605  0.660122  0.750000  1
  Fe  Fe22  1  0.000000  0.000000  0.000000  1
  Fe  Fe23  1  0.000000  0.000000  0.500000  1
  Pd  Pd24  1  0.672118  0.327882  0.000000  1
  Pd  Pd25  1  0.327882  0.672118  0.000000  1
  Pd  Pd26  1  0.327882  0.672118  0.500000  1
  Pd  Pd27  1  0.672118  0.327882  0.500000  1
