# generated using pymatgen
data_YThHgPd2
_symmetry_space_group_name_H-M   'P 1'
_cell_length_a   7.87800600
_cell_length_b   7.81603600
_cell_length_c   3.77944000
_cell_angle_alpha   90.00000000
_cell_angle_beta   90.00000000
_cell_angle_gamma   90.00000000
_symmetry_Int_Tables_number   1
_chemical_formula_structural   YThHgPd2
_chemical_formula_sum   'Y2 Th2 Hg2 Pd4'
_cell_volume   232.71818087
_cell_formula_units_Z   2
loop_
 _symmetry_equiv_pos_site_id
 _symmetry_equiv_pos_as_xyz
  1  'x, y, z'
loop_
 _atom_site_type_symbol
 _atom_site_label
 _atom_site_symmetry_multiplicity
 _atom_site_fract_x
 _atom_site_fract_y
 _atom_site_fract_z
 _atom_site_occupancy
  Y  Y0  1  0.826518  0.676224  0.500000  1
  Y  Y1  1  0.326518  0.823776  0.500000  1
  Th  Th2  1  0.674478  0.169086  0.500000  1
  Th  Th3  1  0.174478  0.330914  0.500000  1
  Hg  Hg4  1  0.002548  0.990834  0.000000  1
  Hg  Hg5  1  0.502548  0.509166  0.000000  1
  Pd  Pd6  1  0.871344  0.369335  0.000000  1
  Pd  Pd7  1  0.371344  0.130665  0.000000  1
  Pd  Pd8  1  0.625111  0.878800  0.000000  1
  Pd  Pd9  1  0.125111  0.621200  0.000000  1
