# generated using pymatgen
data_CeY3(Si5Os3)2
_symmetry_space_group_name_H-M   'P 1'
_cell_length_a   8.13933139
_cell_length_b   8.13614378
_cell_length_c   5.82082813
_cell_angle_alpha   70.48084326
_cell_angle_beta   70.54659292
_cell_angle_gamma   93.88834875
_symmetry_Int_Tables_number   1
_chemical_formula_structural   CeY3(Si5Os3)2
_chemical_formula_sum   'Ce1 Y3 Si10 Os6'
_cell_volume   335.54975562
_cell_formula_units_Z   1
loop_
 _symmetry_equiv_pos_site_id
 _symmetry_equiv_pos_as_xyz
  1  'x, y, z'
loop_
 _atom_site_type_symbol
 _atom_site_label
 _atom_site_symmetry_multiplicity
 _atom_site_fract_x
 _atom_site_fract_y
 _atom_site_fract_z
 _atom_site_occupancy
  Ce  Ce0  1  0.599580  0.868844  0.257641  1
  Y  Y1  1  0.869165  0.602032  0.752201  1
  Y  Y2  1  0.398380  0.132827  0.744025  1
  Y  Y3  1  0.132528  0.397627  0.245854  1
  Si  Si4  1  0.066813  0.260433  0.835378  1
  Si  Si5  1  0.737894  0.934393  0.666817  1
  Si  Si6  1  0.934394  0.738379  0.164336  1
  Si  Si7  1  0.262334  0.066213  0.333899  1
  Si  Si8  1  0.206777  0.793934  0.746615  1
  Si  Si9  1  0.795033  0.207899  0.252260  1
  Si  Si10  1  0.514067  0.486065  0.750174  1
  Si  Si11  1  0.485623  0.511272  0.252174  1
  Si  Si12  1  0.773563  0.227909  0.746314  1
  Si  Si13  1  0.225111  0.774699  0.251627  1
  Os  Os14  1  0.255950  0.541694  0.632609  1
  Os  Os15  1  0.454668  0.743160  0.869362  1
  Os  Os16  1  0.743823  0.458112  0.365104  1
  Os  Os17  1  0.546071  0.255918  0.130878  1
  Os  Os18  1  0.001760  0.997198  0.750744  1
  Os  Os19  1  0.996469  0.001390  0.251983  1
