# generated using pymatgen
data_Lu5SiNiSb
_symmetry_space_group_name_H-M   'P 1'
_cell_length_a   8.24298026
_cell_length_b   8.24298074
_cell_length_c   8.48423473
_cell_angle_alpha   124.86677907
_cell_angle_beta   124.86677974
_cell_angle_gamma   79.81635885
_symmetry_Int_Tables_number   1
_chemical_formula_structural   Lu5SiNiSb
_chemical_formula_sum   'Lu10 Si2 Ni2 Sb2'
_cell_volume   378.32289995
_cell_formula_units_Z   2
loop_
 _symmetry_equiv_pos_site_id
 _symmetry_equiv_pos_as_xyz
  1  'x, y, z'
loop_
 _atom_site_type_symbol
 _atom_site_label
 _atom_site_symmetry_multiplicity
 _atom_site_fract_x
 _atom_site_fract_y
 _atom_site_fract_z
 _atom_site_occupancy
  Lu  Lu0  1  0.000000  0.000000  0.000000  1
  Lu  Lu1  1  0.500000  0.500000  0.000000  1
  Lu  Lu2  1  0.782791  0.282791  0.791149  1
  Lu  Lu3  1  0.217209  0.717209  0.208851  1
  Lu  Lu4  1  0.491643  0.991643  0.208851  1
  Lu  Lu5  1  0.299359  0.466286  0.500000  1
  Lu  Lu6  1  0.033714  0.200641  0.500000  1
  Lu  Lu7  1  0.508357  0.008357  0.791149  1
  Lu  Lu8  1  0.700641  0.533714  0.500000  1
  Lu  Lu9  1  0.966286  0.799359  0.500000  1
  Si  Si10  1  0.148557  0.648557  0.797114  1
  Si  Si11  1  0.851443  0.351443  0.202886  1
  Ni  Ni12  1  0.629877  0.870123  0.500000  1
  Ni  Ni13  1  0.370123  0.129877  0.500000  1
  Sb  Sb14  1  0.250000  0.250000  0.000000  1
  Sb  Sb15  1  0.750000  0.750000  0.000000  1
