# generated using pymatgen
data_BaZn2Se2O
_symmetry_space_group_name_H-M   'P 1'
_cell_length_a   4.17977900
_cell_length_b   6.77422900
_cell_length_c   10.29029386
_cell_angle_alpha   89.96229570
_cell_angle_beta   89.99877200
_cell_angle_gamma   90.00136109
_symmetry_Int_Tables_number   1
_chemical_formula_structural   BaZn2Se2O
_chemical_formula_sum   'Ba2 Zn4 Se4 O2'
_cell_volume   291.36734469
_cell_formula_units_Z   2
loop_
 _symmetry_equiv_pos_site_id
 _symmetry_equiv_pos_as_xyz
  1  'x, y, z'
loop_
 _atom_site_type_symbol
 _atom_site_label
 _atom_site_symmetry_multiplicity
 _atom_site_fract_x
 _atom_site_fract_y
 _atom_site_fract_z
 _atom_site_occupancy
  Ba  Ba0  1  0.501647  0.004581  0.499471  1
  Ba  Ba1  1  0.001730  0.995419  0.000528  1
  Zn  Zn2  1  0.500549  0.366425  0.834540  1
  Zn  Zn3  1  0.497981  0.368819  0.163183  1
  Zn  Zn4  1  0.997892  0.631187  0.336817  1
  Zn  Zn5  1  0.000460  0.633570  0.665461  1
  Se  Se6  1  0.500374  0.731440  0.795795  1
  Se  Se7  1  0.498132  0.731935  0.206319  1
  Se  Se8  1  0.998155  0.268069  0.293681  1
  Se  Se9  1  0.000437  0.268558  0.704204  1
  O  O10  1  0.501377  0.229106  0.999430  1
  O  O11  1  0.001266  0.770892  0.500572  1
