# generated using pymatgen
data_Co4SbRhO8
_symmetry_space_group_name_H-M   'P 1'
_cell_length_a   6.08176179
_cell_length_b   10.48670000
_cell_length_c   6.19011595
_cell_angle_alpha   73.77505689
_cell_angle_beta   60.58421676
_cell_angle_gamma   89.97831938
_symmetry_Int_Tables_number   1
_chemical_formula_structural   Co4SbRhO8
_chemical_formula_sum   'Co8 Sb2 Rh2 O16'
_cell_volume   325.74717825
_cell_formula_units_Z   2
loop_
 _symmetry_equiv_pos_site_id
 _symmetry_equiv_pos_as_xyz
  1  'x, y, z'
loop_
 _atom_site_type_symbol
 _atom_site_label
 _atom_site_symmetry_multiplicity
 _atom_site_fract_x
 _atom_site_fract_y
 _atom_site_fract_z
 _atom_site_occupancy
  Co  Co0  1  0.704407  0.569107  0.099999  1
  Co  Co1  1  0.796495  0.930927  0.900073  1
  Co  Co2  1  0.749726  0.249975  0.499755  1
  Co  Co3  1  0.997611  0.500017  0.500638  1
  Co  Co4  1  0.196417  0.069199  0.098807  1
  Co  Co5  1  0.302849  0.430912  0.900806  1
  Co  Co6  1  0.502186  0.999846  0.499619  1
  Co  Co7  1  0.750542  0.750053  0.499957  1
  Sb  Sb8  1  0.749348  0.249979  0.000047  1
  Sb  Sb9  1  0.250512  0.749983  0.000203  1
  Rh  Rh10  1  0.249576  0.250067  0.499913  1
  Rh  Rh11  1  0.250378  0.750083  0.500081  1
  O  O12  1  0.393091  0.130088  0.714080  1
  O  O13  1  0.892657  0.630247  0.715093  1
  O  O14  1  0.106155  0.369939  0.285574  1
  O  O15  1  0.608254  0.869689  0.284975  1
  O  O16  1  0.393508  0.136791  0.244739  1
  O  O17  1  0.904194  0.634330  0.240084  1
  O  O18  1  0.856126  0.134082  0.239544  1
  O  O19  1  0.361199  0.636600  0.245452  1
  O  O20  1  0.617276  0.362919  0.247032  1
  O  O21  1  0.135762  0.863056  0.246867  1
  O  O22  1  0.642876  0.365779  0.760159  1
  O  O23  1  0.139711  0.863353  0.755167  1
  O  O24  1  0.881949  0.137140  0.752769  1
  O  O25  1  0.365172  0.637089  0.753095  1
  O  O26  1  0.105132  0.363138  0.755501  1
  O  O27  1  0.596895  0.865611  0.759971  1
