# generated using pymatgen
data_Dy6Tm4BiPb5
_symmetry_space_group_name_H-M   'P 1'
_cell_length_a   6.52716300
_cell_length_b   9.05412865
_cell_length_c   9.05670500
_cell_angle_alpha   119.99058866
_cell_angle_beta   90.00021288
_cell_angle_gamma   89.99957253
_symmetry_Int_Tables_number   1
_chemical_formula_structural   Dy6Tm4BiPb5
_chemical_formula_sum   'Dy6 Tm4 Bi1 Pb5'
_cell_volume   463.56768249
_cell_formula_units_Z   1
loop_
 _symmetry_equiv_pos_site_id
 _symmetry_equiv_pos_as_xyz
  1  'x, y, z'
loop_
 _atom_site_type_symbol
 _atom_site_label
 _atom_site_symmetry_multiplicity
 _atom_site_fract_x
 _atom_site_fract_y
 _atom_site_fract_z
 _atom_site_occupancy
  Dy  Dy0  1  0.750002  0.237499  0.000000  1
  Dy  Dy1  1  0.749998  0.762427  0.759952  1
  Dy  Dy2  1  0.749998  0.002475  0.240048  1
  Dy  Dy3  1  0.250001  0.761551  0.000000  1
  Dy  Dy4  1  0.250000  0.238530  0.238948  1
  Dy  Dy5  1  0.250000  0.999582  0.761052  1
  Tm  Tm6  1  0.499869  0.332154  0.665158  1
  Tm  Tm7  1  0.499869  0.666996  0.334842  1
  Tm  Tm8  1  0.000133  0.667020  0.334840  1
  Tm  Tm9  1  0.000133  0.332180  0.665160  1
  Bi  Bi10  1  0.749992  0.605032  0.000000  1
  Pb  Pb11  1  0.750003  0.395517  0.395481  1
  Pb  Pb12  1  0.750003  0.000036  0.604519  1
  Pb  Pb13  1  0.249996  0.394960  0.000000  1
  Pb  Pb14  1  0.250003  0.604641  0.605242  1
  Pb  Pb15  1  0.250003  0.999399  0.394758  1
