# generated using pymatgen
data_Li12La12Mo3W5O48
_symmetry_space_group_name_H-M   'P 1'
_cell_length_a   11.06869054
_cell_length_b   11.06869123
_cell_length_c   11.06222600
_cell_angle_alpha   109.45939071
_cell_angle_beta   109.45939197
_cell_angle_gamma   109.48304803
_symmetry_Int_Tables_number   1
_chemical_formula_structural   Li12La12Mo3W5O48
_chemical_formula_sum   'Li12 La12 Mo3 W5 O48'
_cell_volume   1043.46174499
_cell_formula_units_Z   1
loop_
 _symmetry_equiv_pos_site_id
 _symmetry_equiv_pos_as_xyz
  1  'x, y, z'
loop_
 _atom_site_type_symbol
 _atom_site_label
 _atom_site_symmetry_multiplicity
 _atom_site_fract_x
 _atom_site_fract_y
 _atom_site_fract_z
 _atom_site_occupancy
  Li  Li0  1  0.750143  0.374707  0.125769  1
  Li  Li1  1  0.875436  0.750143  0.124374  1
  Li  Li2  1  0.125028  0.374973  0.250060  1
  Li  Li3  1  0.625293  0.875436  0.251062  1
  Li  Li4  1  0.625027  0.250055  0.375086  1
  Li  Li5  1  0.250055  0.125028  0.374969  1
  Li  Li6  1  0.374973  0.749945  0.624914  1
  Li  Li7  1  0.749945  0.874971  0.625031  1
  Li  Li8  1  0.374707  0.124564  0.748938  1
  Li  Li9  1  0.874971  0.625027  0.749940  1
  Li  Li10  1  0.124563  0.249856  0.875625  1
  Li  Li11  1  0.249857  0.625293  0.874231  1
  La  La12  1  0.250114  0.875172  0.125098  1
  La  La13  1  0.374796  0.249649  0.124811  1
  La  La14  1  0.875172  0.125055  0.250072  1
  La  La15  1  0.374854  0.625204  0.250016  1
  La  La16  1  0.125056  0.749885  0.374983  1
  La  La17  1  0.750351  0.625146  0.375161  1
  La  La18  1  0.874944  0.250115  0.625017  1
  La  La19  1  0.249649  0.374854  0.624839  1
  La  La20  1  0.625146  0.374796  0.749984  1
  La  La21  1  0.124827  0.874944  0.749927  1
  La  La22  1  0.625204  0.750351  0.875188  1
  La  La23  1  0.749885  0.124827  0.874901  1
  Mo  Mo24  1  0.000000  0.000000  0.000000  1
  Mo  Mo25  1  0.500000  0.000000  0.500000  1
  Mo  Mo26  1  0.000000  0.500000  0.500000  1
  W  W27  1  0.500001  0.000000  0.000000  1
  W  W28  1  0.500000  0.500000  0.000000  1
  W  W29  1  0.000000  0.500001  0.000000  1
  W  W30  1  0.000000  0.000000  0.500001  1
  W  W31  1  0.500001  0.500001  0.500001  1
  O  O32  1  0.329145  0.407470  0.021850  1
  O  O33  1  0.192621  0.613661  0.021500  1
  O  O34  1  0.885758  0.908049  0.078370  1
  O  O35  1  0.692852  0.170749  0.078892  1
  O  O36  1  0.613662  0.921041  0.092161  1
  O  O37  1  0.977964  0.170376  0.092179  1
  O  O38  1  0.022103  0.692852  0.113960  1
  O  O39  1  0.592530  0.421675  0.114379  1
  O  O40  1  0.192559  0.078222  0.170240  1
  O  O41  1  0.478176  0.092245  0.170910  1
  O  O42  1  0.114067  0.521823  0.192733  1
  O  O43  1  0.578325  0.670856  0.192704  1
  O  O44  1  0.329159  0.421328  0.307210  1
  O  O45  1  0.477710  0.885759  0.307388  1
  O  O46  1  0.921041  0.807379  0.328879  1
  O  O47  1  0.908049  0.522290  0.329679  1
  O  O48  1  0.578671  0.407831  0.385881  1
  O  O49  1  0.307588  0.977964  0.385785  1
  O  O50  1  0.829251  0.022103  0.408141  1
  O  O51  1  0.078222  0.385663  0.407983  1
  O  O52  1  0.092245  0.114067  0.421335  1
  O  O53  1  0.829625  0.307588  0.421804  1
  O  O54  1  0.592169  0.670840  0.478051  1
  O  O55  1  0.385663  0.807441  0.477680  1
  O  O56  1  0.614337  0.192559  0.522319  1
  O  O57  1  0.407831  0.329159  0.521948  1
  O  O58  1  0.170376  0.692412  0.578196  1
  O  O59  1  0.907755  0.885932  0.578664  1
  O  O60  1  0.170749  0.977898  0.591859  1
  O  O61  1  0.921778  0.614337  0.592017  1
  O  O62  1  0.421328  0.592169  0.614118  1
  O  O63  1  0.692412  0.022037  0.614215  1
  O  O64  1  0.078960  0.192621  0.671120  1
  O  O65  1  0.091952  0.477710  0.670322  1
  O  O66  1  0.670840  0.578671  0.692790  1
  O  O67  1  0.522290  0.114242  0.692612  1
  O  O68  1  0.885932  0.478176  0.807266  1
  O  O69  1  0.421675  0.329145  0.807296  1
  O  O70  1  0.521823  0.907755  0.829090  1
  O  O71  1  0.807441  0.921778  0.829761  1
  O  O72  1  0.977897  0.307148  0.886039  1
  O  O73  1  0.407470  0.578325  0.885622  1
  O  O74  1  0.386338  0.078960  0.907839  1
  O  O75  1  0.022037  0.829625  0.907821  1
  O  O76  1  0.114241  0.091951  0.921630  1
  O  O77  1  0.307148  0.829252  0.921109  1
  O  O78  1  0.807379  0.386338  0.978501  1
  O  O79  1  0.670856  0.592530  0.978151  1
