# generated using pymatgen
data_Ca3La(NiH6)2
_symmetry_space_group_name_H-M   'P 1'
_cell_length_a   7.07995105
_cell_length_b   7.07995032
_cell_length_c   5.10578408
_cell_angle_alpha   90.00470808
_cell_angle_beta   90.00472422
_cell_angle_gamma   137.62333785
_symmetry_Int_Tables_number   1
_chemical_formula_structural   Ca3La(NiH6)2
_chemical_formula_sum   'Ca3 La1 Ni2 H12'
_cell_volume   172.49789085
_cell_formula_units_Z   1
loop_
 _symmetry_equiv_pos_site_id
 _symmetry_equiv_pos_as_xyz
  1  'x, y, z'
loop_
 _atom_site_type_symbol
 _atom_site_label
 _atom_site_symmetry_multiplicity
 _atom_site_fract_x
 _atom_site_fract_y
 _atom_site_fract_z
 _atom_site_occupancy
  Ca  Ca0  1  0.647125  0.352875  0.000000  1
  Ca  Ca1  1  0.857382  0.142618  0.500000  1
  Ca  Ca2  1  0.360560  0.639440  0.000000  1
  La  La3  1  0.141586  0.858414  0.500000  1
  Ni  Ni4  1  0.499243  0.500757  0.500000  1
  Ni  Ni5  1  0.998768  0.001232  0.000000  1
  H  H6  1  0.001175  0.499621  0.751460  1
  H  H7  1  0.500379  0.998825  0.248540  1
  H  H8  1  0.001103  0.499488  0.248546  1
  H  H9  1  0.500512  0.998897  0.751454  1
  H  H10  1  0.379666  0.620334  0.500000  1
  H  H11  1  0.879850  0.120150  0.000000  1
  H  H12  1  0.619528  0.380472  0.500000  1
  H  H13  1  0.118674  0.881326  0.000000  1
  H  H14  1  0.249089  0.251858  0.747832  1
  H  H15  1  0.748142  0.750911  0.252168  1
  H  H16  1  0.247991  0.250775  0.250941  1
  H  H17  1  0.749225  0.752009  0.749059  1
