# generated using pymatgen
data_Y6Ho14Cd6OsRu
_symmetry_space_group_name_H-M   'P 1'
_cell_length_a   9.58110000
_cell_length_b   9.58109914
_cell_length_c   9.83748100
_cell_angle_alpha   90.00000000
_cell_angle_beta   90.00000000
_cell_angle_gamma   120.00000298
_symmetry_Int_Tables_number   1
_chemical_formula_structural   Y6Ho14Cd6OsRu
_chemical_formula_sum   'Y6 Ho14 Cd6 Os1 Ru1'
_cell_volume   782.06928937
_cell_formula_units_Z   1
loop_
 _symmetry_equiv_pos_site_id
 _symmetry_equiv_pos_as_xyz
  1  'x, y, z'
loop_
 _atom_site_type_symbol
 _atom_site_label
 _atom_site_symmetry_multiplicity
 _atom_site_fract_x
 _atom_site_fract_y
 _atom_site_fract_z
 _atom_site_occupancy
  Y  Y0  1  0.540012  0.459988  0.250000  1
  Y  Y1  1  0.540012  0.080025  0.250000  1
  Y  Y2  1  0.919975  0.459988  0.250000  1
  Y  Y3  1  0.458741  0.541259  0.750000  1
  Y  Y4  1  0.458741  0.917481  0.750000  1
  Y  Y5  1  0.082519  0.541259  0.750000  1
  Ho  Ho6  1  0.000000  0.000000  0.499705  1
  Ho  Ho7  1  0.000000  0.000000  0.000295  1
  Ho  Ho8  1  0.209931  0.790069  0.440453  1
  Ho  Ho9  1  0.209931  0.419862  0.440453  1
  Ho  Ho10  1  0.580138  0.790069  0.440453  1
  Ho  Ho11  1  0.790003  0.209997  0.559986  1
  Ho  Ho12  1  0.790003  0.580003  0.559986  1
  Ho  Ho13  1  0.419997  0.209997  0.559986  1
  Ho  Ho14  1  0.790003  0.209997  0.940014  1
  Ho  Ho15  1  0.790003  0.580003  0.940014  1
  Ho  Ho16  1  0.419997  0.209997  0.940014  1
  Ho  Ho17  1  0.209931  0.790069  0.059547  1
  Ho  Ho18  1  0.209931  0.419862  0.059547  1
  Ho  Ho19  1  0.580138  0.790069  0.059547  1
  Cd  Cd20  1  0.885328  0.114672  0.250000  1
  Cd  Cd21  1  0.885328  0.770657  0.250000  1
  Cd  Cd22  1  0.229343  0.114672  0.250000  1
  Cd  Cd23  1  0.114707  0.885293  0.750000  1
  Cd  Cd24  1  0.114707  0.229412  0.750000  1
  Cd  Cd25  1  0.770588  0.885293  0.750000  1
  Os  Os26  1  0.333333  0.666667  0.250000  1
  Ru  Ru27  1  0.666667  0.333333  0.750000  1
