# generated using pymatgen
data_Dy3Er7(SiPb3)2
_symmetry_space_group_name_H-M   'P 1'
_cell_length_a   9.28290202
_cell_length_b   9.27887572
_cell_length_c   6.48631400
_cell_angle_alpha   90.00000000
_cell_angle_beta   90.00000000
_cell_angle_gamma   119.96063945
_symmetry_Int_Tables_number   1
_chemical_formula_structural   Dy3Er7(SiPb3)2
_chemical_formula_sum   'Dy3 Er7 Si2 Pb6'
_cell_volume   484.03842522
_cell_formula_units_Z   1
loop_
 _symmetry_equiv_pos_site_id
 _symmetry_equiv_pos_as_xyz
  1  'x, y, z'
loop_
 _atom_site_type_symbol
 _atom_site_label
 _atom_site_symmetry_multiplicity
 _atom_site_fract_x
 _atom_site_fract_y
 _atom_site_fract_z
 _atom_site_occupancy
  Dy  Dy0  1  0.750753  0.000192  0.750000  1
  Dy  Dy1  1  0.249336  0.249366  0.750000  1
  Dy  Dy2  1  0.750642  0.750540  0.250000  1
  Er  Er3  1  0.248636  0.999866  0.250000  1
  Er  Er4  1  0.000164  0.751563  0.750000  1
  Er  Er5  1  0.999943  0.248619  0.250000  1
  Er  Er6  1  0.333136  0.666710  0.500008  1
  Er  Er7  1  0.666791  0.333336  0.500027  1
  Er  Er8  1  0.333136  0.666710  0.999992  1
  Er  Er9  1  0.666791  0.333336  0.999973  1
  Si  Si10  1  0.000499  0.999969  0.000549  1
  Si  Si11  1  0.000499  0.999969  0.499451  1
  Pb  Pb12  1  0.606338  0.000546  0.250000  1
  Pb  Pb13  1  0.393251  0.999404  0.750000  1
  Pb  Pb14  1  0.000463  0.606455  0.250000  1
  Pb  Pb15  1  0.606725  0.606092  0.750000  1
  Pb  Pb16  1  0.392900  0.392958  0.250000  1
  Pb  Pb17  1  0.999997  0.394370  0.750000  1
