# generated using pymatgen
data_LaTm7GaPd24
_symmetry_space_group_name_H-M   'P 1'
_cell_length_a   8.34846701
_cell_length_b   8.34846604
_cell_length_c   8.34846700
_cell_angle_alpha   89.92575571
_cell_angle_beta   89.92575572
_cell_angle_gamma   90.07425096
_symmetry_Int_Tables_number   1
_chemical_formula_structural   LaTm7GaPd24
_chemical_formula_sum   'La1 Tm7 Ga1 Pd24'
_cell_volume   581.86074676
_cell_formula_units_Z   1
loop_
 _symmetry_equiv_pos_site_id
 _symmetry_equiv_pos_as_xyz
  1  'x, y, z'
loop_
 _atom_site_type_symbol
 _atom_site_label
 _atom_site_symmetry_multiplicity
 _atom_site_fract_x
 _atom_site_fract_y
 _atom_site_fract_z
 _atom_site_occupancy
  La  La0  1  0.252627  0.252638  0.747371  1
  Tm  Tm1  1  0.252011  0.748267  0.251700  1
  Tm  Tm2  1  0.748265  0.252011  0.251697  1
  Tm  Tm3  1  0.748260  0.748265  0.748035  1
  Tm  Tm4  1  0.747853  0.747855  0.252102  1
  Tm  Tm5  1  0.747768  0.251970  0.748072  1
  Tm  Tm6  1  0.251971  0.747773  0.748080  1
  Tm  Tm7  1  0.251979  0.251968  0.252186  1
  Ga  Ga8  1  0.999689  0.999689  0.000313  1
  Pd  Pd9  1  0.504015  0.504001  0.747281  1
  Pd  Pd10  1  0.504001  0.252841  0.495984  1
  Pd  Pd11  1  0.252848  0.503998  0.495976  1
  Pd  Pd12  1  0.500420  0.500433  0.252745  1
  Pd  Pd13  1  0.500427  0.747130  0.499567  1
  Pd  Pd14  1  0.747120  0.500424  0.499582  1
  Pd  Pd15  1  0.996214  0.996214  0.708498  1
  Pd  Pd16  1  0.996212  0.291596  0.003777  1
  Pd  Pd17  1  0.291606  0.996211  0.003781  1
  Pd  Pd18  1  0.999917  0.999913  0.290628  1
  Pd  Pd19  1  0.999911  0.709292  0.000093  1
  Pd  Pd20  1  0.709278  0.999913  0.000089  1
  Pd  Pd21  1  0.995590  0.503080  0.740278  1
  Pd  Pd22  1  0.503088  0.259808  0.004409  1
  Pd  Pd23  1  0.259815  0.995593  0.496898  1
  Pd  Pd24  1  0.995596  0.259815  0.496912  1
  Pd  Pd25  1  0.503095  0.995590  0.740294  1
  Pd  Pd26  1  0.259826  0.503089  0.004414  1
  Pd  Pd27  1  0.999744  0.500788  0.260140  1
  Pd  Pd28  1  0.500785  0.739777  0.000261  1
  Pd  Pd29  1  0.999753  0.739774  0.499218  1
  Pd  Pd30  1  0.500779  0.999745  0.260131  1
  Pd  Pd31  1  0.739772  0.999751  0.499224  1
  Pd  Pd32  1  0.739766  0.500790  0.000263  1
