# generated using pymatgen
data_LuPa3(InIr2)2
_symmetry_space_group_name_H-M   'P 1'
_cell_length_a   7.72520935
_cell_length_b   7.72283281
_cell_length_c   3.59659000
_cell_angle_alpha   90.00000000
_cell_angle_beta   90.00000000
_cell_angle_gamma   91.42856837
_symmetry_Int_Tables_number   1
_chemical_formula_structural   LuPa3(InIr2)2
_chemical_formula_sum   'Lu1 Pa3 In2 Ir4'
_cell_volume   214.50766517
_cell_formula_units_Z   1
loop_
 _symmetry_equiv_pos_site_id
 _symmetry_equiv_pos_as_xyz
  1  'x, y, z'
loop_
 _atom_site_type_symbol
 _atom_site_label
 _atom_site_symmetry_multiplicity
 _atom_site_fract_x
 _atom_site_fract_y
 _atom_site_fract_z
 _atom_site_occupancy
  Lu  Lu0  1  0.831061  0.668937  0.500000  1
  Pa  Pa1  1  0.670038  0.166364  0.500000  1
  Pa  Pa2  1  0.333664  0.829978  0.500000  1
  Pa  Pa3  1  0.165031  0.334961  0.500000  1
  In  In4  1  0.508102  0.501488  0.000000  1
  In  In5  1  0.998550  0.991849  0.000000  1
  Ir  Ir6  1  0.144592  0.629946  0.000000  1
  Ir  Ir7  1  0.870114  0.355468  0.000000  1
  Ir  Ir8  1  0.620501  0.879408  0.000000  1
  Ir  Ir9  1  0.358347  0.141599  0.000000  1
