# generated using pymatgen
data_Y2CoOs3
_symmetry_space_group_name_H-M   'P 1'
_cell_length_a   5.32676527
_cell_length_b   5.32676492
_cell_length_c   5.32676533
_cell_angle_alpha   59.17964790
_cell_angle_beta   59.17965482
_cell_angle_gamma   59.17965567
_symmetry_Int_Tables_number   1
_chemical_formula_structural   Y2CoOs3
_chemical_formula_sum   'Y2 Co1 Os3'
_cell_volume   104.87709853
_cell_formula_units_Z   1
loop_
 _symmetry_equiv_pos_site_id
 _symmetry_equiv_pos_as_xyz
  1  'x, y, z'
loop_
 _atom_site_type_symbol
 _atom_site_label
 _atom_site_symmetry_multiplicity
 _atom_site_fract_x
 _atom_site_fract_y
 _atom_site_fract_z
 _atom_site_occupancy
  Y  Y0  1  0.249289  0.249289  0.249289  1
  Y  Y1  1  0.000711  0.000711  0.000711  1
  Co  Co2  1  0.625000  0.625000  0.625000  1
  Os  Os3  1  0.625000  0.625000  0.125000  1
  Os  Os4  1  0.625000  0.125000  0.625000  1
  Os  Os5  1  0.125000  0.625000  0.625000  1
