# generated using pymatgen
data_Y2Ta3Si7Pt9
_symmetry_space_group_name_H-M   'P 1'
_cell_length_a   9.89452300
_cell_length_b   9.89452301
_cell_length_c   4.02754500
_cell_angle_alpha   90.00000000
_cell_angle_beta   90.00000000
_cell_angle_gamma   120.00000331
_symmetry_Int_Tables_number   1
_chemical_formula_structural   Y2Ta3Si7Pt9
_chemical_formula_sum   'Y2 Ta3 Si7 Pt9'
_cell_volume   341.47643908
_cell_formula_units_Z   1
loop_
 _symmetry_equiv_pos_site_id
 _symmetry_equiv_pos_as_xyz
  1  'x, y, z'
loop_
 _atom_site_type_symbol
 _atom_site_label
 _atom_site_symmetry_multiplicity
 _atom_site_fract_x
 _atom_site_fract_y
 _atom_site_fract_z
 _atom_site_occupancy
  Y  Y0  1  0.000000  0.000000  0.000000  1
  Y  Y1  1  0.333333  0.666667  0.500000  1
  Ta  Ta2  1  0.881615  0.455024  0.500000  1
  Ta  Ta3  1  0.573408  0.118385  0.500000  1
  Ta  Ta4  1  0.544976  0.426592  0.500000  1
  Si  Si5  1  0.256397  0.212007  0.500000  1
  Si  Si6  1  0.787993  0.044391  0.500000  1
  Si  Si7  1  0.955609  0.743603  0.500000  1
  Si  Si8  1  0.554527  0.637233  0.000000  1
  Si  Si9  1  0.362767  0.917293  0.000000  1
  Si  Si10  1  0.082707  0.445473  0.000000  1
  Si  Si11  1  0.666667  0.333333  0.000000  1
  Pt  Pt12  1  0.225337  0.943326  0.500000  1
  Pt  Pt13  1  0.056674  0.282013  0.500000  1
  Pt  Pt14  1  0.717987  0.774663  0.500000  1
  Pt  Pt15  1  0.307167  0.409178  0.000000  1
  Pt  Pt16  1  0.590822  0.897989  0.000000  1
  Pt  Pt17  1  0.102011  0.692833  0.000000  1
  Pt  Pt18  1  0.388446  0.175191  0.000000  1
  Pt  Pt19  1  0.824809  0.213255  0.000000  1
  Pt  Pt20  1  0.786745  0.611554  0.000000  1
