# generated using pymatgen
data_U3PaSe6
_symmetry_space_group_name_H-M   'P 1'
_cell_length_a   3.97945000
_cell_length_b   11.03936286
_cell_length_c   11.08478587
_cell_angle_alpha   90.04525816
_cell_angle_beta   90.00000000
_cell_angle_gamma   90.00000000
_symmetry_Int_Tables_number   1
_chemical_formula_structural   U3PaSe6
_chemical_formula_sum   'U6 Pa2 Se12'
_cell_volume   486.96105926
_cell_formula_units_Z   2
loop_
 _symmetry_equiv_pos_site_id
 _symmetry_equiv_pos_as_xyz
  1  'x, y, z'
loop_
 _atom_site_type_symbol
 _atom_site_label
 _atom_site_symmetry_multiplicity
 _atom_site_fract_x
 _atom_site_fract_y
 _atom_site_fract_z
 _atom_site_occupancy
  U  U0  1  0.250000  0.990221  0.189984  1
  U  U1  1  0.750000  0.009593  0.809815  1
  U  U2  1  0.250000  0.316653  0.012558  1
  U  U3  1  0.750000  0.683268  0.986665  1
  U  U4  1  0.250000  0.509147  0.690912  1
  U  U5  1  0.250000  0.183310  0.514566  1
  Pa  Pa6  1  0.750000  0.815640  0.485799  1
  Pa  Pa7  1  0.750000  0.491307  0.310412  1
  Se  Se8  1  0.250000  0.555313  0.125811  1
  Se  Se9  1  0.750000  0.371860  0.550778  1
  Se  Se10  1  0.250000  0.629090  0.447849  1
  Se  Se11  1  0.250000  0.295571  0.275284  1
  Se  Se12  1  0.250000  0.205220  0.774140  1
  Se  Se13  1  0.750000  0.129221  0.051747  1
  Se  Se14  1  0.750000  0.705402  0.724133  1
  Se  Se15  1  0.250000  0.870834  0.948426  1
  Se  Se16  1  0.750000  0.793982  0.226024  1
  Se  Se17  1  0.750000  0.055171  0.375309  1
  Se  Se18  1  0.750000  0.445029  0.874857  1
  Se  Se19  1  0.250000  0.944167  0.624930  1
