# generated using pymatgen
data_CeNd3CdOs
_symmetry_space_group_name_H-M   'P 1'
_cell_length_a   9.87647677
_cell_length_b   9.87647608
_cell_length_c   9.87647700
_cell_angle_alpha   60.00000028
_cell_angle_beta   60.00000256
_cell_angle_gamma   60.00000135
_symmetry_Int_Tables_number   1
_chemical_formula_structural   CeNd3CdOs
_chemical_formula_sum   'Ce4 Nd12 Cd4 Os4'
_cell_volume   681.22587495
_cell_formula_units_Z   4
loop_
 _symmetry_equiv_pos_site_id
 _symmetry_equiv_pos_as_xyz
  1  'x, y, z'
loop_
 _atom_site_type_symbol
 _atom_site_label
 _atom_site_symmetry_multiplicity
 _atom_site_fract_x
 _atom_site_fract_y
 _atom_site_fract_z
 _atom_site_occupancy
  Ce  Ce0  1  0.343768  0.343768  0.968698  1
  Ce  Ce1  1  0.343768  0.968698  0.343768  1
  Ce  Ce2  1  0.968698  0.343768  0.343768  1
  Ce  Ce3  1  0.343768  0.343768  0.343768  1
  Nd  Nd4  1  0.558011  0.558011  0.941989  1
  Nd  Nd5  1  0.941989  0.558011  0.941989  1
  Nd  Nd6  1  0.558011  0.941989  0.941989  1
  Nd  Nd7  1  0.941989  0.941989  0.558011  1
  Nd  Nd8  1  0.558011  0.941989  0.558011  1
  Nd  Nd9  1  0.941989  0.558011  0.558011  1
  Nd  Nd10  1  0.191871  0.191871  0.808129  1
  Nd  Nd11  1  0.808129  0.191871  0.808129  1
  Nd  Nd12  1  0.191870  0.808130  0.808129  1
  Nd  Nd13  1  0.808129  0.808130  0.191871  1
  Nd  Nd14  1  0.191870  0.808129  0.191870  1
  Nd  Nd15  1  0.808129  0.191871  0.191871  1
  Cd  Cd16  1  0.579461  0.579461  0.261618  1
  Cd  Cd17  1  0.579461  0.261618  0.579461  1
  Cd  Cd18  1  0.261618  0.579461  0.579461  1
  Cd  Cd19  1  0.579461  0.579461  0.579461  1
  Os  Os20  1  0.144666  0.144666  0.566002  1
  Os  Os21  1  0.144666  0.566002  0.144666  1
  Os  Os22  1  0.566002  0.144666  0.144666  1
  Os  Os23  1  0.144666  0.144666  0.144666  1
