# generated using pymatgen
data_HfZr4Nb5(ZnSn3)2
_symmetry_space_group_name_H-M   'P 1'
_cell_length_a   8.51382242
_cell_length_b   8.51419750
_cell_length_c   5.75081500
_cell_angle_alpha   90.00000000
_cell_angle_beta   90.00000000
_cell_angle_gamma   120.20942976
_symmetry_Int_Tables_number   1
_chemical_formula_structural   HfZr4Nb5(ZnSn3)2
_chemical_formula_sum   'Hf1 Zr4 Nb5 Zn2 Sn6'
_cell_volume   360.25328309
_cell_formula_units_Z   1
loop_
 _symmetry_equiv_pos_site_id
 _symmetry_equiv_pos_as_xyz
  1  'x, y, z'
loop_
 _atom_site_type_symbol
 _atom_site_label
 _atom_site_symmetry_multiplicity
 _atom_site_fract_x
 _atom_site_fract_y
 _atom_site_fract_z
 _atom_site_occupancy
  Hf  Hf0  1  0.275643  0.003992  0.750000  1
  Zr  Zr1  1  0.003145  0.274728  0.750000  1
  Zr  Zr2  1  0.265040  0.264505  0.250000  1
  Zr  Zr3  1  0.730780  0.000048  0.250000  1
  Zr  Zr4  1  0.000616  0.730863  0.250000  1
  Nb  Nb5  1  0.666015  0.333417  0.999401  1
  Nb  Nb6  1  0.333604  0.667015  0.999483  1
  Nb  Nb7  1  0.333604  0.667015  0.500517  1
  Nb  Nb8  1  0.666015  0.333417  0.500599  1
  Nb  Nb9  1  0.728544  0.729185  0.750000  1
  Zn  Zn10  1  0.995804  0.994751  0.992369  1
  Zn  Zn11  1  0.995804  0.994751  0.507631  1
  Sn  Sn12  1  0.391973  0.391805  0.750000  1
  Sn  Sn13  1  0.615537  0.998011  0.750000  1
  Sn  Sn14  1  0.998283  0.617130  0.750000  1
  Sn  Sn15  1  0.612118  0.612133  0.250000  1
  Sn  Sn16  1  0.387777  0.999775  0.250000  1
  Sn  Sn17  1  0.999699  0.387458  0.250000  1
