# generated using pymatgen
data_Li2Eu(AgSb)2
_symmetry_space_group_name_H-M   'P 1'
_cell_length_a   8.70556245
_cell_length_b   8.70556271
_cell_length_c   8.70556278
_cell_angle_alpha   31.12478815
_cell_angle_beta   31.12478269
_cell_angle_gamma   31.12479118
_symmetry_Int_Tables_number   1
_chemical_formula_structural   Li2Eu(AgSb)2
_chemical_formula_sum   'Li2 Eu1 Ag2 Sb2'
_cell_volume   156.41323723
_cell_formula_units_Z   1
loop_
 _symmetry_equiv_pos_site_id
 _symmetry_equiv_pos_as_xyz
  1  'x, y, z'
loop_
 _atom_site_type_symbol
 _atom_site_label
 _atom_site_symmetry_multiplicity
 _atom_site_fract_x
 _atom_site_fract_y
 _atom_site_fract_z
 _atom_site_occupancy
  Li  Li0  1  0.859399  0.859399  0.859399  1
  Li  Li1  1  0.140601  0.140601  0.140601  1
  Eu  Eu2  1  0.000000  0.000000  0.000000  1
  Ag  Ag3  1  0.560748  0.560748  0.560748  1
  Ag  Ag4  1  0.439252  0.439252  0.439252  1
  Sb  Sb5  1  0.744909  0.744909  0.744909  1
  Sb  Sb6  1  0.255091  0.255091  0.255091  1
