# generated using pymatgen
data_La2Nd2TmRu2
_symmetry_space_group_name_H-M   'P 1'
_cell_length_a   6.60767146
_cell_length_b   7.22040865
_cell_length_c   8.99396093
_cell_angle_alpha   95.58382493
_cell_angle_beta   111.55162518
_cell_angle_gamma   90.00000028
_symmetry_Int_Tables_number   1
_chemical_formula_structural   La2Nd2TmRu2
_chemical_formula_sum   'La4 Nd4 Tm2 Ru4'
_cell_volume   396.91279891
_cell_formula_units_Z   2
loop_
 _symmetry_equiv_pos_site_id
 _symmetry_equiv_pos_as_xyz
  1  'x, y, z'
loop_
 _atom_site_type_symbol
 _atom_site_label
 _atom_site_symmetry_multiplicity
 _atom_site_fract_x
 _atom_site_fract_y
 _atom_site_fract_z
 _atom_site_occupancy
  La  La0  1  0.792239  0.091376  0.813212  1
  La  La1  1  0.979027  0.408624  0.186788  1
  La  La2  1  0.207761  0.908624  0.186788  1
  La  La3  1  0.020973  0.591376  0.813212  1
  Nd  Nd4  1  0.208650  0.184802  0.571366  1
  Nd  Nd5  1  0.637283  0.315198  0.428634  1
  Nd  Nd6  1  0.791350  0.815198  0.428634  1
  Nd  Nd7  1  0.362717  0.684802  0.571366  1
  Tm  Tm8  1  0.432749  0.250000  0.000000  1
  Tm  Tm9  1  0.567251  0.750000  0.000000  1
  Ru  Ru10  1  0.608806  0.419755  0.787841  1
  Ru  Ru11  1  0.820962  0.080245  0.212159  1
  Ru  Ru12  1  0.391194  0.580245  0.212159  1
  Ru  Ru13  1  0.179038  0.919755  0.787841  1
