# generated using pymatgen
data_Y8Er12GaBi11
_symmetry_space_group_name_H-M   'P 1'
_cell_length_a   8.20044372
_cell_length_b   9.43815600
_cell_length_c   12.05200007
_cell_angle_alpha   90.00000000
_cell_angle_beta   90.28873912
_cell_angle_gamma   90.00000000
_symmetry_Int_Tables_number   1
_chemical_formula_structural   Y8Er12GaBi11
_chemical_formula_sum   'Y8 Er12 Ga1 Bi11'
_cell_volume   932.77761346
_cell_formula_units_Z   1
loop_
 _symmetry_equiv_pos_site_id
 _symmetry_equiv_pos_as_xyz
  1  'x, y, z'
loop_
 _atom_site_type_symbol
 _atom_site_label
 _atom_site_symmetry_multiplicity
 _atom_site_fract_x
 _atom_site_fract_y
 _atom_site_fract_z
 _atom_site_occupancy
  Y  Y0  1  0.191003  0.750000  0.722479  1
  Y  Y1  1  0.673179  0.750000  0.788218  1
  Y  Y2  1  0.811533  0.250000  0.280649  1
  Y  Y3  1  0.313993  0.250000  0.220096  1
  Y  Y4  1  0.354669  0.750000  0.206126  1
  Y  Y5  1  0.851710  0.750000  0.285399  1
  Y  Y6  1  0.649605  0.250000  0.785274  1
  Y  Y7  1  0.149097  0.250000  0.716109  1
  Er  Er8  1  0.036073  0.750000  0.990469  1
  Er  Er9  1  0.526183  0.750000  0.511294  1
  Er  Er10  1  0.978831  0.250000  0.009327  1
  Er  Er11  1  0.474720  0.250000  0.489119  1
  Er  Er12  1  0.309192  0.451032  0.940845  1
  Er  Er13  1  0.806089  0.063996  0.559319  1
  Er  Er14  1  0.684903  0.929441  0.054872  1
  Er  Er15  1  0.194128  0.564601  0.439129  1
  Er  Er16  1  0.684903  0.570559  0.054872  1
  Er  Er17  1  0.194128  0.935399  0.439129  1
  Er  Er18  1  0.309192  0.048968  0.940845  1
  Er  Er19  1  0.806089  0.436004  0.559319  1
  Ga  Ga20  1  0.409204  0.750000  0.961461  1
  Bi  Bi21  1  0.435644  0.004206  0.673546  1
  Bi  Bi22  1  0.935545  0.497986  0.826330  1
  Bi  Bi23  1  0.564642  0.504565  0.326871  1
  Bi  Bi24  1  0.063218  0.996969  0.173886  1
  Bi  Bi25  1  0.564642  0.995435  0.326871  1
  Bi  Bi26  1  0.063218  0.503031  0.173886  1
  Bi  Bi27  1  0.435644  0.495794  0.673546  1
  Bi  Bi28  1  0.935545  0.002014  0.826330  1
  Bi  Bi29  1  0.909803  0.750000  0.544165  1
  Bi  Bi30  1  0.591993  0.250000  0.042165  1
  Bi  Bi31  1  0.091683  0.250000  0.458057  1
