# generated using pymatgen
data_Ta5NbAl4(NiC)2
_symmetry_space_group_name_H-M   'P 1'
_cell_length_a   8.24662723
_cell_length_b   8.24662737
_cell_length_c   8.24543125
_cell_angle_alpha   59.93553748
_cell_angle_beta   59.93554588
_cell_angle_gamma   59.98778380
_symmetry_Int_Tables_number   1
_chemical_formula_structural   Ta5NbAl4(NiC)2
_chemical_formula_sum   'Ta10 Nb2 Al8 Ni4 C4'
_cell_volume   396.08396735
_cell_formula_units_Z   2
loop_
 _symmetry_equiv_pos_site_id
 _symmetry_equiv_pos_as_xyz
  1  'x, y, z'
loop_
 _atom_site_type_symbol
 _atom_site_label
 _atom_site_symmetry_multiplicity
 _atom_site_fract_x
 _atom_site_fract_y
 _atom_site_fract_z
 _atom_site_occupancy
  Ta  Ta0  1  0.685514  0.314426  0.314756  1
  Ta  Ta1  1  0.314396  0.685419  0.314200  1
  Ta  Ta2  1  0.685719  0.684962  0.314726  1
  Ta  Ta3  1  0.314902  0.314397  0.685189  1
  Ta  Ta4  1  0.565038  0.564281  0.935274  1
  Ta  Ta5  1  0.936570  0.563261  0.563764  1
  Ta  Ta6  1  0.564581  0.935604  0.935800  1
  Ta  Ta7  1  0.935603  0.935098  0.564811  1
  Ta  Ta8  1  0.686739  0.313430  0.686236  1
  Ta  Ta9  1  0.935574  0.564486  0.935244  1
  Nb  Nb10  1  0.563613  0.936326  0.563452  1
  Nb  Nb11  1  0.313674  0.686387  0.686548  1
  Al  Al12  1  0.918338  0.916928  0.917833  1
  Al  Al13  1  0.002883  0.332320  0.331585  1
  Al  Al14  1  0.332382  0.002492  0.333194  1
  Al  Al15  1  0.331813  0.333425  0.002273  1
  Al  Al16  1  0.917680  0.247117  0.918415  1
  Al  Al17  1  0.916575  0.918187  0.247727  1
  Al  Al18  1  0.247508  0.917618  0.916806  1
  Al  Al19  1  0.333072  0.331662  0.332167  1
  Ni  Ni20  1  0.125281  0.124719  0.125000  1
  Ni  Ni21  1  0.625303  0.126246  0.121909  1
  Ni  Ni22  1  0.123754  0.624697  0.128091  1
  Ni  Ni23  1  0.120711  0.129289  0.625000  1
  C  C24  1  0.627118  0.622882  0.625000  1
  C  C25  1  0.124632  0.624277  0.624617  1
  C  C26  1  0.625723  0.125368  0.625383  1
  C  C27  1  0.625305  0.624695  0.125000  1
