# generated using pymatgen
data_Er4UAlRu4
_symmetry_space_group_name_H-M   'P 1'
_cell_length_a   5.78097062
_cell_length_b   5.78097099
_cell_length_c   7.06071800
_cell_angle_alpha   86.16709647
_cell_angle_beta   93.83290377
_cell_angle_gamma   121.00373069
_symmetry_Int_Tables_number   1
_chemical_formula_structural   Er4UAlRu4
_chemical_formula_sum   'Er4 U1 Al1 Ru4'
_cell_volume   201.65748746
_cell_formula_units_Z   1
loop_
 _symmetry_equiv_pos_site_id
 _symmetry_equiv_pos_as_xyz
  1  'x, y, z'
loop_
 _atom_site_type_symbol
 _atom_site_label
 _atom_site_symmetry_multiplicity
 _atom_site_fract_x
 _atom_site_fract_y
 _atom_site_fract_z
 _atom_site_occupancy
  Er  Er0  1  0.337285  0.662715  0.101397  1
  Er  Er1  1  0.662715  0.337285  0.898603  1
  Er  Er2  1  0.165194  0.834806  0.587847  1
  Er  Er3  1  0.834806  0.165194  0.412153  1
  U  U4  1  0.000000  0.000000  0.000000  1
  Al  Al5  1  0.500000  0.500000  0.500000  1
  Ru  Ru6  1  0.845204  0.652023  0.245404  1
  Ru  Ru7  1  0.652023  0.845204  0.754596  1
  Ru  Ru8  1  0.154796  0.347977  0.754596  1
  Ru  Ru9  1  0.347977  0.154796  0.245404  1
