# generated using pymatgen
data_Dy3Mn2Sb3O14
_symmetry_space_group_name_H-M   'P 1'
_cell_length_a   7.24689723
_cell_length_b   7.24689398
_cell_length_c   7.24689300
_cell_angle_alpha   117.98973974
_cell_angle_beta   62.01020548
_cell_angle_gamma   117.98971805
_symmetry_Int_Tables_number   1
_chemical_formula_structural   Dy3Mn2Sb3O14
_chemical_formula_sum   'Dy3 Mn2 Sb3 O14'
_cell_volume   281.21660527
_cell_formula_units_Z   1
loop_
 _symmetry_equiv_pos_site_id
 _symmetry_equiv_pos_as_xyz
  1  'x, y, z'
loop_
 _atom_site_type_symbol
 _atom_site_label
 _atom_site_symmetry_multiplicity
 _atom_site_fract_x
 _atom_site_fract_y
 _atom_site_fract_z
 _atom_site_occupancy
  Dy  Dy0  1  0.999998  0.500004  0.000005  1
  Dy  Dy1  1  0.500024  0.000041  0.999997  1
  Dy  Dy2  1  0.500021  0.500008  0.499995  1
  Mn  Mn3  1  0.499655  0.499748  0.999866  1
  Mn  Mn4  1  0.999993  0.000039  0.500057  1
  Sb  Sb5  1  0.500027  0.000011  0.500005  1
  Sb  Sb6  1  0.000015  0.500008  0.500015  1
  Sb  Sb7  1  0.000014  0.000003  0.000009  1
  O  O8  1  0.619514  0.380518  0.119508  1
  O  O9  1  0.380496  0.619534  0.880488  1
  O  O10  1  0.083277  0.322610  0.177404  1
  O  O11  1  0.677413  0.916746  0.177403  1
  O  O12  1  0.677416  0.322609  0.583258  1
  O  O13  1  0.916762  0.677410  0.822606  1
  O  O14  1  0.322617  0.083256  0.822603  1
  O  O15  1  0.322620  0.677408  0.416744  1
  O  O16  1  0.641224  0.902719  0.597294  1
  O  O17  1  0.097311  0.358813  0.597299  1
  O  O18  1  0.097309  0.902716  0.141196  1
  O  O19  1  0.358836  0.097301  0.402716  1
  O  O20  1  0.902729  0.641195  0.402714  1
  O  O21  1  0.902730  0.097304  0.858818  1
