# generated using pymatgen
data_TbTh(HgRh)2
_symmetry_space_group_name_H-M   'P 1'
_cell_length_a   3.91878000
_cell_length_b   7.44353860
_cell_length_c   9.14484306
_cell_angle_alpha   92.80219240
_cell_angle_beta   90.00000000
_cell_angle_gamma   90.00000000
_symmetry_Int_Tables_number   1
_chemical_formula_structural   TbTh(HgRh)2
_chemical_formula_sum   'Tb2 Th2 Hg4 Rh4'
_cell_volume   266.43236101
_cell_formula_units_Z   2
loop_
 _symmetry_equiv_pos_site_id
 _symmetry_equiv_pos_as_xyz
  1  'x, y, z'
loop_
 _atom_site_type_symbol
 _atom_site_label
 _atom_site_symmetry_multiplicity
 _atom_site_fract_x
 _atom_site_fract_y
 _atom_site_fract_z
 _atom_site_occupancy
  Tb  Tb0  1  0.250000  0.050675  0.312863  1
  Tb  Tb1  1  0.750000  0.949325  0.687137  1
  Th  Th2  1  0.250000  0.546387  0.193841  1
  Th  Th3  1  0.750000  0.453613  0.806159  1
  Hg  Hg4  1  0.250000  0.130996  0.938629  1
  Hg  Hg5  1  0.750000  0.869004  0.061371  1
  Hg  Hg6  1  0.250000  0.650746  0.556449  1
  Hg  Hg7  1  0.750000  0.349254  0.443551  1
  Rh  Rh8  1  0.750000  0.762952  0.350746  1
  Rh  Rh9  1  0.250000  0.237048  0.649254  1
  Rh  Rh10  1  0.750000  0.285317  0.137571  1
  Rh  Rh11  1  0.250000  0.714683  0.862429  1
