# generated using pymatgen
data_Tm8Ta7Nb2Si16W3
_symmetry_space_group_name_H-M   'P 1'
_cell_length_a   6.74951629
_cell_length_b   6.98729183
_cell_length_c   13.24684511
_cell_angle_alpha   89.97955344
_cell_angle_beta   90.01226338
_cell_angle_gamma   90.02833082
_symmetry_Int_Tables_number   1
_chemical_formula_structural   Tm8Ta7Nb2Si16W3
_chemical_formula_sum   'Tm8 Ta7 Nb2 Si16 W3'
_cell_volume   624.73221174
_cell_formula_units_Z   1
loop_
 _symmetry_equiv_pos_site_id
 _symmetry_equiv_pos_as_xyz
  1  'x, y, z'
loop_
 _atom_site_type_symbol
 _atom_site_label
 _atom_site_symmetry_multiplicity
 _atom_site_fract_x
 _atom_site_fract_y
 _atom_site_fract_z
 _atom_site_occupancy
  Tm  Tm0  1  0.501824  0.672697  0.594163  1
  Tm  Tm1  1  0.001178  0.827638  0.905519  1
  Tm  Tm2  1  0.498904  0.327597  0.094625  1
  Tm  Tm3  1  0.999547  0.172072  0.405413  1
  Tm  Tm4  1  0.498745  0.327359  0.405350  1
  Tm  Tm5  1  0.999148  0.172305  0.094581  1
  Tm  Tm6  1  0.501769  0.672349  0.905672  1
  Tm  Tm7  1  0.001114  0.827975  0.594597  1
  Ta  Ta8  1  0.335989  0.830460  0.126428  1
  Ta  Ta9  1  0.835078  0.670095  0.373318  1
  Ta  Ta10  1  0.335442  0.830271  0.373586  1
  Ta  Ta11  1  0.834566  0.670116  0.126697  1
  Ta  Ta12  1  0.663480  0.169828  0.874325  1
  Ta  Ta13  1  0.164818  0.328709  0.625205  1
  Ta  Ta14  1  0.838345  0.492162  0.750013  1
  Nb  Nb15  1  0.663901  0.169570  0.625168  1
  Nb  Nb16  1  0.164813  0.329255  0.875251  1
  Si  Si17  1  0.666253  0.962147  0.457002  1
  Si  Si18  1  0.165660  0.538033  0.043054  1
  Si  Si19  1  0.334375  0.037402  0.957809  1
  Si  Si20  1  0.834591  0.463135  0.541073  1
  Si  Si21  1  0.333365  0.037572  0.541945  1
  Si  Si22  1  0.833395  0.462695  0.959163  1
  Si  Si23  1  0.666295  0.962206  0.042175  1
  Si  Si24  1  0.165888  0.537801  0.457743  1
  Si  Si25  1  0.461308  0.380897  0.749683  1
  Si  Si26  1  0.964918  0.118222  0.750344  1
  Si  Si27  1  0.535094  0.616680  0.250005  1
  Si  Si28  1  0.036005  0.882007  0.249940  1
  Si  Si29  1  0.702141  0.867573  0.750148  1
  Si  Si30  1  0.205933  0.636092  0.749835  1
  Si  Si31  1  0.297843  0.135280  0.249905  1
  Si  Si32  1  0.797697  0.364335  0.250127  1
  W  W33  1  0.339038  0.008190  0.750025  1
  W  W34  1  0.160888  0.508642  0.250214  1
  W  W35  1  0.660649  0.990631  0.249901  1
