# generated using pymatgen
data_NdHo3(Al8Pd3)3
_symmetry_space_group_name_H-M   'P 1'
_cell_length_a   7.55131065
_cell_length_b   7.58121799
_cell_length_c   13.21005215
_cell_angle_alpha   84.58335246
_cell_angle_beta   79.11855220
_cell_angle_gamma   60.02697602
_symmetry_Int_Tables_number   1
_chemical_formula_structural   NdHo3(Al8Pd3)3
_chemical_formula_sum   'Nd1 Ho3 Al24 Pd9'
_cell_volume   643.33141043
_cell_formula_units_Z   1
loop_
 _symmetry_equiv_pos_site_id
 _symmetry_equiv_pos_as_xyz
  1  'x, y, z'
loop_
 _atom_site_type_symbol
 _atom_site_label
 _atom_site_symmetry_multiplicity
 _atom_site_fract_x
 _atom_site_fract_y
 _atom_site_fract_z
 _atom_site_occupancy
  Nd  Nd0  1  0.392965  0.168455  0.809478  1
  Ho  Ho1  1  0.606721  0.830940  0.191858  1
  Ho  Ho2  1  0.733379  0.498350  0.808358  1
  Ho  Ho3  1  0.266188  0.502121  0.191873  1
  Al  Al4  1  0.685965  0.831826  0.946497  1
  Al  Al5  1  0.315194  0.166247  0.057205  1
  Al  Al6  1  0.146274  0.833150  0.560699  1
  Al  Al7  1  0.854325  0.166887  0.438073  1
  Al  Al8  1  0.479223  0.166737  0.558177  1
  Al  Al9  1  0.521157  0.833012  0.440385  1
  Al  Al10  1  0.217129  0.165255  0.329634  1
  Al  Al11  1  0.784755  0.833704  0.668218  1
  Al  Al12  1  0.437354  0.507811  0.668410  1
  Al  Al13  1  0.563315  0.493263  0.329489  1
  Al  Al14  1  0.108560  0.159518  0.667249  1
  Al  Al15  1  0.890936  0.840470  0.330561  1
  Al  Al16  1  0.351976  0.501516  0.946566  1
  Al  Al17  1  0.646930  0.500689  0.055617  1
  Al  Al18  1  0.013086  0.167451  0.956527  1
  Al  Al19  1  0.984331  0.832454  0.046618  1
  Al  Al20  1  0.187131  0.499462  0.440381  1
  Al  Al21  1  0.813052  0.500657  0.558731  1
  Al  Al22  1  0.733464  0.164151  0.183896  1
  Al  Al23  1  0.266946  0.832644  0.816190  1
  Al  Al24  1  0.058540  0.633199  0.815092  1
  Al  Al25  1  0.938086  0.369508  0.185116  1
  Al  Al26  1  0.857974  0.042195  0.816178  1
  Al  Al27  1  0.144508  0.958071  0.184166  1
  Pd  Pd28  1  0.118731  0.493587  0.637537  1
  Pd  Pd29  1  0.880840  0.507698  0.361224  1
  Pd  Pd30  1  0.656851  0.171411  0.000686  1
  Pd  Pd31  1  0.342786  0.828491  0.000870  1
  Pd  Pd32  1  0.538186  0.166820  0.361197  1
  Pd  Pd33  1  0.461914  0.832227  0.637536  1
  Pd  Pd34  1  0.778838  0.174860  0.637050  1
  Pd  Pd35  1  0.222511  0.824873  0.361767  1
  Pd  Pd36  1  0.999880  0.500292  0.000892  1
