# generated using pymatgen
data_AcMg2GaGe
_symmetry_space_group_name_H-M   'P 1'
_cell_length_a   6.75619937
_cell_length_b   6.75619976
_cell_length_c   6.75619900
_cell_angle_alpha   141.11304508
_cell_angle_beta   141.11304916
_cell_angle_gamma   56.16713932
_symmetry_Int_Tables_number   1
_chemical_formula_structural   AcMg2GaGe
_chemical_formula_sum   'Ac1 Mg2 Ga1 Ge1'
_cell_volume   120.59570455
_cell_formula_units_Z   1
loop_
 _symmetry_equiv_pos_site_id
 _symmetry_equiv_pos_as_xyz
  1  'x, y, z'
loop_
 _atom_site_type_symbol
 _atom_site_label
 _atom_site_symmetry_multiplicity
 _atom_site_fract_x
 _atom_site_fract_y
 _atom_site_fract_z
 _atom_site_occupancy
  Ac  Ac0  1  0.002668  0.002668  0.000000  1
  Mg  Mg1  1  0.750228  0.250228  0.500001  1
  Mg  Mg2  1  0.250228  0.750228  0.500001  1
  Ga  Ga3  1  0.389573  0.389573  0.000000  1
  Ge  Ge4  1  0.607304  0.607304  0.000000  1
