# generated using pymatgen
data_Tb4HgPbAu4
_symmetry_space_group_name_H-M   'P 1'
_cell_length_a   8.14727000
_cell_length_b   8.14727000
_cell_length_c   3.67476100
_cell_angle_alpha   90.00000000
_cell_angle_beta   90.00000000
_cell_angle_gamma   90.00000000
_symmetry_Int_Tables_number   1
_chemical_formula_structural   Tb4HgPbAu4
_chemical_formula_sum   'Tb4 Hg1 Pb1 Au4'
_cell_volume   243.92331672
_cell_formula_units_Z   1
loop_
 _symmetry_equiv_pos_site_id
 _symmetry_equiv_pos_as_xyz
  1  'x, y, z'
loop_
 _atom_site_type_symbol
 _atom_site_label
 _atom_site_symmetry_multiplicity
 _atom_site_fract_x
 _atom_site_fract_y
 _atom_site_fract_z
 _atom_site_occupancy
  Tb  Tb0  1  0.679360  0.160950  0.500000  1
  Tb  Tb1  1  0.320640  0.839050  0.500000  1
  Tb  Tb2  1  0.160950  0.320640  0.500000  1
  Tb  Tb3  1  0.839050  0.679360  0.500000  1
  Hg  Hg4  1  0.000000  0.000000  0.000000  1
  Pb  Pb5  1  0.500000  0.500000  0.000000  1
  Au  Au6  1  0.126918  0.626877  0.000000  1
  Au  Au7  1  0.873082  0.373123  0.000000  1
  Au  Au8  1  0.626877  0.873082  0.000000  1
  Au  Au9  1  0.373123  0.126918  0.000000  1
