# generated using pymatgen
data_Sc13Al9Ni8
_symmetry_space_group_name_H-M   'P 1'
_cell_length_a   8.95373454
_cell_length_b   8.95373521
_cell_length_c   8.95373579
_cell_angle_alpha   60.05246958
_cell_angle_beta   60.05247665
_cell_angle_gamma   60.05247997
_symmetry_Int_Tables_number   1
_chemical_formula_structural   Sc13Al9Ni8
_chemical_formula_sum   'Sc13 Al9 Ni8'
_cell_volume   508.17577823
_cell_formula_units_Z   1
loop_
 _symmetry_equiv_pos_site_id
 _symmetry_equiv_pos_as_xyz
  1  'x, y, z'
loop_
 _atom_site_type_symbol
 _atom_site_label
 _atom_site_symmetry_multiplicity
 _atom_site_fract_x
 _atom_site_fract_y
 _atom_site_fract_z
 _atom_site_occupancy
  Sc  Sc0  1  0.209759  0.209759  0.791085  1
  Sc  Sc1  1  0.791085  0.209759  0.209759  1
  Sc  Sc2  1  0.209759  0.791085  0.209759  1
  Sc  Sc3  1  0.805285  0.805285  0.171488  1
  Sc  Sc4  1  0.171488  0.805285  0.805285  1
  Sc  Sc5  1  0.805285  0.171488  0.805285  1
  Sc  Sc6  1  0.380911  0.380911  0.380911  1
  Sc  Sc7  1  0.383803  0.858977  0.383803  1
  Sc  Sc8  1  0.858977  0.383803  0.383803  1
  Sc  Sc9  1  0.383803  0.383803  0.858977  1
  Sc  Sc10  1  0.838160  0.477660  0.838160  1
  Sc  Sc11  1  0.477660  0.838160  0.838160  1
  Sc  Sc12  1  0.838160  0.838160  0.477660  1
  Al  Al13  1  0.161787  0.161787  0.161787  1
  Al  Al14  1  0.164945  0.510283  0.164945  1
  Al  Al15  1  0.510283  0.164945  0.164945  1
  Al  Al16  1  0.164945  0.164945  0.510283  1
  Al  Al17  1  0.616703  0.616703  0.616703  1
  Al  Al18  1  0.619107  0.144814  0.619107  1
  Al  Al19  1  0.144814  0.619107  0.619107  1
  Al  Al20  1  0.619107  0.619107  0.144814  1
  Al  Al21  1  0.826434  0.826434  0.826434  1
  Ni  Ni22  1  0.003663  0.003663  0.499761  1
  Ni  Ni23  1  0.499761  0.003663  0.003663  1
  Ni  Ni24  1  0.003663  0.499761  0.003663  1
  Ni  Ni25  1  0.495893  0.495893  0.009568  1
  Ni  Ni26  1  0.009568  0.495893  0.495893  1
  Ni  Ni27  1  0.495893  0.009568  0.495893  1
  Ni  Ni28  1  0.500376  0.500376  0.500376  1
  Ni  Ni29  1  0.008923  0.008923  0.008923  1
