# generated using pymatgen
data_Pr3Nd(B2Rh5)2
_symmetry_space_group_name_H-M   'P 1'
_cell_length_a   5.54602501
_cell_length_b   5.54544143
_cell_length_c   21.22189500
_cell_angle_alpha   89.99954311
_cell_angle_beta   90.00057544
_cell_angle_gamma   119.99202693
_symmetry_Int_Tables_number   1
_chemical_formula_structural   Pr3Nd(B2Rh5)2
_chemical_formula_sum   'Pr6 Nd2 B8 Rh20'
_cell_volume   565.28521409
_cell_formula_units_Z   2
loop_
 _symmetry_equiv_pos_site_id
 _symmetry_equiv_pos_as_xyz
  1  'x, y, z'
loop_
 _atom_site_type_symbol
 _atom_site_label
 _atom_site_symmetry_multiplicity
 _atom_site_fract_x
 _atom_site_fract_y
 _atom_site_fract_z
 _atom_site_occupancy
  Pr  Pr0  1  0.666660  0.333351  0.521644  1
  Pr  Pr1  1  0.333340  0.666649  0.478356  1
  Pr  Pr2  1  0.333346  0.666652  0.021741  1
  Pr  Pr3  1  0.666654  0.333348  0.978259  1
  Pr  Pr4  1  0.666633  0.333361  0.674428  1
  Pr  Pr5  1  0.333367  0.666639  0.325572  1
  Nd  Nd6  1  0.333359  0.666642  0.174248  1
  Nd  Nd7  1  0.666641  0.333358  0.825752  1
  B  B8  1  0.999952  0.000029  0.677492  1
  B  B9  1  0.000048  0.999971  0.322508  1
  B  B10  1  0.000052  0.999973  0.177442  1
  B  B11  1  0.999948  0.000027  0.822558  1
  B  B12  1  0.666670  0.333308  0.325711  1
  B  B13  1  0.333330  0.666692  0.674289  1
  B  B14  1  0.333332  0.666695  0.825764  1
  B  B15  1  0.666668  0.333305  0.174236  1
  Rh  Rh16  1  0.000000  0.000000  0.500000  1
  Rh  Rh17  1  0.000000  0.000000  0.000000  1
  Rh  Rh18  1  0.167403  0.334873  0.750173  1
  Rh  Rh19  1  0.167407  0.832598  0.750175  1
  Rh  Rh20  1  0.665121  0.832590  0.750174  1
  Rh  Rh21  1  0.832597  0.665127  0.249827  1
  Rh  Rh22  1  0.832593  0.167402  0.249825  1
  Rh  Rh23  1  0.334879  0.167410  0.249826  1
  Rh  Rh24  1  0.163205  0.326511  0.609454  1
  Rh  Rh25  1  0.163208  0.836792  0.609454  1
  Rh  Rh26  1  0.673501  0.836792  0.609454  1
  Rh  Rh27  1  0.836795  0.673489  0.390546  1
  Rh  Rh28  1  0.836792  0.163208  0.390546  1
  Rh  Rh29  1  0.326499  0.163208  0.390546  1
  Rh  Rh30  1  0.836808  0.673507  0.109624  1
  Rh  Rh31  1  0.836790  0.163203  0.109626  1
  Rh  Rh32  1  0.326488  0.163195  0.109627  1
  Rh  Rh33  1  0.163192  0.326493  0.890376  1
  Rh  Rh34  1  0.163210  0.836797  0.890374  1
  Rh  Rh35  1  0.673512  0.836805  0.890373  1
