# generated using pymatgen
data_Hf5Zr4NiMo4
_symmetry_space_group_name_H-M   'P 1'
_cell_length_a   8.47030390
_cell_length_b   8.74873029
_cell_length_c   8.75476732
_cell_angle_alpha   120.02332755
_cell_angle_beta   90.00011267
_cell_angle_gamma   90.04559522
_symmetry_Int_Tables_number   1
_chemical_formula_structural   Hf5Zr4NiMo4
_chemical_formula_sum   'Hf10 Zr8 Ni2 Mo8'
_cell_volume   561.71618940
_cell_formula_units_Z   2
loop_
 _symmetry_equiv_pos_site_id
 _symmetry_equiv_pos_as_xyz
  1  'x, y, z'
loop_
 _atom_site_type_symbol
 _atom_site_label
 _atom_site_symmetry_multiplicity
 _atom_site_fract_x
 _atom_site_fract_y
 _atom_site_fract_z
 _atom_site_occupancy
  Hf  Hf0  1  0.558353  0.396797  0.198396  1
  Hf  Hf1  1  0.441712  0.200261  0.398668  1
  Hf  Hf2  1  0.441709  0.200250  0.801609  1
  Hf  Hf3  1  0.441085  0.601177  0.800589  1
  Hf  Hf4  1  0.057980  0.199149  0.398309  1
  Hf  Hf5  1  0.057983  0.199137  0.800858  1
  Hf  Hf6  1  0.058091  0.601577  0.800791  1
  Hf  Hf7  1  0.942522  0.800760  0.601723  1
  Hf  Hf8  1  0.942521  0.800772  0.199021  1
  Hf  Hf9  1  0.941840  0.398221  0.199109  1
  Zr  Zr10  1  0.557022  0.800057  0.601026  1
  Zr  Zr11  1  0.557026  0.800068  0.199013  1
  Zr  Zr12  1  0.751005  0.456832  0.914705  1
  Zr  Zr13  1  0.751005  0.456830  0.542125  1
  Zr  Zr14  1  0.751224  0.085717  0.542857  1
  Zr  Zr15  1  0.249337  0.541735  0.084687  1
  Zr  Zr16  1  0.249337  0.541736  0.457049  1
  Zr  Zr17  1  0.248820  0.916161  0.458083  1
  Ni  Ni18  1  0.752186  0.665295  0.332635  1
  Ni  Ni19  1  0.249911  0.333266  0.666644  1
  Mo  Mo20  1  0.750482  0.112118  0.222613  1
  Mo  Mo21  1  0.750482  0.112115  0.889472  1
  Mo  Mo22  1  0.750358  0.778181  0.889072  1
  Mo  Mo23  1  0.249207  0.889119  0.777946  1
  Mo  Mo24  1  0.249208  0.889121  0.111206  1
  Mo  Mo25  1  0.249782  0.222979  0.111509  1
  Mo  Mo26  1  0.499491  0.000712  0.000355  1
  Mo  Mo27  1  0.000322  0.999857  0.999929  1
