# generated using pymatgen
data_Tb4Y2CrCo17P12
_symmetry_space_group_name_H-M   'P 1'
_cell_length_a   3.70296100
_cell_length_b   10.55338300
_cell_length_c   12.22853100
_cell_angle_alpha   90.00000000
_cell_angle_beta   90.00000000
_cell_angle_gamma   90.00000000
_symmetry_Int_Tables_number   1
_chemical_formula_structural   Tb4Y2CrCo17P12
_chemical_formula_sum   'Tb4 Y2 Cr1 Co17 P12'
_cell_volume   477.87589740
_cell_formula_units_Z   1
loop_
 _symmetry_equiv_pos_site_id
 _symmetry_equiv_pos_as_xyz
  1  'x, y, z'
loop_
 _atom_site_type_symbol
 _atom_site_label
 _atom_site_symmetry_multiplicity
 _atom_site_fract_x
 _atom_site_fract_y
 _atom_site_fract_z
 _atom_site_occupancy
  Tb  Tb0  1  0.000000  0.500000  0.522602  1
  Tb  Tb1  1  0.500000  0.000000  0.478050  1
  Tb  Tb2  1  0.000000  0.682386  0.795532  1
  Tb  Tb3  1  0.000000  0.317614  0.795532  1
  Y  Y4  1  0.500000  0.817439  0.206255  1
  Y  Y5  1  0.500000  0.182561  0.206255  1
  Cr  Cr6  1  0.500000  0.500000  0.155372  1
  Co  Co7  1  0.000000  0.000000  0.840084  1
  Co  Co8  1  0.500000  0.500000  0.703269  1
  Co  Co9  1  0.000000  0.000000  0.296375  1
  Co  Co10  1  0.000000  0.500000  0.988002  1
  Co  Co11  1  0.500000  0.000000  0.014425  1
  Co  Co12  1  0.500000  0.332743  0.993619  1
  Co  Co13  1  0.500000  0.667257  0.993619  1
  Co  Co14  1  0.000000  0.166561  0.005686  1
  Co  Co15  1  0.000000  0.833439  0.005686  1
  Co  Co16  1  0.500000  0.296504  0.430440  1
  Co  Co17  1  0.500000  0.703496  0.430440  1
  Co  Co18  1  0.000000  0.203452  0.569210  1
  Co  Co19  1  0.000000  0.796548  0.569210  1
  Co  Co20  1  0.500000  0.879404  0.709025  1
  Co  Co21  1  0.500000  0.120596  0.709025  1
  Co  Co22  1  0.000000  0.620142  0.290418  1
  Co  Co23  1  0.000000  0.379858  0.290418  1
  P  P24  1  0.500000  0.500000  0.883068  1
  P  P25  1  0.000000  0.000000  0.116978  1
  P  P26  1  0.500000  0.500000  0.345242  1
  P  P27  1  0.000000  0.000000  0.656791  1
  P  P28  1  0.500000  0.310444  0.616051  1
  P  P29  1  0.500000  0.689556  0.616051  1
  P  P30  1  0.000000  0.189245  0.384352  1
  P  P31  1  0.000000  0.810755  0.384352  1
  P  P32  1  0.500000  0.849208  0.892640  1
  P  P33  1  0.500000  0.150792  0.892640  1
  P  P34  1  0.000000  0.653808  0.106644  1
  P  P35  1  0.000000  0.346192  0.106644  1
