# generated using pymatgen
data_Er6Al21Co2(SiRu2)3
_symmetry_space_group_name_H-M   'P 1'
_cell_length_a   8.67948000
_cell_length_b   8.67948158
_cell_length_c   9.51652600
_cell_angle_alpha   90.00000000
_cell_angle_beta   90.00000000
_cell_angle_gamma   119.99999397
_symmetry_Int_Tables_number   1
_chemical_formula_structural   Er6Al21Co2(SiRu2)3
_chemical_formula_sum   'Er6 Al21 Co2 Si3 Ru6'
_cell_volume   620.86415832
_cell_formula_units_Z   1
loop_
 _symmetry_equiv_pos_site_id
 _symmetry_equiv_pos_as_xyz
  1  'x, y, z'
loop_
 _atom_site_type_symbol
 _atom_site_label
 _atom_site_symmetry_multiplicity
 _atom_site_fract_x
 _atom_site_fract_y
 _atom_site_fract_z
 _atom_site_occupancy
  Er  Er0  1  0.196012  0.392025  0.247795  1
  Er  Er1  1  0.803539  0.607078  0.752409  1
  Er  Er2  1  0.607975  0.803988  0.247795  1
  Er  Er3  1  0.392922  0.196461  0.752409  1
  Er  Er4  1  0.196012  0.803988  0.247795  1
  Er  Er5  1  0.803539  0.196461  0.752409  1
  Al  Al6  1  0.333333  0.666667  0.482170  1
  Al  Al7  1  0.159748  0.319494  0.575689  1
  Al  Al8  1  0.839042  0.678085  0.422353  1
  Al  Al9  1  0.680506  0.840252  0.575689  1
  Al  Al10  1  0.838587  0.677176  0.076918  1
  Al  Al11  1  0.321915  0.160958  0.422353  1
  Al  Al12  1  0.161711  0.323421  0.922130  1
  Al  Al13  1  0.159748  0.840252  0.575689  1
  Al  Al14  1  0.322824  0.161413  0.076918  1
  Al  Al15  1  0.839042  0.160958  0.422353  1
  Al  Al16  1  0.676579  0.838289  0.922130  1
  Al  Al17  1  0.838587  0.161413  0.076918  1
  Al  Al18  1  0.161711  0.838289  0.922130  1
  Al  Al19  1  0.562932  0.125866  0.248202  1
  Al  Al20  1  0.437763  0.875526  0.748692  1
  Al  Al21  1  0.874134  0.437068  0.248202  1
  Al  Al22  1  0.124474  0.562237  0.748692  1
  Al  Al23  1  0.562932  0.437068  0.248202  1
  Al  Al24  1  0.437763  0.562237  0.748692  1
  Al  Al25  1  0.000000  0.000000  0.249189  1
  Al  Al26  1  0.000000  0.000000  0.750086  1
  Co  Co27  1  0.000000  0.000000  0.999507  1
  Co  Co28  1  0.000000  0.000000  0.499306  1
  Si  Si29  1  0.333333  0.666667  0.037661  1
  Si  Si30  1  0.666667  0.333333  0.963895  1
  Si  Si31  1  0.666667  0.333333  0.537906  1
  Ru  Ru32  1  0.499760  0.999520  0.998253  1
  Ru  Ru33  1  0.000480  0.500240  0.998253  1
  Ru  Ru34  1  0.504332  0.008664  0.500986  1
  Ru  Ru35  1  0.499760  0.500240  0.998253  1
  Ru  Ru36  1  0.991336  0.495668  0.500986  1
  Ru  Ru37  1  0.504332  0.495668  0.500986  1
