# generated using pymatgen
data_Ho3ErTm4(B6Ru)4
_symmetry_space_group_name_H-M   'P 1'
_cell_length_a   3.62661500
_cell_length_b   9.07816100
_cell_length_c   11.45117000
_cell_angle_alpha   90.00240000
_cell_angle_beta   90.00000000
_cell_angle_gamma   90.00000000
_symmetry_Int_Tables_number   1
_chemical_formula_structural   Ho3ErTm4(B6Ru)4
_chemical_formula_sum   'Ho3 Er1 Tm4 B24 Ru4'
_cell_volume   377.00681083
_cell_formula_units_Z   1
loop_
 _symmetry_equiv_pos_site_id
 _symmetry_equiv_pos_as_xyz
  1  'x, y, z'
loop_
 _atom_site_type_symbol
 _atom_site_label
 _atom_site_symmetry_multiplicity
 _atom_site_fract_x
 _atom_site_fract_y
 _atom_site_fract_z
 _atom_site_occupancy
  Ho  Ho0  1  0.000000  0.321874  0.414144  1
  Ho  Ho1  1  0.000000  0.678131  0.585865  1
  Ho  Ho2  1  0.000000  0.821906  0.085835  1
  Er  Er3  1  0.000000  0.178091  0.914164  1
  Tm  Tm4  1  0.000000  0.943822  0.372483  1
  Tm  Tm5  1  0.000000  0.056217  0.627552  1
  Tm  Tm6  1  0.000000  0.443748  0.127454  1
  Tm  Tm7  1  0.000000  0.556133  0.872498  1
  B  B8  1  0.500000  0.554196  0.433089  1
  B  B9  1  0.500000  0.445797  0.566928  1
  B  B10  1  0.500000  0.054249  0.066764  1
  B  B11  1  0.500000  0.945976  0.933114  1
  B  B12  1  0.500000  0.748870  0.419701  1
  B  B13  1  0.500000  0.251142  0.580331  1
  B  B14  1  0.500000  0.248811  0.080112  1
  B  B15  1  0.500000  0.751181  0.919690  1
  B  B16  1  0.500000  0.791514  0.265922  1
  B  B17  1  0.500000  0.208425  0.734224  1
  B  B18  1  0.500000  0.291502  0.234040  1
  B  B19  1  0.500000  0.708515  0.765938  1
  B  B20  1  0.500000  0.631220  0.184627  1
  B  B21  1  0.500000  0.368627  0.815476  1
  B  B22  1  0.500000  0.131243  0.315352  1
  B  B23  1  0.500000  0.868796  0.684653  1
  B  B24  1  0.500000  0.982956  0.213066  1
  B  B25  1  0.500000  0.017251  0.786996  1
  B  B26  1  0.500000  0.482928  0.286895  1
  B  B27  1  0.500000  0.517033  0.713119  1
  B  B28  1  0.500000  0.606128  0.029214  1
  B  B29  1  0.500000  0.393615  0.970717  1
  B  B30  1  0.500000  0.106117  0.470800  1
  B  B31  1  0.500000  0.893896  0.529213  1
  Ru  Ru32  1  0.000000  0.638116  0.320678  1
  Ru  Ru33  1  0.000000  0.361802  0.679406  1
  Ru  Ru34  1  0.000000  0.138119  0.179191  1
  Ru  Ru35  1  0.000000  0.862052  0.820749  1
