# generated using pymatgen
data_Sr7Eu(HgPb)4
_symmetry_space_group_name_H-M   'P 1'
_cell_length_a   8.05527908
_cell_length_b   5.78708500
_cell_length_c   11.57210300
_cell_angle_alpha   90.00000000
_cell_angle_beta   90.00796636
_cell_angle_gamma   90.00000000
_symmetry_Int_Tables_number   1
_chemical_formula_structural   Sr7Eu(HgPb)4
_chemical_formula_sum   'Sr7 Eu1 Hg4 Pb4'
_cell_volume   539.45191470
_cell_formula_units_Z   1
loop_
 _symmetry_equiv_pos_site_id
 _symmetry_equiv_pos_as_xyz
  1  'x, y, z'
loop_
 _atom_site_type_symbol
 _atom_site_label
 _atom_site_symmetry_multiplicity
 _atom_site_fract_x
 _atom_site_fract_y
 _atom_site_fract_z
 _atom_site_occupancy
  Sr  Sr0  1  0.000439  0.750000  0.125262  1
  Sr  Sr1  1  0.500102  0.250001  0.374589  1
  Sr  Sr2  1  0.000077  0.250001  0.375307  1
  Sr  Sr3  1  0.999529  0.750000  0.625288  1
  Sr  Sr4  1  0.500650  0.750000  0.625272  1
  Sr  Sr5  1  0.000152  0.250001  0.874200  1
  Sr  Sr6  1  0.500099  0.250001  0.874885  1
  Eu  Eu7  1  0.498813  0.750000  0.125310  1
  Hg  Hg8  1  0.750232  0.250001  0.124542  1
  Hg  Hg9  1  0.249772  0.750000  0.376073  1
  Hg  Hg10  1  0.750117  0.250001  0.624649  1
  Hg  Hg11  1  0.249985  0.750000  0.874712  1
  Pb  Pb12  1  0.252469  0.250001  0.124511  1
  Pb  Pb13  1  0.748519  0.750000  0.374757  1
  Pb  Pb14  1  0.250299  0.250001  0.624490  1
  Pb  Pb15  1  0.748649  0.750000  0.876154  1
