# generated using pymatgen
data_Rb3Hf2P5S18
_symmetry_space_group_name_H-M   'P 1'
_cell_length_a   6.91829968
_cell_length_b   6.91829914
_cell_length_c   34.30145500
_cell_angle_alpha   93.14801117
_cell_angle_beta   93.14801093
_cell_angle_gamma   93.19546424
_symmetry_Int_Tables_number   1
_chemical_formula_structural   Rb3Hf2P5S18
_chemical_formula_sum   'Rb6 Hf4 P10 S36'
_cell_volume   1633.96971052
_cell_formula_units_Z   2
loop_
 _symmetry_equiv_pos_site_id
 _symmetry_equiv_pos_as_xyz
  1  'x, y, z'
loop_
 _atom_site_type_symbol
 _atom_site_label
 _atom_site_symmetry_multiplicity
 _atom_site_fract_x
 _atom_site_fract_y
 _atom_site_fract_z
 _atom_site_occupancy
  Rb  Rb0  1  0.277548  0.496655  0.068331  1
  Rb  Rb1  1  0.152945  0.438469  0.254637  1
  Rb  Rb2  1  0.780064  0.975204  0.364126  1
  Rb  Rb3  1  0.496654  0.277547  0.568331  1
  Rb  Rb4  1  0.438469  0.152945  0.754636  1
  Rb  Rb5  1  0.975204  0.780064  0.864126  1
  Hf  Hf6  1  0.845734  0.024547  0.154358  1
  Hf  Hf7  1  0.039721  0.625694  0.463768  1
  Hf  Hf8  1  0.024548  0.845735  0.654358  1
  Hf  Hf9  1  0.625693  0.039720  0.963768  1
  P  P10  1  0.761919  0.059313  0.058691  1
  P  P11  1  0.300358  0.933610  0.173696  1
  P  P12  1  0.656329  0.151478  0.237914  1
  P  P13  1  0.245726  0.693272  0.379977  1
  P  P14  1  0.576111  0.513857  0.444858  1
  P  P15  1  0.059312  0.761918  0.558691  1
  P  P16  1  0.933610  0.300358  0.673696  1
  P  P17  1  0.151478  0.656329  0.737914  1
  P  P18  1  0.693273  0.245726  0.879977  1
  P  P19  1  0.513858  0.576112  0.944858  1
  S  S20  1  0.918987  0.141551  0.012816  1
  S  S21  1  0.490928  0.986933  0.032883  1
  S  S22  1  0.878885  0.836570  0.087716  1
  S  S23  1  0.763931  0.276064  0.102298  1
  S  S24  1  0.517676  0.827406  0.142263  1
  S  S25  1  0.192707  0.185064  0.154847  1
  S  S26  1  0.077893  0.727277  0.169654  1
  S  S27  1  0.672489  0.307717  0.189127  1
  S  S28  1  0.859589  0.954247  0.228230  1
  S  S29  1  0.378956  0.984673  0.234689  1
  S  S30  1  0.661751  0.297034  0.289214  1
  S  S31  1  0.257583  0.807156  0.328404  1
  S  S32  1  0.501467  0.526539  0.383606  1
  S  S33  1  0.016785  0.506318  0.390062  1
  S  S34  1  0.245637  0.882937  0.427862  1
  S  S35  1  0.778960  0.314123  0.449470  1
  S  S36  1  0.708064  0.777048  0.463719  1
  S  S37  1  0.344801  0.428850  0.475967  1
  S  S38  1  0.141551  0.918987  0.512816  1
  S  S39  1  0.986933  0.490928  0.532883  1
  S  S40  1  0.836569  0.878884  0.587716  1
  S  S41  1  0.276064  0.763931  0.602299  1
  S  S42  1  0.827406  0.517676  0.642263  1
  S  S43  1  0.185064  0.192707  0.654847  1
  S  S44  1  0.727277  0.077893  0.669654  1
  S  S45  1  0.307717  0.672489  0.689127  1
  S  S46  1  0.954247  0.859590  0.728231  1
  S  S47  1  0.984672  0.378955  0.734689  1
  S  S48  1  0.297034  0.661752  0.789214  1
  S  S49  1  0.807157  0.257584  0.828404  1
  S  S50  1  0.526539  0.501467  0.883606  1
  S  S51  1  0.506319  0.016785  0.890062  1
  S  S52  1  0.882939  0.245638  0.927862  1
  S  S53  1  0.314123  0.778960  0.949470  1
  S  S54  1  0.777048  0.708064  0.963719  1
  S  S55  1  0.428850  0.344801  0.975967  1
