# generated using pymatgen
data_PrDy2RuO7
_symmetry_space_group_name_H-M   'P 1'
_cell_length_a   6.46684393
_cell_length_b   6.46684329
_cell_length_c   7.52777300
_cell_angle_alpha   90.00000000
_cell_angle_beta   90.00000000
_cell_angle_gamma   110.23953291
_symmetry_Int_Tables_number   1
_chemical_formula_structural   PrDy2RuO7
_chemical_formula_sum   'Pr2 Dy4 Ru2 O14'
_cell_volume   295.37375944
_cell_formula_units_Z   2
loop_
 _symmetry_equiv_pos_site_id
 _symmetry_equiv_pos_as_xyz
  1  'x, y, z'
loop_
 _atom_site_type_symbol
 _atom_site_label
 _atom_site_symmetry_multiplicity
 _atom_site_fract_x
 _atom_site_fract_y
 _atom_site_fract_z
 _atom_site_occupancy
  Pr  Pr0  1  0.000000  0.000000  0.500000  1
  Pr  Pr1  1  0.000000  0.000000  0.000000  1
  Dy  Dy2  1  0.480833  0.928386  0.750000  1
  Dy  Dy3  1  0.519167  0.071614  0.250000  1
  Dy  Dy4  1  0.928386  0.480833  0.750000  1
  Dy  Dy5  1  0.071614  0.519167  0.250000  1
  Ru  Ru6  1  0.500000  0.500000  0.500000  1
  Ru  Ru7  1  0.500000  0.500000  0.000000  1
  O  O8  1  0.589355  0.589355  0.750000  1
  O  O9  1  0.410645  0.410645  0.250000  1
  O  O10  1  0.835948  0.117058  0.750000  1
  O  O11  1  0.164052  0.882942  0.250000  1
  O  O12  1  0.117058  0.835948  0.750000  1
  O  O13  1  0.882942  0.164052  0.250000  1
  O  O14  1  0.441088  0.182525  0.962679  1
  O  O15  1  0.558912  0.817475  0.462679  1
  O  O16  1  0.182525  0.441088  0.962679  1
  O  O17  1  0.817475  0.558912  0.462679  1
  O  O18  1  0.441088  0.182525  0.537321  1
  O  O19  1  0.558912  0.817475  0.037321  1
  O  O20  1  0.817475  0.558912  0.037321  1
  O  O21  1  0.182525  0.441088  0.537321  1
