# generated using pymatgen
data_TaNb11Al8BOs4N3
_symmetry_space_group_name_H-M   'P 1'
_cell_length_a   8.30539808
_cell_length_b   8.30539873
_cell_length_c   8.31126800
_cell_angle_alpha   59.97662837
_cell_angle_beta   59.97662577
_cell_angle_gamma   59.96904477
_symmetry_Int_Tables_number   1
_chemical_formula_structural   TaNb11Al8BOs4N3
_chemical_formula_sum   'Ta1 Nb11 Al8 B1 Os4 N3'
_cell_volume   405.15208480
_cell_formula_units_Z   1
loop_
 _symmetry_equiv_pos_site_id
 _symmetry_equiv_pos_as_xyz
  1  'x, y, z'
loop_
 _atom_site_type_symbol
 _atom_site_label
 _atom_site_symmetry_multiplicity
 _atom_site_fract_x
 _atom_site_fract_y
 _atom_site_fract_z
 _atom_site_occupancy
  Ta  Ta0  1  0.809594  0.799131  0.195638  1
  Nb  Nb1  1  0.191074  0.192454  0.808236  1
  Nb  Nb2  1  0.810395  0.194284  0.801129  1
  Nb  Nb3  1  0.190533  0.808958  0.191663  1
  Nb  Nb4  1  0.190533  0.808958  0.808846  1
  Nb  Nb5  1  0.810395  0.194284  0.194191  1
  Nb  Nb6  1  0.438196  0.449668  0.056068  1
  Nb  Nb7  1  0.059466  0.058040  0.441247  1
  Nb  Nb8  1  0.440302  0.054774  0.449766  1
  Nb  Nb9  1  0.059359  0.440873  0.057674  1
  Nb  Nb10  1  0.059359  0.440873  0.442094  1
  Nb  Nb11  1  0.440302  0.054774  0.055159  1
  Al  Al12  1  0.751200  0.415090  0.416856  1
  Al  Al13  1  0.416190  0.752151  0.415831  1
  Al  Al14  1  0.418012  0.415937  0.751835  1
  Al  Al15  1  0.418012  0.415937  0.414218  1
  Al  Al16  1  0.499297  0.832724  0.833988  1
  Al  Al17  1  0.831619  0.498015  0.835182  1
  Al  Al18  1  0.833493  0.835164  0.498008  1
  Al  Al19  1  0.833493  0.835164  0.833332  1
  B  B20  1  0.625018  0.124255  0.125364  1
  Os  Os21  1  0.125177  0.624049  0.625387  1
  Os  Os22  1  0.624273  0.125044  0.625341  1
  Os  Os23  1  0.626465  0.626443  0.125152  1
  Os  Os24  1  0.626465  0.626443  0.621942  1
  N  N25  1  0.121458  0.626803  0.125870  1
  N  N26  1  0.125158  0.124856  0.625135  1
  N  N27  1  0.125158  0.124856  0.124850  1
