# generated using pymatgen
data_Tb7Er(Sc3Ge4)4
_symmetry_space_group_name_H-M   'P 1'
_cell_length_a   7.25628739
_cell_length_b   7.49258920
_cell_length_c   14.11538341
_cell_angle_alpha   89.97901005
_cell_angle_beta   89.78082394
_cell_angle_gamma   90.17744260
_symmetry_Int_Tables_number   1
_chemical_formula_structural   Tb7Er(Sc3Ge4)4
_chemical_formula_sum   'Tb7 Er1 Sc12 Ge16'
_cell_volume   767.42118575
_cell_formula_units_Z   1
loop_
 _symmetry_equiv_pos_site_id
 _symmetry_equiv_pos_as_xyz
  1  'x, y, z'
loop_
 _atom_site_type_symbol
 _atom_site_label
 _atom_site_symmetry_multiplicity
 _atom_site_fract_x
 _atom_site_fract_y
 _atom_site_fract_z
 _atom_site_occupancy
  Tb  Tb0  1  0.000274  0.176053  0.096688  1
  Tb  Tb1  1  0.999491  0.823735  0.902561  1
  Tb  Tb2  1  0.499311  0.675513  0.903533  1
  Tb  Tb3  1  0.000511  0.822929  0.596650  1
  Tb  Tb4  1  0.500452  0.324395  0.096568  1
  Tb  Tb5  1  0.000115  0.176921  0.403840  1
  Tb  Tb6  1  0.498897  0.324209  0.403785  1
  Er  Er7  1  0.501817  0.676445  0.597038  1
  Sc  Sc8  1  0.174661  0.499959  0.748983  1
  Sc  Sc9  1  0.825587  0.500219  0.250671  1
  Sc  Sc10  1  0.325808  0.999302  0.250543  1
  Sc  Sc11  1  0.673896  0.000566  0.749266  1
  Sc  Sc12  1  0.341792  0.168530  0.625261  1
  Sc  Sc13  1  0.658096  0.831282  0.375183  1
  Sc  Sc14  1  0.158387  0.667526  0.376232  1
  Sc  Sc15  1  0.660074  0.830977  0.125122  1
  Sc  Sc16  1  0.841637  0.332655  0.624030  1
  Sc  Sc17  1  0.339892  0.168976  0.874329  1
  Sc  Sc18  1  0.839936  0.331070  0.875025  1
  Sc  Sc19  1  0.159968  0.669100  0.124478  1
  Ge  Ge20  1  0.038161  0.127708  0.749668  1
  Ge  Ge21  1  0.961148  0.872656  0.250308  1
  Ge  Ge22  1  0.459716  0.626256  0.249923  1
  Ge  Ge23  1  0.539727  0.374029  0.750002  1
  Ge  Ge24  1  0.307398  0.860863  0.749281  1
  Ge  Ge25  1  0.694186  0.137703  0.249980  1
  Ge  Ge26  1  0.194120  0.362761  0.249907  1
  Ge  Ge27  1  0.805468  0.637238  0.749674  1
  Ge  Ge28  1  0.182006  0.459365  0.542651  1
  Ge  Ge29  1  0.818627  0.542335  0.458813  1
  Ge  Ge30  1  0.322895  0.958646  0.459028  1
  Ge  Ge31  1  0.824058  0.541004  0.041415  1
  Ge  Ge32  1  0.676737  0.039782  0.542231  1
  Ge  Ge33  1  0.175248  0.458971  0.957934  1
  Ge  Ge34  1  0.674934  0.040234  0.958147  1
  Ge  Ge35  1  0.324968  0.960083  0.041257  1
