# generated using pymatgen
data_Tb3Pr16ErIr12
_symmetry_space_group_name_H-M   'P 1'
_cell_length_a   11.27528800
_cell_length_b   11.27528800
_cell_length_c   6.56775400
_cell_angle_alpha   90.00000000
_cell_angle_beta   90.00000000
_cell_angle_gamma   90.00000000
_symmetry_Int_Tables_number   1
_chemical_formula_structural   Tb3Pr16ErIr12
_chemical_formula_sum   'Tb3 Pr16 Er1 Ir12'
_cell_volume   834.97248626
_cell_formula_units_Z   1
loop_
 _symmetry_equiv_pos_site_id
 _symmetry_equiv_pos_as_xyz
  1  'x, y, z'
loop_
 _atom_site_type_symbol
 _atom_site_label
 _atom_site_symmetry_multiplicity
 _atom_site_fract_x
 _atom_site_fract_y
 _atom_site_fract_z
 _atom_site_occupancy
  Tb  Tb0  1  0.000000  0.000000  0.000000  1
  Tb  Tb1  1  0.500000  0.500000  0.000000  1
  Tb  Tb2  1  0.500000  0.500000  0.500000  1
  Pr  Pr3  1  0.288944  0.088147  0.381494  1
  Pr  Pr4  1  0.289162  0.911845  0.881357  1
  Pr  Pr5  1  0.710838  0.088155  0.881357  1
  Pr  Pr6  1  0.711056  0.911853  0.381494  1
  Pr  Pr7  1  0.588157  0.789226  0.881498  1
  Pr  Pr8  1  0.588227  0.210765  0.381423  1
  Pr  Pr9  1  0.411773  0.789235  0.381423  1
  Pr  Pr10  1  0.411843  0.210774  0.881498  1
  Pr  Pr11  1  0.210765  0.411773  0.618577  1
  Pr  Pr12  1  0.210774  0.588157  0.118502  1
  Pr  Pr13  1  0.789226  0.411843  0.118502  1
  Pr  Pr14  1  0.789235  0.588227  0.618577  1
  Pr  Pr15  1  0.911845  0.710838  0.118643  1
  Pr  Pr16  1  0.911853  0.288944  0.618506  1
  Pr  Pr17  1  0.088147  0.711056  0.618506  1
  Pr  Pr18  1  0.088155  0.289162  0.118643  1
  Er  Er19  1  0.000000  0.000000  0.500000  1
  Ir  Ir20  1  0.851885  0.148163  0.250801  1
  Ir  Ir21  1  0.851837  0.851885  0.749199  1
  Ir  Ir22  1  0.148163  0.148115  0.749199  1
  Ir  Ir23  1  0.148115  0.851837  0.250801  1
  Ir  Ir24  1  0.648675  0.351303  0.750021  1
  Ir  Ir25  1  0.648697  0.648675  0.249979  1
  Ir  Ir26  1  0.351303  0.351325  0.249979  1
  Ir  Ir27  1  0.351325  0.648697  0.750021  1
  Ir  Ir28  1  0.500000  0.000000  0.118427  1
  Ir  Ir29  1  0.500000  0.000000  0.618498  1
  Ir  Ir30  1  0.000000  0.500000  0.881573  1
  Ir  Ir31  1  0.000000  0.500000  0.381502  1
