# generated using pymatgen
data_Ca3Ag3GeP2
_symmetry_space_group_name_H-M   'P 1'
_cell_length_a   7.16889400
_cell_length_b   7.16889422
_cell_length_c   4.18392000
_cell_angle_alpha   90.00000000
_cell_angle_beta   90.00000000
_cell_angle_gamma   120.00000820
_symmetry_Int_Tables_number   1
_chemical_formula_structural   Ca3Ag3GeP2
_chemical_formula_sum   'Ca3 Ag3 Ge1 P2'
_cell_volume   186.21655971
_cell_formula_units_Z   1
loop_
 _symmetry_equiv_pos_site_id
 _symmetry_equiv_pos_as_xyz
  1  'x, y, z'
loop_
 _atom_site_type_symbol
 _atom_site_label
 _atom_site_symmetry_multiplicity
 _atom_site_fract_x
 _atom_site_fract_y
 _atom_site_fract_z
 _atom_site_occupancy
  Ca  Ca0  1  0.577904  0.000000  0.500000  1
  Ca  Ca1  1  0.422096  0.422096  0.500000  1
  Ca  Ca2  1  0.000000  0.577904  0.500000  1
  Ag  Ag3  1  0.253133  0.000000  0.000000  1
  Ag  Ag4  1  0.746867  0.746867  0.000000  1
  Ag  Ag5  1  0.000000  0.253133  0.000000  1
  Ge  Ge6  1  0.000000  0.000000  0.500000  1
  P  P7  1  0.333333  0.666667  0.000000  1
  P  P8  1  0.666667  0.333333  0.000000  1
