# generated using pymatgen
data_YTh(AlCu)5
_symmetry_space_group_name_H-M   'P 1'
_cell_length_a   4.10561200
_cell_length_b   5.34523800
_cell_length_c   9.08304800
_cell_angle_alpha   90.00000000
_cell_angle_beta   90.00000000
_cell_angle_gamma   90.00000000
_symmetry_Int_Tables_number   1
_chemical_formula_structural   YTh(AlCu)5
_chemical_formula_sum   'Y1 Th1 Al5 Cu5'
_cell_volume   199.33178715
_cell_formula_units_Z   1
loop_
 _symmetry_equiv_pos_site_id
 _symmetry_equiv_pos_as_xyz
  1  'x, y, z'
loop_
 _atom_site_type_symbol
 _atom_site_label
 _atom_site_symmetry_multiplicity
 _atom_site_fract_x
 _atom_site_fract_y
 _atom_site_fract_z
 _atom_site_occupancy
  Y  Y0  1  0.000000  0.501139  0.500000  1
  Th  Th1  1  0.000000  0.999285  0.000000  1
  Al  Al2  1  0.500000  0.499685  0.000000  1
  Al  Al3  1  0.500000  0.750022  0.261587  1
  Al  Al4  1  0.500000  0.250007  0.738273  1
  Al  Al5  1  0.500000  0.250007  0.261727  1
  Al  Al6  1  0.500000  0.750022  0.738413  1
  Cu  Cu7  1  0.000000  0.001122  0.341376  1
  Cu  Cu8  1  0.000000  0.499161  0.829912  1
  Cu  Cu9  1  0.000000  0.499161  0.170088  1
  Cu  Cu10  1  0.000000  0.001122  0.658624  1
  Cu  Cu11  1  0.500000  0.999470  0.500000  1
