# generated using pymatgen
data_La9NdAl2(CdRu3)2
_symmetry_space_group_name_H-M   'P 1'
_cell_length_a   8.74329980
_cell_length_b   8.78980605
_cell_length_c   8.68207882
_cell_angle_alpha   109.98562836
_cell_angle_beta   109.38011916
_cell_angle_gamma   109.76819988
_symmetry_Int_Tables_number   1
_chemical_formula_structural   La9NdAl2(CdRu3)2
_chemical_formula_sum   'La9 Nd1 Al2 Cd2 Ru6'
_cell_volume   509.00927777
_cell_formula_units_Z   1
loop_
 _symmetry_equiv_pos_site_id
 _symmetry_equiv_pos_as_xyz
  1  'x, y, z'
loop_
 _atom_site_type_symbol
 _atom_site_label
 _atom_site_symmetry_multiplicity
 _atom_site_fract_x
 _atom_site_fract_y
 _atom_site_fract_z
 _atom_site_occupancy
  La  La0  1  0.748248  0.806961  0.063807  1
  La  La1  1  0.434402  0.247012  0.687741  1
  La  La2  1  0.696011  0.445150  0.250266  1
  La  La3  1  0.059585  0.745594  0.810671  1
  La  La4  1  0.816013  0.066170  0.748998  1
  La  La5  1  0.207410  0.209503  0.204457  1
  La  La6  1  0.501908  0.001378  0.294275  1
  La  La7  1  0.285830  0.500904  0.998936  1
  La  La8  1  0.002637  0.287327  0.501965  1
  Nd  Nd9  1  0.243945  0.680639  0.433549  1
  Al  Al10  1  0.916391  0.503229  0.003856  1
  Al  Al11  1  0.001050  0.911361  0.497894  1
  Cd  Cd12  1  0.501179  0.999673  0.911990  1
  Cd  Cd13  1  0.584455  0.587455  0.584537  1
  Ru  Ru14  1  0.234092  0.121825  0.863744  1
  Ru  Ru15  1  0.758385  0.371460  0.637574  1
  Ru  Ru16  1  0.898016  0.271563  0.129178  1
  Ru  Ru17  1  0.111960  0.868394  0.247676  1
  Ru  Ru18  1  0.639784  0.767750  0.373219  1
  Ru  Ru19  1  0.358700  0.606656  0.755668  1
