# generated using pymatgen
data_DyY9(IrRh2)2
_symmetry_space_group_name_H-M   'P 1'
_cell_length_a   10.94875500
_cell_length_b   10.94875500
_cell_length_c   6.39731200
_cell_angle_alpha   90.00000000
_cell_angle_beta   90.00000000
_cell_angle_gamma   90.00000000
_symmetry_Int_Tables_number   1
_chemical_formula_structural   DyY9(IrRh2)2
_chemical_formula_sum   'Dy2 Y18 Ir4 Rh8'
_cell_volume   766.87928609
_cell_formula_units_Z   2
loop_
 _symmetry_equiv_pos_site_id
 _symmetry_equiv_pos_as_xyz
  1  'x, y, z'
loop_
 _atom_site_type_symbol
 _atom_site_label
 _atom_site_symmetry_multiplicity
 _atom_site_fract_x
 _atom_site_fract_y
 _atom_site_fract_z
 _atom_site_occupancy
  Dy  Dy0  1  0.000000  0.000000  0.500000  1
  Dy  Dy1  1  0.500000  0.500000  0.000000  1
  Y  Y2  1  0.291359  0.090101  0.379003  1
  Y  Y3  1  0.291460  0.909890  0.879004  1
  Y  Y4  1  0.708540  0.090110  0.879004  1
  Y  Y5  1  0.708641  0.909899  0.379003  1
  Y  Y6  1  0.587727  0.789876  0.879824  1
  Y  Y7  1  0.587773  0.210051  0.379835  1
  Y  Y8  1  0.412227  0.789949  0.379835  1
  Y  Y9  1  0.412273  0.210124  0.879824  1
  Y  Y10  1  0.210051  0.412227  0.620165  1
  Y  Y11  1  0.210124  0.587727  0.120176  1
  Y  Y12  1  0.789876  0.412273  0.120176  1
  Y  Y13  1  0.789949  0.587773  0.620165  1
  Y  Y14  1  0.909890  0.708540  0.120996  1
  Y  Y15  1  0.909899  0.291359  0.620997  1
  Y  Y16  1  0.090101  0.708641  0.620997  1
  Y  Y17  1  0.090110  0.291460  0.120996  1
  Y  Y18  1  0.000000  0.000000  0.000000  1
  Y  Y19  1  0.500000  0.500000  0.500000  1
  Ir  Ir20  1  0.654327  0.345634  0.750551  1
  Ir  Ir21  1  0.654366  0.654327  0.249449  1
  Ir  Ir22  1  0.345634  0.345673  0.249449  1
  Ir  Ir23  1  0.345673  0.654366  0.750551  1
  Rh  Rh24  1  0.846806  0.153165  0.250611  1
  Rh  Rh25  1  0.846835  0.846806  0.749389  1
  Rh  Rh26  1  0.153165  0.153194  0.749389  1
  Rh  Rh27  1  0.153194  0.846835  0.250611  1
  Rh  Rh28  1  0.500000  0.000000  0.125466  1
  Rh  Rh29  1  0.500000  0.000000  0.625446  1
  Rh  Rh30  1  0.000000  0.500000  0.874534  1
  Rh  Rh31  1  0.000000  0.500000  0.374554  1
