# generated using pymatgen
data_Y2MgAl3Si2Pd
_symmetry_space_group_name_H-M   'P 1'
_cell_length_a   6.88137200
_cell_length_b   6.74918033
_cell_length_c   4.23619400
_cell_angle_alpha   90.00000000
_cell_angle_beta   90.00000000
_cell_angle_gamma   120.65006341
_symmetry_Int_Tables_number   1
_chemical_formula_structural   Y2MgAl3Si2Pd
_chemical_formula_sum   'Y2 Mg1 Al3 Si2 Pd1'
_cell_volume   169.25841637
_cell_formula_units_Z   1
loop_
 _symmetry_equiv_pos_site_id
 _symmetry_equiv_pos_as_xyz
  1  'x, y, z'
loop_
 _atom_site_type_symbol
 _atom_site_label
 _atom_site_symmetry_multiplicity
 _atom_site_fract_x
 _atom_site_fract_y
 _atom_site_fract_z
 _atom_site_occupancy
  Y  Y0  1  0.997019  0.423690  0.000000  1
  Y  Y1  1  0.573328  0.576309  0.000000  1
  Mg  Mg2  1  0.416504  0.000000  0.000000  1
  Al  Al3  1  0.761886  0.000000  0.500000  1
  Al  Al4  1  0.236483  0.242373  0.500000  1
  Al  Al5  1  0.994111  0.757629  0.500000  1
  Si  Si6  1  0.664878  0.330261  0.500000  1
  Si  Si7  1  0.334617  0.669740  0.500000  1
  Pd  Pd8  1  0.021175  0.000000  0.000000  1
