# generated using pymatgen
data_Ho3ErMnGa12
_symmetry_space_group_name_H-M   'P 1'
_cell_length_a   7.43598692
_cell_length_b   7.43598673
_cell_length_c   7.43945200
_cell_angle_alpha   109.48066645
_cell_angle_beta   109.48066592
_cell_angle_gamma   109.46177038
_symmetry_Int_Tables_number   1
_chemical_formula_structural   Ho3ErMnGa12
_chemical_formula_sum   'Ho3 Er1 Mn1 Ga12'
_cell_volume   316.62533030
_cell_formula_units_Z   1
loop_
 _symmetry_equiv_pos_site_id
 _symmetry_equiv_pos_as_xyz
  1  'x, y, z'
loop_
 _atom_site_type_symbol
 _atom_site_label
 _atom_site_symmetry_multiplicity
 _atom_site_fract_x
 _atom_site_fract_y
 _atom_site_fract_z
 _atom_site_occupancy
  Ho  Ho0  1  0.000000  0.500000  0.000000  1
  Ho  Ho1  1  0.500000  0.000000  0.000000  1
  Ho  Ho2  1  0.500000  0.500000  0.500000  1
  Er  Er3  1  0.000000  0.000000  0.500000  1
  Mn  Mn4  1  0.000000  0.000000  0.000000  1
  Ga  Ga5  1  0.750063  0.249937  0.500000  1
  Ga  Ga6  1  0.750063  0.500126  0.250063  1
  Ga  Ga7  1  0.499874  0.249937  0.749937  1
  Ga  Ga8  1  0.249937  0.499874  0.749937  1
  Ga  Ga9  1  0.249937  0.750063  0.500000  1
  Ga  Ga10  1  0.500126  0.750063  0.250063  1
  Ga  Ga11  1  0.713950  0.713950  0.000098  1
  Ga  Ga12  1  0.286050  0.000000  0.286148  1
  Ga  Ga13  1  0.000000  0.286050  0.286148  1
  Ga  Ga14  1  0.286050  0.286050  0.999902  1
  Ga  Ga15  1  0.713950  0.000000  0.713852  1
  Ga  Ga16  1  0.000000  0.713950  0.713852  1
