# generated using pymatgen
data_Pr2CrO6
_symmetry_space_group_name_H-M   'P 1'
_cell_length_a   4.42269400
_cell_length_b   7.49421491
_cell_length_c   8.44015054
_cell_angle_alpha   106.63704350
_cell_angle_beta   90.00000000
_cell_angle_gamma   107.16196703
_symmetry_Int_Tables_number   1
_chemical_formula_structural   Pr2CrO6
_chemical_formula_sum   'Pr4 Cr2 O12'
_cell_volume   255.00757329
_cell_formula_units_Z   2
loop_
 _symmetry_equiv_pos_site_id
 _symmetry_equiv_pos_as_xyz
  1  'x, y, z'
loop_
 _atom_site_type_symbol
 _atom_site_label
 _atom_site_symmetry_multiplicity
 _atom_site_fract_x
 _atom_site_fract_y
 _atom_site_fract_z
 _atom_site_occupancy
  Pr  Pr0  1  0.662453  0.341639  0.085270  1
  Pr  Pr1  1  0.320814  0.658362  0.414731  1
  Pr  Pr2  1  0.679185  0.341638  0.585269  1
  Pr  Pr3  1  0.337549  0.658362  0.914731  1
  Cr  Cr4  1  0.043340  0.000000  0.250000  1
  Cr  Cr5  1  0.956661  0.000001  0.750000  1
  O  O6  1  0.266609  0.997821  0.090194  1
  O  O7  1  0.223558  0.486834  0.121662  1
  O  O8  1  0.731657  0.800552  0.201045  1
  O  O9  1  0.931104  0.199447  0.298955  1
  O  O10  1  0.736723  0.513165  0.378337  1
  O  O11  1  0.268789  0.002179  0.409807  1
  O  O12  1  0.731213  0.997822  0.590194  1
  O  O13  1  0.263276  0.486835  0.621662  1
  O  O14  1  0.068895  0.800553  0.701045  1
  O  O15  1  0.268341  0.199447  0.798955  1
  O  O16  1  0.776443  0.513165  0.878338  1
  O  O17  1  0.733390  0.002179  0.909806  1
