# generated using pymatgen
data_Pr8YHoSn6
_symmetry_space_group_name_H-M   'P 1'
_cell_length_a   9.30076400
_cell_length_b   9.30076445
_cell_length_c   6.83463900
_cell_angle_alpha   90.00000000
_cell_angle_beta   90.00000000
_cell_angle_gamma   119.99999127
_symmetry_Int_Tables_number   1
_chemical_formula_structural   Pr8YHoSn6
_chemical_formula_sum   'Pr8 Y1 Ho1 Sn6'
_cell_volume   512.01598618
_cell_formula_units_Z   1
loop_
 _symmetry_equiv_pos_site_id
 _symmetry_equiv_pos_as_xyz
  1  'x, y, z'
loop_
 _atom_site_type_symbol
 _atom_site_label
 _atom_site_symmetry_multiplicity
 _atom_site_fract_x
 _atom_site_fract_y
 _atom_site_fract_z
 _atom_site_occupancy
  Pr  Pr0  1  0.757333  0.757367  0.247869  1
  Pr  Pr1  1  0.000034  0.242667  0.247869  1
  Pr  Pr2  1  0.757333  0.999966  0.752131  1
  Pr  Pr3  1  0.333333  0.666667  0.500000  1
  Pr  Pr4  1  0.242633  0.999966  0.247869  1
  Pr  Pr5  1  0.666667  0.333333  0.500000  1
  Pr  Pr6  1  0.000034  0.757367  0.752131  1
  Pr  Pr7  1  0.242633  0.242667  0.752131  1
  Y  Y8  1  0.666667  0.333333  0.000000  1
  Ho  Ho9  1  0.333333  0.666667  0.000000  1
  Sn  Sn10  1  0.602953  0.603196  0.759671  1
  Sn  Sn11  1  0.396804  0.999757  0.759671  1
  Sn  Sn12  1  0.602953  0.999757  0.240329  1
  Sn  Sn13  1  0.000243  0.397047  0.759671  1
  Sn  Sn14  1  0.396804  0.397047  0.240329  1
  Sn  Sn15  1  0.000243  0.603196  0.240329  1
