# generated using pymatgen
data_CsMn2RhSe6
_symmetry_space_group_name_H-M   'P 1'
_cell_length_a   9.63774899
_cell_length_b   9.63774820
_cell_length_c   9.63774800
_cell_angle_alpha   36.62645146
_cell_angle_beta   36.62645782
_cell_angle_gamma   36.62645414
_symmetry_Int_Tables_number   1
_chemical_formula_structural   CsMn2RhSe6
_chemical_formula_sum   'Cs1 Mn2 Rh1 Se6'
_cell_volume   285.30681489
_cell_formula_units_Z   1
loop_
 _symmetry_equiv_pos_site_id
 _symmetry_equiv_pos_as_xyz
  1  'x, y, z'
loop_
 _atom_site_type_symbol
 _atom_site_label
 _atom_site_symmetry_multiplicity
 _atom_site_fract_x
 _atom_site_fract_y
 _atom_site_fract_z
 _atom_site_occupancy
  Cs  Cs0  1  0.000426  0.000426  0.000426  1
  Mn  Mn1  1  0.500306  0.500306  0.500306  1
  Mn  Mn2  1  0.833773  0.833773  0.833773  1
  Rh  Rh3  1  0.165910  0.165910  0.165910  1
  Se  Se4  1  0.555537  0.221889  0.882089  1
  Se  Se5  1  0.882089  0.555537  0.221889  1
  Se  Se6  1  0.221889  0.882089  0.555537  1
  Se  Se7  1  0.770406  0.113427  0.456236  1
  Se  Se8  1  0.113427  0.456236  0.770406  1
  Se  Se9  1  0.456236  0.770406  0.113427  1
