# generated using pymatgen
data_YbY2Ho(ZrIr)4
_symmetry_space_group_name_H-M   'P 1'
_cell_length_a   4.55735600
_cell_length_b   7.13644712
_cell_length_c   8.32365200
_cell_angle_alpha   90.01066200
_cell_angle_beta   90.00000000
_cell_angle_gamma   90.00000000
_symmetry_Int_Tables_number   1
_chemical_formula_structural   YbY2Ho(ZrIr)4
_chemical_formula_sum   'Yb1 Y2 Ho1 Zr4 Ir4'
_cell_volume   270.71287709
_cell_formula_units_Z   1
loop_
 _symmetry_equiv_pos_site_id
 _symmetry_equiv_pos_as_xyz
  1  'x, y, z'
loop_
 _atom_site_type_symbol
 _atom_site_label
 _atom_site_symmetry_multiplicity
 _atom_site_fract_x
 _atom_site_fract_y
 _atom_site_fract_z
 _atom_site_occupancy
  Yb  Yb0  1  0.250000  0.483870  0.177398  1
  Y  Y1  1  0.750000  0.015538  0.677322  1
  Y  Y2  1  0.750000  0.515865  0.823041  1
  Ho  Ho3  1  0.250000  0.983826  0.323802  1
  Zr  Zr4  1  0.250000  0.356987  0.575651  1
  Zr  Zr5  1  0.250000  0.855629  0.926334  1
  Zr  Zr6  1  0.750000  0.643293  0.423659  1
  Zr  Zr7  1  0.750000  0.144930  0.075120  1
  Ir  Ir8  1  0.250000  0.226628  0.902234  1
  Ir  Ir9  1  0.250000  0.730967  0.591752  1
  Ir  Ir10  1  0.750000  0.776164  0.093726  1
  Ir  Ir11  1  0.750000  0.266302  0.409962  1
