# generated using pymatgen
data_Lu5W2C7
_symmetry_space_group_name_H-M   'P 1'
_cell_length_a   8.24838307
_cell_length_b   8.24838402
_cell_length_c   3.34654700
_cell_angle_alpha   90.00000000
_cell_angle_beta   90.00000000
_cell_angle_gamma   121.62931724
_symmetry_Int_Tables_number   1
_chemical_formula_structural   Lu5W2C7
_chemical_formula_sum   'Lu5 W2 C7'
_cell_volume   193.86446658
_cell_formula_units_Z   1
loop_
 _symmetry_equiv_pos_site_id
 _symmetry_equiv_pos_as_xyz
  1  'x, y, z'
loop_
 _atom_site_type_symbol
 _atom_site_label
 _atom_site_symmetry_multiplicity
 _atom_site_fract_x
 _atom_site_fract_y
 _atom_site_fract_z
 _atom_site_occupancy
  Lu  Lu0  1  0.500000  0.500000  0.000000  1
  Lu  Lu1  1  0.076940  0.334320  0.500000  1
  Lu  Lu2  1  0.923060  0.665680  0.500000  1
  Lu  Lu3  1  0.665680  0.923060  0.500000  1
  Lu  Lu4  1  0.334320  0.076940  0.500000  1
  W  W5  1  0.713705  0.286295  0.000000  1
  W  W6  1  0.286295  0.713705  0.000000  1
  C  C7  1  0.622197  0.377803  0.500000  1
  C  C8  1  0.377803  0.622197  0.500000  1
  C  C9  1  0.000000  0.000000  0.000000  1
  C  C10  1  0.168555  0.168555  0.000000  1
  C  C11  1  0.831445  0.831445  0.000000  1
  C  C12  1  0.000000  0.500000  0.000000  1
  C  C13  1  0.500000  0.000000  0.000000  1
