# generated using pymatgen
data_Ba8NpIr3O20
_symmetry_space_group_name_H-M   'P 1'
_cell_length_a   5.80863500
_cell_length_b   7.51276275
_cell_length_c   11.71765300
_cell_angle_alpha   89.80898735
_cell_angle_beta   90.00000000
_cell_angle_gamma   90.00000000
_symmetry_Int_Tables_number   1
_chemical_formula_structural   Ba8NpIr3O20
_chemical_formula_sum   'Ba8 Np1 Ir3 O20'
_cell_volume   511.34260667
_cell_formula_units_Z   1
loop_
 _symmetry_equiv_pos_site_id
 _symmetry_equiv_pos_as_xyz
  1  'x, y, z'
loop_
 _atom_site_type_symbol
 _atom_site_label
 _atom_site_symmetry_multiplicity
 _atom_site_fract_x
 _atom_site_fract_y
 _atom_site_fract_z
 _atom_site_occupancy
  Ba  Ba0  1  0.750000  0.167301  0.578028  1
  Ba  Ba1  1  0.250000  0.829921  0.419461  1
  Ba  Ba2  1  0.750000  0.664717  0.920215  1
  Ba  Ba3  1  0.250000  0.353281  0.081560  1
  Ba  Ba4  1  0.250000  0.013997  0.780564  1
  Ba  Ba5  1  0.750000  0.977021  0.218026  1
  Ba  Ba6  1  0.250000  0.518628  0.712913  1
  Ba  Ba7  1  0.750000  0.479363  0.291497  1
  Np  Np8  1  0.750000  0.169744  0.937198  1
  Ir  Ir9  1  0.250000  0.329876  0.439458  1
  Ir  Ir10  1  0.750000  0.668928  0.560875  1
  Ir  Ir11  1  0.250000  0.825155  0.064883  1
  O  O12  1  0.494206  0.674149  0.117480  1
  O  O13  1  0.001822  0.332124  0.879438  1
  O  O14  1  0.011659  0.177475  0.386176  1
  O  O15  1  0.510789  0.821679  0.612368  1
  O  O16  1  0.498178  0.332124  0.879438  1
  O  O17  1  0.005794  0.674149  0.117480  1
  O  O18  1  0.989211  0.821679  0.612368  1
  O  O19  1  0.488341  0.177475  0.386176  1
  O  O20  1  0.750000  0.294087  0.093326  1
  O  O21  1  0.250000  0.715587  0.911134  1
  O  O22  1  0.750000  0.785908  0.407547  1
  O  O23  1  0.250000  0.212306  0.591962  1
  O  O24  1  0.999563  0.498561  0.500314  1
  O  O25  1  0.500437  0.498561  0.500314  1
  O  O26  1  0.495959  0.994867  0.002461  1
  O  O27  1  0.004041  0.994867  0.002461  1
  O  O28  1  0.250000  0.469243  0.302565  1
  O  O29  1  0.750000  0.533771  0.698582  1
  O  O30  1  0.250000  0.967263  0.199547  1
  O  O31  1  0.750000  0.026192  0.794181  1
