# generated using pymatgen
data_Na2Cr2SnSe6
_symmetry_space_group_name_H-M   'P 1'
_cell_length_a   6.61353673
_cell_length_b   6.61353733
_cell_length_c   7.43262904
_cell_angle_alpha   81.77932824
_cell_angle_beta   81.77932914
_cell_angle_gamma   120.82427700
_symmetry_Int_Tables_number   1
_chemical_formula_structural   Na2Cr2SnSe6
_chemical_formula_sum   'Na2 Cr2 Sn1 Se6'
_cell_volume   267.21072653
_cell_formula_units_Z   1
loop_
 _symmetry_equiv_pos_site_id
 _symmetry_equiv_pos_as_xyz
  1  'x, y, z'
loop_
 _atom_site_type_symbol
 _atom_site_label
 _atom_site_symmetry_multiplicity
 _atom_site_fract_x
 _atom_site_fract_y
 _atom_site_fract_z
 _atom_site_occupancy
  Na  Na0  1  0.164618  0.835382  0.500000  1
  Na  Na1  1  0.835382  0.164618  0.500000  1
  Cr  Cr2  1  0.332280  0.667720  0.000000  1
  Cr  Cr3  1  0.667720  0.332280  0.000000  1
  Sn  Sn4  1  0.000000  0.000000  0.000000  1
  Se  Se5  1  0.935288  0.581304  0.201532  1
  Se  Se6  1  0.283520  0.283520  0.202595  1
  Se  Se7  1  0.581304  0.935288  0.201532  1
  Se  Se8  1  0.716480  0.716480  0.797405  1
  Se  Se9  1  0.064712  0.418696  0.798468  1
  Se  Se10  1  0.418696  0.064712  0.798468  1
