# generated using pymatgen
data_Ho2Er2Tc5Os3
_symmetry_space_group_name_H-M   'P 1'
_cell_length_a   5.31183474
_cell_length_b   5.24100748
_cell_length_c   9.00959501
_cell_angle_alpha   90.00000078
_cell_angle_beta   90.00458123
_cell_angle_gamma   119.55990141
_symmetry_Int_Tables_number   1
_chemical_formula_structural   Ho2Er2Tc5Os3
_chemical_formula_sum   'Ho2 Er2 Tc5 Os3'
_cell_volume   218.17459516
_cell_formula_units_Z   1
loop_
 _symmetry_equiv_pos_site_id
 _symmetry_equiv_pos_as_xyz
  1  'x, y, z'
loop_
 _atom_site_type_symbol
 _atom_site_label
 _atom_site_symmetry_multiplicity
 _atom_site_fract_x
 _atom_site_fract_y
 _atom_site_fract_z
 _atom_site_occupancy
  Ho  Ho0  1  0.332128  0.666064  0.437284  1
  Ho  Ho1  1  0.669602  0.334800  0.564498  1
  Er  Er2  1  0.669669  0.334834  0.935594  1
  Er  Er3  1  0.332009  0.666005  0.062583  1
  Tc  Tc4  1  0.828368  0.171480  0.249513  1
  Tc  Tc5  1  0.828368  0.656888  0.249513  1
  Tc  Tc6  1  0.341316  0.170657  0.249485  1
  Tc  Tc7  1  0.169855  0.829958  0.750483  1
  Tc  Tc8  1  0.169855  0.339896  0.750483  1
  Os  Os9  1  0.002703  0.001351  0.500607  1
  Os  Os10  1  0.002693  0.001347  0.999399  1
  Os  Os11  1  0.653435  0.826717  0.750556  1
