# generated using pymatgen
data_EuEr(ZnRh)2
_symmetry_space_group_name_H-M   'P 1'
_cell_length_a   4.13074100
_cell_length_b   6.99548954
_cell_length_c   8.06338263
_cell_angle_alpha   89.68685003
_cell_angle_beta   90.00000000
_cell_angle_gamma   90.00000000
_symmetry_Int_Tables_number   1
_chemical_formula_structural   EuEr(ZnRh)2
_chemical_formula_sum   'Eu2 Er2 Zn4 Rh4'
_cell_volume   233.00050322
_cell_formula_units_Z   2
loop_
 _symmetry_equiv_pos_site_id
 _symmetry_equiv_pos_as_xyz
  1  'x, y, z'
loop_
 _atom_site_type_symbol
 _atom_site_label
 _atom_site_symmetry_multiplicity
 _atom_site_fract_x
 _atom_site_fract_y
 _atom_site_fract_z
 _atom_site_occupancy
  Eu  Eu0  1  0.250000  0.531107  0.184668  1
  Eu  Eu1  1  0.750000  0.468893  0.815332  1
  Er  Er2  1  0.750000  0.967289  0.680834  1
  Er  Er3  1  0.250000  0.032711  0.319166  1
  Zn  Zn4  1  0.250000  0.644377  0.564023  1
  Zn  Zn5  1  0.750000  0.355623  0.435977  1
  Zn  Zn6  1  0.750000  0.860180  0.062961  1
  Zn  Zn7  1  0.250000  0.139820  0.937039  1
  Rh  Rh8  1  0.250000  0.778243  0.869897  1
  Rh  Rh9  1  0.750000  0.221757  0.130103  1
  Rh  Rh10  1  0.750000  0.747550  0.383212  1
  Rh  Rh11  1  0.250000  0.252450  0.616788  1
