# generated using pymatgen
data_Dy7HoRe3B24Ru
_symmetry_space_group_name_H-M   'P 1'
_cell_length_a   3.68134400
_cell_length_b   9.17128478
_cell_length_c   11.55846303
_cell_angle_alpha   90.11058940
_cell_angle_beta   90.00000000
_cell_angle_gamma   90.00000000
_symmetry_Int_Tables_number   1
_chemical_formula_structural   Dy7HoRe3B24Ru
_chemical_formula_sum   'Dy7 Ho1 Re3 B24 Ru1'
_cell_volume   390.24366357
_cell_formula_units_Z   1
loop_
 _symmetry_equiv_pos_site_id
 _symmetry_equiv_pos_as_xyz
  1  'x, y, z'
loop_
 _atom_site_type_symbol
 _atom_site_label
 _atom_site_symmetry_multiplicity
 _atom_site_fract_x
 _atom_site_fract_y
 _atom_site_fract_z
 _atom_site_occupancy
  Dy  Dy0  1  0.000000  0.322352  0.414251  1
  Dy  Dy1  1  0.000000  0.677049  0.587548  1
  Dy  Dy2  1  0.000000  0.824703  0.084246  1
  Dy  Dy3  1  0.000000  0.176416  0.913661  1
  Dy  Dy4  1  0.000000  0.941970  0.369599  1
  Dy  Dy5  1  0.000000  0.056381  0.629524  1
  Dy  Dy6  1  0.000000  0.443243  0.130432  1
  Ho  Ho7  1  0.000000  0.556861  0.870688  1
  Re  Re8  1  0.000000  0.362199  0.678311  1
  Re  Re9  1  0.000000  0.138438  0.179541  1
  Re  Re10  1  0.000000  0.861381  0.820956  1
  B  B11  1  0.500000  0.554198  0.432575  1
  B  B12  1  0.500000  0.446770  0.566896  1
  B  B13  1  0.500000  0.053338  0.066904  1
  B  B14  1  0.500000  0.946622  0.932905  1
  B  B15  1  0.500000  0.748363  0.418440  1
  B  B16  1  0.500000  0.250791  0.581195  1
  B  B17  1  0.500000  0.249271  0.081383  1
  B  B18  1  0.500000  0.751048  0.918714  1
  B  B19  1  0.500000  0.790698  0.265567  1
  B  B20  1  0.500000  0.208186  0.734250  1
  B  B21  1  0.500000  0.291717  0.234874  1
  B  B22  1  0.500000  0.707813  0.765871  1
  B  B23  1  0.500000  0.631683  0.186032  1
  B  B24  1  0.500000  0.369327  0.813981  1
  B  B25  1  0.500000  0.131291  0.314671  1
  B  B26  1  0.500000  0.868506  0.685828  1
  B  B27  1  0.500000  0.982862  0.211764  1
  B  B28  1  0.500000  0.017131  0.787881  1
  B  B29  1  0.500000  0.483942  0.288326  1
  B  B30  1  0.500000  0.517761  0.712081  1
  B  B31  1  0.500000  0.601989  0.028604  1
  B  B32  1  0.500000  0.398740  0.971941  1
  B  B33  1  0.500000  0.100927  0.471394  1
  B  B34  1  0.500000  0.897546  0.528181  1
  Ru  Ru35  1  0.000000  0.638490  0.320995  1
