# generated using pymatgen
data_Er12Tm8Fe3CoBi8
_symmetry_space_group_name_H-M   'P 1'
_cell_length_a   7.86660548
_cell_length_b   8.87040100
_cell_length_c   12.31604593
_cell_angle_alpha   90.00000000
_cell_angle_beta   90.04220909
_cell_angle_gamma   90.00000000
_symmetry_Int_Tables_number   1
_chemical_formula_structural   Er12Tm8Fe3CoBi8
_chemical_formula_sum   'Er12 Tm8 Fe3 Co1 Bi8'
_cell_volume   859.41277547
_cell_formula_units_Z   1
loop_
 _symmetry_equiv_pos_site_id
 _symmetry_equiv_pos_as_xyz
  1  'x, y, z'
loop_
 _atom_site_type_symbol
 _atom_site_label
 _atom_site_symmetry_multiplicity
 _atom_site_fract_x
 _atom_site_fract_y
 _atom_site_fract_z
 _atom_site_occupancy
  Er  Er0  1  0.653850  0.750000  0.701402  1
  Er  Er1  1  0.345496  0.250000  0.300099  1
  Er  Er2  1  0.154150  0.250000  0.797909  1
  Er  Er3  1  0.847778  0.750000  0.198161  1
  Er  Er4  1  0.118024  0.750000  0.814805  1
  Er  Er5  1  0.884105  0.250000  0.185174  1
  Er  Er6  1  0.618630  0.250000  0.685362  1
  Er  Er7  1  0.382964  0.750000  0.316494  1
  Er  Er8  1  0.556036  0.750000  0.994996  1
  Er  Er9  1  0.440702  0.250000  0.005327  1
  Er  Er10  1  0.054222  0.250000  0.504421  1
  Er  Er11  1  0.941068  0.750000  0.495101  1
  Tm  Tm12  1  0.828869  0.463239  0.936744  1
  Tm  Tm13  1  0.172027  0.536643  0.063007  1
  Tm  Tm14  1  0.329414  0.532542  0.563436  1
  Tm  Tm15  1  0.172027  0.963357  0.063007  1
  Tm  Tm16  1  0.673060  0.458589  0.435671  1
  Tm  Tm17  1  0.828869  0.036761  0.936744  1
  Tm  Tm18  1  0.673060  0.041411  0.435671  1
  Tm  Tm19  1  0.329414  0.967458  0.563436  1
  Fe  Fe20  1  0.931109  0.750000  0.990937  1
  Fe  Fe21  1  0.068693  0.250000  0.007025  1
  Fe  Fe22  1  0.430978  0.250000  0.508319  1
  Co  Co23  1  0.564794  0.750000  0.494658  1
  Bi  Bi24  1  0.932772  0.005554  0.673069  1
  Bi  Bi25  1  0.067168  0.992264  0.326967  1
  Bi  Bi26  1  0.433021  0.993744  0.827240  1
  Bi  Bi27  1  0.067168  0.507736  0.326967  1
  Bi  Bi28  1  0.567369  0.006447  0.173772  1
  Bi  Bi29  1  0.932772  0.494446  0.673069  1
  Bi  Bi30  1  0.567369  0.493553  0.173772  1
  Bi  Bi31  1  0.433021  0.506256  0.827240  1
