# generated using pymatgen
data_ErTm9(SiSn3)2
_symmetry_space_group_name_H-M   'P 1'
_cell_length_a   9.10173000
_cell_length_b   9.10173087
_cell_length_c   6.37040500
_cell_angle_alpha   90.00000000
_cell_angle_beta   90.00000000
_cell_angle_gamma   119.99922130
_symmetry_Int_Tables_number   1
_chemical_formula_structural   ErTm9(SiSn3)2
_chemical_formula_sum   'Er1 Tm9 Si2 Sn6'
_cell_volume   457.03453787
_cell_formula_units_Z   1
loop_
 _symmetry_equiv_pos_site_id
 _symmetry_equiv_pos_as_xyz
  1  'x, y, z'
loop_
 _atom_site_type_symbol
 _atom_site_label
 _atom_site_symmetry_multiplicity
 _atom_site_fract_x
 _atom_site_fract_y
 _atom_site_fract_z
 _atom_site_occupancy
  Er  Er0  1  0.747101  0.747101  0.750000  1
  Tm  Tm1  1  0.666665  0.333316  0.999991  1
  Tm  Tm2  1  0.333316  0.666665  0.999991  1
  Tm  Tm3  1  0.333316  0.666665  0.500009  1
  Tm  Tm4  1  0.666665  0.333316  0.500009  1
  Tm  Tm5  1  0.252830  0.999991  0.750000  1
  Tm  Tm6  1  0.999991  0.252830  0.750000  1
  Tm  Tm7  1  0.252830  0.252830  0.250000  1
  Tm  Tm8  1  0.747153  0.000017  0.250000  1
  Tm  Tm9  1  0.000017  0.747153  0.250000  1
  Si  Si10  1  0.000072  0.000072  0.000050  1
  Si  Si11  1  0.000072  0.000072  0.499950  1
  Sn  Sn12  1  0.392796  0.392796  0.750000  1
  Sn  Sn13  1  0.607148  0.000031  0.750000  1
  Sn  Sn14  1  0.000031  0.607148  0.750000  1
  Sn  Sn15  1  0.607171  0.607171  0.250000  1
  Sn  Sn16  1  0.392811  0.000015  0.250000  1
  Sn  Sn17  1  0.000015  0.392811  0.250000  1
