# generated using pymatgen
data_RbCr2GaO8
_symmetry_space_group_name_H-M   'P 1'
_cell_length_a   5.19122000
_cell_length_b   5.19122016
_cell_length_c   8.56082400
_cell_angle_alpha   90.00000000
_cell_angle_beta   90.00000000
_cell_angle_gamma   120.00001175
_symmetry_Int_Tables_number   1
_chemical_formula_structural   RbCr2GaO8
_chemical_formula_sum   'Rb1 Cr2 Ga1 O8'
_cell_volume   199.79519098
_cell_formula_units_Z   1
loop_
 _symmetry_equiv_pos_site_id
 _symmetry_equiv_pos_as_xyz
  1  'x, y, z'
loop_
 _atom_site_type_symbol
 _atom_site_label
 _atom_site_symmetry_multiplicity
 _atom_site_fract_x
 _atom_site_fract_y
 _atom_site_fract_z
 _atom_site_occupancy
  Rb  Rb0  1  0.000000  0.000000  0.500000  1
  Cr  Cr1  1  0.333333  0.666666  0.199367  1
  Cr  Cr2  1  0.666668  0.333334  0.800633  1
  Ga  Ga3  1  0.000000  0.000000  0.000000  1
  O  O4  1  0.062893  0.333054  0.138163  1
  O  O5  1  0.666945  0.729838  0.138163  1
  O  O6  1  0.270162  0.937108  0.138163  1
  O  O7  1  0.333333  0.666666  0.390231  1
  O  O8  1  0.666668  0.333334  0.609770  1
  O  O9  1  0.729838  0.062892  0.861837  1
  O  O10  1  0.333054  0.270162  0.861837  1
  O  O11  1  0.937108  0.666946  0.861837  1
