# generated using pymatgen
data_CuSb12Ir2Os
_symmetry_space_group_name_H-M   'P 1'
_cell_length_a   8.14389992
_cell_length_b   8.14838310
_cell_length_c   8.15924693
_cell_angle_alpha   109.48315526
_cell_angle_beta   109.44462890
_cell_angle_gamma   109.38676407
_symmetry_Int_Tables_number   1
_chemical_formula_structural   CuSb12Ir2Os
_chemical_formula_sum   'Cu1 Sb12 Ir2 Os1'
_cell_volume   417.31299831
_cell_formula_units_Z   1
loop_
 _symmetry_equiv_pos_site_id
 _symmetry_equiv_pos_as_xyz
  1  'x, y, z'
loop_
 _atom_site_type_symbol
 _atom_site_label
 _atom_site_symmetry_multiplicity
 _atom_site_fract_x
 _atom_site_fract_y
 _atom_site_fract_z
 _atom_site_occupancy
  Cu  Cu0  1  0.500000  0.000000  0.000000  1
  Sb  Sb1  1  0.845884  0.660029  0.505954  1
  Sb  Sb2  1  0.848226  0.344781  0.186225  1
  Sb  Sb3  1  0.151774  0.655219  0.813775  1
  Sb  Sb4  1  0.336299  0.491270  0.152920  1
  Sb  Sb5  1  0.154116  0.339971  0.494046  1
  Sb  Sb6  1  0.658311  0.811195  0.157019  1
  Sb  Sb7  1  0.183407  0.844481  0.336258  1
  Sb  Sb8  1  0.663701  0.508730  0.847080  1
  Sb  Sb9  1  0.816593  0.155519  0.663742  1
  Sb  Sb10  1  0.341689  0.188805  0.842981  1
  Sb  Sb11  1  0.501780  0.843789  0.654829  1
  Sb  Sb12  1  0.498220  0.156211  0.345171  1
  Ir  Ir13  1  0.000000  0.000000  0.500000  1
  Ir  Ir14  1  0.500000  0.500000  0.500000  1
  Os  Os15  1  0.000000  0.500000  0.000000  1
