# generated using pymatgen
data_Ac3Tb(AsPd)4
_symmetry_space_group_name_H-M   'P 1'
_cell_length_a   4.44110900
_cell_length_b   8.17663002
_cell_length_c   7.76298217
_cell_angle_alpha   90.23963378
_cell_angle_beta   90.00000000
_cell_angle_gamma   90.00000000
_symmetry_Int_Tables_number   1
_chemical_formula_structural   Ac3Tb(AsPd)4
_chemical_formula_sum   'Ac3 Tb1 As4 Pd4'
_cell_volume   281.89707520
_cell_formula_units_Z   1
loop_
 _symmetry_equiv_pos_site_id
 _symmetry_equiv_pos_as_xyz
  1  'x, y, z'
loop_
 _atom_site_type_symbol
 _atom_site_label
 _atom_site_symmetry_multiplicity
 _atom_site_fract_x
 _atom_site_fract_y
 _atom_site_fract_z
 _atom_site_occupancy
  Ac  Ac0  1  0.250000  0.499001  0.250778  1
  Ac  Ac1  1  0.250000  0.999398  0.247848  1
  Ac  Ac2  1  0.750000  0.500650  0.748876  1
  Tb  Tb3  1  0.750000  0.000868  0.749187  1
  As  As4  1  0.250000  0.238324  0.911369  1
  As  As5  1  0.250000  0.770745  0.589469  1
  As  As6  1  0.750000  0.745862  0.080103  1
  As  As7  1  0.750000  0.249921  0.420508  1
  Pd  Pd8  1  0.250000  0.765082  0.914664  1
  Pd  Pd9  1  0.250000  0.232551  0.586107  1
  Pd  Pd10  1  0.750000  0.239342  0.081875  1
  Pd  Pd11  1  0.750000  0.758257  0.419216  1
