# generated using pymatgen
data_Ba3Er3InO9
_symmetry_space_group_name_H-M   'P 1'
_cell_length_a   9.11477337
_cell_length_b   9.11477313
_cell_length_c   9.11477321
_cell_angle_alpha   38.90894849
_cell_angle_beta   38.90895138
_cell_angle_gamma   38.90895040
_symmetry_Int_Tables_number   1
_chemical_formula_structural   Ba3Er3InO9
_chemical_formula_sum   'Ba3 Er3 In1 O9'
_cell_volume   268.60358492
_cell_formula_units_Z   1
loop_
 _symmetry_equiv_pos_site_id
 _symmetry_equiv_pos_as_xyz
  1  'x, y, z'
loop_
 _atom_site_type_symbol
 _atom_site_label
 _atom_site_symmetry_multiplicity
 _atom_site_fract_x
 _atom_site_fract_y
 _atom_site_fract_z
 _atom_site_occupancy
  Ba  Ba0  1  0.166646  0.166646  0.166646  1
  Ba  Ba1  1  0.000856  0.000856  0.000856  1
  Ba  Ba2  1  0.592323  0.592323  0.592323  1
  Er  Er3  1  0.424864  0.424864  0.424864  1
  Er  Er4  1  0.864787  0.864787  0.864787  1
  Er  Er5  1  0.739863  0.739863  0.739863  1
  In  In6  1  0.300943  0.300943  0.300943  1
  O  O7  1  0.036004  0.483177  0.554317  1
  O  O8  1  0.554319  0.036003  0.483177  1
  O  O9  1  0.483176  0.554318  0.036005  1
  O  O10  1  0.120643  0.586397  0.704615  1
  O  O11  1  0.704614  0.120643  0.586397  1
  O  O12  1  0.586398  0.704615  0.120642  1
  O  O13  1  0.131557  0.034859  0.584349  1
  O  O14  1  0.584347  0.131558  0.034861  1
  O  O15  1  0.034860  0.584347  0.131558  1
