# generated using pymatgen
data_Ho6Al23VNiOs7
_symmetry_space_group_name_H-M   'P 1'
_cell_length_a   8.82154600
_cell_length_b   8.82154605
_cell_length_c   9.46893100
_cell_angle_alpha   90.00000000
_cell_angle_beta   90.00000000
_cell_angle_gamma   119.99999979
_symmetry_Int_Tables_number   1
_chemical_formula_structural   Ho6Al23VNiOs7
_chemical_formula_sum   'Ho6 Al23 V1 Ni1 Os7'
_cell_volume   638.14738416
_cell_formula_units_Z   1
loop_
 _symmetry_equiv_pos_site_id
 _symmetry_equiv_pos_as_xyz
  1  'x, y, z'
loop_
 _atom_site_type_symbol
 _atom_site_label
 _atom_site_symmetry_multiplicity
 _atom_site_fract_x
 _atom_site_fract_y
 _atom_site_fract_z
 _atom_site_occupancy
  Ho  Ho0  1  0.196047  0.392094  0.247627  1
  Ho  Ho1  1  0.806158  0.612316  0.749022  1
  Ho  Ho2  1  0.607906  0.803953  0.247627  1
  Ho  Ho3  1  0.387684  0.193842  0.749022  1
  Ho  Ho4  1  0.196047  0.803953  0.247627  1
  Ho  Ho5  1  0.806158  0.193842  0.749022  1
  Al  Al6  1  0.666667  0.333333  0.979466  1
  Al  Al7  1  0.666667  0.333333  0.520747  1
  Al  Al8  1  0.333333  0.666667  0.481445  1
  Al  Al9  1  0.161653  0.323305  0.576323  1
  Al  Al10  1  0.837852  0.675704  0.423698  1
  Al  Al11  1  0.676695  0.838347  0.576323  1
  Al  Al12  1  0.837330  0.674660  0.077511  1
  Al  Al13  1  0.324296  0.162148  0.423698  1
  Al  Al14  1  0.158630  0.317261  0.924469  1
  Al  Al15  1  0.161653  0.838347  0.576323  1
  Al  Al16  1  0.325340  0.162670  0.077511  1
  Al  Al17  1  0.837852  0.162148  0.423698  1
  Al  Al18  1  0.682739  0.841370  0.924469  1
  Al  Al19  1  0.837330  0.162670  0.077511  1
  Al  Al20  1  0.158630  0.841370  0.924469  1
  Al  Al21  1  0.561279  0.122559  0.253168  1
  Al  Al22  1  0.441075  0.882150  0.750515  1
  Al  Al23  1  0.877441  0.438721  0.253168  1
  Al  Al24  1  0.117850  0.558925  0.750515  1
  Al  Al25  1  0.561279  0.438721  0.253168  1
  Al  Al26  1  0.441075  0.558925  0.750515  1
  Al  Al27  1  0.000000  0.000000  0.243416  1
  Al  Al28  1  0.000000  0.000000  0.756290  1
  V  V29  1  0.333333  0.666667  0.987461  1
  Ni  Ni30  1  0.000000  0.000000  0.000585  1
  Os  Os31  1  0.495243  0.990486  0.005066  1
  Os  Os32  1  0.009514  0.504757  0.005066  1
  Os  Os33  1  0.499732  0.999464  0.502998  1
  Os  Os34  1  0.495243  0.504757  0.005066  1
  Os  Os35  1  0.000536  0.500268  0.502998  1
  Os  Os36  1  0.499732  0.500268  0.502998  1
  Os  Os37  1  0.000000  0.000000  0.499399  1
