# generated using pymatgen
data_Cs4Eu3PbI12
_symmetry_space_group_name_H-M   'P 1'
_cell_length_a   4.91325000
_cell_length_b   10.78227095
_cell_length_c   18.27972225
_cell_angle_alpha   90.20233058
_cell_angle_beta   90.00000000
_cell_angle_gamma   90.00000000
_symmetry_Int_Tables_number   1
_chemical_formula_structural   Cs4Eu3PbI12
_chemical_formula_sum   'Cs4 Eu3 Pb1 I12'
_cell_volume   968.38039544
_cell_formula_units_Z   1
loop_
 _symmetry_equiv_pos_site_id
 _symmetry_equiv_pos_as_xyz
  1  'x, y, z'
loop_
 _atom_site_type_symbol
 _atom_site_label
 _atom_site_symmetry_multiplicity
 _atom_site_fract_x
 _atom_site_fract_y
 _atom_site_fract_z
 _atom_site_occupancy
  Cs  Cs0  1  0.750000  0.580475  0.172847  1
  Cs  Cs1  1  0.250000  0.418151  0.827779  1
  Cs  Cs2  1  0.750000  0.080421  0.326227  1
  Cs  Cs3  1  0.250000  0.921290  0.672953  1
  Eu  Eu4  1  0.250000  0.661972  0.441162  1
  Eu  Eu5  1  0.750000  0.338190  0.558795  1
  Eu  Eu6  1  0.250000  0.160100  0.058827  1
  Pb  Pb7  1  0.750000  0.836306  0.939849  1
  I  I8  1  0.750000  0.832699  0.502928  1
  I  I9  1  0.250000  0.167240  0.497631  1
  I  I10  1  0.750000  0.332891  0.997725  1
  I  I11  1  0.250000  0.665345  0.000240  1
  I  I12  1  0.250000  0.529459  0.605159  1
  I  I13  1  0.750000  0.470923  0.395624  1
  I  I14  1  0.250000  0.029534  0.893831  1
  I  I15  1  0.750000  0.973616  0.107442  1
  I  I16  1  0.250000  0.795929  0.287270  1
  I  I17  1  0.750000  0.204226  0.712971  1
  I  I18  1  0.250000  0.297357  0.213120  1
  I  I19  1  0.750000  0.703877  0.787621  1
