# generated using pymatgen
data_Pu5WF24
_symmetry_space_group_name_H-M   'P 1'
_cell_length_a   8.27393233
_cell_length_b   8.26507099
_cell_length_c   8.25022950
_cell_angle_alpha   63.12044112
_cell_angle_beta   63.33189205
_cell_angle_gamma   80.34858546
_symmetry_Int_Tables_number   1
_chemical_formula_structural   Pu5WF24
_chemical_formula_sum   'Pu5 W1 F24'
_cell_volume   449.25969119
_cell_formula_units_Z   1
loop_
 _symmetry_equiv_pos_site_id
 _symmetry_equiv_pos_as_xyz
  1  'x, y, z'
loop_
 _atom_site_type_symbol
 _atom_site_label
 _atom_site_symmetry_multiplicity
 _atom_site_fract_x
 _atom_site_fract_y
 _atom_site_fract_z
 _atom_site_occupancy
  Pu  Pu0  1  0.372837  0.219087  0.335938  1
  Pu  Pu1  1  0.227033  0.371373  0.832864  1
  Pu  Pu2  1  0.775489  0.632858  0.171523  1
  Pu  Pu3  1  0.790091  0.211057  0.749716  1
  Pu  Pu4  1  0.209976  0.786934  0.254643  1
  W  W5  1  0.637427  0.774024  0.667164  1
  F  F6  1  0.314721  0.253145  0.610350  1
  F  F7  1  0.679725  0.748677  0.413342  1
  F  F8  1  0.733423  0.689989  0.877474  1
  F  F9  1  0.256477  0.316566  0.108234  1
  F  F10  1  0.824948  0.933048  0.954233  1
  F  F11  1  0.176641  0.061905  0.039039  1
  F  F12  1  0.062479  0.172182  0.541191  1
  F  F13  1  0.912629  0.819151  0.479604  1
  F  F14  1  0.419109  0.621157  0.744728  1
  F  F15  1  0.604003  0.399834  0.247763  1
  F  F16  1  0.505452  0.977027  0.520478  1
  F  F17  1  0.992360  0.505128  0.992607  1
  F  F18  1  0.505415  0.259406  0.777672  1
  F  F19  1  0.497586  0.745226  0.215921  1
  F  F20  1  0.728680  0.517983  0.712631  1
  F  F21  1  0.261179  0.502699  0.280837  1
  F  F22  1  0.429820  0.811234  0.897170  1
  F  F23  1  0.598119  0.185715  0.070371  1
  F  F24  1  0.186200  0.599477  0.571798  1
  F  F25  1  0.813058  0.403574  0.430905  1
  F  F26  1  0.714632  0.008055  0.645920  1
  F  F27  1  0.271574  0.967103  0.359826  1
  F  F28  1  0.969720  0.279382  0.848953  1
  F  F29  1  0.029196  0.727003  0.147102  1
