# generated using pymatgen
data_Eu4Al3ZnAu4
_symmetry_space_group_name_H-M   'P 1'
_cell_length_a   4.67093500
_cell_length_b   7.43618895
_cell_length_c   7.88439615
_cell_angle_alpha   90.26542795
_cell_angle_beta   90.00000000
_cell_angle_gamma   90.00000000
_symmetry_Int_Tables_number   1
_chemical_formula_structural   Eu4Al3ZnAu4
_chemical_formula_sum   'Eu4 Al3 Zn1 Au4'
_cell_volume   273.85332429
_cell_formula_units_Z   1
loop_
 _symmetry_equiv_pos_site_id
 _symmetry_equiv_pos_as_xyz
  1  'x, y, z'
loop_
 _atom_site_type_symbol
 _atom_site_label
 _atom_site_symmetry_multiplicity
 _atom_site_fract_x
 _atom_site_fract_y
 _atom_site_fract_z
 _atom_site_occupancy
  Eu  Eu0  1  0.250000  0.012191  0.308214  1
  Eu  Eu1  1  0.250000  0.513793  0.186516  1
  Eu  Eu2  1  0.750000  0.988434  0.690691  1
  Eu  Eu3  1  0.750000  0.481609  0.815290  1
  Al  Al4  1  0.250000  0.665950  0.573268  1
  Al  Al5  1  0.750000  0.834560  0.073670  1
  Al  Al6  1  0.750000  0.341608  0.429135  1
  Zn  Zn7  1  0.250000  0.166911  0.922366  1
  Au  Au8  1  0.250000  0.301828  0.594150  1
  Au  Au9  1  0.250000  0.788390  0.895488  1
  Au  Au10  1  0.750000  0.704901  0.397261  1
  Au  Au11  1  0.750000  0.199825  0.113951  1
