# generated using pymatgen
data_YTm7(NiAg)2
_symmetry_space_group_name_H-M   'P 1'
_cell_length_a   9.33138316
_cell_length_b   9.33138376
_cell_length_c   9.32577900
_cell_angle_alpha   60.01987041
_cell_angle_beta   60.01986830
_cell_angle_gamma   59.96027024
_symmetry_Int_Tables_number   1
_chemical_formula_structural   YTm7(NiAg)2
_chemical_formula_sum   'Y2 Tm14 Ni4 Ag4'
_cell_volume   574.19831116
_cell_formula_units_Z   2
loop_
 _symmetry_equiv_pos_site_id
 _symmetry_equiv_pos_as_xyz
  1  'x, y, z'
loop_
 _atom_site_type_symbol
 _atom_site_label
 _atom_site_symmetry_multiplicity
 _atom_site_fract_x
 _atom_site_fract_y
 _atom_site_fract_z
 _atom_site_occupancy
  Y  Y0  1  0.814899  0.814899  0.185101  1
  Y  Y1  1  0.185101  0.185101  0.814899  1
  Tm  Tm2  1  0.600169  0.600169  0.601571  1
  Tm  Tm3  1  0.600169  0.600169  0.198091  1
  Tm  Tm4  1  0.601571  0.198091  0.600169  1
  Tm  Tm5  1  0.198091  0.601571  0.600169  1
  Tm  Tm6  1  0.061956  0.438044  0.438044  1
  Tm  Tm7  1  0.438044  0.061956  0.061956  1
  Tm  Tm8  1  0.438044  0.061956  0.438044  1
  Tm  Tm9  1  0.061956  0.438044  0.061956  1
  Tm  Tm10  1  0.438166  0.438166  0.061834  1
  Tm  Tm11  1  0.061834  0.061834  0.438166  1
  Tm  Tm12  1  0.187852  0.812148  0.812148  1
  Tm  Tm13  1  0.812148  0.187852  0.187852  1
  Tm  Tm14  1  0.812148  0.187852  0.812148  1
  Tm  Tm15  1  0.187852  0.812148  0.187852  1
  Ni  Ni16  1  0.393619  0.393619  0.392785  1
  Ni  Ni17  1  0.393619  0.393619  0.819977  1
  Ni  Ni18  1  0.392785  0.819977  0.393619  1
  Ni  Ni19  1  0.819977  0.392785  0.393619  1
  Ag  Ag20  1  0.832949  0.832949  0.830439  1
  Ag  Ag21  1  0.832949  0.832949  0.503662  1
  Ag  Ag22  1  0.830439  0.503662  0.832949  1
  Ag  Ag23  1  0.503662  0.830439  0.832949  1
