# generated using pymatgen
data_TbYb5(Y7Ir6)2
_symmetry_space_group_name_H-M   'P 1'
_cell_length_a   6.32696451
_cell_length_b   10.91991484
_cell_length_c   10.96426544
_cell_angle_alpha   89.86378852
_cell_angle_beta   90.12652821
_cell_angle_gamma   89.91321512
_symmetry_Int_Tables_number   1
_chemical_formula_structural   TbYb5(Y7Ir6)2
_chemical_formula_sum   'Tb1 Yb5 Y14 Ir12'
_cell_volume   757.51528888
_cell_formula_units_Z   1
loop_
 _symmetry_equiv_pos_site_id
 _symmetry_equiv_pos_as_xyz
  1  'x, y, z'
loop_
 _atom_site_type_symbol
 _atom_site_label
 _atom_site_symmetry_multiplicity
 _atom_site_fract_x
 _atom_site_fract_y
 _atom_site_fract_z
 _atom_site_occupancy
  Tb  Tb0  1  0.618296  0.458288  0.340835  1
  Yb  Yb1  1  0.121869  0.039609  0.340821  1
  Yb  Yb2  1  0.501316  0.747497  0.249788  1
  Yb  Yb3  1  0.001264  0.754769  0.249749  1
  Yb  Yb4  1  0.003341  0.248702  0.752350  1
  Yb  Yb5  1  0.503986  0.251521  0.752140  1
  Y  Y6  1  0.379646  0.840005  0.538822  1
  Y  Y7  1  0.879466  0.660822  0.539077  1
  Y  Y8  1  0.881253  0.840082  0.957786  1
  Y  Y9  1  0.382044  0.660395  0.958093  1
  Y  Y10  1  0.882938  0.540714  0.838181  1
  Y  Y11  1  0.382344  0.960945  0.837335  1
  Y  Y12  1  0.380402  0.539848  0.658814  1
  Y  Y13  1  0.879361  0.959927  0.659035  1
  Y  Y14  1  0.615826  0.159915  0.460044  1
  Y  Y15  1  0.117959  0.336564  0.460049  1
  Y  Y16  1  0.117859  0.158050  0.044368  1
  Y  Y17  1  0.618875  0.341588  0.043218  1
  Y  Y18  1  0.116031  0.460106  0.161468  1
  Y  Y19  1  0.615912  0.041075  0.161641  1
  Ir  Ir20  1  0.258503  0.901192  0.084988  1
  Ir  Ir21  1  0.754978  0.597770  0.089650  1
  Ir  Ir22  1  0.741913  0.906990  0.407228  1
  Ir  Ir23  1  0.246571  0.591518  0.405916  1
  Ir  Ir24  1  0.750228  0.094078  0.910144  1
  Ir  Ir25  1  0.249349  0.405695  0.909045  1
  Ir  Ir26  1  0.253768  0.092585  0.600360  1
  Ir  Ir27  1  0.751109  0.406305  0.592876  1
  Ir  Ir28  1  0.121333  0.750108  0.747790  1
  Ir  Ir29  1  0.620512  0.749738  0.747824  1
  Ir  Ir30  1  0.875333  0.251921  0.250101  1
  Ir  Ir31  1  0.376418  0.251677  0.250468  1
