# generated using pymatgen
data_La3Mg2CdSi2Au
_symmetry_space_group_name_H-M   'P 1'
_cell_length_a   7.62968200
_cell_length_b   7.55904910
_cell_length_c   4.45894800
_cell_angle_alpha   90.00000000
_cell_angle_beta   90.00000000
_cell_angle_gamma   120.30960401
_symmetry_Int_Tables_number   1
_chemical_formula_structural   La3Mg2CdSi2Au
_chemical_formula_sum   'La3 Mg2 Cd1 Si2 Au1'
_cell_volume   222.01037478
_cell_formula_units_Z   1
loop_
 _symmetry_equiv_pos_site_id
 _symmetry_equiv_pos_as_xyz
  1  'x, y, z'
loop_
 _atom_site_type_symbol
 _atom_site_label
 _atom_site_symmetry_multiplicity
 _atom_site_fract_x
 _atom_site_fract_y
 _atom_site_fract_z
 _atom_site_occupancy
  La  La0  1  0.581007  0.000000  0.000000  1
  La  La1  1  0.001626  0.584573  0.000000  1
  La  La2  1  0.417054  0.415427  0.000000  1
  Mg  Mg3  1  0.000388  0.240957  0.500000  1
  Mg  Mg4  1  0.759432  0.759043  0.500000  1
  Cd  Cd5  1  0.247462  0.000000  0.500000  1
  Si  Si6  1  0.333251  0.663696  0.500000  1
  Si  Si7  1  0.669556  0.336304  0.500000  1
  Au  Au8  1  0.990223  0.000000  0.000000  1
