# generated using pymatgen
data_Y7Sn22Os6Br
_symmetry_space_group_name_H-M   'P 1'
_cell_length_a   9.84839100
_cell_length_b   9.84839193
_cell_length_c   10.18787700
_cell_angle_alpha   90.00000000
_cell_angle_beta   90.00000000
_cell_angle_gamma   120.00000695
_symmetry_Int_Tables_number   1
_chemical_formula_structural   Y7Sn22Os6Br
_chemical_formula_sum   'Y7 Sn22 Os6 Br1'
_cell_volume   855.74604464
_cell_formula_units_Z   1
loop_
 _symmetry_equiv_pos_site_id
 _symmetry_equiv_pos_as_xyz
  1  'x, y, z'
loop_
 _atom_site_type_symbol
 _atom_site_label
 _atom_site_symmetry_multiplicity
 _atom_site_fract_x
 _atom_site_fract_y
 _atom_site_fract_z
 _atom_site_occupancy
  Y  Y0  1  0.000000  0.000000  0.000000  1
  Y  Y1  1  0.034850  0.517425  0.304142  1
  Y  Y2  1  0.482575  0.965150  0.304142  1
  Y  Y3  1  0.482575  0.517425  0.304142  1
  Y  Y4  1  0.965150  0.482575  0.695858  1
  Y  Y5  1  0.517425  0.034850  0.695858  1
  Y  Y6  1  0.517425  0.482575  0.695858  1
  Sn  Sn7  1  0.120166  0.879834  0.270359  1
  Sn  Sn8  1  0.759665  0.879834  0.270359  1
  Sn  Sn9  1  0.120166  0.240335  0.270359  1
  Sn  Sn10  1  0.879834  0.120166  0.729641  1
  Sn  Sn11  1  0.240335  0.120166  0.729641  1
  Sn  Sn12  1  0.879834  0.759665  0.729641  1
  Sn  Sn13  1  0.350914  0.000000  0.000000  1
  Sn  Sn14  1  0.649086  0.649086  0.000000  1
  Sn  Sn15  1  0.000000  0.350914  0.000000  1
  Sn  Sn16  1  0.350914  0.350914  0.000000  1
  Sn  Sn17  1  0.000000  0.649086  0.000000  1
  Sn  Sn18  1  0.649086  0.000000  0.000000  1
  Sn  Sn19  1  0.777973  0.555943  0.459169  1
  Sn  Sn20  1  0.777973  0.222027  0.459169  1
  Sn  Sn21  1  0.444057  0.222027  0.459169  1
  Sn  Sn22  1  0.222027  0.444057  0.540831  1
  Sn  Sn23  1  0.222027  0.777973  0.540831  1
  Sn  Sn24  1  0.555943  0.777973  0.540831  1
  Sn  Sn25  1  0.666667  0.333333  0.175124  1
  Sn  Sn26  1  0.333333  0.666667  0.824876  1
  Sn  Sn27  1  0.666667  0.333333  0.875648  1
  Sn  Sn28  1  0.333333  0.666667  0.124352  1
  Os  Os29  1  0.167934  0.832066  0.796894  1
  Os  Os30  1  0.664132  0.832066  0.796894  1
  Os  Os31  1  0.167934  0.335868  0.796894  1
  Os  Os32  1  0.832066  0.167934  0.203106  1
  Os  Os33  1  0.335868  0.167934  0.203106  1
  Os  Os34  1  0.832066  0.664132  0.203106  1
  Br  Br35  1  0.000000  0.000000  0.500000  1
