# generated using pymatgen
data_YLuB6Ir
_symmetry_space_group_name_H-M   'P 1'
_cell_length_a   3.61405900
_cell_length_b   9.12018400
_cell_length_c   11.48779800
_cell_angle_alpha   90.00000000
_cell_angle_beta   90.00000000
_cell_angle_gamma   90.00000000
_symmetry_Int_Tables_number   1
_chemical_formula_structural   YLuB6Ir
_chemical_formula_sum   'Y4 Lu4 B24 Ir4'
_cell_volume   378.64796657
_cell_formula_units_Z   4
loop_
 _symmetry_equiv_pos_site_id
 _symmetry_equiv_pos_as_xyz
  1  'x, y, z'
loop_
 _atom_site_type_symbol
 _atom_site_label
 _atom_site_symmetry_multiplicity
 _atom_site_fract_x
 _atom_site_fract_y
 _atom_site_fract_z
 _atom_site_occupancy
  Y  Y0  1  0.000000  0.320715  0.413573  1
  Y  Y1  1  0.000000  0.679285  0.586427  1
  Y  Y2  1  0.000000  0.820715  0.086427  1
  Y  Y3  1  0.000000  0.179285  0.913573  1
  Lu  Lu4  1  0.000000  0.944246  0.374129  1
  Lu  Lu5  1  0.000000  0.055754  0.625871  1
  Lu  Lu6  1  0.000000  0.444246  0.125871  1
  Lu  Lu7  1  0.000000  0.555754  0.874129  1
  B  B8  1  0.500000  0.554105  0.433818  1
  B  B9  1  0.500000  0.445895  0.566182  1
  B  B10  1  0.500000  0.054105  0.066182  1
  B  B11  1  0.500000  0.945895  0.933818  1
  B  B12  1  0.500000  0.751209  0.420144  1
  B  B13  1  0.500000  0.248791  0.579856  1
  B  B14  1  0.500000  0.251209  0.079856  1
  B  B15  1  0.500000  0.748791  0.920144  1
  B  B16  1  0.500000  0.793729  0.265212  1
  B  B17  1  0.500000  0.206271  0.734787  1
  B  B18  1  0.500000  0.293729  0.234788  1
  B  B19  1  0.500000  0.706271  0.765213  1
  B  B20  1  0.500000  0.630767  0.183454  1
  B  B21  1  0.500000  0.369233  0.816546  1
  B  B22  1  0.500000  0.130767  0.316546  1
  B  B23  1  0.500000  0.869233  0.683454  1
  B  B24  1  0.500000  0.981747  0.214094  1
  B  B25  1  0.500000  0.018253  0.785906  1
  B  B26  1  0.500000  0.481747  0.285906  1
  B  B27  1  0.500000  0.518253  0.714094  1
  B  B28  1  0.500000  0.605401  0.028715  1
  B  B29  1  0.500000  0.394599  0.971285  1
  B  B30  1  0.500000  0.105401  0.471285  1
  B  B31  1  0.500000  0.894599  0.528715  1
  Ir  Ir32  1  0.000000  0.639223  0.320131  1
  Ir  Ir33  1  0.000000  0.360777  0.679869  1
  Ir  Ir34  1  0.000000  0.139223  0.179869  1
  Ir  Ir35  1  0.000000  0.860777  0.820131  1
