# generated using pymatgen
data_Tb7YSi13Ge
_symmetry_space_group_name_H-M   'P 1'
_cell_length_a   7.33931952
_cell_length_b   7.33899270
_cell_length_c   11.41277100
_cell_angle_alpha   90.03316429
_cell_angle_beta   90.08731784
_cell_angle_gamma   134.29683546
_symmetry_Int_Tables_number   1
_chemical_formula_structural   Tb7YSi13Ge
_chemical_formula_sum   'Tb7 Y1 Si13 Ge1'
_cell_volume   439.97876885
_cell_formula_units_Z   1
loop_
 _symmetry_equiv_pos_site_id
 _symmetry_equiv_pos_as_xyz
  1  'x, y, z'
loop_
 _atom_site_type_symbol
 _atom_site_label
 _atom_site_symmetry_multiplicity
 _atom_site_fract_x
 _atom_site_fract_y
 _atom_site_fract_z
 _atom_site_occupancy
  Tb  Tb0  1  0.494128  0.986457  0.378791  1
  Tb  Tb1  1  0.987897  0.493651  0.620869  1
  Tb  Tb2  1  0.506387  0.011645  0.878928  1
  Tb  Tb3  1  0.013454  0.505930  0.121490  1
  Tb  Tb4  1  0.998398  0.003224  0.250137  1
  Tb  Tb5  1  0.002640  0.998304  0.749875  1
  Tb  Tb6  1  0.496363  0.495817  0.497425  1
  Y  Y7  1  0.504168  0.503672  0.002330  1
  Si  Si8  1  0.918411  0.092119  0.993522  1
  Si  Si9  1  0.091018  0.917406  0.006219  1
  Si  Si10  1  0.082981  0.909586  0.493528  1
  Si  Si11  1  0.908017  0.081860  0.506722  1
  Si  Si12  1  0.577432  0.913375  0.129638  1
  Si  Si13  1  0.916454  0.576381  0.871457  1
  Si  Si14  1  0.423793  0.082574  0.628016  1
  Si  Si15  1  0.085825  0.422875  0.370984  1
  Si  Si16  1  0.449887  0.136655  0.145823  1
  Si  Si17  1  0.141604  0.451120  0.853573  1
  Si  Si18  1  0.547994  0.856631  0.646323  1
  Si  Si19  1  0.862317  0.549725  0.354389  1
  Si  Si20  1  0.436357  0.564346  0.250425  1
  Ge  Ge21  1  0.554474  0.446648  0.749536  1
