# generated using pymatgen
data_Yb2ErThPt4
_symmetry_space_group_name_H-M   'P 1'
_cell_length_a   4.49093100
_cell_length_b   5.66065769
_cell_length_c   7.20287400
_cell_angle_alpha   91.14266984
_cell_angle_beta   90.00000000
_cell_angle_gamma   90.00000000
_symmetry_Int_Tables_number   1
_chemical_formula_structural   Yb2ErThPt4
_chemical_formula_sum   'Yb2 Er1 Th1 Pt4'
_cell_volume   183.07233469
_cell_formula_units_Z   1
loop_
 _symmetry_equiv_pos_site_id
 _symmetry_equiv_pos_as_xyz
  1  'x, y, z'
loop_
 _atom_site_type_symbol
 _atom_site_label
 _atom_site_symmetry_multiplicity
 _atom_site_fract_x
 _atom_site_fract_y
 _atom_site_fract_z
 _atom_site_occupancy
  Yb  Yb0  1  0.250000  0.141374  0.180612  1
  Yb  Yb1  1  0.750000  0.858094  0.822941  1
  Er  Er2  1  0.750000  0.641083  0.314487  1
  Th  Th3  1  0.250000  0.359430  0.682607  1
  Pt  Pt4  1  0.250000  0.835296  0.534431  1
  Pt  Pt5  1  0.250000  0.646847  0.054739  1
  Pt  Pt6  1  0.750000  0.163228  0.459296  1
  Pt  Pt7  1  0.750000  0.354648  0.950887  1
