# generated using pymatgen
data_Ce12TaSi5Ru6
_symmetry_space_group_name_H-M   'P 1'
_cell_length_a   7.61219800
_cell_length_b   7.61219677
_cell_length_c   9.91274300
_cell_angle_alpha   90.00000000
_cell_angle_beta   90.00000000
_cell_angle_gamma   119.99999667
_symmetry_Int_Tables_number   1
_chemical_formula_structural   Ce12TaSi5Ru6
_chemical_formula_sum   'Ce12 Ta1 Si5 Ru6'
_cell_volume   497.44443296
_cell_formula_units_Z   1
loop_
 _symmetry_equiv_pos_site_id
 _symmetry_equiv_pos_as_xyz
  1  'x, y, z'
loop_
 _atom_site_type_symbol
 _atom_site_label
 _atom_site_symmetry_multiplicity
 _atom_site_fract_x
 _atom_site_fract_y
 _atom_site_fract_z
 _atom_site_occupancy
  Ce  Ce0  1  0.000000  0.593871  0.500811  1
  Ce  Ce1  1  0.593871  0.000000  0.500811  1
  Ce  Ce2  1  0.406129  0.406129  0.500811  1
  Ce  Ce3  1  0.000000  0.413264  0.006850  1
  Ce  Ce4  1  0.413264  0.000000  0.006850  1
  Ce  Ce5  1  0.586736  0.586736  0.006850  1
  Ce  Ce6  1  0.000000  0.738255  0.175641  1
  Ce  Ce7  1  0.738255  0.000000  0.175641  1
  Ce  Ce8  1  0.261745  0.261745  0.175641  1
  Ce  Ce9  1  0.000000  0.262047  0.667068  1
  Ce  Ce10  1  0.262047  0.000000  0.667068  1
  Ce  Ce11  1  0.737953  0.737953  0.667068  1
  Ta  Ta12  1  0.000000  0.000000  0.924821  1
  Si  Si13  1  0.666667  0.333333  0.276695  1
  Si  Si14  1  0.333333  0.666667  0.276695  1
  Si  Si15  1  0.333333  0.666667  0.773305  1
  Si  Si16  1  0.666667  0.333333  0.773305  1
  Si  Si17  1  0.000000  0.000000  0.419045  1
  Ru  Ru18  1  0.000000  0.338462  0.339677  1
  Ru  Ru19  1  0.338462  0.000000  0.339677  1
  Ru  Ru20  1  0.661538  0.661538  0.339677  1
  Ru  Ru21  1  0.000000  0.661458  0.838416  1
  Ru  Ru22  1  0.661458  0.000000  0.838416  1
  Ru  Ru23  1  0.338542  0.338542  0.838416  1
