# generated using pymatgen
data_Ba3SmInO6
_symmetry_space_group_name_H-M   'P 1'
_cell_length_a   7.34855984
_cell_length_b   7.34855942
_cell_length_c   7.34856107
_cell_angle_alpha   92.62396450
_cell_angle_beta   92.62395609
_cell_angle_gamma   92.62397105
_symmetry_Int_Tables_number   1
_chemical_formula_structural   Ba3SmInO6
_chemical_formula_sum   'Ba6 Sm2 In2 O12'
_cell_volume   395.54432613
_cell_formula_units_Z   2
loop_
 _symmetry_equiv_pos_site_id
 _symmetry_equiv_pos_as_xyz
  1  'x, y, z'
loop_
 _atom_site_type_symbol
 _atom_site_label
 _atom_site_symmetry_multiplicity
 _atom_site_fract_x
 _atom_site_fract_y
 _atom_site_fract_z
 _atom_site_occupancy
  Ba  Ba0  1  0.250000  0.888401  0.611599  1
  Ba  Ba1  1  0.888401  0.611599  0.250000  1
  Ba  Ba2  1  0.750000  0.111599  0.388401  1
  Ba  Ba3  1  0.388401  0.750000  0.111599  1
  Ba  Ba4  1  0.111599  0.388401  0.750000  1
  Ba  Ba5  1  0.611599  0.250000  0.888401  1
  Sm  Sm6  1  0.750000  0.750000  0.750000  1
  Sm  Sm7  1  0.250000  0.250000  0.250000  1
  In  In8  1  0.500000  0.500000  0.500000  1
  In  In9  1  0.000000  0.000000  0.000000  1
  O  O10  1  0.595828  0.789857  0.463404  1
  O  O11  1  0.463404  0.595828  0.789857  1
  O  O12  1  0.789857  0.463404  0.595828  1
  O  O13  1  0.904172  0.036596  0.710143  1
  O  O14  1  0.710143  0.904172  0.036596  1
  O  O15  1  0.036596  0.710143  0.904172  1
  O  O16  1  0.404172  0.210143  0.536596  1
  O  O17  1  0.536596  0.404172  0.210143  1
  O  O18  1  0.210143  0.536596  0.404172  1
  O  O19  1  0.095828  0.963404  0.289857  1
  O  O20  1  0.963404  0.289857  0.095828  1
  O  O21  1  0.289857  0.095828  0.963404  1
