# generated using pymatgen
data_UPaBr8
_symmetry_space_group_name_H-M   'P 1'
_cell_length_a   7.21133767
_cell_length_b   7.21133702
_cell_length_c   7.69032196
_cell_angle_alpha   86.97184698
_cell_angle_beta   86.97184414
_cell_angle_gamma   76.38426239
_symmetry_Int_Tables_number   1
_chemical_formula_structural   UPaBr8
_chemical_formula_sum   'U1 Pa1 Br8'
_cell_volume   387.80451607
_cell_formula_units_Z   1
loop_
 _symmetry_equiv_pos_site_id
 _symmetry_equiv_pos_as_xyz
  1  'x, y, z'
loop_
 _atom_site_type_symbol
 _atom_site_label
 _atom_site_symmetry_multiplicity
 _atom_site_fract_x
 _atom_site_fract_y
 _atom_site_fract_z
 _atom_site_occupancy
  U  U0  1  0.195601  0.195601  0.557908  1
  Pa  Pa1  1  0.805705  0.805705  0.443189  1
  Br  Br2  1  0.168585  0.552492  0.347676  1
  Br  Br3  1  0.453987  0.829413  0.650533  1
  Br  Br4  1  0.948017  0.948017  0.733020  1
  Br  Br5  1  0.045411  0.045411  0.265502  1
  Br  Br6  1  0.322552  0.322552  0.840012  1
  Br  Br7  1  0.678235  0.678235  0.163948  1
  Br  Br8  1  0.552492  0.168585  0.347676  1
  Br  Br9  1  0.829413  0.453987  0.650533  1
