# generated using pymatgen
data_La5Tl2Ru3
_symmetry_space_group_name_H-M   'P 1'
_cell_length_a   8.83044791
_cell_length_b   8.83044675
_cell_length_c   8.83044800
_cell_angle_alpha   109.47122579
_cell_angle_beta   109.47122314
_cell_angle_gamma   109.47122078
_symmetry_Int_Tables_number   1
_chemical_formula_structural   La5Tl2Ru3
_chemical_formula_sum   'La10 Tl4 Ru6'
_cell_volume   530.06144228
_cell_formula_units_Z   2
loop_
 _symmetry_equiv_pos_site_id
 _symmetry_equiv_pos_as_xyz
  1  'x, y, z'
loop_
 _atom_site_type_symbol
 _atom_site_label
 _atom_site_symmetry_multiplicity
 _atom_site_fract_x
 _atom_site_fract_y
 _atom_site_fract_z
 _atom_site_occupancy
  La  La0  1  0.250000  0.686827  0.436828  1
  La  La1  1  0.750000  0.813173  0.063173  1
  La  La2  1  0.436828  0.250000  0.686827  1
  La  La3  1  0.686827  0.436828  0.250000  1
  La  La4  1  0.063173  0.750000  0.813173  1
  La  La5  1  0.813173  0.063173  0.750000  1
  La  La6  1  0.206973  0.206973  0.206973  1
  La  La7  1  0.500001  0.000000  0.293027  1
  La  La8  1  0.293027  0.500001  0.000000  1
  La  La9  1  0.000000  0.293027  0.500001  1
  Tl  Tl10  1  0.500001  0.000000  0.908973  1
  Tl  Tl11  1  0.591027  0.591027  0.591027  1
  Tl  Tl12  1  0.908973  0.500001  0.000000  1
  Tl  Tl13  1  0.000000  0.908973  0.500001  1
  Ru  Ru14  1  0.250001  0.141282  0.891282  1
  Ru  Ru15  1  0.750000  0.358717  0.608717  1
  Ru  Ru16  1  0.891282  0.250001  0.141282  1
  Ru  Ru17  1  0.141282  0.891282  0.250001  1
  Ru  Ru18  1  0.608717  0.750000  0.358717  1
  Ru  Ru19  1  0.358717  0.608717  0.750000  1
