# generated using pymatgen
data_Sm2Zn14Ru3
_symmetry_space_group_name_H-M   'P 1'
_cell_length_a   6.84534299
_cell_length_b   6.84534128
_cell_length_c   6.84534146
_cell_angle_alpha   82.17205310
_cell_angle_beta   97.82794817
_cell_angle_gamma   97.82794980
_symmetry_Int_Tables_number   1
_chemical_formula_structural   Sm2Zn14Ru3
_chemical_formula_sum   'Sm2 Zn14 Ru3'
_cell_volume   312.54363127
_cell_formula_units_Z   1
loop_
 _symmetry_equiv_pos_site_id
 _symmetry_equiv_pos_as_xyz
  1  'x, y, z'
loop_
 _atom_site_type_symbol
 _atom_site_label
 _atom_site_symmetry_multiplicity
 _atom_site_fract_x
 _atom_site_fract_y
 _atom_site_fract_z
 _atom_site_occupancy
  Sm  Sm0  1  0.672533  0.327468  0.327466  1
  Sm  Sm1  1  0.327466  0.672534  0.672533  1
  Zn  Zn2  1  0.291486  0.291485  0.000000  1
  Zn  Zn3  1  0.708515  0.708514  0.000001  1
  Zn  Zn4  1  0.897296  0.102705  0.102703  1
  Zn  Zn5  1  0.348971  0.651028  0.157797  1
  Zn  Zn6  1  0.000001  0.708515  0.291485  1
  Zn  Zn7  1  0.291485  0.000000  0.291485  1
  Zn  Zn8  1  0.651028  0.842202  0.348971  1
  Zn  Zn9  1  0.157797  0.348971  0.348971  1
  Zn  Zn10  1  0.348971  0.157797  0.651028  1
  Zn  Zn11  1  0.842203  0.651028  0.651029  1
  Zn  Zn12  1  0.708515  0.000000  0.708515  1
  Zn  Zn13  1  0.000001  0.291485  0.708515  1
  Zn  Zn14  1  0.651029  0.348971  0.842203  1
  Zn  Zn15  1  0.102704  0.897296  0.897295  1
  Ru  Ru16  1  0.000000  0.500000  0.999999  1
  Ru  Ru17  1  0.500000  0.999999  0.000000  1
  Ru  Ru18  1  0.000000  0.000000  0.499999  1
