# generated using pymatgen
data_Na2Hf3(Ga2I9)2
_symmetry_space_group_name_H-M   'P 1'
_cell_length_a   7.92423286
_cell_length_b   8.55879998
_cell_length_c   19.48170219
_cell_angle_alpha   93.70597888
_cell_angle_beta   90.09093811
_cell_angle_gamma   117.70636712
_symmetry_Int_Tables_number   1
_chemical_formula_structural   Na2Hf3(Ga2I9)2
_chemical_formula_sum   'Na2 Hf3 Ga4 I18'
_cell_volume   1166.59544982
_cell_formula_units_Z   1
loop_
 _symmetry_equiv_pos_site_id
 _symmetry_equiv_pos_as_xyz
  1  'x, y, z'
loop_
 _atom_site_type_symbol
 _atom_site_label
 _atom_site_symmetry_multiplicity
 _atom_site_fract_x
 _atom_site_fract_y
 _atom_site_fract_z
 _atom_site_occupancy
  Na  Na0  1  0.236457  0.472559  0.440047  1
  Na  Na1  1  0.565226  0.137154  0.105550  1
  Hf  Hf2  1  0.007566  0.996850  0.000784  1
  Hf  Hf3  1  0.328312  0.668187  0.666403  1
  Hf  Hf4  1  0.665375  0.330872  0.332982  1
  Ga  Ga5  1  0.667612  0.319555  0.840084  1
  Ga  Ga6  1  0.766377  0.530617  0.556051  1
  Ga  Ga7  1  0.908014  0.810441  0.775514  1
  Ga  Ga8  1  0.098939  0.198776  0.224937  1
  I  I9  1  0.625329  0.975646  0.740092  1
  I  I10  1  0.810999  0.206716  0.970498  1
  I  I11  1  0.213893  0.120877  0.877169  1
  I  I12  1  0.120833  0.569264  0.789372  1
  I  I13  1  0.525782  0.469188  0.699720  1
  I  I14  1  0.953199  0.640147  0.409883  1
  I  I15  1  0.714229  0.701870  0.920664  1
  I  I16  1  0.139893  0.865957  0.631937  1
  I  I17  1  0.552241  0.772487  0.545300  1
  I  I18  1  0.446656  0.222514  0.454265  1
  I  I19  1  0.860102  0.135314  0.366924  1
  I  I20  1  0.287958  0.309606  0.077496  1
  I  I21  1  0.045019  0.359022  0.591011  1
  I  I22  1  0.472492  0.531052  0.300770  1
  I  I23  1  0.884352  0.440843  0.212164  1
  I  I24  1  0.780709  0.891860  0.119792  1
  I  I25  1  0.196484  0.804312  0.030205  1
  I  I26  1  0.379286  0.024985  0.257049  1
