# generated using pymatgen
data_Er3Tm7TlSn5
_symmetry_space_group_name_H-M   'P 1'
_cell_length_a   6.49144500
_cell_length_b   8.86256936
_cell_length_c   8.86108200
_cell_angle_alpha   120.00554909
_cell_angle_beta   89.99977051
_cell_angle_gamma   90.00047033
_symmetry_Int_Tables_number   1
_chemical_formula_structural   Er3Tm7TlSn5
_chemical_formula_sum   'Er3 Tm7 Tl1 Sn5'
_cell_volume   441.46281581
_cell_formula_units_Z   1
loop_
 _symmetry_equiv_pos_site_id
 _symmetry_equiv_pos_as_xyz
  1  'x, y, z'
loop_
 _atom_site_type_symbol
 _atom_site_label
 _atom_site_symmetry_multiplicity
 _atom_site_fract_x
 _atom_site_fract_y
 _atom_site_fract_z
 _atom_site_occupancy
  Er  Er0  1  0.250015  0.762114  0.000000  1
  Er  Er1  1  0.249999  0.238747  0.238382  1
  Er  Er2  1  0.249999  0.000365  0.761618  1
  Tm  Tm3  1  0.501023  0.333933  0.667270  1
  Tm  Tm4  1  0.501023  0.666662  0.332730  1
  Tm  Tm5  1  0.998974  0.666671  0.332726  1
  Tm  Tm6  1  0.998974  0.333946  0.667274  1
  Tm  Tm7  1  0.749998  0.238559  0.000000  1
  Tm  Tm8  1  0.749998  0.761067  0.762900  1
  Tm  Tm9  1  0.749998  0.998167  0.237100  1
  Tl  Tl10  1  0.750012  0.604115  0.000000  1
  Sn  Sn11  1  0.749990  0.394592  0.394640  1
  Sn  Sn12  1  0.749990  0.999952  0.605360  1
  Sn  Sn13  1  0.249996  0.395290  0.000000  1
  Sn  Sn14  1  0.250006  0.604603  0.603388  1
  Sn  Sn15  1  0.250006  0.001215  0.396612  1
