# generated using pymatgen
data_Nd9Ho(IrPt)3
_symmetry_space_group_name_H-M   'P 1'
_cell_length_a   11.38400030
_cell_length_b   11.37920400
_cell_length_c   6.48810302
_cell_angle_alpha   90.00000000
_cell_angle_beta   90.08190822
_cell_angle_gamma   90.00000000
_symmetry_Int_Tables_number   1
_chemical_formula_structural   Nd9Ho(IrPt)3
_chemical_formula_sum   'Nd18 Ho2 Ir6 Pt6'
_cell_volume   840.47359743
_cell_formula_units_Z   2
loop_
 _symmetry_equiv_pos_site_id
 _symmetry_equiv_pos_as_xyz
  1  'x, y, z'
loop_
 _atom_site_type_symbol
 _atom_site_label
 _atom_site_symmetry_multiplicity
 _atom_site_fract_x
 _atom_site_fract_y
 _atom_site_fract_z
 _atom_site_occupancy
  Nd  Nd0  1  0.295116  0.091435  0.373600  1
  Nd  Nd1  1  0.295116  0.908565  0.873600  1
  Nd  Nd2  1  0.704553  0.088115  0.872937  1
  Nd  Nd3  1  0.704553  0.911885  0.372937  1
  Nd  Nd4  1  0.584671  0.790026  0.874127  1
  Nd  Nd5  1  0.584671  0.209974  0.374127  1
  Nd  Nd6  1  0.410098  0.790916  0.379674  1
  Nd  Nd7  1  0.410098  0.209084  0.879674  1
  Nd  Nd8  1  0.211699  0.413460  0.621876  1
  Nd  Nd9  1  0.211699  0.586540  0.121876  1
  Nd  Nd10  1  0.792986  0.411685  0.124239  1
  Nd  Nd11  1  0.792986  0.588315  0.624239  1
  Nd  Nd12  1  0.912910  0.705019  0.126452  1
  Nd  Nd13  1  0.912910  0.294981  0.626452  1
  Nd  Nd14  1  0.092536  0.704525  0.627074  1
  Nd  Nd15  1  0.092536  0.295475  0.127074  1
  Nd  Nd16  1  0.999866  0.999288  0.499932  1
  Nd  Nd17  1  0.999866  0.000712  0.999932  1
  Ho  Ho18  1  0.496793  0.499052  0.000090  1
  Ho  Ho19  1  0.496793  0.500948  0.500090  1
  Ir  Ir20  1  0.351280  0.350703  0.249895  1
  Ir  Ir21  1  0.351280  0.649297  0.749895  1
  Ir  Ir22  1  0.500255  0.999395  0.117896  1
  Ir  Ir23  1  0.500255  0.000605  0.617896  1
  Ir  Ir24  1  0.999178  0.500101  0.882145  1
  Ir  Ir25  1  0.999178  0.499899  0.382145  1
  Pt  Pt26  1  0.844993  0.154235  0.250291  1
  Pt  Pt27  1  0.844993  0.845765  0.750291  1
  Pt  Pt28  1  0.153583  0.154302  0.749609  1
  Pt  Pt29  1  0.153583  0.845698  0.249609  1
  Pt  Pt30  1  0.649484  0.350950  0.750162  1
  Pt  Pt31  1  0.649484  0.649050  0.250162  1
