# generated using pymatgen
data_Li4Ac3Si3Hg
_symmetry_space_group_name_H-M   'P 1'
_cell_length_a   4.66880137
_cell_length_b   7.21492031
_cell_length_c   8.78002753
_cell_angle_alpha   114.25956819
_cell_angle_beta   105.41902272
_cell_angle_gamma   90.00001126
_symmetry_Int_Tables_number   1
_chemical_formula_structural   Li4Ac3Si3Hg
_chemical_formula_sum   'Li4 Ac3 Si3 Hg1'
_cell_volume   257.91756623
_cell_formula_units_Z   1
loop_
 _symmetry_equiv_pos_site_id
 _symmetry_equiv_pos_as_xyz
  1  'x, y, z'
loop_
 _atom_site_type_symbol
 _atom_site_label
 _atom_site_symmetry_multiplicity
 _atom_site_fract_x
 _atom_site_fract_y
 _atom_site_fract_z
 _atom_site_occupancy
  Li  Li0  1  0.669571  0.964527  0.339138  1
  Li  Li1  1  0.332928  0.010339  0.665858  1
  Li  Li2  1  0.332928  0.655518  0.665858  1
  Li  Li3  1  0.669571  0.374611  0.339138  1
  Ac  Ac4  1  0.995325  0.995325  0.990650  1
  Ac  Ac5  1  0.130883  0.630883  0.261767  1
  Ac  Ac6  1  0.872569  0.372569  0.745137  1
  Si  Si7  1  0.499357  0.669948  0.998716  1
  Si  Si8  1  0.499357  0.328769  0.998716  1
  Si  Si9  1  0.786325  0.786325  0.572648  1
  Hg  Hg10  1  0.211186  0.211186  0.422373  1
