# generated using pymatgen
data_Ho16Ni4Ag3Hg
_symmetry_space_group_name_H-M   'P 1'
_cell_length_a   9.40014246
_cell_length_b   9.41765992
_cell_length_c   9.41766100
_cell_angle_alpha   59.99999973
_cell_angle_beta   59.93833541
_cell_angle_gamma   59.93834022
_symmetry_Int_Tables_number   1
_chemical_formula_structural   Ho16Ni4Ag3Hg
_chemical_formula_sum   'Ho16 Ni4 Ag3 Hg1'
_cell_volume   588.97938162
_cell_formula_units_Z   1
loop_
 _symmetry_equiv_pos_site_id
 _symmetry_equiv_pos_as_xyz
  1  'x, y, z'
loop_
 _atom_site_type_symbol
 _atom_site_label
 _atom_site_symmetry_multiplicity
 _atom_site_fract_x
 _atom_site_fract_y
 _atom_site_fract_z
 _atom_site_occupancy
  Ho  Ho0  1  0.350463  0.349860  0.349860  1
  Ho  Ho1  1  0.350463  0.349860  0.949815  1
  Ho  Ho2  1  0.350463  0.949815  0.349860  1
  Ho  Ho3  1  0.948674  0.350442  0.350442  1
  Ho  Ho4  1  0.811318  0.188527  0.188527  1
  Ho  Ho5  1  0.188575  0.811153  0.811153  1
  Ho  Ho6  1  0.188575  0.811153  0.189119  1
  Ho  Ho7  1  0.811318  0.188527  0.811628  1
  Ho  Ho8  1  0.188575  0.189119  0.811153  1
  Ho  Ho9  1  0.811318  0.811628  0.188527  1
  Ho  Ho10  1  0.933674  0.564660  0.564660  1
  Ho  Ho11  1  0.565157  0.935249  0.935249  1
  Ho  Ho12  1  0.565157  0.935249  0.564346  1
  Ho  Ho13  1  0.933674  0.564660  0.937005  1
  Ho  Ho14  1  0.565157  0.564346  0.935249  1
  Ho  Ho15  1  0.933674  0.937005  0.564660  1
  Ni  Ni16  1  0.142308  0.142922  0.142922  1
  Ni  Ni17  1  0.142308  0.142922  0.571848  1
  Ni  Ni18  1  0.142308  0.571848  0.142922  1
  Ni  Ni19  1  0.572466  0.142511  0.142511  1
  Ag  Ag20  1  0.583901  0.582110  0.582110  1
  Ag  Ag21  1  0.583901  0.582110  0.251878  1
  Ag  Ag22  1  0.583901  0.251878  0.582110  1
  Hg  Hg23  1  0.252676  0.582442  0.582442  1
