# generated using pymatgen
data_CrSi(BMo2)2
_symmetry_space_group_name_H-M   'P 1'
_cell_length_a   6.94290742
_cell_length_b   6.94290775
_cell_length_c   6.94290765
_cell_angle_alpha   129.34000401
_cell_angle_beta   129.34000645
_cell_angle_gamma   74.46410512
_symmetry_Int_Tables_number   1
_chemical_formula_structural   CrSi(BMo2)2
_chemical_formula_sum   'Cr2 Si2 B4 Mo8'
_cell_volume   195.09516483
_cell_formula_units_Z   2
loop_
 _symmetry_equiv_pos_site_id
 _symmetry_equiv_pos_as_xyz
  1  'x, y, z'
loop_
 _atom_site_type_symbol
 _atom_site_label
 _atom_site_symmetry_multiplicity
 _atom_site_fract_x
 _atom_site_fract_y
 _atom_site_fract_z
 _atom_site_occupancy
  Cr  Cr0  1  0.000000  0.000000  0.000000  1
  Cr  Cr1  1  0.500000  0.500000  0.000000  1
  Si  Si2  1  0.750000  0.750000  0.000000  1
  Si  Si3  1  0.250000  0.250000  0.000000  1
  B  B4  1  0.376137  0.876137  0.252275  1
  B  B5  1  0.876137  0.623863  0.500000  1
  B  B6  1  0.623863  0.123863  0.747725  1
  B  B7  1  0.123863  0.376137  0.500000  1
  Mo  Mo8  1  0.804800  0.969400  0.500000  1
  Mo  Mo9  1  0.304800  0.804800  0.835400  1
  Mo  Mo10  1  0.195200  0.030600  0.500000  1
  Mo  Mo11  1  0.530600  0.695200  0.500000  1
  Mo  Mo12  1  0.030600  0.530600  0.835400  1
  Mo  Mo13  1  0.695200  0.195200  0.164600  1
  Mo  Mo14  1  0.969400  0.469400  0.164600  1
  Mo  Mo15  1  0.469400  0.304800  0.500000  1
