# generated using pymatgen
data_Ba3Na2Sr(GaP3)2
_symmetry_space_group_name_H-M   'P 1'
_cell_length_a   8.33462777
_cell_length_b   8.33462804
_cell_length_c   12.04097316
_cell_angle_alpha   76.54004813
_cell_angle_beta   76.54004683
_cell_angle_gamma   67.77128263
_symmetry_Int_Tables_number   1
_chemical_formula_structural   Ba3Na2Sr(GaP3)2
_chemical_formula_sum   'Ba6 Na4 Sr2 Ga4 P12'
_cell_volume   743.21634125
_cell_formula_units_Z   2
loop_
 _symmetry_equiv_pos_site_id
 _symmetry_equiv_pos_as_xyz
  1  'x, y, z'
loop_
 _atom_site_type_symbol
 _atom_site_label
 _atom_site_symmetry_multiplicity
 _atom_site_fract_x
 _atom_site_fract_y
 _atom_site_fract_z
 _atom_site_occupancy
  Ba  Ba0  1  0.742547  0.194133  0.689020  1
  Ba  Ba1  1  0.257453  0.805867  0.310980  1
  Ba  Ba2  1  0.194133  0.742547  0.689020  1
  Ba  Ba3  1  0.500000  0.000000  0.500000  1
  Ba  Ba4  1  0.805867  0.257453  0.310980  1
  Ba  Ba5  1  0.000000  0.500000  0.500000  1
  Na  Na6  1  0.295474  0.704526  0.000000  1
  Na  Na7  1  0.357052  0.357052  0.224785  1
  Na  Na8  1  0.642948  0.642948  0.775215  1
  Na  Na9  1  0.704526  0.295474  0.000000  1
  Sr  Sr10  1  0.000000  0.500000  0.000000  1
  Sr  Sr11  1  0.500000  0.000000  0.000000  1
  Ga  Ga12  1  0.697038  0.697038  0.259754  1
  Ga  Ga13  1  0.090389  0.090389  0.883701  1
  Ga  Ga14  1  0.909611  0.909611  0.116299  1
  Ga  Ga15  1  0.302962  0.302962  0.740246  1
  P  P16  1  0.016852  0.613016  0.223249  1
  P  P17  1  0.592650  0.592650  0.127619  1
  P  P18  1  0.983148  0.386984  0.776751  1
  P  P19  1  0.083171  0.083171  0.489725  1
  P  P20  1  0.583357  0.583357  0.486259  1
  P  P21  1  0.910307  0.910307  0.911776  1
  P  P22  1  0.089693  0.089693  0.088224  1
  P  P23  1  0.407350  0.407350  0.872381  1
  P  P24  1  0.613016  0.016852  0.223249  1
  P  P25  1  0.916829  0.916829  0.510275  1
  P  P26  1  0.386984  0.983148  0.776751  1
  P  P27  1  0.416643  0.416643  0.513741  1
