# generated using pymatgen
data_Dy18YLuSn16
_symmetry_space_group_name_H-M   'P 1'
_cell_length_a   8.03485200
_cell_length_b   8.17159309
_cell_length_c   15.48037300
_cell_angle_alpha   90.00000000
_cell_angle_beta   90.00000000
_cell_angle_gamma   89.94423498
_symmetry_Int_Tables_number   1
_chemical_formula_structural   Dy18YLuSn16
_chemical_formula_sum   'Dy18 Y1 Lu1 Sn16'
_cell_volume   1016.40274521
_cell_formula_units_Z   1
loop_
 _symmetry_equiv_pos_site_id
 _symmetry_equiv_pos_as_xyz
  1  'x, y, z'
loop_
 _atom_site_type_symbol
 _atom_site_label
 _atom_site_symmetry_multiplicity
 _atom_site_fract_x
 _atom_site_fract_y
 _atom_site_fract_z
 _atom_site_occupancy
  Dy  Dy0  1  0.367499  0.836824  0.877640  1
  Dy  Dy1  1  0.868199  0.662595  0.622288  1
  Dy  Dy2  1  0.632112  0.163045  0.377911  1
  Dy  Dy3  1  0.132159  0.337047  0.121574  1
  Dy  Dy4  1  0.632112  0.163045  0.122089  1
  Dy  Dy5  1  0.132159  0.337047  0.378426  1
  Dy  Dy6  1  0.367499  0.836824  0.622360  1
  Dy  Dy7  1  0.868199  0.662595  0.877712  1
  Dy  Dy8  1  0.520710  0.321099  0.902420  1
  Dy  Dy9  1  0.021245  0.179614  0.597632  1
  Dy  Dy10  1  0.479309  0.679349  0.402876  1
  Dy  Dy11  1  0.979221  0.820637  0.097443  1
  Dy  Dy12  1  0.479309  0.679349  0.097124  1
  Dy  Dy13  1  0.979221  0.820637  0.402557  1
  Dy  Dy14  1  0.520710  0.321099  0.597580  1
  Dy  Dy15  1  0.021245  0.179614  0.902368  1
  Dy  Dy16  1  0.800930  0.496881  0.250000  1
  Dy  Dy17  1  0.300957  0.002959  0.250000  1
  Y  Y18  1  0.698683  0.997404  0.750000  1
  Lu  Lu19  1  0.199053  0.503372  0.750000  1
  Sn  Sn20  1  0.292459  0.035962  0.041432  1
  Sn  Sn21  1  0.792313  0.463734  0.458488  1
  Sn  Sn22  1  0.707772  0.964047  0.541872  1
  Sn  Sn23  1  0.207728  0.535748  0.957131  1
  Sn  Sn24  1  0.707772  0.964047  0.958128  1
  Sn  Sn25  1  0.207728  0.535748  0.542869  1
  Sn  Sn26  1  0.292459  0.035962  0.458568  1
  Sn  Sn27  1  0.792313  0.463734  0.041512  1
  Sn  Sn28  1  0.563661  0.617539  0.750000  1
  Sn  Sn29  1  0.065831  0.880489  0.750000  1
  Sn  Sn30  1  0.433770  0.381236  0.250000  1
  Sn  Sn31  1  0.934352  0.118829  0.250000  1
  Sn  Sn32  1  0.329585  0.149988  0.750000  1
  Sn  Sn33  1  0.831042  0.352738  0.750000  1
  Sn  Sn34  1  0.670184  0.851958  0.250000  1
  Sn  Sn35  1  0.170498  0.647211  0.250000  1
