# generated using pymatgen
data_Ba8Sn19Bi5
_symmetry_space_group_name_H-M   'P 1'
_cell_length_a   7.35415810
_cell_length_b   7.35415579
_cell_length_c   22.75817204
_cell_angle_alpha   89.63138546
_cell_angle_beta   90.36861497
_cell_angle_gamma   119.79438122
_symmetry_Int_Tables_number   1
_chemical_formula_structural   Ba8Sn19Bi5
_chemical_formula_sum   'Ba8 Sn19 Bi5'
_cell_volume   1068.11471860
_cell_formula_units_Z   1
loop_
 _symmetry_equiv_pos_site_id
 _symmetry_equiv_pos_as_xyz
  1  'x, y, z'
loop_
 _atom_site_type_symbol
 _atom_site_label
 _atom_site_symmetry_multiplicity
 _atom_site_fract_x
 _atom_site_fract_y
 _atom_site_fract_z
 _atom_site_occupancy
  Ba  Ba0  1  0.334056  0.665944  0.133896  1
  Ba  Ba1  1  0.665944  0.334056  0.866104  1
  Ba  Ba2  1  0.666672  0.333328  0.634978  1
  Ba  Ba3  1  0.333328  0.666672  0.365022  1
  Ba  Ba4  1  0.000000  0.000000  0.000000  1
  Ba  Ba5  1  0.000000  0.000000  0.500000  1
  Ba  Ba6  1  0.000094  0.999906  0.249510  1
  Ba  Ba7  1  0.999906  0.000094  0.750490  1
  Sn  Sn8  1  0.193903  0.388208  0.624889  1
  Sn  Sn9  1  0.806097  0.611792  0.375111  1
  Sn  Sn10  1  0.611792  0.806097  0.624889  1
  Sn  Sn11  1  0.805904  0.614041  0.123693  1
  Sn  Sn12  1  0.388208  0.193903  0.375111  1
  Sn  Sn13  1  0.194096  0.385959  0.876307  1
  Sn  Sn14  1  0.194160  0.805840  0.624323  1
  Sn  Sn15  1  0.385959  0.194096  0.123693  1
  Sn  Sn16  1  0.805840  0.194160  0.375677  1
  Sn  Sn17  1  0.614041  0.805904  0.876307  1
  Sn  Sn18  1  0.806132  0.193868  0.124564  1
  Sn  Sn19  1  0.193868  0.806132  0.875436  1
  Sn  Sn20  1  0.528077  0.058730  0.248694  1
  Sn  Sn21  1  0.471923  0.941270  0.751306  1
  Sn  Sn22  1  0.941270  0.471923  0.248694  1
  Sn  Sn23  1  0.058730  0.528077  0.751306  1
  Sn  Sn24  1  0.529227  0.470773  0.249268  1
  Sn  Sn25  1  0.470773  0.529227  0.750732  1
  Sn  Sn26  1  0.500000  0.500000  0.000000  1
  Bi  Bi27  1  0.500000  0.000000  0.000000  1
  Bi  Bi28  1  0.000000  0.500000  0.000000  1
  Bi  Bi29  1  0.500000  0.000000  0.500000  1
  Bi  Bi30  1  0.000000  0.500000  0.500000  1
  Bi  Bi31  1  0.500000  0.500000  0.500000  1
