# generated using pymatgen
data_Nd3DyTl5
_symmetry_space_group_name_H-M   'P 1'
_cell_length_a   8.67141837
_cell_length_b   8.67141932
_cell_length_c   8.67141942
_cell_angle_alpha   66.45262358
_cell_angle_beta   66.45262041
_cell_angle_gamma   66.45259272
_symmetry_Int_Tables_number   1
_chemical_formula_structural   Nd3DyTl5
_chemical_formula_sum   'Nd6 Dy2 Tl10'
_cell_volume   525.16472211
_cell_formula_units_Z   2
loop_
 _symmetry_equiv_pos_site_id
 _symmetry_equiv_pos_as_xyz
  1  'x, y, z'
loop_
 _atom_site_type_symbol
 _atom_site_label
 _atom_site_symmetry_multiplicity
 _atom_site_fract_x
 _atom_site_fract_y
 _atom_site_fract_z
 _atom_site_occupancy
  Nd  Nd0  1  0.889128  0.187566  0.620172  1
  Nd  Nd1  1  0.620172  0.889128  0.187566  1
  Nd  Nd2  1  0.187566  0.620172  0.889128  1
  Nd  Nd3  1  0.110872  0.812434  0.379828  1
  Nd  Nd4  1  0.379828  0.110872  0.812434  1
  Nd  Nd5  1  0.812434  0.379828  0.110872  1
  Dy  Dy6  1  0.657506  0.657506  0.657506  1
  Dy  Dy7  1  0.342494  0.342494  0.342494  1
  Tl  Tl8  1  0.000000  0.000000  0.000000  1
  Tl  Tl9  1  0.500000  0.500000  0.500000  1
  Tl  Tl10  1  0.813305  0.813305  0.813305  1
  Tl  Tl11  1  0.186695  0.186695  0.186695  1
  Tl  Tl12  1  0.949427  0.569660  0.298873  1
  Tl  Tl13  1  0.298873  0.949427  0.569660  1
  Tl  Tl14  1  0.569660  0.298873  0.949427  1
  Tl  Tl15  1  0.050573  0.430340  0.701127  1
  Tl  Tl16  1  0.701127  0.050573  0.430340  1
  Tl  Tl17  1  0.430340  0.701127  0.050573  1
