# generated using pymatgen
data_La2Y3OsRu
_symmetry_space_group_name_H-M   'P 1'
_cell_length_a   6.55372745
_cell_length_b   7.32269891
_cell_length_c   8.82616220
_cell_angle_alpha   96.57547638
_cell_angle_beta   111.79379042
_cell_angle_gamma   89.99999350
_symmetry_Int_Tables_number   1
_chemical_formula_structural   La2Y3OsRu
_chemical_formula_sum   'La4 Y6 Os2 Ru2'
_cell_volume   390.29905410
_cell_formula_units_Z   2
loop_
 _symmetry_equiv_pos_site_id
 _symmetry_equiv_pos_as_xyz
  1  'x, y, z'
loop_
 _atom_site_type_symbol
 _atom_site_label
 _atom_site_symmetry_multiplicity
 _atom_site_fract_x
 _atom_site_fract_y
 _atom_site_fract_z
 _atom_site_occupancy
  La  La0  1  0.982840  0.911459  0.193604  1
  La  La1  1  0.789237  0.588541  0.806396  1
  La  La2  1  0.018728  0.092525  0.805909  1
  La  La3  1  0.212817  0.407475  0.194091  1
  Y  Y4  1  0.637764  0.815380  0.430910  1
  Y  Y5  1  0.206854  0.684620  0.569090  1
  Y  Y6  1  0.364177  0.183484  0.570654  1
  Y  Y7  1  0.793522  0.316516  0.429346  1
  Y  Y8  1  0.430944  0.750000  0.000000  1
  Y  Y9  1  0.572841  0.250000  0.000000  1
  Os  Os10  1  0.827672  0.578412  0.224591  1
  Os  Os11  1  0.603081  0.921588  0.775409  1
  Ru  Ru12  1  0.167956  0.416728  0.776389  1
  Ru  Ru13  1  0.391567  0.083272  0.223611  1
