# generated using pymatgen
data_Nd5VMoO12
_symmetry_space_group_name_H-M   'P 1'
_cell_length_a   7.03525898
_cell_length_b   7.03525796
_cell_length_c   7.62253674
_cell_angle_alpha   74.40204666
_cell_angle_beta   74.40204600
_cell_angle_gamma   51.47369027
_symmetry_Int_Tables_number   1
_chemical_formula_structural   Nd5VMoO12
_chemical_formula_sum   'Nd5 V1 Mo1 O12'
_cell_volume   281.69592229
_cell_formula_units_Z   1
loop_
 _symmetry_equiv_pos_site_id
 _symmetry_equiv_pos_as_xyz
  1  'x, y, z'
loop_
 _atom_site_type_symbol
 _atom_site_label
 _atom_site_symmetry_multiplicity
 _atom_site_fract_x
 _atom_site_fract_y
 _atom_site_fract_z
 _atom_site_occupancy
  Nd  Nd0  1  0.313795  0.299887  0.359329  1
  Nd  Nd1  1  0.700113  0.686205  0.640671  1
  Nd  Nd2  1  0.310317  0.306357  0.830450  1
  Nd  Nd3  1  0.693643  0.689683  0.169550  1
  Nd  Nd4  1  0.001235  0.998765  0.500000  1
  V  V5  1  0.748389  0.251611  0.000000  1
  Mo  Mo6  1  0.232995  0.767005  0.000000  1
  O  O7  1  0.894801  0.417095  0.923163  1
  O  O8  1  0.422429  0.895697  0.921777  1
  O  O9  1  0.104303  0.577571  0.078223  1
  O  O10  1  0.582905  0.105199  0.076837  1
  O  O11  1  0.099212  0.592286  0.577887  1
  O  O12  1  0.597338  0.091018  0.579094  1
  O  O13  1  0.908982  0.402662  0.420906  1
  O  O14  1  0.407714  0.900788  0.422113  1
  O  O15  1  0.995064  0.007638  0.822407  1
  O  O16  1  0.992362  0.004936  0.177593  1
  O  O17  1  0.496286  0.501879  0.821884  1
  O  O18  1  0.498121  0.503714  0.178116  1
