# generated using pymatgen
data_Ac4GeS3
_symmetry_space_group_name_H-M   'P 1'
_cell_length_a   7.61354060
_cell_length_b   7.61354105
_cell_length_c   7.61354138
_cell_angle_alpha   131.86210758
_cell_angle_beta   131.86210403
_cell_angle_gamma   70.44690265
_symmetry_Int_Tables_number   1
_chemical_formula_structural   Ac4GeS3
_chemical_formula_sum   'Ac4 Ge1 S3'
_cell_volume   239.86346190
_cell_formula_units_Z   1
loop_
 _symmetry_equiv_pos_site_id
 _symmetry_equiv_pos_as_xyz
  1  'x, y, z'
loop_
 _atom_site_type_symbol
 _atom_site_label
 _atom_site_symmetry_multiplicity
 _atom_site_fract_x
 _atom_site_fract_y
 _atom_site_fract_z
 _atom_site_occupancy
  Ac  Ac0  1  0.000000  0.500000  0.500000  1
  Ac  Ac1  1  0.500000  0.000000  0.500000  1
  Ac  Ac2  1  0.251152  0.251152  0.000000  1
  Ac  Ac3  1  0.748848  0.748848  0.000000  1
  Ge  Ge4  1  0.000000  0.000000  0.000000  1
  S  S5  1  0.500000  0.500000  0.000000  1
  S  S6  1  0.750000  0.250000  0.500000  1
  S  S7  1  0.250000  0.750000  0.500000  1
