# generated using pymatgen
data_Sc9Tc3W
_symmetry_space_group_name_H-M   'P 1'
_cell_length_a   8.68580500
_cell_length_b   8.68580494
_cell_length_c   8.29352800
_cell_angle_alpha   90.00000000
_cell_angle_beta   90.00000000
_cell_angle_gamma   119.99999643
_symmetry_Int_Tables_number   1
_chemical_formula_structural   Sc9Tc3W
_chemical_formula_sum   'Sc18 Tc6 W2'
_cell_volume   541.86376415
_cell_formula_units_Z   2
loop_
 _symmetry_equiv_pos_site_id
 _symmetry_equiv_pos_as_xyz
  1  'x, y, z'
loop_
 _atom_site_type_symbol
 _atom_site_label
 _atom_site_symmetry_multiplicity
 _atom_site_fract_x
 _atom_site_fract_y
 _atom_site_fract_z
 _atom_site_occupancy
  Sc  Sc0  1  0.402147  0.201074  0.055283  1
  Sc  Sc1  1  0.798926  0.201074  0.055283  1
  Sc  Sc2  1  0.798925  0.597852  0.055283  1
  Sc  Sc3  1  0.095477  0.547738  0.250000  1
  Sc  Sc4  1  0.452262  0.547738  0.250000  1
  Sc  Sc5  1  0.452262  0.904524  0.250000  1
  Sc  Sc6  1  0.402147  0.201074  0.444717  1
  Sc  Sc7  1  0.798926  0.201074  0.444717  1
  Sc  Sc8  1  0.798925  0.597852  0.444717  1
  Sc  Sc9  1  0.201074  0.402148  0.555284  1
  Sc  Sc10  1  0.201073  0.798926  0.555284  1
  Sc  Sc11  1  0.597853  0.798926  0.555284  1
  Sc  Sc12  1  0.547737  0.095476  0.750001  1
  Sc  Sc13  1  0.547738  0.452262  0.750001  1
  Sc  Sc14  1  0.904524  0.452262  0.750001  1
  Sc  Sc15  1  0.201074  0.402148  0.944716  1
  Sc  Sc16  1  0.201073  0.798926  0.944716  1
  Sc  Sc17  1  0.597853  0.798926  0.944716  1
  Tc  Tc18  1  0.109986  0.219972  0.250000  1
  Tc  Tc19  1  0.109985  0.890014  0.250000  1
  Tc  Tc20  1  0.780029  0.890014  0.250000  1
  Tc  Tc21  1  0.219972  0.109986  0.750001  1
  Tc  Tc22  1  0.890014  0.109986  0.750001  1
  Tc  Tc23  1  0.890013  0.780028  0.750001  1
  W  W24  1  0.000000  0.000000  0.000000  1
  W  W25  1  0.000000  0.000000  0.500000  1
