# generated using pymatgen
data_K2Si3TcO9
_symmetry_space_group_name_H-M   'P 1'
_cell_length_a   7.75807722
_cell_length_b   7.75807722
_cell_length_c   7.75807721
_cell_angle_alpha   82.77252874
_cell_angle_beta   82.77253260
_cell_angle_gamma   82.77254286
_symmetry_Int_Tables_number   1
_chemical_formula_structural   K2Si3TcO9
_chemical_formula_sum   'K4 Si6 Tc2 O18'
_cell_volume   456.67217918
_cell_formula_units_Z   2
loop_
 _symmetry_equiv_pos_site_id
 _symmetry_equiv_pos_as_xyz
  1  'x, y, z'
loop_
 _atom_site_type_symbol
 _atom_site_label
 _atom_site_symmetry_multiplicity
 _atom_site_fract_x
 _atom_site_fract_y
 _atom_site_fract_z
 _atom_site_occupancy
  K  K0  1  0.228433  0.768749  0.993834  1
  K  K1  1  0.768749  0.993834  0.228433  1
  K  K2  1  0.993834  0.228433  0.768749  1
  K  K3  1  0.498340  0.498340  0.498340  1
  Si  Si4  1  0.892042  0.509196  0.097403  1
  Si  Si5  1  0.097403  0.892042  0.509196  1
  Si  Si6  1  0.509196  0.097403  0.892042  1
  Si  Si7  1  0.015523  0.548688  0.437242  1
  Si  Si8  1  0.437242  0.015523  0.548688  1
  Si  Si9  1  0.548688  0.437242  0.015523  1
  Tc  Tc10  1  0.223854  0.223854  0.223854  1
  Tc  Tc11  1  0.740870  0.740870  0.740870  1
  O  O12  1  0.322362  0.095366  0.013848  1
  O  O13  1  0.470055  0.153995  0.685261  1
  O  O14  1  0.685261  0.470055  0.153995  1
  O  O15  1  0.244322  0.946123  0.624660  1
  O  O16  1  0.946123  0.624660  0.244322  1
  O  O17  1  0.585737  0.847700  0.550937  1
  O  O18  1  0.630819  0.911868  0.911060  1
  O  O19  1  0.911868  0.911060  0.630819  1
  O  O20  1  0.550937  0.585737  0.847700  1
  O  O21  1  0.624660  0.244322  0.946123  1
  O  O22  1  0.911060  0.630819  0.911868  1
  O  O23  1  0.847700  0.550937  0.585737  1
  O  O24  1  0.153995  0.685261  0.470055  1
  O  O25  1  0.433283  0.120515  0.354227  1
  O  O26  1  0.354227  0.433283  0.120515  1
  O  O27  1  0.095366  0.013848  0.322362  1
  O  O28  1  0.120515  0.354227  0.433283  1
  O  O29  1  0.013848  0.322362  0.095366  1
