# generated using pymatgen
data_Zr24AlAs3Se8
_symmetry_space_group_name_H-M   'P 1'
_cell_length_a   3.72653000
_cell_length_b   12.70972387
_cell_length_c   15.70973506
_cell_angle_alpha   89.97934480
_cell_angle_beta   90.00000000
_cell_angle_gamma   90.00000000
_symmetry_Int_Tables_number   1
_chemical_formula_structural   Zr24AlAs3Se8
_chemical_formula_sum   'Zr24 Al1 As3 Se8'
_cell_volume   744.06276124
_cell_formula_units_Z   1
loop_
 _symmetry_equiv_pos_site_id
 _symmetry_equiv_pos_as_xyz
  1  'x, y, z'
loop_
 _atom_site_type_symbol
 _atom_site_label
 _atom_site_symmetry_multiplicity
 _atom_site_fract_x
 _atom_site_fract_y
 _atom_site_fract_z
 _atom_site_occupancy
  Zr  Zr0  1  0.000000  0.345876  0.478913  1
  Zr  Zr1  1  0.000000  0.645580  0.521385  1
  Zr  Zr2  1  0.500000  0.152816  0.978825  1
  Zr  Zr3  1  0.500000  0.848722  0.020846  1
  Zr  Zr4  1  0.000000  0.084409  0.577930  1
  Zr  Zr5  1  0.000000  0.922442  0.426270  1
  Zr  Zr6  1  0.500000  0.414948  0.076389  1
  Zr  Zr7  1  0.500000  0.584862  0.923128  1
  Zr  Zr8  1  0.000000  0.690457  0.291083  1
  Zr  Zr9  1  0.000000  0.307667  0.705586  1
  Zr  Zr10  1  0.500000  0.807589  0.795714  1
  Zr  Zr11  1  0.500000  0.193233  0.203982  1
  Zr  Zr12  1  0.000000  0.030471  0.108720  1
  Zr  Zr13  1  0.000000  0.970198  0.890712  1
  Zr  Zr14  1  0.500000  0.469677  0.609330  1
  Zr  Zr15  1  0.500000  0.527804  0.390347  1
  Zr  Zr16  1  0.000000  0.618670  0.077667  1
  Zr  Zr17  1  0.000000  0.381067  0.922118  1
  Zr  Zr18  1  0.500000  0.881830  0.580204  1
  Zr  Zr19  1  0.500000  0.120126  0.423491  1
  Zr  Zr20  1  0.000000  0.407792  0.241153  1
  Zr  Zr21  1  0.000000  0.590216  0.757192  1
  Zr  Zr22  1  0.500000  0.089257  0.743012  1
  Zr  Zr23  1  0.500000  0.911892  0.256572  1
  Al  Al24  1  0.500000  0.758365  0.413580  1
  As  As25  1  0.000000  0.255769  0.085055  1
  As  As26  1  0.000000  0.744347  0.914540  1
  As  As27  1  0.500000  0.244503  0.586703  1
  Se  Se28  1  0.000000  0.815687  0.150817  1
  Se  Se29  1  0.000000  0.185337  0.849152  1
  Se  Se30  1  0.500000  0.685096  0.650376  1
  Se  Se31  1  0.500000  0.313320  0.349105  1
  Se  Se32  1  0.000000  0.069695  0.291581  1
  Se  Se33  1  0.000000  0.931634  0.709085  1
  Se  Se34  1  0.500000  0.432519  0.792183  1
  Se  Se35  1  0.500000  0.566124  0.207255  1
