# generated using pymatgen
data_Tm3Th5(P3Ir4)4
_symmetry_space_group_name_H-M   'P 1'
_cell_length_a   13.06883400
_cell_length_b   13.06883516
_cell_length_c   4.06452300
_cell_angle_alpha   90.00000000
_cell_angle_beta   90.00000000
_cell_angle_gamma   120.00000213
_symmetry_Int_Tables_number   1
_chemical_formula_structural   Tm3Th5(P3Ir4)4
_chemical_formula_sum   'Tm3 Th5 P12 Ir16'
_cell_volume   601.19301967
_cell_formula_units_Z   1
loop_
 _symmetry_equiv_pos_site_id
 _symmetry_equiv_pos_as_xyz
  1  'x, y, z'
loop_
 _atom_site_type_symbol
 _atom_site_label
 _atom_site_symmetry_multiplicity
 _atom_site_fract_x
 _atom_site_fract_y
 _atom_site_fract_z
 _atom_site_occupancy
  Tm  Tm0  1  0.000000  0.444810  0.500000  1
  Tm  Tm1  1  0.555190  0.555190  0.500000  1
  Tm  Tm2  1  0.444810  0.000000  0.500000  1
  Th  Th3  1  0.333333  0.666667  0.500000  1
  Th  Th4  1  0.666667  0.333333  0.500000  1
  Th  Th5  1  0.000000  0.816405  0.000000  1
  Th  Th6  1  0.183595  0.183595  0.000000  1
  Th  Th7  1  0.816405  0.000000  0.000000  1
  P  P8  1  0.000000  0.648246  0.500000  1
  P  P9  1  0.351754  0.351754  0.500000  1
  P  P10  1  0.648246  0.000000  0.500000  1
  P  P11  1  0.520051  0.686910  0.000000  1
  P  P12  1  0.313090  0.833141  0.000000  1
  P  P13  1  0.166859  0.479949  0.000000  1
  P  P14  1  0.479949  0.166859  0.000000  1
  P  P15  1  0.686910  0.520051  0.000000  1
  P  P16  1  0.833141  0.313090  0.000000  1
  P  P17  1  0.000000  0.177602  0.500000  1
  P  P18  1  0.822398  0.822398  0.500000  1
  P  P19  1  0.177602  0.000000  0.500000  1
  Ir  Ir20  1  0.509520  0.863979  0.000000  1
  Ir  Ir21  1  0.136021  0.645540  0.000000  1
  Ir  Ir22  1  0.354460  0.490480  0.000000  1
  Ir  Ir23  1  0.490480  0.354460  0.000000  1
  Ir  Ir24  1  0.863979  0.509520  0.000000  1
  Ir  Ir25  1  0.645540  0.136021  0.000000  1
  Ir  Ir26  1  0.000000  0.278506  0.000000  1
  Ir  Ir27  1  0.721494  0.721494  0.000000  1
  Ir  Ir28  1  0.278506  0.000000  0.000000  1
  Ir  Ir29  1  0.629542  0.808535  0.500000  1
  Ir  Ir30  1  0.191465  0.821007  0.500000  1
  Ir  Ir31  1  0.178993  0.370458  0.500000  1
  Ir  Ir32  1  0.370458  0.178993  0.500000  1
  Ir  Ir33  1  0.808535  0.629542  0.500000  1
  Ir  Ir34  1  0.821007  0.191465  0.500000  1
  Ir  Ir35  1  0.000000  0.000000  0.500000  1
