# generated using pymatgen
data_Pr5Nd3(OsBr4)2
_symmetry_space_group_name_H-M   'P 1'
_cell_length_a   9.42682016
_cell_length_b   9.41243999
_cell_length_c   6.70943538
_cell_angle_alpha   89.29444858
_cell_angle_beta   89.43425613
_cell_angle_gamma   89.41415255
_symmetry_Int_Tables_number   1
_chemical_formula_structural   Pr5Nd3(OsBr4)2
_chemical_formula_sum   'Pr5 Nd3 Os2 Br8'
_cell_volume   595.21949178
_cell_formula_units_Z   1
loop_
 _symmetry_equiv_pos_site_id
 _symmetry_equiv_pos_as_xyz
  1  'x, y, z'
loop_
 _atom_site_type_symbol
 _atom_site_label
 _atom_site_symmetry_multiplicity
 _atom_site_fract_x
 _atom_site_fract_y
 _atom_site_fract_z
 _atom_site_occupancy
  Pr  Pr0  1  0.250939  0.901527  0.005726  1
  Pr  Pr1  1  0.749293  0.098922  0.993407  1
  Pr  Pr2  1  0.098451  0.748808  0.494229  1
  Pr  Pr3  1  0.901701  0.251466  0.504968  1
  Pr  Pr4  1  0.749931  0.903740  0.505773  1
  Nd  Nd5  1  0.247291  0.095597  0.492978  1
  Nd  Nd6  1  0.096084  0.247893  0.992254  1
  Nd  Nd7  1  0.904884  0.752134  0.006512  1
  Os  Os8  1  0.998250  0.001956  0.249602  1
  Os  Os9  1  0.001736  0.998078  0.749641  1
  Br  Br10  1  0.410954  0.817743  0.440450  1
  Br  Br11  1  0.587049  0.183843  0.562664  1
  Br  Br12  1  0.182267  0.587541  0.062600  1
  Br  Br13  1  0.819340  0.412951  0.935693  1
  Br  Br14  1  0.406637  0.184424  0.066328  1
  Br  Br15  1  0.593606  0.815140  0.938890  1
  Br  Br16  1  0.816652  0.591858  0.432295  1
  Br  Br17  1  0.184935  0.406379  0.565988  1
