# generated using pymatgen
data_DyY3Th4(ReB6)4
_symmetry_space_group_name_H-M   'P 1'
_cell_length_a   3.77490300
_cell_length_b   9.28570500
_cell_length_c   11.71174601
_cell_angle_alpha   90.00345462
_cell_angle_beta   90.00000000
_cell_angle_gamma   90.00000000
_symmetry_Int_Tables_number   1
_chemical_formula_structural   DyY3Th4(ReB6)4
_chemical_formula_sum   'Dy1 Y3 Th4 Re4 B24'
_cell_volume   410.52756513
_cell_formula_units_Z   1
loop_
 _symmetry_equiv_pos_site_id
 _symmetry_equiv_pos_as_xyz
  1  'x, y, z'
loop_
 _atom_site_type_symbol
 _atom_site_label
 _atom_site_symmetry_multiplicity
 _atom_site_fract_x
 _atom_site_fract_y
 _atom_site_fract_z
 _atom_site_occupancy
  Dy  Dy0  1  0.000000  0.444255  0.127511  1
  Y  Y1  1  0.000000  0.555540  0.872883  1
  Y  Y2  1  0.000000  0.944416  0.372760  1
  Y  Y3  1  0.000000  0.055593  0.627207  1
  Th  Th4  1  0.000000  0.822316  0.085889  1
  Th  Th5  1  0.000000  0.177699  0.914180  1
  Th  Th6  1  0.000000  0.322449  0.414051  1
  Th  Th7  1  0.000000  0.677567  0.585900  1
  Re  Re8  1  0.000000  0.138845  0.179638  1
  Re  Re9  1  0.000000  0.861351  0.820316  1
  Re  Re10  1  0.000000  0.638528  0.320133  1
  Re  Re11  1  0.000000  0.361324  0.679650  1
  B  B12  1  0.500000  0.055798  0.069983  1
  B  B13  1  0.500000  0.944227  0.930038  1
  B  B14  1  0.500000  0.555798  0.429997  1
  B  B15  1  0.500000  0.444232  0.569959  1
  B  B16  1  0.500000  0.248863  0.082920  1
  B  B17  1  0.500000  0.751291  0.917188  1
  B  B18  1  0.500000  0.748663  0.417133  1
  B  B19  1  0.500000  0.251318  0.582828  1
  B  B20  1  0.500000  0.290193  0.233129  1
  B  B21  1  0.500000  0.709887  0.766738  1
  B  B22  1  0.500000  0.790067  0.266722  1
  B  B23  1  0.500000  0.209911  0.733286  1
  B  B24  1  0.500000  0.130560  0.313396  1
  B  B25  1  0.500000  0.869474  0.686567  1
  B  B26  1  0.500000  0.630364  0.186536  1
  B  B27  1  0.500000  0.369477  0.813471  1
  B  B28  1  0.500000  0.485044  0.286204  1
  B  B29  1  0.500000  0.514982  0.713655  1
  B  B30  1  0.500000  0.985075  0.213623  1
  B  B31  1  0.500000  0.014988  0.786361  1
  B  B32  1  0.500000  0.103809  0.471290  1
  B  B33  1  0.500000  0.896185  0.528683  1
  B  B34  1  0.500000  0.603622  0.028755  1
  B  B35  1  0.500000  0.396289  0.971423  1
