# generated using pymatgen
data_Hf3B2Ru4Rh
_symmetry_space_group_name_H-M   'P 1'
_cell_length_a   9.56634057
_cell_length_b   9.49801769
_cell_length_c   3.12168900
_cell_angle_alpha   90.00000000
_cell_angle_beta   90.00000000
_cell_angle_gamma   90.15420343
_symmetry_Int_Tables_number   1
_chemical_formula_structural   Hf3B2Ru4Rh
_chemical_formula_sum   'Hf6 B4 Ru8 Rh2'
_cell_volume   283.63960599
_cell_formula_units_Z   2
loop_
 _symmetry_equiv_pos_site_id
 _symmetry_equiv_pos_as_xyz
  1  'x, y, z'
loop_
 _atom_site_type_symbol
 _atom_site_label
 _atom_site_symmetry_multiplicity
 _atom_site_fract_x
 _atom_site_fract_y
 _atom_site_fract_z
 _atom_site_occupancy
  Hf  Hf0  1  0.829622  0.674938  0.000000  1
  Hf  Hf1  1  0.170378  0.325062  0.000000  1
  Hf  Hf2  1  0.318628  0.824960  0.000000  1
  Hf  Hf3  1  0.681372  0.175040  0.000000  1
  Hf  Hf4  1  0.500000  0.500000  0.000000  1
  Hf  Hf5  1  0.000000  0.000000  0.000000  1
  B  B6  1  0.625519  0.885639  0.000000  1
  B  B7  1  0.374481  0.114361  0.000000  1
  B  B8  1  0.122422  0.621533  0.000000  1
  B  B9  1  0.877578  0.378467  0.000000  1
  Ru  Ru10  1  0.072453  0.779512  0.500000  1
  Ru  Ru11  1  0.927547  0.220488  0.500000  1
  Ru  Ru12  1  0.279728  0.570421  0.500000  1
  Ru  Ru13  1  0.720272  0.429579  0.500000  1
  Ru  Ru14  1  0.221681  0.074064  0.500000  1
  Ru  Ru15  1  0.778319  0.925936  0.500000  1
  Ru  Ru16  1  0.500000  0.000000  0.500000  1
  Ru  Ru17  1  0.000000  0.500000  0.500000  1
  Rh  Rh18  1  0.570322  0.721409  0.500000  1
  Rh  Rh19  1  0.429678  0.278591  0.500000  1
