# generated using pymatgen
data_KBe(Cu2Si)4
_symmetry_space_group_name_H-M   'P 1'
_cell_length_a   8.14158134
_cell_length_b   8.14158166
_cell_length_c   8.14158127
_cell_angle_alpha   120.72977942
_cell_angle_beta   120.72978001
_cell_angle_gamma   88.74056393
_symmetry_Int_Tables_number   1
_chemical_formula_structural   KBe(Cu2Si)4
_chemical_formula_sum   'K2 Be2 Cu16 Si8'
_cell_volume   377.29440267
_cell_formula_units_Z   2
loop_
 _symmetry_equiv_pos_site_id
 _symmetry_equiv_pos_as_xyz
  1  'x, y, z'
loop_
 _atom_site_type_symbol
 _atom_site_label
 _atom_site_symmetry_multiplicity
 _atom_site_fract_x
 _atom_site_fract_y
 _atom_site_fract_z
 _atom_site_occupancy
  K  K0  1  0.250000  0.250000  0.000000  1
  K  K1  1  0.750000  0.750000  0.000000  1
  Be  Be2  1  0.500000  0.000000  0.500000  1
  Be  Be3  1  0.000000  0.500000  0.500000  1
  Cu  Cu4  1  0.941923  0.211677  0.153599  1
  Cu  Cu5  1  0.211677  0.058077  0.269755  1
  Cu  Cu6  1  0.788323  0.941923  0.730245  1
  Cu  Cu7  1  0.441923  0.288323  0.730245  1
  Cu  Cu8  1  0.058077  0.788323  0.846401  1
  Cu  Cu9  1  0.799367  0.059612  0.500000  1
  Cu  Cu10  1  0.559612  0.299367  0.500000  1
  Cu  Cu11  1  0.200633  0.940388  0.500000  1
  Cu  Cu12  1  0.440388  0.700633  0.500000  1
  Cu  Cu13  1  0.940388  0.440388  0.739754  1
  Cu  Cu14  1  0.700633  0.200633  0.260246  1
  Cu  Cu15  1  0.059612  0.559612  0.260246  1
  Cu  Cu16  1  0.711677  0.441923  0.153599  1
  Cu  Cu17  1  0.558077  0.711677  0.269755  1
  Cu  Cu18  1  0.299367  0.799367  0.739754  1
  Cu  Cu19  1  0.288323  0.558077  0.846401  1
  Si  Si20  1  0.791529  0.291529  0.853304  1
  Si  Si21  1  0.561776  0.061776  0.853304  1
  Si  Si22  1  0.061776  0.208471  0.500000  1
  Si  Si23  1  0.291529  0.438224  0.500000  1
  Si  Si24  1  0.938224  0.791529  0.500000  1
  Si  Si25  1  0.438224  0.938224  0.146696  1
  Si  Si26  1  0.208471  0.708471  0.146696  1
  Si  Si27  1  0.708471  0.561776  0.500000  1
