# generated using pymatgen
data_Pm4Zn3AuO12
_symmetry_space_group_name_H-M   'P 1'
_cell_length_a   5.46675307
_cell_length_b   5.82109552
_cell_length_c   7.96378075
_cell_angle_alpha   89.78336685
_cell_angle_beta   90.31431954
_cell_angle_gamma   90.54287496
_symmetry_Int_Tables_number   1
_chemical_formula_structural   Pm4Zn3AuO12
_chemical_formula_sum   'Pm4 Zn3 Au1 O12'
_cell_volume   253.41039695
_cell_formula_units_Z   1
loop_
 _symmetry_equiv_pos_site_id
 _symmetry_equiv_pos_as_xyz
  1  'x, y, z'
loop_
 _atom_site_type_symbol
 _atom_site_label
 _atom_site_symmetry_multiplicity
 _atom_site_fract_x
 _atom_site_fract_y
 _atom_site_fract_z
 _atom_site_occupancy
  Pm  Pm0  1  0.973954  0.075746  0.265636  1
  Pm  Pm1  1  0.513147  0.565865  0.264565  1
  Pm  Pm2  1  0.486853  0.434136  0.735435  1
  Pm  Pm3  1  0.026046  0.924255  0.734364  1
  Zn  Zn4  1  0.000000  0.499999  0.000000  1
  Zn  Zn5  1  0.499999  0.000000  0.500000  1
  Zn  Zn6  1  0.000000  0.499999  0.500000  1
  Au  Au7  1  0.499999  0.000000  0.000000  1
  O  O8  1  0.689903  0.289322  0.073637  1
  O  O9  1  0.790815  0.800875  0.074426  1
  O  O10  1  0.101052  0.465444  0.240885  1
  O  O11  1  0.379443  0.959043  0.239639  1
  O  O12  1  0.695886  0.308524  0.458633  1
  O  O13  1  0.796643  0.812861  0.457291  1
  O  O14  1  0.203357  0.187140  0.542707  1
  O  O15  1  0.304112  0.691476  0.541365  1
  O  O16  1  0.620557  0.040958  0.760361  1
  O  O17  1  0.898948  0.534555  0.759115  1
  O  O18  1  0.209185  0.199126  0.925575  1
  O  O19  1  0.310095  0.710678  0.926364  1
