# generated using pymatgen
data_Pr6Co19P13Rh
_symmetry_space_group_name_H-M   'P 1'
_cell_length_a   12.87826600
_cell_length_b   12.87826729
_cell_length_c   3.76434700
_cell_angle_alpha   90.00000000
_cell_angle_beta   90.00000000
_cell_angle_gamma   119.99999669
_symmetry_Int_Tables_number   1
_chemical_formula_structural   Pr6Co19P13Rh
_chemical_formula_sum   'Pr6 Co19 P13 Rh1'
_cell_volume   540.67354741
_cell_formula_units_Z   1
loop_
 _symmetry_equiv_pos_site_id
 _symmetry_equiv_pos_as_xyz
  1  'x, y, z'
loop_
 _atom_site_type_symbol
 _atom_site_label
 _atom_site_symmetry_multiplicity
 _atom_site_fract_x
 _atom_site_fract_y
 _atom_site_fract_z
 _atom_site_occupancy
  Pr  Pr0  1  0.800032  0.948021  0.000000  1
  Pr  Pr1  1  0.051979  0.852012  0.000000  1
  Pr  Pr2  1  0.147988  0.199968  0.000000  1
  Pr  Pr3  1  0.520923  0.136626  0.500000  1
  Pr  Pr4  1  0.863374  0.384297  0.500000  1
  Pr  Pr5  1  0.615703  0.479077  0.500000  1
  Co  Co6  1  0.524922  0.767589  0.000000  1
  Co  Co7  1  0.232411  0.757333  0.000000  1
  Co  Co8  1  0.242667  0.475078  0.000000  1
  Co  Co9  1  0.406575  0.819325  0.500000  1
  Co  Co10  1  0.180675  0.587251  0.500000  1
  Co  Co11  1  0.412749  0.593425  0.500000  1
  Co  Co12  1  0.666667  0.333333  0.000000  1
  Co  Co13  1  0.769484  0.687374  0.000000  1
  Co  Co14  1  0.312626  0.082111  0.000000  1
  Co  Co15  1  0.917889  0.230516  0.000000  1
  Co  Co16  1  0.645624  0.732353  0.500000  1
  Co  Co17  1  0.267647  0.913271  0.500000  1
  Co  Co18  1  0.086729  0.354376  0.500000  1
  Co  Co19  1  0.358407  0.255169  0.500000  1
  Co  Co20  1  0.744831  0.103238  0.500000  1
  Co  Co21  1  0.896762  0.641593  0.500000  1
  Co  Co22  1  0.574083  0.981681  0.000000  1
  Co  Co23  1  0.018319  0.592402  0.000000  1
  Co  Co24  1  0.407598  0.425917  0.000000  1
  P  P25  1  0.844122  0.788465  0.500000  1
  P  P26  1  0.211535  0.055657  0.500000  1
  P  P27  1  0.944343  0.155878  0.500000  1
  P  P28  1  0.603852  0.893917  0.500000  1
  P  P29  1  0.106083  0.709935  0.500000  1
  P  P30  1  0.290065  0.396148  0.500000  1
  P  P31  1  0.464833  0.283017  0.000000  1
  P  P32  1  0.716983  0.181816  0.000000  1
  P  P33  1  0.818184  0.535167  0.000000  1
  P  P34  1  0.379342  0.942500  0.000000  1
  P  P35  1  0.057500  0.436841  0.000000  1
  P  P36  1  0.563159  0.620658  0.000000  1
  P  P37  1  0.333333  0.666667  0.000000  1
  Rh  Rh38  1  0.000000  0.000000  0.500000  1
