# generated using pymatgen
data_Pr2Al6(GaIr)3
_symmetry_space_group_name_H-M   'P 1'
_cell_length_a   7.60466514
_cell_length_b   7.60466403
_cell_length_c   9.73153800
_cell_angle_alpha   90.00000000
_cell_angle_beta   90.00000000
_cell_angle_gamma   119.43262157
_symmetry_Int_Tables_number   1
_chemical_formula_structural   Pr2Al6(GaIr)3
_chemical_formula_sum   'Pr4 Al12 Ga6 Ir6'
_cell_volume   490.14766797
_cell_formula_units_Z   2
loop_
 _symmetry_equiv_pos_site_id
 _symmetry_equiv_pos_as_xyz
  1  'x, y, z'
loop_
 _atom_site_type_symbol
 _atom_site_label
 _atom_site_symmetry_multiplicity
 _atom_site_fract_x
 _atom_site_fract_y
 _atom_site_fract_z
 _atom_site_occupancy
  Pr  Pr0  1  0.995890  0.669477  0.250000  1
  Pr  Pr1  1  0.004110  0.330523  0.750000  1
  Pr  Pr2  1  0.669477  0.995890  0.250000  1
  Pr  Pr3  1  0.330523  0.004110  0.750000  1
  Al  Al4  1  0.003556  0.334906  0.071508  1
  Al  Al5  1  0.996444  0.665094  0.928492  1
  Al  Al6  1  0.996444  0.665094  0.571508  1
  Al  Al7  1  0.334906  0.003556  0.428492  1
  Al  Al8  1  0.003556  0.334906  0.428492  1
  Al  Al9  1  0.665094  0.996444  0.571508  1
  Al  Al10  1  0.665094  0.996444  0.928492  1
  Al  Al11  1  0.334906  0.003556  0.071508  1
  Al  Al12  1  0.334735  0.334735  0.548768  1
  Al  Al13  1  0.665265  0.665265  0.451232  1
  Al  Al14  1  0.665265  0.665265  0.048768  1
  Al  Al15  1  0.334735  0.334735  0.951232  1
  Ga  Ga16  1  0.129714  0.129714  0.250000  1
  Ga  Ga17  1  0.870286  0.870286  0.750000  1
  Ga  Ga18  1  0.338251  0.544963  0.250000  1
  Ga  Ga19  1  0.661749  0.455037  0.750000  1
  Ga  Ga20  1  0.544963  0.338251  0.250000  1
  Ga  Ga21  1  0.455037  0.661749  0.750000  1
  Ir  Ir22  1  0.670584  0.329416  0.000000  1
  Ir  Ir23  1  0.329416  0.670584  0.000000  1
  Ir  Ir24  1  0.329416  0.670584  0.500000  1
  Ir  Ir25  1  0.670584  0.329416  0.500000  1
  Ir  Ir26  1  0.000000  0.000000  0.000000  1
  Ir  Ir27  1  0.000000  0.000000  0.500000  1
