# generated using pymatgen
data_Ac(AlCd)2
_symmetry_space_group_name_H-M   'P 1'
_cell_length_a   6.65475574
_cell_length_b   6.65475550
_cell_length_c   6.65475528
_cell_angle_alpha   139.52657007
_cell_angle_beta   139.52656580
_cell_angle_gamma   58.57284437
_symmetry_Int_Tables_number   1
_chemical_formula_structural   Ac(AlCd)2
_chemical_formula_sum   'Ac1 Al2 Cd2'
_cell_volume   123.01695398
_cell_formula_units_Z   1
loop_
 _symmetry_equiv_pos_site_id
 _symmetry_equiv_pos_as_xyz
  1  'x, y, z'
loop_
 _atom_site_type_symbol
 _atom_site_label
 _atom_site_symmetry_multiplicity
 _atom_site_fract_x
 _atom_site_fract_y
 _atom_site_fract_z
 _atom_site_occupancy
  Ac  Ac0  1  0.000000  0.000000  0.000000  1
  Al  Al1  1  0.388769  0.388769  0.000000  1
  Al  Al2  1  0.611230  0.611230  0.000000  1
  Cd  Cd3  1  0.749999  0.250000  0.499999  1
  Cd  Cd4  1  0.250000  0.749999  0.499999  1
