# generated using pymatgen
data_TbSm4(SiHg)2
_symmetry_space_group_name_H-M   'P 1'
_cell_length_a   8.96741349
_cell_length_b   8.96741305
_cell_length_c   7.69887300
_cell_angle_alpha   90.00000000
_cell_angle_beta   90.00000000
_cell_angle_gamma   129.32480312
_symmetry_Int_Tables_number   1
_chemical_formula_structural   TbSm4(SiHg)2
_chemical_formula_sum   'Tb2 Sm8 Si4 Hg4'
_cell_volume   478.91547482
_cell_formula_units_Z   2
loop_
 _symmetry_equiv_pos_site_id
 _symmetry_equiv_pos_as_xyz
  1  'x, y, z'
loop_
 _atom_site_type_symbol
 _atom_site_label
 _atom_site_symmetry_multiplicity
 _atom_site_fract_x
 _atom_site_fract_y
 _atom_site_fract_z
 _atom_site_occupancy
  Tb  Tb0  1  0.000000  0.000000  0.000000  1
  Tb  Tb1  1  0.500000  0.500000  0.500000  1
  Sm  Sm2  1  0.055634  0.310688  0.323797  1
  Sm  Sm3  1  0.944366  0.689312  0.676203  1
  Sm  Sm4  1  0.444366  0.189312  0.823797  1
  Sm  Sm5  1  0.810688  0.555634  0.176203  1
  Sm  Sm6  1  0.555634  0.810688  0.176203  1
  Sm  Sm7  1  0.189312  0.444366  0.823797  1
  Sm  Sm8  1  0.689312  0.944366  0.676203  1
  Sm  Sm9  1  0.310688  0.055634  0.323797  1
  Si  Si10  1  0.382609  0.382609  0.120420  1
  Si  Si11  1  0.617391  0.617391  0.879580  1
  Si  Si12  1  0.117391  0.117391  0.620420  1
  Si  Si13  1  0.882609  0.882609  0.379580  1
  Hg  Hg14  1  0.782292  0.217708  0.000000  1
  Hg  Hg15  1  0.217708  0.782292  0.000000  1
  Hg  Hg16  1  0.717708  0.282292  0.500000  1
  Hg  Hg17  1  0.282292  0.717708  0.500000  1
