# generated using pymatgen
data_PaTcPN
_symmetry_space_group_name_H-M   'P 1'
_cell_length_a   4.01657600
_cell_length_b   4.01657600
_cell_length_c   7.78111900
_cell_angle_alpha   90.00000000
_cell_angle_beta   90.00000000
_cell_angle_gamma   90.00000000
_symmetry_Int_Tables_number   1
_chemical_formula_structural   PaTcPN
_chemical_formula_sum   'Pa2 Tc2 P2 N2'
_cell_volume   125.53188060
_cell_formula_units_Z   2
loop_
 _symmetry_equiv_pos_site_id
 _symmetry_equiv_pos_as_xyz
  1  'x, y, z'
loop_
 _atom_site_type_symbol
 _atom_site_label
 _atom_site_symmetry_multiplicity
 _atom_site_fract_x
 _atom_site_fract_y
 _atom_site_fract_z
 _atom_site_occupancy
  Pa  Pa0  1  0.000000  0.000000  0.147098  1
  Pa  Pa1  1  0.500000  0.500000  0.852903  1
  Tc  Tc2  1  0.500000  0.000000  0.499999  1
  Tc  Tc3  1  0.000000  0.500000  0.499999  1
  P  P4  1  0.500000  0.500000  0.341706  1
  P  P5  1  0.000000  0.000000  0.658294  1
  N  N6  1  0.500000  0.000000  0.000000  1
  N  N7  1  0.000000  0.500000  0.000000  1
