# generated using pymatgen
data_Dy16Al4RuPt3
_symmetry_space_group_name_H-M   'P 1'
_cell_length_a   9.57085153
_cell_length_b   9.57085141
_cell_length_c   9.57085077
_cell_angle_alpha   60.07179068
_cell_angle_beta   60.07178806
_cell_angle_gamma   60.07179227
_symmetry_Int_Tables_number   1
_chemical_formula_structural   Dy16Al4RuPt3
_chemical_formula_sum   'Dy16 Al4 Ru1 Pt3'
_cell_volume   620.93006942
_cell_formula_units_Z   1
loop_
 _symmetry_equiv_pos_site_id
 _symmetry_equiv_pos_as_xyz
  1  'x, y, z'
loop_
 _atom_site_type_symbol
 _atom_site_label
 _atom_site_symmetry_multiplicity
 _atom_site_fract_x
 _atom_site_fract_y
 _atom_site_fract_z
 _atom_site_occupancy
  Dy  Dy0  1  0.353206  0.353206  0.353206  1
  Dy  Dy1  1  0.351554  0.351554  0.941721  1
  Dy  Dy2  1  0.351554  0.941721  0.351554  1
  Dy  Dy3  1  0.941721  0.351554  0.351554  1
  Dy  Dy4  1  0.811733  0.192147  0.192147  1
  Dy  Dy5  1  0.193879  0.805597  0.805597  1
  Dy  Dy6  1  0.192147  0.811733  0.192147  1
  Dy  Dy7  1  0.805597  0.193879  0.805597  1
  Dy  Dy8  1  0.192147  0.192147  0.811733  1
  Dy  Dy9  1  0.805597  0.805597  0.193879  1
  Dy  Dy10  1  0.935194  0.564435  0.564435  1
  Dy  Dy11  1  0.560634  0.936631  0.936631  1
  Dy  Dy12  1  0.564435  0.935194  0.564435  1
  Dy  Dy13  1  0.936631  0.560633  0.936631  1
  Dy  Dy14  1  0.564435  0.564435  0.935194  1
  Dy  Dy15  1  0.936631  0.936631  0.560633  1
  Al  Al16  1  0.577914  0.577914  0.577914  1
  Al  Al17  1  0.577698  0.577698  0.268964  1
  Al  Al18  1  0.577698  0.268964  0.577698  1
  Al  Al19  1  0.268964  0.577698  0.577698  1
  Ru  Ru20  1  0.142306  0.142306  0.142306  1
  Pt  Pt21  1  0.143159  0.143159  0.572008  1
  Pt  Pt22  1  0.143159  0.572008  0.143159  1
  Pt  Pt23  1  0.572008  0.143159  0.143159  1
