# generated using pymatgen
data_Eu4YLuTa2O12
_symmetry_space_group_name_H-M   'P 1'
_cell_length_a   5.91764197
_cell_length_b   5.77181557
_cell_length_c   10.04375007
_cell_angle_alpha   55.15482952
_cell_angle_beta   89.92030501
_cell_angle_gamma   89.99445299
_symmetry_Int_Tables_number   1
_chemical_formula_structural   Eu4YLuTa2O12
_chemical_formula_sum   'Eu4 Y1 Lu1 Ta2 O12'
_cell_volume   281.54016772
_cell_formula_units_Z   1
loop_
 _symmetry_equiv_pos_site_id
 _symmetry_equiv_pos_as_xyz
  1  'x, y, z'
loop_
 _atom_site_type_symbol
 _atom_site_label
 _atom_site_symmetry_multiplicity
 _atom_site_fract_x
 _atom_site_fract_y
 _atom_site_fract_z
 _atom_site_occupancy
  Eu  Eu0  1  0.451715  0.260080  0.753195  1
  Eu  Eu1  1  0.953055  0.734935  0.751711  1
  Eu  Eu2  1  0.046945  0.265065  0.248289  1
  Eu  Eu3  1  0.548285  0.739920  0.246805  1
  Y  Y4  1  0.500000  0.000000  0.500000  1
  Lu  Lu5  1  0.000000  0.000000  0.000000  1
  Ta  Ta6  1  0.500000  0.500000  0.000000  1
  Ta  Ta7  1  0.000000  0.500000  0.500000  1
  O  O8  1  0.721583  0.634896  0.553714  1
  O  O9  1  0.222065  0.354642  0.948524  1
  O  O10  1  0.278417  0.365104  0.446286  1
  O  O11  1  0.777935  0.645358  0.051476  1
  O  O12  1  0.192447  0.731619  0.548308  1
  O  O13  1  0.700107  0.266574  0.954248  1
  O  O14  1  0.807553  0.268381  0.451692  1
  O  O15  1  0.299893  0.733426  0.045752  1
  O  O16  1  0.029599  0.169735  0.738192  1
  O  O17  1  0.530497  0.828671  0.765878  1
  O  O18  1  0.970401  0.830265  0.261808  1
  O  O19  1  0.469503  0.171329  0.234122  1
