# generated using pymatgen
data_TaMn4Os
_symmetry_space_group_name_H-M   'P 1'
_cell_length_a   4.71381700
_cell_length_b   4.71381652
_cell_length_c   7.76661700
_cell_angle_alpha   90.00000000
_cell_angle_beta   90.00000000
_cell_angle_gamma   119.99999638
_symmetry_Int_Tables_number   1
_chemical_formula_structural   TaMn4Os
_chemical_formula_sum   'Ta2 Mn8 Os2'
_cell_volume   149.45413268
_cell_formula_units_Z   2
loop_
 _symmetry_equiv_pos_site_id
 _symmetry_equiv_pos_as_xyz
  1  'x, y, z'
loop_
 _atom_site_type_symbol
 _atom_site_label
 _atom_site_symmetry_multiplicity
 _atom_site_fract_x
 _atom_site_fract_y
 _atom_site_fract_z
 _atom_site_occupancy
  Ta  Ta0  1  0.666667  0.333333  0.936045  1
  Ta  Ta1  1  0.333333  0.666667  0.436045  1
  Mn  Mn2  1  0.000000  0.000000  0.997027  1
  Mn  Mn3  1  0.000000  0.000000  0.497027  1
  Mn  Mn4  1  0.826610  0.653218  0.249102  1
  Mn  Mn5  1  0.173390  0.826610  0.749102  1
  Mn  Mn6  1  0.653218  0.826610  0.749102  1
  Mn  Mn7  1  0.346782  0.173390  0.249102  1
  Mn  Mn8  1  0.826610  0.173390  0.249102  1
  Mn  Mn9  1  0.173390  0.346782  0.749102  1
  Os  Os10  1  0.333333  0.666667  0.069624  1
  Os  Os11  1  0.666667  0.333333  0.569624  1
