# generated using pymatgen
data_Tb8Zr11Si16Au
_symmetry_space_group_name_H-M   'P 1'
_cell_length_a   7.36577709
_cell_length_b   7.36577619
_cell_length_c   13.40297271
_cell_angle_alpha   89.73527660
_cell_angle_beta   90.26472494
_cell_angle_gamma   89.80668657
_symmetry_Int_Tables_number   1
_chemical_formula_structural   Tb8Zr11Si16Au
_chemical_formula_sum   'Tb8 Zr11 Si16 Au1'
_cell_volume   727.15408609
_cell_formula_units_Z   1
loop_
 _symmetry_equiv_pos_site_id
 _symmetry_equiv_pos_as_xyz
  1  'x, y, z'
loop_
 _atom_site_type_symbol
 _atom_site_label
 _atom_site_symmetry_multiplicity
 _atom_site_fract_x
 _atom_site_fract_y
 _atom_site_fract_z
 _atom_site_occupancy
  Tb  Tb0  1  0.998032  0.348116  0.208993  1
  Tb  Tb1  1  0.005068  0.652605  0.715589  1
  Tb  Tb2  1  0.153159  0.496370  0.463269  1
  Tb  Tb3  1  0.497030  0.850503  0.034030  1
  Tb  Tb4  1  0.850503  0.497030  0.965970  1
  Tb  Tb5  1  0.496370  0.153159  0.536731  1
  Tb  Tb6  1  0.348116  0.998032  0.791007  1
  Tb  Tb7  1  0.652605  0.005068  0.284411  1
  Zr  Zr8  1  0.824098  0.824098  0.500000  1
  Zr  Zr9  1  0.321556  0.678323  0.248373  1
  Zr  Zr10  1  0.678323  0.321556  0.751627  1
  Zr  Zr11  1  0.143263  0.997165  0.373807  1
  Zr  Zr12  1  0.858646  0.003784  0.879674  1
  Zr  Zr13  1  0.504620  0.644148  0.626813  1
  Zr  Zr14  1  0.357555  0.491997  0.877184  1
  Zr  Zr15  1  0.491997  0.357555  0.122816  1
  Zr  Zr16  1  0.644148  0.504620  0.373187  1
  Zr  Zr17  1  0.997165  0.143263  0.626193  1
  Zr  Zr18  1  0.003784  0.858646  0.120326  1
  Si  Si19  1  0.358003  0.294926  0.315756  1
  Si  Si20  1  0.641926  0.705754  0.819573  1
  Si  Si21  1  0.208509  0.859665  0.567861  1
  Si  Si22  1  0.132446  0.773836  0.927208  1
  Si  Si23  1  0.773836  0.132446  0.072792  1
  Si  Si24  1  0.859665  0.208509  0.432139  1
  Si  Si25  1  0.294926  0.358003  0.684244  1
  Si  Si26  1  0.705754  0.641926  0.180427  1
  Si  Si27  1  0.293914  0.056226  0.188659  1
  Si  Si28  1  0.705602  0.947383  0.688658  1
  Si  Si29  1  0.447163  0.795410  0.436937  1
  Si  Si30  1  0.210189  0.566873  0.062347  1
  Si  Si31  1  0.566873  0.210189  0.937653  1
  Si  Si32  1  0.795410  0.447163  0.563063  1
  Si  Si33  1  0.056226  0.293914  0.811341  1
  Si  Si34  1  0.947383  0.705602  0.311342  1
  Au  Au35  1  0.176136  0.176136  0.000000  1
