# generated using pymatgen
data_CaYb11Zn24
_symmetry_space_group_name_H-M   'P 1'
_cell_length_a   4.57527400
_cell_length_b   7.46277901
_cell_length_c   21.72973607
_cell_angle_alpha   89.99754557
_cell_angle_beta   90.00000000
_cell_angle_gamma   90.00000000
_symmetry_Int_Tables_number   1
_chemical_formula_structural   CaYb11Zn24
_chemical_formula_sum   'Ca1 Yb11 Zn24'
_cell_volume   741.94573043
_cell_formula_units_Z   1
loop_
 _symmetry_equiv_pos_site_id
 _symmetry_equiv_pos_as_xyz
  1  'x, y, z'
loop_
 _atom_site_type_symbol
 _atom_site_label
 _atom_site_symmetry_multiplicity
 _atom_site_fract_x
 _atom_site_fract_y
 _atom_site_fract_z
 _atom_site_occupancy
  Ca  Ca0  1  0.250000  0.799788  0.833319  1
  Yb  Yb1  1  0.250000  0.701096  0.000531  1
  Yb  Yb2  1  0.750000  0.298334  0.001042  1
  Yb  Yb3  1  0.750000  0.201452  0.499810  1
  Yb  Yb4  1  0.250000  0.799050  0.499560  1
  Yb  Yb5  1  0.250000  0.798473  0.166890  1
  Yb  Yb6  1  0.750000  0.202822  0.833343  1
  Yb  Yb7  1  0.750000  0.298336  0.333400  1
  Yb  Yb8  1  0.250000  0.701658  0.665902  1
  Yb  Yb9  1  0.250000  0.701157  0.333332  1
  Yb  Yb10  1  0.750000  0.298620  0.665804  1
  Yb  Yb11  1  0.750000  0.201133  0.167061  1
  Zn  Zn12  1  0.250000  0.415540  0.103401  1
  Zn  Zn13  1  0.750000  0.583084  0.898403  1
  Zn  Zn14  1  0.750000  0.915706  0.397006  1
  Zn  Zn15  1  0.250000  0.084309  0.602360  1
  Zn  Zn16  1  0.250000  0.413783  0.230976  1
  Zn  Zn17  1  0.750000  0.585005  0.767900  1
  Zn  Zn18  1  0.750000  0.913613  0.269261  1
  Zn  Zn19  1  0.250000  0.086706  0.729523  1
  Zn  Zn20  1  0.250000  0.415852  0.436191  1
  Zn  Zn21  1  0.750000  0.584644  0.563414  1
  Zn  Zn22  1  0.750000  0.915998  0.063962  1
  Zn  Zn23  1  0.250000  0.084651  0.937611  1
  Zn  Zn24  1  0.250000  0.085051  0.064582  1
  Zn  Zn25  1  0.750000  0.915136  0.937032  1
  Zn  Zn26  1  0.750000  0.585033  0.435970  1
  Zn  Zn27  1  0.250000  0.414814  0.563534  1
  Zn  Zn28  1  0.250000  0.083753  0.270052  1
  Zn  Zn29  1  0.750000  0.916724  0.729179  1
  Zn  Zn30  1  0.750000  0.583310  0.230231  1
  Zn  Zn31  1  0.250000  0.415449  0.769070  1
  Zn  Zn32  1  0.250000  0.086079  0.397386  1
  Zn  Zn33  1  0.750000  0.914593  0.602090  1
  Zn  Zn34  1  0.750000  0.586059  0.102626  1
  Zn  Zn35  1  0.250000  0.413189  0.898244  1
