# generated using pymatgen
data_Hf9TaCoRe2Mo
_symmetry_space_group_name_H-M   'P 1'
_cell_length_a   8.65701187
_cell_length_b   8.65600983
_cell_length_c   8.47994100
_cell_angle_alpha   90.00000000
_cell_angle_beta   90.00000000
_cell_angle_gamma   119.99617322
_symmetry_Int_Tables_number   1
_chemical_formula_structural   Hf9TaCoRe2Mo
_chemical_formula_sum   'Hf18 Ta2 Co2 Re4 Mo2'
_cell_volume   550.33351492
_cell_formula_units_Z   2
loop_
 _symmetry_equiv_pos_site_id
 _symmetry_equiv_pos_as_xyz
  1  'x, y, z'
loop_
 _atom_site_type_symbol
 _atom_site_label
 _atom_site_symmetry_multiplicity
 _atom_site_fract_x
 _atom_site_fract_y
 _atom_site_fract_z
 _atom_site_occupancy
  Hf  Hf0  1  0.201899  0.798596  0.440986  1
  Hf  Hf1  1  0.201899  0.403304  0.440986  1
  Hf  Hf2  1  0.595484  0.797742  0.441977  1
  Hf  Hf3  1  0.798546  0.201726  0.560505  1
  Hf  Hf4  1  0.798546  0.596818  0.560505  1
  Hf  Hf5  1  0.402259  0.201129  0.559826  1
  Hf  Hf6  1  0.798546  0.201726  0.939495  1
  Hf  Hf7  1  0.798546  0.596818  0.939495  1
  Hf  Hf8  1  0.402259  0.201129  0.940174  1
  Hf  Hf9  1  0.201899  0.798596  0.059014  1
  Hf  Hf10  1  0.201899  0.403304  0.059014  1
  Hf  Hf11  1  0.595484  0.797742  0.058023  1
  Hf  Hf12  1  0.541322  0.456167  0.250000  1
  Hf  Hf13  1  0.541322  0.085154  0.250000  1
  Hf  Hf14  1  0.914539  0.457269  0.250000  1
  Hf  Hf15  1  0.457457  0.542122  0.750000  1
  Hf  Hf16  1  0.457457  0.915336  0.750000  1
  Hf  Hf17  1  0.085525  0.542763  0.750000  1
  Ta  Ta18  1  0.000782  0.000391  0.501116  1
  Ta  Ta19  1  0.000782  0.000391  0.998884  1
  Co  Co20  1  0.333401  0.666701  0.250000  1
  Co  Co21  1  0.666431  0.333215  0.750000  1
  Re  Re22  1  0.229320  0.114661  0.250000  1
  Re  Re23  1  0.114870  0.886462  0.750000  1
  Re  Re24  1  0.114870  0.228407  0.750000  1
  Re  Re25  1  0.771440  0.885719  0.750000  1
  Mo  Mo26  1  0.886606  0.115269  0.250000  1
  Mo  Mo27  1  0.886606  0.771339  0.250000  1
