# generated using pymatgen
data_NaTb7(Si3Au)4
_symmetry_space_group_name_H-M   'P 1'
_cell_length_a   8.25680500
_cell_length_b   8.19864792
_cell_length_c   8.25659200
_cell_angle_alpha   90.00000000
_cell_angle_beta   90.00000000
_cell_angle_gamma   120.23493375
_symmetry_Int_Tables_number   1
_chemical_formula_structural   NaTb7(Si3Au)4
_chemical_formula_sum   'Na1 Tb7 Si12 Au4'
_cell_volume   482.89501144
_cell_formula_units_Z   1
loop_
 _symmetry_equiv_pos_site_id
 _symmetry_equiv_pos_as_xyz
  1  'x, y, z'
loop_
 _atom_site_type_symbol
 _atom_site_label
 _atom_site_symmetry_multiplicity
 _atom_site_fract_x
 _atom_site_fract_y
 _atom_site_fract_z
 _atom_site_occupancy
  Na  Na0  1  0.500806  0.001612  0.250000  1
  Tb  Tb1  1  0.499637  0.999275  0.750000  1
  Tb  Tb2  1  0.999553  0.499824  0.250000  1
  Tb  Tb3  1  0.000241  0.499892  0.750000  1
  Tb  Tb4  1  0.500272  0.499824  0.250000  1
  Tb  Tb5  1  0.499650  0.499892  0.750000  1
  Tb  Tb6  1  0.000073  0.000146  0.250000  1
  Tb  Tb7  1  0.999837  0.999674  0.750000  1
  Si  Si8  1  0.164465  0.328931  0.996021  1
  Si  Si9  1  0.835554  0.671107  0.998266  1
  Si  Si10  1  0.674457  0.835587  0.999075  1
  Si  Si11  1  0.835554  0.671107  0.501734  1
  Si  Si12  1  0.325473  0.164353  0.000504  1
  Si  Si13  1  0.164465  0.328931  0.503979  1
  Si  Si14  1  0.161131  0.835587  0.999075  1
  Si  Si15  1  0.325473  0.164353  0.499496  1
  Si  Si16  1  0.838880  0.164353  0.000504  1
  Si  Si17  1  0.674457  0.835587  0.500925  1
  Si  Si18  1  0.838880  0.164353  0.499496  1
  Si  Si19  1  0.161131  0.835587  0.500925  1
  Au  Au20  1  0.335327  0.670655  0.002405  1
  Au  Au21  1  0.664680  0.329359  0.999947  1
  Au  Au22  1  0.664680  0.329359  0.500053  1
  Au  Au23  1  0.335327  0.670655  0.497595  1
