# generated using pymatgen
data_Mg3TiZn2(B2Ir5)2
_symmetry_space_group_name_H-M   'P 1'
_cell_length_a   9.46576300
_cell_length_b   2.94346100
_cell_length_c   9.46576300
_cell_angle_alpha   90.00000000
_cell_angle_beta   90.00317175
_cell_angle_gamma   90.00000000
_symmetry_Int_Tables_number   1
_chemical_formula_structural   Mg3TiZn2(B2Ir5)2
_chemical_formula_sum   'Mg3 Ti1 Zn2 B4 Ir10'
_cell_volume   263.73607508
_cell_formula_units_Z   1
loop_
 _symmetry_equiv_pos_site_id
 _symmetry_equiv_pos_as_xyz
  1  'x, y, z'
loop_
 _atom_site_type_symbol
 _atom_site_label
 _atom_site_symmetry_multiplicity
 _atom_site_fract_x
 _atom_site_fract_y
 _atom_site_fract_z
 _atom_site_occupancy
  Mg  Mg0  1  0.677661  0.000000  0.177659  1
  Mg  Mg1  1  0.176136  0.000000  0.322545  1
  Mg  Mg2  1  0.822545  0.000000  0.676138  1
  Ti  Ti3  1  0.323751  0.000000  0.823751  1
  Zn  Zn4  1  0.998103  0.000000  0.000341  1
  Zn  Zn5  1  0.500340  0.000000  0.498102  1
  B  B6  1  0.372876  0.000000  0.128189  1
  B  B7  1  0.872912  0.000000  0.372912  1
  B  B8  1  0.123708  0.000000  0.623710  1
  B  B9  1  0.628191  0.000000  0.872876  1
  Ir  Ir10  1  0.496013  0.499999  0.996014  1
  Ir  Ir11  1  0.217428  0.499999  0.059858  1
  Ir  Ir12  1  0.931597  0.499999  0.215881  1
  Ir  Ir13  1  0.427714  0.499999  0.284166  1
  Ir  Ir14  1  0.715881  0.499999  0.431597  1
  Ir  Ir15  1  0.001526  0.499999  0.501525  1
  Ir  Ir16  1  0.288196  0.499999  0.581397  1
  Ir  Ir17  1  0.559857  0.499999  0.717428  1
  Ir  Ir18  1  0.081398  0.499999  0.788197  1
  Ir  Ir19  1  0.784167  0.499999  0.927714  1
