# generated using pymatgen
data_Li8Tb5Y3BiPb7
_symmetry_space_group_name_H-M   'P 1'
_cell_length_a   9.52913357
_cell_length_b   9.52913465
_cell_length_c   7.37609013
_cell_angle_alpha   90.07974768
_cell_angle_beta   89.92025801
_cell_angle_gamma   119.98587759
_symmetry_Int_Tables_number   1
_chemical_formula_structural   Li8Tb5Y3BiPb7
_chemical_formula_sum   'Li8 Tb5 Y3 Bi1 Pb7'
_cell_volume   580.12949850
_cell_formula_units_Z   1
loop_
 _symmetry_equiv_pos_site_id
 _symmetry_equiv_pos_as_xyz
  1  'x, y, z'
loop_
 _atom_site_type_symbol
 _atom_site_label
 _atom_site_symmetry_multiplicity
 _atom_site_fract_x
 _atom_site_fract_y
 _atom_site_fract_z
 _atom_site_occupancy
  Li  Li0  1  0.166595  0.833405  0.197149  1
  Li  Li1  1  0.335038  0.170013  0.691029  1
  Li  Li2  1  0.829987  0.664962  0.691029  1
  Li  Li3  1  0.168063  0.334220  0.194177  1
  Li  Li4  1  0.665780  0.831937  0.194177  1
  Li  Li5  1  0.833378  0.166622  0.695082  1
  Li  Li6  1  0.334891  0.665109  0.814376  1
  Li  Li7  1  0.666149  0.333851  0.312573  1
  Tb  Tb8  1  0.512967  0.487033  0.991089  1
  Tb  Tb9  1  0.022429  0.508232  0.489393  1
  Tb  Tb10  1  0.491768  0.977571  0.489393  1
  Tb  Tb11  1  0.516069  0.026144  0.993505  1
  Tb  Tb12  1  0.973856  0.483931  0.993505  1
  Y  Y13  1  0.487098  0.512902  0.490713  1
  Y  Y14  1  0.997899  0.002101  0.987355  1
  Y  Y15  1  0.998218  0.001782  0.483449  1
  Bi  Bi16  1  0.166542  0.833458  0.753856  1
  Pb  Pb17  1  0.333175  0.166019  0.255851  1
  Pb  Pb18  1  0.833981  0.666825  0.255851  1
  Pb  Pb19  1  0.166322  0.333231  0.756285  1
  Pb  Pb20  1  0.666769  0.833678  0.756285  1
  Pb  Pb21  1  0.833514  0.166486  0.255248  1
  Pb  Pb22  1  0.332650  0.667350  0.224676  1
  Pb  Pb23  1  0.666858  0.333142  0.723954  1
