# generated using pymatgen
data_Tm2Fe7Ni(P3Ru)2
_symmetry_space_group_name_H-M   'P 1'
_cell_length_a   3.67683300
_cell_length_b   10.19712100
_cell_length_c   11.91765500
_cell_angle_alpha   90.00000000
_cell_angle_beta   90.00000000
_cell_angle_gamma   90.00000000
_symmetry_Int_Tables_number   1
_chemical_formula_structural   Tm2Fe7Ni(P3Ru)2
_chemical_formula_sum   'Tm4 Fe14 Ni2 P12 Ru4'
_cell_volume   446.82996175
_cell_formula_units_Z   2
loop_
 _symmetry_equiv_pos_site_id
 _symmetry_equiv_pos_as_xyz
  1  'x, y, z'
loop_
 _atom_site_type_symbol
 _atom_site_label
 _atom_site_symmetry_multiplicity
 _atom_site_fract_x
 _atom_site_fract_y
 _atom_site_fract_z
 _atom_site_occupancy
  Tm  Tm0  1  0.250000  0.582389  0.706330  1
  Tm  Tm1  1  0.250000  0.917611  0.206330  1
  Tm  Tm2  1  0.750000  0.418709  0.293621  1
  Tm  Tm3  1  0.750000  0.081291  0.793621  1
  Fe  Fe4  1  0.750000  0.591546  0.513057  1
  Fe  Fe5  1  0.750000  0.908454  0.013057  1
  Fe  Fe6  1  0.250000  0.221156  0.172638  1
  Fe  Fe7  1  0.250000  0.278844  0.672638  1
  Fe  Fe8  1  0.750000  0.778857  0.827582  1
  Fe  Fe9  1  0.750000  0.721143  0.327582  1
  Fe  Fe10  1  0.250000  0.881992  0.702070  1
  Fe  Fe11  1  0.250000  0.618008  0.202070  1
  Fe  Fe12  1  0.750000  0.118213  0.299246  1
  Fe  Fe13  1  0.750000  0.381787  0.799246  1
  Fe  Fe14  1  0.250000  0.462753  0.935256  1
  Fe  Fe15  1  0.250000  0.037247  0.435256  1
  Fe  Fe16  1  0.750000  0.535927  0.066237  1
  Fe  Fe17  1  0.750000  0.964073  0.566237  1
  Ni  Ni18  1  0.250000  0.406163  0.484326  1
  Ni  Ni19  1  0.250000  0.093837  0.984326  1
  P  P20  1  0.250000  0.422992  0.114593  1
  P  P21  1  0.250000  0.077008  0.614593  1
  P  P22  1  0.750000  0.576706  0.885912  1
  P  P23  1  0.750000  0.923294  0.385912  1
  P  P24  1  0.250000  0.272375  0.857563  1
  P  P25  1  0.250000  0.227625  0.357563  1
  P  P26  1  0.750000  0.731784  0.138480  1
  P  P27  1  0.750000  0.768216  0.638480  1
  P  P28  1  0.250000  0.601528  0.389510  1
  P  P29  1  0.250000  0.898472  0.889510  1
  P  P30  1  0.750000  0.402857  0.613931  1
  P  P31  1  0.750000  0.097143  0.113931  1
  Ru  Ru32  1  0.250000  0.708159  0.991075  1
  Ru  Ru33  1  0.250000  0.791841  0.491075  1
  Ru  Ru34  1  0.750000  0.288646  0.008573  1
  Ru  Ru35  1  0.750000  0.211354  0.508573  1
