# generated using pymatgen
data_CsOsBr6
_symmetry_space_group_name_H-M   'P 1'
_cell_length_a   7.35829006
_cell_length_b   7.35829081
_cell_length_c   13.19089362
_cell_angle_alpha   79.15765784
_cell_angle_beta   79.15765619
_cell_angle_gamma   55.55500404
_symmetry_Int_Tables_number   1
_chemical_formula_structural   CsOsBr6
_chemical_formula_sum   'Cs2 Os2 Br12'
_cell_volume   575.52451238
_cell_formula_units_Z   2
loop_
 _symmetry_equiv_pos_site_id
 _symmetry_equiv_pos_as_xyz
  1  'x, y, z'
loop_
 _atom_site_type_symbol
 _atom_site_label
 _atom_site_symmetry_multiplicity
 _atom_site_fract_x
 _atom_site_fract_y
 _atom_site_fract_z
 _atom_site_occupancy
  Cs  Cs0  1  0.883844  0.116156  0.750000  1
  Cs  Cs1  1  0.116156  0.883844  0.250000  1
  Os  Os2  1  0.500000  0.000000  0.500000  1
  Os  Os3  1  0.000000  0.500000  0.000000  1
  Br  Br4  1  0.462343  0.700814  0.603474  1
  Br  Br5  1  0.537657  0.299186  0.396526  1
  Br  Br6  1  0.299186  0.537657  0.896526  1
  Br  Br7  1  0.700814  0.462343  0.103474  1
  Br  Br8  1  0.370889  0.199464  0.657530  1
  Br  Br9  1  0.629111  0.800536  0.342470  1
  Br  Br10  1  0.800536  0.629111  0.842470  1
  Br  Br11  1  0.199464  0.370889  0.157530  1
  Br  Br12  1  0.798201  0.889767  0.039513  1
  Br  Br13  1  0.201799  0.110233  0.960487  1
  Br  Br14  1  0.110233  0.201799  0.460487  1
  Br  Br15  1  0.889767  0.798201  0.539513  1
