# generated using pymatgen
data_HoLu2Fe9
_symmetry_space_group_name_H-M   'P 1'
_cell_length_a   8.53940823
_cell_length_b   8.53940836
_cell_length_c   8.53940982
_cell_angle_alpha   34.40361196
_cell_angle_beta   34.40360919
_cell_angle_gamma   34.40361125
_symmetry_Int_Tables_number   1
_chemical_formula_structural   HoLu2Fe9
_chemical_formula_sum   'Ho1 Lu2 Fe9'
_cell_volume   177.32248881
_cell_formula_units_Z   1
loop_
 _symmetry_equiv_pos_site_id
 _symmetry_equiv_pos_as_xyz
  1  'x, y, z'
loop_
 _atom_site_type_symbol
 _atom_site_label
 _atom_site_symmetry_multiplicity
 _atom_site_fract_x
 _atom_site_fract_y
 _atom_site_fract_z
 _atom_site_occupancy
  Ho  Ho0  1  0.000000  0.000000  0.000000  1
  Lu  Lu1  1  0.142097  0.142097  0.142097  1
  Lu  Lu2  1  0.857903  0.857903  0.857903  1
  Fe  Fe3  1  0.500000  0.500000  0.500000  1
  Fe  Fe4  1  0.332733  0.332733  0.332733  1
  Fe  Fe5  1  0.667267  0.667267  0.667267  1
  Fe  Fe6  1  0.081926  0.582717  0.582717  1
  Fe  Fe7  1  0.582717  0.582717  0.081926  1
  Fe  Fe8  1  0.582717  0.081926  0.582717  1
  Fe  Fe9  1  0.417283  0.918074  0.417283  1
  Fe  Fe10  1  0.918074  0.417283  0.417283  1
  Fe  Fe11  1  0.417283  0.417283  0.918074  1
