# generated using pymatgen
data_YbGd(PaH4)6
_symmetry_space_group_name_H-M   'P 1'
_cell_length_a   6.56078000
_cell_length_b   6.56078000
_cell_length_c   6.56078000
_cell_angle_alpha   90.00000000
_cell_angle_beta   90.00000000
_cell_angle_gamma   90.00000000
_symmetry_Int_Tables_number   1
_chemical_formula_structural   YbGd(PaH4)6
_chemical_formula_sum   'Yb1 Gd1 Pa6 H24'
_cell_volume   282.40112660
_cell_formula_units_Z   1
loop_
 _symmetry_equiv_pos_site_id
 _symmetry_equiv_pos_as_xyz
  1  'x, y, z'
loop_
 _atom_site_type_symbol
 _atom_site_label
 _atom_site_symmetry_multiplicity
 _atom_site_fract_x
 _atom_site_fract_y
 _atom_site_fract_z
 _atom_site_occupancy
  Yb  Yb0  1  0.500000  0.500000  0.500000  1
  Gd  Gd1  1  0.000000  0.000000  0.000000  1
  Pa  Pa2  1  0.251359  0.000000  0.500000  1
  Pa  Pa3  1  0.748641  0.000000  0.500000  1
  Pa  Pa4  1  0.000000  0.500000  0.251359  1
  Pa  Pa5  1  0.000000  0.500000  0.748641  1
  Pa  Pa6  1  0.500000  0.748641  0.000000  1
  Pa  Pa7  1  0.500000  0.251359  0.000000  1
  H  H8  1  0.000000  0.155935  0.308047  1
  H  H9  1  0.500000  0.189109  0.656322  1
  H  H10  1  0.500000  0.810891  0.343678  1
  H  H11  1  0.810891  0.656322  0.500000  1
  H  H12  1  0.189109  0.656322  0.500000  1
  H  H13  1  0.343678  0.500000  0.810891  1
  H  H14  1  0.656322  0.500000  0.810891  1
  H  H15  1  0.308047  0.000000  0.155935  1
  H  H16  1  0.155935  0.308047  0.000000  1
  H  H17  1  0.844065  0.691953  0.000000  1
  H  H18  1  0.308047  0.000000  0.844065  1
  H  H19  1  0.844065  0.308047  0.000000  1
  H  H20  1  0.691953  0.000000  0.155935  1
  H  H21  1  0.691953  0.000000  0.844065  1
  H  H22  1  0.155935  0.691953  0.000000  1
  H  H23  1  0.000000  0.844065  0.691953  1
  H  H24  1  0.000000  0.155935  0.691953  1
  H  H25  1  0.000000  0.844065  0.308047  1
  H  H26  1  0.656322  0.500000  0.189109  1
  H  H27  1  0.343678  0.500000  0.189109  1
  H  H28  1  0.810891  0.343678  0.500000  1
  H  H29  1  0.189109  0.343678  0.500000  1
  H  H30  1  0.500000  0.810891  0.656322  1
  H  H31  1  0.500000  0.189109  0.343678  1
