# generated using pymatgen
data_Sr3La(Yb3Pt4)2
_symmetry_space_group_name_H-M   'P 1'
_cell_length_a   7.65096200
_cell_length_b   7.79327796
_cell_length_c   14.84588990
_cell_angle_alpha   89.66791643
_cell_angle_beta   90.00021411
_cell_angle_gamma   90.00083873
_symmetry_Int_Tables_number   1
_chemical_formula_structural   Sr3La(Yb3Pt4)2
_chemical_formula_sum   'Sr6 La2 Yb12 Pt16'
_cell_volume   885.18725405
_cell_formula_units_Z   2
loop_
 _symmetry_equiv_pos_site_id
 _symmetry_equiv_pos_as_xyz
  1  'x, y, z'
loop_
 _atom_site_type_symbol
 _atom_site_label
 _atom_site_symmetry_multiplicity
 _atom_site_fract_x
 _atom_site_fract_y
 _atom_site_fract_z
 _atom_site_occupancy
  Sr  Sr0  1  0.498698  0.675150  0.403139  1
  Sr  Sr1  1  0.998689  0.824852  0.096863  1
  Sr  Sr2  1  0.498530  0.675961  0.096970  1
  Sr  Sr3  1  0.998528  0.824041  0.403028  1
  Sr  Sr4  1  0.501292  0.326451  0.596190  1
  Sr  Sr5  1  0.001293  0.173540  0.903814  1
  La  La6  1  0.496405  0.320811  0.901482  1
  La  La7  1  0.996407  0.179193  0.598520  1
  Yb  Yb8  1  0.339014  0.832464  0.877416  1
  Yb  Yb9  1  0.839016  0.667536  0.622584  1
  Yb  Yb10  1  0.660610  0.165871  0.376689  1
  Yb  Yb11  1  0.160611  0.334129  0.123309  1
  Yb  Yb12  1  0.661262  0.167072  0.123440  1
  Yb  Yb13  1  0.161262  0.332930  0.376558  1
  Yb  Yb14  1  0.339349  0.831631  0.623177  1
  Yb  Yb15  1  0.839348  0.668370  0.876824  1
  Yb  Yb16  1  0.177246  0.500510  0.749805  1
  Yb  Yb17  1  0.677246  0.999491  0.750196  1
  Yb  Yb18  1  0.822686  0.501209  0.249826  1
  Yb  Yb19  1  0.322685  0.998789  0.250173  1
  Pt  Pt20  1  0.335281  0.047779  0.039462  1
  Pt  Pt21  1  0.835281  0.452222  0.460537  1
  Pt  Pt22  1  0.675317  0.970452  0.544693  1
  Pt  Pt23  1  0.175314  0.529547  0.955307  1
  Pt  Pt24  1  0.662638  0.971336  0.954171  1
  Pt  Pt25  1  0.162640  0.528665  0.545828  1
  Pt  Pt26  1  0.329369  0.041407  0.462680  1
  Pt  Pt27  1  0.829370  0.458593  0.037320  1
  Pt  Pt28  1  0.545614  0.623275  0.753483  1
  Pt  Pt29  1  0.045614  0.876720  0.746518  1
  Pt  Pt30  1  0.454369  0.370719  0.250117  1
  Pt  Pt31  1  0.954370  0.129285  0.249881  1
  Pt  Pt32  1  0.304541  0.132967  0.753604  1
  Pt  Pt33  1  0.804541  0.367031  0.746396  1
  Pt  Pt34  1  0.697781  0.873270  0.250247  1
  Pt  Pt35  1  0.197782  0.626730  0.249752  1
