# generated using pymatgen
data_Dy2Er6Re3TcC8
_symmetry_space_group_name_H-M   'P 1'
_cell_length_a   5.07176000
_cell_length_b   6.54290974
_cell_length_c   9.80498101
_cell_angle_alpha   90.02995703
_cell_angle_beta   90.00000000
_cell_angle_gamma   90.00000000
_symmetry_Int_Tables_number   1
_chemical_formula_structural   Dy2Er6Re3TcC8
_chemical_formula_sum   'Dy2 Er6 Re3 Tc1 C8'
_cell_volume   325.36911140
_cell_formula_units_Z   1
loop_
 _symmetry_equiv_pos_site_id
 _symmetry_equiv_pos_as_xyz
  1  'x, y, z'
loop_
 _atom_site_type_symbol
 _atom_site_label
 _atom_site_symmetry_multiplicity
 _atom_site_fract_x
 _atom_site_fract_y
 _atom_site_fract_z
 _atom_site_occupancy
  Dy  Dy0  1  0.750000  0.533261  0.783606  1
  Dy  Dy1  1  0.250000  0.965972  0.283342  1
  Er  Er2  1  0.750000  0.677678  0.442369  1
  Er  Er3  1  0.250000  0.823669  0.942518  1
  Er  Er4  1  0.750000  0.177387  0.057987  1
  Er  Er5  1  0.250000  0.321759  0.558318  1
  Er  Er6  1  0.250000  0.465477  0.216886  1
  Er  Er7  1  0.750000  0.033851  0.716853  1
  Re  Re8  1  0.250000  0.782241  0.632214  1
  Re  Re9  1  0.750000  0.218680  0.367844  1
  Re  Re10  1  0.750000  0.718208  0.132164  1
  Tc  Tc11  1  0.250000  0.281685  0.867925  1
  C  C12  1  0.250000  0.674495  0.448587  1
  C  C13  1  0.250000  0.550381  0.757750  1
  C  C14  1  0.750000  0.451153  0.241187  1
  C  C15  1  0.750000  0.825014  0.948625  1
  C  C16  1  0.250000  0.048744  0.740775  1
  C  C17  1  0.250000  0.175279  0.050616  1
  C  C18  1  0.750000  0.324241  0.551616  1
  C  C19  1  0.750000  0.950824  0.258819  1
