# generated using pymatgen
data_Na7NbAs4
_symmetry_space_group_name_H-M   'P 1'
_cell_length_a   7.52434600
_cell_length_b   8.43178600
_cell_length_c   9.34079300
_cell_angle_alpha   90.00000000
_cell_angle_beta   90.00000000
_cell_angle_gamma   90.00000000
_symmetry_Int_Tables_number   1
_chemical_formula_structural   Na7NbAs4
_chemical_formula_sum   'Na14 Nb2 As8'
_cell_volume   592.61423778
_cell_formula_units_Z   2
loop_
 _symmetry_equiv_pos_site_id
 _symmetry_equiv_pos_as_xyz
  1  'x, y, z'
loop_
 _atom_site_type_symbol
 _atom_site_label
 _atom_site_symmetry_multiplicity
 _atom_site_fract_x
 _atom_site_fract_y
 _atom_site_fract_z
 _atom_site_occupancy
  Na  Na0  1  0.711834  0.833437  0.724677  1
  Na  Na1  1  0.211834  0.166563  0.775323  1
  Na  Na2  1  0.211834  0.166563  0.224677  1
  Na  Na3  1  0.711834  0.833437  0.275323  1
  Na  Na4  1  0.871109  0.459002  0.709296  1
  Na  Na5  1  0.371109  0.540998  0.790704  1
  Na  Na6  1  0.371109  0.540998  0.209296  1
  Na  Na7  1  0.871109  0.459002  0.290704  1
  Na  Na8  1  0.159386  0.660612  0.500000  1
  Na  Na9  1  0.659386  0.339388  0.000000  1
  Na  Na10  1  0.878596  0.038018  0.000000  1
  Na  Na11  1  0.378596  0.961982  0.500000  1
  Na  Na12  1  0.383527  0.901087  0.000000  1
  Na  Na13  1  0.883527  0.098913  0.500000  1
  Nb  Nb14  1  0.000080  0.673126  0.000000  1
  Nb  Nb15  1  0.500080  0.326874  0.500000  1
  As  As16  1  0.668640  0.677109  0.000000  1
  As  As17  1  0.168640  0.322891  0.500000  1
  As  As18  1  0.104481  0.821325  0.777605  1
  As  As19  1  0.604481  0.178675  0.722395  1
  As  As20  1  0.604481  0.178675  0.277605  1
  As  As21  1  0.104481  0.821325  0.222395  1
  As  As22  1  0.587533  0.612849  0.500000  1
  As  As23  1  0.087533  0.387151  0.000000  1
