# generated using pymatgen
data_Dy3Y13CdIn3Ir4
_symmetry_space_group_name_H-M   'P 1'
_cell_length_a   9.68982647
_cell_length_b   9.70624409
_cell_length_c   9.70624400
_cell_angle_alpha   60.00000032
_cell_angle_beta   59.94393697
_cell_angle_gamma   59.94393298
_symmetry_Int_Tables_number   1
_chemical_formula_structural   Dy3Y13CdIn3Ir4
_chemical_formula_sum   'Dy3 Y13 Cd1 In3 Ir4'
_cell_volume   644.96309502
_cell_formula_units_Z   1
loop_
 _symmetry_equiv_pos_site_id
 _symmetry_equiv_pos_as_xyz
  1  'x, y, z'
loop_
 _atom_site_type_symbol
 _atom_site_label
 _atom_site_symmetry_multiplicity
 _atom_site_fract_x
 _atom_site_fract_y
 _atom_site_fract_z
 _atom_site_occupancy
  Dy  Dy0  1  0.349379  0.349435  0.349435  1
  Dy  Dy1  1  0.349379  0.349435  0.951751  1
  Dy  Dy2  1  0.349379  0.951751  0.349435  1
  Y  Y3  1  0.950617  0.349795  0.349795  1
  Y  Y4  1  0.808791  0.190984  0.190984  1
  Y  Y5  1  0.190168  0.810011  0.810011  1
  Y  Y6  1  0.190168  0.810011  0.189811  1
  Y  Y7  1  0.808791  0.190984  0.809242  1
  Y  Y8  1  0.190168  0.189811  0.810011  1
  Y  Y9  1  0.808791  0.809242  0.190984  1
  Y  Y10  1  0.939600  0.561743  0.561743  1
  Y  Y11  1  0.561635  0.938895  0.938895  1
  Y  Y12  1  0.561635  0.938895  0.560576  1
  Y  Y13  1  0.939600  0.561743  0.936914  1
  Y  Y14  1  0.561635  0.560576  0.938895  1
  Y  Y15  1  0.939600  0.936914  0.561743  1
  Cd  Cd16  1  0.253148  0.582284  0.582284  1
  In  In17  1  0.582446  0.583565  0.583565  1
  In  In18  1  0.582446  0.583565  0.250426  1
  In  In19  1  0.582446  0.250426  0.583565  1
  Ir  Ir20  1  0.142682  0.141493  0.141493  1
  Ir  Ir21  1  0.142682  0.141493  0.574334  1
  Ir  Ir22  1  0.142682  0.574334  0.141493  1
  Ir  Ir23  1  0.572138  0.142621  0.142621  1
