# generated using pymatgen
data_SmHoTmSe4
_symmetry_space_group_name_H-M   'P 1'
_cell_length_a   4.06999400
_cell_length_b   7.12940343
_cell_length_c   6.99558032
_cell_angle_alpha   71.79135815
_cell_angle_beta   90.00000000
_cell_angle_gamma   90.00000000
_symmetry_Int_Tables_number   1
_chemical_formula_structural   SmHoTmSe4
_chemical_formula_sum   'Sm1 Ho1 Tm1 Se4'
_cell_volume   192.82351416
_cell_formula_units_Z   1
loop_
 _symmetry_equiv_pos_site_id
 _symmetry_equiv_pos_as_xyz
  1  'x, y, z'
loop_
 _atom_site_type_symbol
 _atom_site_label
 _atom_site_symmetry_multiplicity
 _atom_site_fract_x
 _atom_site_fract_y
 _atom_site_fract_z
 _atom_site_occupancy
  Sm  Sm0  1  0.000000  0.000000  0.000000  1
  Ho  Ho1  1  0.000000  0.500000  0.500000  1
  Tm  Tm2  1  0.500000  0.500000  0.000000  1
  Se  Se3  1  0.500000  0.745584  0.257964  1
  Se  Se4  1  0.000000  0.262441  0.243552  1
  Se  Se5  1  0.500000  0.254416  0.742036  1
  Se  Se6  1  0.000000  0.737559  0.756448  1
