# generated using pymatgen
data_HoEr4Mg(P2Ru3)6
_symmetry_space_group_name_H-M   'P 1'
_cell_length_a   12.61481806
_cell_length_b   12.45375159
_cell_length_c   3.97435300
_cell_angle_alpha   90.00000000
_cell_angle_beta   90.00000000
_cell_angle_gamma   119.57935186
_symmetry_Int_Tables_number   1
_chemical_formula_structural   HoEr4Mg(P2Ru3)6
_chemical_formula_sum   'Ho1 Er4 Mg1 P12 Ru18'
_cell_volume   543.00465786
_cell_formula_units_Z   1
loop_
 _symmetry_equiv_pos_site_id
 _symmetry_equiv_pos_as_xyz
  1  'x, y, z'
loop_
 _atom_site_type_symbol
 _atom_site_label
 _atom_site_symmetry_multiplicity
 _atom_site_fract_x
 _atom_site_fract_y
 _atom_site_fract_z
 _atom_site_occupancy
  Ho  Ho0  1  0.339198  0.668158  0.000000  1
  Er  Er1  1  0.000005  0.181061  0.500000  1
  Er  Er2  1  0.816186  0.818116  0.500000  1
  Er  Er3  1  0.183811  0.001933  0.500000  1
  Er  Er4  1  0.660790  0.328927  0.000000  1
  Mg  Mg5  1  0.999997  0.561386  0.000000  1
  P  P6  1  0.999992  0.812813  0.000000  1
  P  P7  1  0.182959  0.183363  0.000000  1
  P  P8  1  0.817053  0.000427  0.000000  1
  P  P9  1  0.691141  0.172128  0.500000  1
  P  P10  1  0.819034  0.518609  0.500000  1
  P  P11  1  0.475466  0.307273  0.500000  1
  P  P12  1  0.180883  0.699610  0.500000  1
  P  P13  1  0.524642  0.831892  0.500000  1
  P  P14  1  0.308831  0.480854  0.500000  1
  P  P15  1  0.000009  0.359624  0.000000  1
  P  P16  1  0.625966  0.625716  0.000000  1
  P  P17  1  0.374024  0.999719  0.000000  1
  Ru  Ru18  1  0.444721  0.444596  0.000000  1
  Ru  Ru19  1  0.555273  0.999861  0.000000  1
  Ru  Ru20  1  0.999987  0.717393  0.500000  1
  Ru  Ru21  1  0.281758  0.283211  0.500000  1
  Ru  Ru22  1  0.718256  0.001488  0.500000  1
  Ru  Ru23  1  0.805264  0.184190  0.000000  1
  Ru  Ru24  1  0.813531  0.620417  0.000000  1
  Ru  Ru25  1  0.373410  0.188908  0.000000  1
  Ru  Ru26  1  0.186394  0.806922  0.000000  1
  Ru  Ru27  1  0.626689  0.815560  0.000000  1
  Ru  Ru28  1  0.194691  0.378832  0.000000  1
  Ru  Ru29  1  0.874739  0.365457  0.500000  1
  Ru  Ru30  1  0.631444  0.509405  0.500000  1
  Ru  Ru31  1  0.492849  0.128941  0.500000  1
  Ru  Ru32  1  0.368556  0.878127  0.500000  1
  Ru  Ru33  1  0.507335  0.636081  0.500000  1
  Ru  Ru34  1  0.125118  0.490573  0.500000  1
  Ru  Ru35  1  0.999997  0.998427  0.000000  1
