# generated using pymatgen
data_Er12Re(Si4Rh)3
_symmetry_space_group_name_H-M   'P 1'
_cell_length_a   4.19724800
_cell_length_b   10.64995405
_cell_length_c   12.26366717
_cell_angle_alpha   90.13960334
_cell_angle_beta   90.00000000
_cell_angle_gamma   90.00000000
_symmetry_Int_Tables_number   1
_chemical_formula_structural   Er12Re(Si4Rh)3
_chemical_formula_sum   'Er12 Re1 Si12 Rh3'
_cell_volume   548.19040670
_cell_formula_units_Z   1
loop_
 _symmetry_equiv_pos_site_id
 _symmetry_equiv_pos_as_xyz
  1  'x, y, z'
loop_
 _atom_site_type_symbol
 _atom_site_label
 _atom_site_symmetry_multiplicity
 _atom_site_fract_x
 _atom_site_fract_y
 _atom_site_fract_z
 _atom_site_occupancy
  Er  Er0  1  0.250000  0.877882  0.020306  1
  Er  Er1  1  0.250000  0.620629  0.521202  1
  Er  Er2  1  0.750000  0.119259  0.980099  1
  Er  Er3  1  0.750000  0.378892  0.480626  1
  Er  Er4  1  0.250000  0.921422  0.602753  1
  Er  Er5  1  0.250000  0.579745  0.104770  1
  Er  Er6  1  0.750000  0.079085  0.395294  1
  Er  Er7  1  0.750000  0.421084  0.895014  1
  Er  Er8  1  0.250000  0.665361  0.799052  1
  Er  Er9  1  0.250000  0.839218  0.299989  1
  Er  Er10  1  0.750000  0.339304  0.199010  1
  Er  Er11  1  0.750000  0.158366  0.700386  1
  Re  Re12  1  0.250000  0.392039  0.680239  1
  Si  Si13  1  0.250000  0.012647  0.822694  1
  Si  Si14  1  0.250000  0.485747  0.322293  1
  Si  Si15  1  0.750000  0.985520  0.178043  1
  Si  Si16  1  0.750000  0.513352  0.679483  1
  Si  Si17  1  0.250000  0.248432  0.841576  1
  Si  Si18  1  0.250000  0.251100  0.341753  1
  Si  Si19  1  0.750000  0.751172  0.158517  1
  Si  Si20  1  0.750000  0.751404  0.657024  1
  Si  Si21  1  0.250000  0.201032  0.543941  1
  Si  Si22  1  0.250000  0.300084  0.041791  1
  Si  Si23  1  0.750000  0.801697  0.457289  1
  Si  Si24  1  0.750000  0.696826  0.957810  1
  Rh  Rh25  1  0.250000  0.108400  0.180759  1
  Rh  Rh26  1  0.750000  0.609764  0.319180  1
  Rh  Rh27  1  0.750000  0.890541  0.819104  1
