# generated using pymatgen
data_Tb6CrCo2(P4Rh5)3
_symmetry_space_group_name_H-M   'P 1'
_cell_length_a   3.86218700
_cell_length_b   11.15539500
_cell_length_c   12.77954500
_cell_angle_alpha   90.00000000
_cell_angle_beta   90.00000000
_cell_angle_gamma   90.00000000
_symmetry_Int_Tables_number   1
_chemical_formula_structural   Tb6CrCo2(P4Rh5)3
_chemical_formula_sum   'Tb6 Cr1 Co2 P12 Rh15'
_cell_volume   550.59674807
_cell_formula_units_Z   1
loop_
 _symmetry_equiv_pos_site_id
 _symmetry_equiv_pos_as_xyz
  1  'x, y, z'
loop_
 _atom_site_type_symbol
 _atom_site_label
 _atom_site_symmetry_multiplicity
 _atom_site_fract_x
 _atom_site_fract_y
 _atom_site_fract_z
 _atom_site_occupancy
  Tb  Tb0  1  0.000000  0.500000  0.520210  1
  Tb  Tb1  1  0.500000  0.000000  0.478552  1
  Tb  Tb2  1  0.500000  0.815751  0.202250  1
  Tb  Tb3  1  0.500000  0.184249  0.202250  1
  Tb  Tb4  1  0.000000  0.683208  0.799816  1
  Tb  Tb5  1  0.000000  0.316792  0.799816  1
  Cr  Cr6  1  0.500000  0.500000  0.160877  1
  Co  Co7  1  0.000000  0.500000  0.986564  1
  Co  Co8  1  0.500000  0.000000  0.019729  1
  P  P9  1  0.500000  0.500000  0.882909  1
  P  P10  1  0.000000  0.000000  0.117897  1
  P  P11  1  0.500000  0.500000  0.345109  1
  P  P12  1  0.000000  0.000000  0.649567  1
  P  P13  1  0.500000  0.315800  0.618992  1
  P  P14  1  0.500000  0.684200  0.618992  1
  P  P15  1  0.000000  0.185710  0.380780  1
  P  P16  1  0.000000  0.814290  0.380780  1
  P  P17  1  0.500000  0.853733  0.894781  1
  P  P18  1  0.500000  0.146267  0.894781  1
  P  P19  1  0.000000  0.646996  0.105497  1
  P  P20  1  0.000000  0.353004  0.105497  1
  Rh  Rh21  1  0.000000  0.000000  0.832948  1
  Rh  Rh22  1  0.500000  0.500000  0.703246  1
  Rh  Rh23  1  0.000000  0.000000  0.296639  1
  Rh  Rh24  1  0.500000  0.336065  0.994523  1
  Rh  Rh25  1  0.500000  0.663935  0.994523  1
  Rh  Rh26  1  0.000000  0.163817  0.007178  1
  Rh  Rh27  1  0.000000  0.836183  0.007178  1
  Rh  Rh28  1  0.500000  0.293159  0.430711  1
  Rh  Rh29  1  0.500000  0.706841  0.430711  1
  Rh  Rh30  1  0.000000  0.205913  0.569876  1
  Rh  Rh31  1  0.000000  0.794087  0.569876  1
  Rh  Rh32  1  0.500000  0.873229  0.711439  1
  Rh  Rh33  1  0.500000  0.126771  0.711439  1
  Rh  Rh34  1  0.000000  0.624764  0.287035  1
  Rh  Rh35  1  0.000000  0.375236  0.287035  1
