# generated using pymatgen
data_Th2OsWC3
_symmetry_space_group_name_H-M   'P 1'
_cell_length_a   3.40618700
_cell_length_b   5.46005300
_cell_length_c   12.04984200
_cell_angle_alpha   90.00000000
_cell_angle_beta   90.00000000
_cell_angle_gamma   90.00000000
_symmetry_Int_Tables_number   1
_chemical_formula_structural   Th2OsWC3
_chemical_formula_sum   'Th4 Os2 W2 C6'
_cell_volume   224.10249817
_cell_formula_units_Z   2
loop_
 _symmetry_equiv_pos_site_id
 _symmetry_equiv_pos_as_xyz
  1  'x, y, z'
loop_
 _atom_site_type_symbol
 _atom_site_label
 _atom_site_symmetry_multiplicity
 _atom_site_fract_x
 _atom_site_fract_y
 _atom_site_fract_z
 _atom_site_occupancy
  Th  Th0  1  0.500000  0.840033  0.158139  1
  Th  Th1  1  0.000000  0.340033  0.341861  1
  Th  Th2  1  0.000000  0.660413  0.659579  1
  Th  Th3  1  0.500000  0.160413  0.840421  1
  Os  Os4  1  0.500000  0.175944  0.577075  1
  Os  Os5  1  0.000000  0.675944  0.922925  1
  W  W6  1  0.500000  0.827469  0.430315  1
  W  W7  1  0.000000  0.327469  0.069685  1
  C  C8  1  0.000000  0.163388  0.670940  1
  C  C9  1  0.500000  0.663388  0.829060  1
  C  C10  1  0.000000  0.831872  0.326086  1
  C  C11  1  0.000000  0.000881  0.998600  1
  C  C12  1  0.500000  0.331872  0.173914  1
  C  C13  1  0.500000  0.500881  0.501400  1
