# generated using pymatgen
data_Ba6Sc2TcO12
_symmetry_space_group_name_H-M   'P 1'
_cell_length_a   9.27279781
_cell_length_b   9.27279729
_cell_length_c   7.40003064
_cell_angle_alpha   67.94795065
_cell_angle_beta   67.94795069
_cell_angle_gamma   36.84438379
_symmetry_Int_Tables_number   1
_chemical_formula_structural   Ba6Sc2TcO12
_chemical_formula_sum   'Ba6 Sc2 Tc1 O12'
_cell_volume   350.40065581
_cell_formula_units_Z   1
loop_
 _symmetry_equiv_pos_site_id
 _symmetry_equiv_pos_as_xyz
  1  'x, y, z'
loop_
 _atom_site_type_symbol
 _atom_site_label
 _atom_site_symmetry_multiplicity
 _atom_site_fract_x
 _atom_site_fract_y
 _atom_site_fract_z
 _atom_site_occupancy
  Ba  Ba0  1  0.218658  0.218658  0.708560  1
  Ba  Ba1  1  0.877292  0.877292  0.712796  1
  Ba  Ba2  1  0.548526  0.548526  0.706862  1
  Ba  Ba3  1  0.781342  0.781342  0.291440  1
  Ba  Ba4  1  0.451474  0.451474  0.293138  1
  Ba  Ba5  1  0.122708  0.122708  0.287204  1
  Sc  Sc6  1  0.668821  0.668821  0.999264  1
  Sc  Sc7  1  0.331179  0.331179  0.000736  1
  Tc  Tc8  1  0.000000  0.000000  0.000000  1
  O  O9  1  0.283455  0.283455  0.315386  1
  O  O10  1  0.951609  0.951609  0.292318  1
  O  O11  1  0.610420  0.610420  0.316803  1
  O  O12  1  0.716545  0.716545  0.684614  1
  O  O13  1  0.389580  0.389580  0.683197  1
  O  O14  1  0.048391  0.048391  0.707682  1
  O  O15  1  0.000000  0.500000  0.000000  1
  O  O16  1  0.686230  0.158872  0.999247  1
  O  O17  1  0.313770  0.841128  0.000753  1
  O  O18  1  0.500000  0.000000  0.000000  1
  O  O19  1  0.158872  0.686230  0.999247  1
  O  O20  1  0.841128  0.313770  0.000753  1
