# generated using pymatgen
data_Cs2AlGaH8
_symmetry_space_group_name_H-M   'P 1'
_cell_length_a   6.03629900
_cell_length_b   8.01167300
_cell_length_c   10.09550600
_cell_angle_alpha   90.00000000
_cell_angle_beta   90.00000000
_cell_angle_gamma   90.00000000
_symmetry_Int_Tables_number   1
_chemical_formula_structural   Cs2AlGaH8
_chemical_formula_sum   'Cs4 Al2 Ga2 H16'
_cell_volume   488.22728888
_cell_formula_units_Z   2
loop_
 _symmetry_equiv_pos_site_id
 _symmetry_equiv_pos_as_xyz
  1  'x, y, z'
loop_
 _atom_site_type_symbol
 _atom_site_label
 _atom_site_symmetry_multiplicity
 _atom_site_fract_x
 _atom_site_fract_y
 _atom_site_fract_z
 _atom_site_occupancy
  Cs  Cs0  1  0.250000  0.335764  0.684785  1
  Cs  Cs1  1  0.250000  0.164235  0.184785  1
  Cs  Cs2  1  0.750000  0.664174  0.315575  1
  Cs  Cs3  1  0.750000  0.835826  0.815575  1
  Al  Al4  1  0.250000  0.695917  0.059946  1
  Al  Al5  1  0.250000  0.804083  0.559946  1
  Ga  Ga6  1  0.750000  0.303756  0.939943  1
  Ga  Ga7  1  0.750000  0.196244  0.439943  1
  H  H8  1  0.250000  0.618142  0.910538  1
  H  H9  1  0.250000  0.881858  0.410538  1
  H  H10  1  0.750000  0.380620  0.085702  1
  H  H11  1  0.750000  0.119380  0.585702  1
  H  H12  1  0.250000  0.553059  0.175539  1
  H  H13  1  0.250000  0.946941  0.675539  1
  H  H14  1  0.750000  0.443816  0.827185  1
  H  H15  1  0.750000  0.056184  0.327185  1
  H  H16  1  0.964828  0.187376  0.920515  1
  H  H17  1  0.535172  0.312624  0.420515  1
  H  H18  1  0.469074  0.814864  0.079879  1
  H  H19  1  0.030926  0.685136  0.579879  1
  H  H20  1  0.030926  0.814864  0.079879  1
  H  H21  1  0.469074  0.685136  0.579879  1
  H  H22  1  0.535172  0.187376  0.920515  1
  H  H23  1  0.964828  0.312624  0.420515  1
