# generated using pymatgen
data_Er4As6Ru2Rh5
_symmetry_space_group_name_H-M   'P 1'
_cell_length_a   7.22465681
_cell_length_b   7.22525271
_cell_length_c   7.22465646
_cell_angle_alpha   109.54372799
_cell_angle_beta   109.30858398
_cell_angle_gamma   109.54372787
_symmetry_Int_Tables_number   1
_chemical_formula_structural   Er4As6Ru2Rh5
_chemical_formula_sum   'Er4 As6 Ru2 Rh5'
_cell_volume   290.37428946
_cell_formula_units_Z   1
loop_
 _symmetry_equiv_pos_site_id
 _symmetry_equiv_pos_as_xyz
  1  'x, y, z'
loop_
 _atom_site_type_symbol
 _atom_site_label
 _atom_site_symmetry_multiplicity
 _atom_site_fract_x
 _atom_site_fract_y
 _atom_site_fract_z
 _atom_site_occupancy
  Er  Er0  1  0.000034  0.999988  0.500002  1
  Er  Er1  1  0.499998  0.000012  0.999966  1
  Er  Er2  1  0.999992  0.500000  0.000008  1
  Er  Er3  1  0.499984  0.500000  0.500016  1
  As  As4  1  0.681308  0.683762  0.997449  1
  As  As5  1  0.313722  0.316185  0.997580  1
  As  As6  1  0.002420  0.683815  0.686278  1
  As  As7  1  0.002551  0.316238  0.318692  1
  As  As8  1  0.685307  0.999964  0.685318  1
  As  As9  1  0.314682  0.000036  0.314693  1
  Ru  Ru10  1  0.999988  0.000000  0.000012  1
  Ru  Ru11  1  0.250003  0.500000  0.749997  1
  Rh  Rh12  1  0.749050  0.249115  0.499903  1
  Rh  Rh13  1  0.500101  0.249124  0.749227  1
  Rh  Rh14  1  0.500097  0.750885  0.250950  1
  Rh  Rh15  1  0.749990  0.500000  0.250010  1
  Rh  Rh16  1  0.250773  0.750876  0.499899  1
