# generated using pymatgen
data_PrCuPdO5
_symmetry_space_group_name_H-M   'P 1'
_cell_length_a   5.87203400
_cell_length_b   7.87569700
_cell_length_c   8.72008300
_cell_angle_alpha   90.00000000
_cell_angle_beta   90.00000000
_cell_angle_gamma   90.00000000
_symmetry_Int_Tables_number   1
_chemical_formula_structural   PrCuPdO5
_chemical_formula_sum   'Pr4 Cu4 Pd4 O20'
_cell_volume   403.27210251
_cell_formula_units_Z   4
loop_
 _symmetry_equiv_pos_site_id
 _symmetry_equiv_pos_as_xyz
  1  'x, y, z'
loop_
 _atom_site_type_symbol
 _atom_site_label
 _atom_site_symmetry_multiplicity
 _atom_site_fract_x
 _atom_site_fract_y
 _atom_site_fract_z
 _atom_site_occupancy
  Pr  Pr0  1  0.000000  0.350384  0.672023  1
  Pr  Pr1  1  0.000000  0.649616  0.327977  1
  Pr  Pr2  1  0.000000  0.850384  0.827977  1
  Pr  Pr3  1  0.000000  0.149616  0.172023  1
  Cu  Cu4  1  0.500000  0.064859  0.849653  1
  Cu  Cu5  1  0.500000  0.935141  0.150347  1
  Cu  Cu6  1  0.500000  0.564859  0.650347  1
  Cu  Cu7  1  0.500000  0.435141  0.349653  1
  Pd  Pd8  1  0.257603  0.500000  0.000000  1
  Pd  Pd9  1  0.742397  0.000000  0.500000  1
  Pd  Pd10  1  0.742397  0.500000  0.000000  1
  Pd  Pd11  1  0.257603  0.000000  0.500000  1
  O  O12  1  0.247759  0.908715  0.281392  1
  O  O13  1  0.247759  0.091285  0.718608  1
  O  O14  1  0.752241  0.408715  0.218608  1
  O  O15  1  0.752241  0.591285  0.781392  1
  O  O16  1  0.752241  0.091285  0.718608  1
  O  O17  1  0.752241  0.908715  0.281392  1
  O  O18  1  0.247759  0.591285  0.781392  1
  O  O19  1  0.247759  0.408715  0.218608  1
  O  O20  1  0.500000  0.339224  0.940901  1
  O  O21  1  0.500000  0.660776  0.059099  1
  O  O22  1  0.500000  0.839224  0.559099  1
  O  O23  1  0.500000  0.160776  0.440901  1
  O  O24  1  0.283244  0.000000  0.000000  1
  O  O25  1  0.716756  0.500000  0.500000  1
  O  O26  1  0.716756  0.000000  0.000000  1
  O  O27  1  0.283244  0.500000  0.500000  1
  O  O28  1  0.000000  0.168405  0.445768  1
  O  O29  1  0.000000  0.831595  0.554232  1
  O  O30  1  0.000000  0.668405  0.054232  1
  O  O31  1  0.000000  0.331595  0.945768  1
