# generated using pymatgen
data_V3Co4ReB4
_symmetry_space_group_name_H-M   'P 1'
_cell_length_a   3.18338400
_cell_length_b   5.60973798
_cell_length_c   6.47716685
_cell_angle_alpha   89.58355043
_cell_angle_beta   90.00000000
_cell_angle_gamma   90.00000000
_symmetry_Int_Tables_number   1
_chemical_formula_structural   V3Co4ReB4
_chemical_formula_sum   'V3 Co4 Re1 B4'
_cell_volume   115.66586719
_cell_formula_units_Z   1
loop_
 _symmetry_equiv_pos_site_id
 _symmetry_equiv_pos_as_xyz
  1  'x, y, z'
loop_
 _atom_site_type_symbol
 _atom_site_label
 _atom_site_symmetry_multiplicity
 _atom_site_fract_x
 _atom_site_fract_y
 _atom_site_fract_z
 _atom_site_occupancy
  V  V0  1  0.250000  0.526500  0.675019  1
  V  V1  1  0.750000  0.471635  0.323723  1
  V  V2  1  0.250000  0.026711  0.824253  1
  Co  Co3  1  0.750000  0.853366  0.562802  1
  Co  Co4  1  0.250000  0.151959  0.446508  1
  Co  Co5  1  0.750000  0.352883  0.935960  1
  Co  Co6  1  0.250000  0.640373  0.058403  1
  Re  Re7  1  0.750000  0.973643  0.171781  1
  B  B8  1  0.250000  0.270596  0.126842  1
  B  B9  1  0.750000  0.731224  0.873499  1
  B  B10  1  0.250000  0.767062  0.373278  1
  B  B11  1  0.750000  0.234047  0.627934  1
