# generated using pymatgen
data_Ce3Co2CuSb4
_symmetry_space_group_name_H-M   'P 1'
_cell_length_a   8.28218950
_cell_length_b   8.28218975
_cell_length_c   8.28218963
_cell_angle_alpha   109.08897815
_cell_angle_beta   109.08897373
_cell_angle_gamma   110.23843951
_symmetry_Int_Tables_number   1
_chemical_formula_structural   Ce3Co2CuSb4
_chemical_formula_sum   'Ce6 Co4 Cu2 Sb8'
_cell_volume   437.27550463
_cell_formula_units_Z   2
loop_
 _symmetry_equiv_pos_site_id
 _symmetry_equiv_pos_as_xyz
  1  'x, y, z'
loop_
 _atom_site_type_symbol
 _atom_site_label
 _atom_site_symmetry_multiplicity
 _atom_site_fract_x
 _atom_site_fract_y
 _atom_site_fract_z
 _atom_site_occupancy
  Ce  Ce0  1  0.882613  0.250000  0.132613  1
  Ce  Ce1  1  0.617387  0.750000  0.367387  1
  Ce  Ce2  1  0.250000  0.117387  0.867387  1
  Ce  Ce3  1  0.750000  0.382613  0.632613  1
  Ce  Ce4  1  0.125000  0.875000  0.250000  1
  Ce  Ce5  1  0.375000  0.625000  0.750000  1
  Co  Co6  1  0.377675  0.250000  0.627675  1
  Co  Co7  1  0.122325  0.750000  0.872325  1
  Co  Co8  1  0.250000  0.622325  0.372325  1
  Co  Co9  1  0.750000  0.877675  0.127675  1
  Cu  Cu10  1  0.625000  0.375000  0.250000  1
  Cu  Cu11  1  0.875000  0.125000  0.750000  1
  Sb  Sb12  1  0.657703  0.501867  0.996438  1
  Sb  Sb13  1  0.494571  0.998133  0.655836  1
  Sb  Sb14  1  0.005429  0.661265  0.503562  1
  Sb  Sb15  1  0.842297  0.838735  0.844164  1
  Sb  Sb16  1  0.498133  0.994571  0.155836  1
  Sb  Sb17  1  0.161265  0.505429  0.003562  1
  Sb  Sb18  1  0.001867  0.157703  0.496438  1
  Sb  Sb19  1  0.338735  0.342297  0.344164  1
