# generated using pymatgen
data_Dy2Ho3Sn4
_symmetry_space_group_name_H-M   'P 1'
_cell_length_a   8.02596200
_cell_length_b   8.16632600
_cell_length_c   15.43724100
_cell_angle_alpha   90.00000000
_cell_angle_beta   90.00000000
_cell_angle_gamma   90.00000000
_symmetry_Int_Tables_number   1
_chemical_formula_structural   Dy2Ho3Sn4
_chemical_formula_sum   'Dy8 Ho12 Sn16'
_cell_volume   1011.79725399
_cell_formula_units_Z   4
loop_
 _symmetry_equiv_pos_site_id
 _symmetry_equiv_pos_as_xyz
  1  'x, y, z'
loop_
 _atom_site_type_symbol
 _atom_site_label
 _atom_site_symmetry_multiplicity
 _atom_site_fract_x
 _atom_site_fract_y
 _atom_site_fract_z
 _atom_site_occupancy
  Dy  Dy0  1  0.521375  0.320178  0.902377  1
  Dy  Dy1  1  0.021375  0.179822  0.597623  1
  Dy  Dy2  1  0.478625  0.679822  0.402377  1
  Dy  Dy3  1  0.978625  0.820178  0.097623  1
  Dy  Dy4  1  0.478625  0.679822  0.097623  1
  Dy  Dy5  1  0.978625  0.820178  0.402377  1
  Dy  Dy6  1  0.521375  0.320178  0.597623  1
  Dy  Dy7  1  0.021375  0.179822  0.902377  1
  Ho  Ho8  1  0.367686  0.836043  0.878066  1
  Ho  Ho9  1  0.867686  0.663957  0.621934  1
  Ho  Ho10  1  0.632314  0.163957  0.378066  1
  Ho  Ho11  1  0.132314  0.336043  0.121934  1
  Ho  Ho12  1  0.632314  0.163957  0.121934  1
  Ho  Ho13  1  0.132314  0.336043  0.378066  1
  Ho  Ho14  1  0.367686  0.836043  0.621934  1
  Ho  Ho15  1  0.867686  0.663957  0.878066  1
  Ho  Ho16  1  0.198241  0.503133  0.750000  1
  Ho  Ho17  1  0.698241  0.996867  0.750000  1
  Ho  Ho18  1  0.801759  0.496867  0.250000  1
  Ho  Ho19  1  0.301759  0.003133  0.250000  1
  Sn  Sn20  1  0.292648  0.035621  0.041772  1
  Sn  Sn21  1  0.792648  0.464379  0.458228  1
  Sn  Sn22  1  0.707352  0.964379  0.541772  1
  Sn  Sn23  1  0.207352  0.535621  0.958228  1
  Sn  Sn24  1  0.707352  0.964379  0.958228  1
  Sn  Sn25  1  0.207352  0.535621  0.541772  1
  Sn  Sn26  1  0.292648  0.035621  0.458228  1
  Sn  Sn27  1  0.792648  0.464379  0.041772  1
  Sn  Sn28  1  0.565287  0.619384  0.750000  1
  Sn  Sn29  1  0.065287  0.880616  0.750000  1
  Sn  Sn30  1  0.434713  0.380616  0.250000  1
  Sn  Sn31  1  0.934713  0.119384  0.250000  1
  Sn  Sn32  1  0.329524  0.147059  0.750000  1
  Sn  Sn33  1  0.829524  0.352941  0.750000  1
  Sn  Sn34  1  0.670476  0.852941  0.250000  1
  Sn  Sn35  1  0.170476  0.647059  0.250000  1
