# generated using pymatgen
data_Cs2Pr10Os2Br17
_symmetry_space_group_name_H-M   'P 1'
_cell_length_a   9.65301469
_cell_length_b   11.33491705
_cell_length_c   11.33545261
_cell_angle_alpha   107.61946016
_cell_angle_beta   93.64814196
_cell_angle_gamma   93.66088993
_symmetry_Int_Tables_number   1
_chemical_formula_structural   Cs2Pr10Os2Br17
_chemical_formula_sum   'Cs2 Pr10 Os2 Br17'
_cell_volume   1175.18948495
_cell_formula_units_Z   1
loop_
 _symmetry_equiv_pos_site_id
 _symmetry_equiv_pos_as_xyz
  1  'x, y, z'
loop_
 _atom_site_type_symbol
 _atom_site_label
 _atom_site_symmetry_multiplicity
 _atom_site_fract_x
 _atom_site_fract_y
 _atom_site_fract_z
 _atom_site_occupancy
  Cs  Cs0  1  0.999268  0.820982  0.178088  1
  Cs  Cs1  1  0.999269  0.178092  0.820984  1
  Pr  Pr2  1  0.436590  0.162784  0.162789  1
  Pr  Pr3  1  0.574751  0.509231  0.204206  1
  Pr  Pr4  1  0.830378  0.289161  0.289168  1
  Pr  Pr5  1  0.307070  0.437376  0.437385  1
  Pr  Pr6  1  0.425211  0.803049  0.486572  1
  Pr  Pr7  1  0.574657  0.204172  0.509199  1
  Pr  Pr8  1  0.691755  0.569302  0.569294  1
  Pr  Pr9  1  0.174737  0.708777  0.708788  1
  Pr  Pr10  1  0.425260  0.486584  0.803064  1
  Pr  Pr11  1  0.561849  0.834274  0.834260  1
  Os  Os12  1  0.570935  0.358009  0.358013  1
  Os  Os13  1  0.430147  0.642421  0.642414  1
  Br  Br14  1  0.579422  0.684531  0.020886  1
  Br  Br15  1  0.711712  0.067428  0.067426  1
  Br  Br16  1  0.855687  0.449411  0.121437  1
  Br  Br17  1  0.132920  0.206435  0.206378  1
  Br  Br18  1  0.285583  0.604486  0.255632  1
  Br  Br19  1  0.420413  0.981674  0.311276  1
  Br  Br20  1  0.714187  0.744896  0.396200  1
  Br  Br21  1  0.855655  0.121414  0.449435  1
  Br  Br22  1  0.999608  0.500364  0.500453  1
  Br  Br23  1  0.144213  0.879036  0.548713  1
  Br  Br24  1  0.285536  0.255647  0.604500  1
  Br  Br25  1  0.579384  0.020874  0.684492  1
  Br  Br26  1  0.714169  0.396199  0.744855  1
  Br  Br27  1  0.867098  0.792797  0.792689  1
  Br  Br28  1  0.144281  0.548669  0.879075  1
  Br  Br29  1  0.287838  0.930552  0.930574  1
  Br  Br30  1  0.420421  0.311371  0.981757  1
