# generated using pymatgen
data_Eu2OsC2
_symmetry_space_group_name_H-M   'P 1'
_cell_length_a   5.39711900
_cell_length_b   6.56838700
_cell_length_c   10.45942800
_cell_angle_alpha   90.00000000
_cell_angle_beta   90.00000000
_cell_angle_gamma   90.00000000
_symmetry_Int_Tables_number   1
_chemical_formula_structural   Eu2OsC2
_chemical_formula_sum   'Eu8 Os4 C8'
_cell_volume   370.79055365
_cell_formula_units_Z   4
loop_
 _symmetry_equiv_pos_site_id
 _symmetry_equiv_pos_as_xyz
  1  'x, y, z'
loop_
 _atom_site_type_symbol
 _atom_site_label
 _atom_site_symmetry_multiplicity
 _atom_site_fract_x
 _atom_site_fract_y
 _atom_site_fract_z
 _atom_site_occupancy
  Eu  Eu0  1  0.250000  0.695501  0.545888  1
  Eu  Eu1  1  0.750000  0.304499  0.454112  1
  Eu  Eu2  1  0.750000  0.804499  0.045888  1
  Eu  Eu3  1  0.250000  0.195501  0.954112  1
  Eu  Eu4  1  0.250000  0.533022  0.219627  1
  Eu  Eu5  1  0.750000  0.466978  0.780373  1
  Eu  Eu6  1  0.750000  0.966978  0.719627  1
  Eu  Eu7  1  0.250000  0.033022  0.280373  1
  Os  Os8  1  0.250000  0.731072  0.850024  1
  Os  Os9  1  0.750000  0.268928  0.149976  1
  Os  Os10  1  0.750000  0.768928  0.350024  1
  Os  Os11  1  0.250000  0.231072  0.649976  1
  C  C12  1  0.250000  0.469946  0.757225  1
  C  C13  1  0.750000  0.530054  0.242775  1
  C  C14  1  0.750000  0.030054  0.257225  1
  C  C15  1  0.250000  0.969946  0.742775  1
  C  C16  1  0.250000  0.795555  0.024650  1
  C  C17  1  0.750000  0.204445  0.975350  1
  C  C18  1  0.750000  0.704445  0.524650  1
  C  C19  1  0.250000  0.295555  0.475350  1
