# generated using pymatgen
data_Th(Zn2Rh)2
_symmetry_space_group_name_H-M   'P 1'
_cell_length_a   7.78654200
_cell_length_b   7.78654200
_cell_length_c   4.02956500
_cell_angle_alpha   90.00000000
_cell_angle_beta   90.00000000
_cell_angle_gamma   90.00000000
_symmetry_Int_Tables_number   1
_chemical_formula_structural   Th(Zn2Rh)2
_chemical_formula_sum   'Th2 Zn8 Rh4'
_cell_volume   244.31347821
_cell_formula_units_Z   2
loop_
 _symmetry_equiv_pos_site_id
 _symmetry_equiv_pos_as_xyz
  1  'x, y, z'
loop_
 _atom_site_type_symbol
 _atom_site_label
 _atom_site_symmetry_multiplicity
 _atom_site_fract_x
 _atom_site_fract_y
 _atom_site_fract_z
 _atom_site_occupancy
  Th  Th0  1  0.500000  0.500000  0.500000  1
  Th  Th1  1  0.000000  0.000000  0.000000  1
  Zn  Zn2  1  0.352828  0.099559  0.500000  1
  Zn  Zn3  1  0.647172  0.900441  0.500000  1
  Zn  Zn4  1  0.852828  0.400441  0.000000  1
  Zn  Zn5  1  0.147172  0.599559  0.000000  1
  Zn  Zn6  1  0.099559  0.352828  0.500000  1
  Zn  Zn7  1  0.900441  0.647172  0.500000  1
  Zn  Zn8  1  0.400441  0.852828  0.000000  1
  Zn  Zn9  1  0.599559  0.147172  0.000000  1
  Rh  Rh10  1  0.810637  0.189363  0.500000  1
  Rh  Rh11  1  0.189363  0.810637  0.500000  1
  Rh  Rh12  1  0.310637  0.310637  0.000000  1
  Rh  Rh13  1  0.689363  0.689363  0.000000  1
