# generated using pymatgen
data_YPa3(B4Os)4
_symmetry_space_group_name_H-M   'P 1'
_cell_length_a   3.59616700
_cell_length_b   5.99409426
_cell_length_c   11.62087749
_cell_angle_alpha   90.03343169
_cell_angle_beta   90.00000000
_cell_angle_gamma   90.00000000
_symmetry_Int_Tables_number   1
_chemical_formula_structural   YPa3(B4Os)4
_chemical_formula_sum   'Y1 Pa3 B16 Os4'
_cell_volume   250.49684958
_cell_formula_units_Z   1
loop_
 _symmetry_equiv_pos_site_id
 _symmetry_equiv_pos_as_xyz
  1  'x, y, z'
loop_
 _atom_site_type_symbol
 _atom_site_label
 _atom_site_symmetry_multiplicity
 _atom_site_fract_x
 _atom_site_fract_y
 _atom_site_fract_z
 _atom_site_occupancy
  Y  Y0  1  0.000000  0.870540  0.148910  1
  Pa  Pa1  1  0.000000  0.628340  0.649553  1
  Pa  Pa2  1  0.000000  0.371387  0.349235  1
  Pa  Pa3  1  0.000000  0.128874  0.851061  1
  B  B4  1  0.500000  0.971547  0.691210  1
  B  B5  1  0.500000  0.026411  0.308645  1
  B  B6  1  0.500000  0.471920  0.809112  1
  B  B7  1  0.500000  0.527950  0.190712  1
  B  B8  1  0.500000  0.789434  0.811795  1
  B  B9  1  0.500000  0.211897  0.187682  1
  B  B10  1  0.500000  0.290785  0.688716  1
  B  B11  1  0.500000  0.710074  0.312685  1
  B  B12  1  0.500000  0.864745  0.968966  1
  B  B13  1  0.500000  0.136576  0.032109  1
  B  B14  1  0.500000  0.364930  0.532068  1
  B  B15  1  0.500000  0.633274  0.467064  1
  B  B16  1  0.500000  0.885942  0.545206  1
  B  B17  1  0.500000  0.112098  0.453499  1
  B  B18  1  0.500000  0.387291  0.955197  1
  B  B19  1  0.500000  0.613398  0.046369  1
  Os  Os20  1  0.000000  0.642807  0.902422  1
  Os  Os21  1  0.000000  0.358577  0.094082  1
  Os  Os22  1  0.000000  0.142669  0.597631  1
  Os  Os23  1  0.000000  0.858533  0.406071  1
