# generated using pymatgen
data_Dy2HoGa6Co4Ni5
_symmetry_space_group_name_H-M   'P 1'
_cell_length_a   4.07983400
_cell_length_b   8.71817399
_cell_length_c   8.73819257
_cell_angle_alpha   59.66823799
_cell_angle_beta   90.00000000
_cell_angle_gamma   90.00000000
_symmetry_Int_Tables_number   1
_chemical_formula_structural   Dy2HoGa6Co4Ni5
_chemical_formula_sum   'Dy2 Ho1 Ga6 Co4 Ni5'
_cell_volume   268.26169779
_cell_formula_units_Z   1
loop_
 _symmetry_equiv_pos_site_id
 _symmetry_equiv_pos_as_xyz
  1  'x, y, z'
loop_
 _atom_site_type_symbol
 _atom_site_label
 _atom_site_symmetry_multiplicity
 _atom_site_fract_x
 _atom_site_fract_y
 _atom_site_fract_z
 _atom_site_occupancy
  Dy  Dy0  1  0.500000  0.668799  0.669479  1
  Dy  Dy1  1  0.000000  0.998042  0.000567  1
  Ho  Ho2  1  0.500000  0.332252  0.334810  1
  Ga  Ga3  1  0.000000  0.509760  0.486138  1
  Ga  Ga4  1  0.000000  0.489181  0.000648  1
  Ga  Ga5  1  0.000000  0.004104  0.509659  1
  Ga  Ga6  1  0.500000  0.274435  0.725713  1
  Ga  Ga7  1  0.500000  0.725381  0.998991  1
  Ga  Ga8  1  0.500000  0.998762  0.273039  1
  Co  Co9  1  0.000000  0.176298  0.189090  1
  Co  Co10  1  0.000000  0.187445  0.637471  1
  Co  Co11  1  0.000000  0.633286  0.175510  1
  Co  Co12  1  0.000000  0.812439  0.821656  1
  Ni  Ni13  1  0.000000  0.370743  0.808045  1
  Ni  Ni14  1  0.000000  0.820765  0.372475  1
  Ni  Ni15  1  0.500000  0.703741  0.293499  1
  Ni  Ni16  1  0.500000  0.293053  0.001281  1
  Ni  Ni17  1  0.500000  0.001413  0.702029  1
