# generated using pymatgen
data_La3Cu(Sb2Pd)2
_symmetry_space_group_name_H-M   'P 1'
_cell_length_a   8.66945588
_cell_length_b   8.66945594
_cell_length_c   8.66945555
_cell_angle_alpha   109.29411208
_cell_angle_beta   109.29411306
_cell_angle_gamma   109.82601446
_symmetry_Int_Tables_number   1
_chemical_formula_structural   La3Cu(Sb2Pd)2
_chemical_formula_sum   'La6 Cu2 Sb8 Pd4'
_cell_volume   501.58108550
_cell_formula_units_Z   2
loop_
 _symmetry_equiv_pos_site_id
 _symmetry_equiv_pos_as_xyz
  1  'x, y, z'
loop_
 _atom_site_type_symbol
 _atom_site_label
 _atom_site_symmetry_multiplicity
 _atom_site_fract_x
 _atom_site_fract_y
 _atom_site_fract_z
 _atom_site_occupancy
  La  La0  1  0.873098  0.250000  0.123098  1
  La  La1  1  0.626902  0.750000  0.376902  1
  La  La2  1  0.250000  0.126902  0.876902  1
  La  La3  1  0.750000  0.373098  0.623098  1
  La  La4  1  0.125000  0.875000  0.250000  1
  La  La5  1  0.375000  0.625000  0.750000  1
  Cu  Cu6  1  0.625000  0.375000  0.250000  1
  Cu  Cu7  1  0.875000  0.125000  0.750000  1
  Sb  Sb8  1  0.660298  0.496457  0.004149  1
  Sb  Sb9  1  0.507692  0.003543  0.663841  1
  Sb  Sb10  1  0.992308  0.656149  0.495851  1
  Sb  Sb11  1  0.839702  0.843851  0.836159  1
  Sb  Sb12  1  0.503543  0.007692  0.163841  1
  Sb  Sb13  1  0.156149  0.492308  0.995851  1
  Sb  Sb14  1  0.996457  0.160298  0.504149  1
  Sb  Sb15  1  0.343851  0.339702  0.336159  1
  Pd  Pd16  1  0.374749  0.250000  0.624749  1
  Pd  Pd17  1  0.125251  0.750000  0.875251  1
  Pd  Pd18  1  0.250000  0.625251  0.375251  1
  Pd  Pd19  1  0.750000  0.874749  0.124749  1
