# generated using pymatgen
data_Dy4HoPaGa10
_symmetry_space_group_name_H-M   'P 1'
_cell_length_a   6.13262600
_cell_length_b   9.64220049
_cell_length_c   11.50684800
_cell_angle_alpha   90.00000000
_cell_angle_beta   90.00000000
_cell_angle_gamma   90.01867995
_symmetry_Int_Tables_number   1
_chemical_formula_structural   Dy4HoPaGa10
_chemical_formula_sum   'Dy8 Ho2 Pa2 Ga20'
_cell_volume   680.42300801
_cell_formula_units_Z   2
loop_
 _symmetry_equiv_pos_site_id
 _symmetry_equiv_pos_as_xyz
  1  'x, y, z'
loop_
 _atom_site_type_symbol
 _atom_site_label
 _atom_site_symmetry_multiplicity
 _atom_site_fract_x
 _atom_site_fract_y
 _atom_site_fract_z
 _atom_site_occupancy
  Dy  Dy0  1  0.146833  0.248099  0.925196  1
  Dy  Dy1  1  0.353167  0.251901  0.425196  1
  Dy  Dy2  1  0.112024  0.009137  0.648673  1
  Dy  Dy3  1  0.387976  0.490863  0.148673  1
  Dy  Dy4  1  0.111840  0.489912  0.648668  1
  Dy  Dy5  1  0.388160  0.010088  0.148668  1
  Dy  Dy6  1  0.888785  0.990652  0.351431  1
  Dy  Dy7  1  0.611215  0.509348  0.851431  1
  Ho  Ho8  1  0.851916  0.749210  0.074347  1
  Ho  Ho9  1  0.648084  0.750790  0.574347  1
  Pa  Pa10  1  0.886550  0.511051  0.353673  1
  Pa  Pa11  1  0.613450  0.988949  0.853673  1
  Ga  Ga12  1  0.871226  0.053702  0.090286  1
  Ga  Ga13  1  0.628774  0.446298  0.590286  1
  Ga  Ga14  1  0.128028  0.552215  0.907619  1
  Ga  Ga15  1  0.371972  0.947785  0.407619  1
  Ga  Ga16  1  0.124747  0.946401  0.908748  1
  Ga  Ga17  1  0.375253  0.553599  0.408748  1
  Ga  Ga18  1  0.871886  0.446484  0.091534  1
  Ga  Ga19  1  0.628114  0.053516  0.591534  1
  Ga  Ga20  1  0.172333  0.749686  0.255101  1
  Ga  Ga21  1  0.327667  0.750314  0.755101  1
  Ga  Ga22  1  0.824755  0.248920  0.746017  1
  Ga  Ga23  1  0.675245  0.251080  0.246017  1
  Ga  Ga24  1  0.375867  0.751085  0.002184  1
  Ga  Ga25  1  0.124133  0.748915  0.502184  1
  Ga  Ga26  1  0.624597  0.248730  0.994630  1
  Ga  Ga27  1  0.875403  0.251270  0.494630  1
  Ga  Ga28  1  0.602608  0.749927  0.299767  1
  Ga  Ga29  1  0.897392  0.750073  0.799767  1
  Ga  Ga30  1  0.401252  0.247636  0.702123  1
  Ga  Ga31  1  0.098748  0.252364  0.202123  1
