# generated using pymatgen
data_Ho4Hf4IrPt3
_symmetry_space_group_name_H-M   'P 1'
_cell_length_a   4.65720300
_cell_length_b   7.02464691
_cell_length_c   8.22144784
_cell_angle_alpha   90.17131164
_cell_angle_beta   90.00000000
_cell_angle_gamma   90.00000000
_symmetry_Int_Tables_number   1
_chemical_formula_structural   Ho4Hf4IrPt3
_chemical_formula_sum   'Ho4 Hf4 Ir1 Pt3'
_cell_volume   268.96516292
_cell_formula_units_Z   1
loop_
 _symmetry_equiv_pos_site_id
 _symmetry_equiv_pos_as_xyz
  1  'x, y, z'
loop_
 _atom_site_type_symbol
 _atom_site_label
 _atom_site_symmetry_multiplicity
 _atom_site_fract_x
 _atom_site_fract_y
 _atom_site_fract_z
 _atom_site_occupancy
  Ho  Ho0  1  0.250000  0.014179  0.819175  1
  Ho  Ho1  1  0.250000  0.517413  0.676442  1
  Ho  Ho2  1  0.750000  0.982642  0.180263  1
  Ho  Ho3  1  0.750000  0.487527  0.323455  1
  Hf  Hf4  1  0.250000  0.142213  0.421394  1
  Hf  Hf5  1  0.250000  0.646800  0.078687  1
  Hf  Hf6  1  0.750000  0.853071  0.574290  1
  Hf  Hf7  1  0.750000  0.353138  0.922483  1
  Ir  Ir8  1  0.250000  0.771460  0.408758  1
  Pt  Pt9  1  0.250000  0.271118  0.093539  1
  Pt  Pt10  1  0.750000  0.231193  0.594854  1
  Pt  Pt11  1  0.750000  0.729245  0.906660  1
