# generated using pymatgen
data_DyUPt6
_symmetry_space_group_name_H-M   'P 1'
_cell_length_a   5.82492200
_cell_length_b   5.82492163
_cell_length_c   9.64577100
_cell_angle_alpha   90.00000000
_cell_angle_beta   90.00000000
_cell_angle_gamma   120.00000210
_symmetry_Int_Tables_number   1
_chemical_formula_structural   DyUPt6
_chemical_formula_sum   'Dy2 U2 Pt12'
_cell_volume   283.43127504
_cell_formula_units_Z   2
loop_
 _symmetry_equiv_pos_site_id
 _symmetry_equiv_pos_as_xyz
  1  'x, y, z'
loop_
 _atom_site_type_symbol
 _atom_site_label
 _atom_site_symmetry_multiplicity
 _atom_site_fract_x
 _atom_site_fract_y
 _atom_site_fract_z
 _atom_site_occupancy
  Dy  Dy0  1  0.000000  0.000000  0.500000  1
  Dy  Dy1  1  0.000000  0.000000  0.000000  1
  U  U2  1  0.333333  0.666667  0.750000  1
  U  U3  1  0.666667  0.333333  0.250000  1
  Pt  Pt4  1  0.500000  0.500000  0.500000  1
  Pt  Pt5  1  0.500000  0.000000  0.500000  1
  Pt  Pt6  1  0.000000  0.500000  0.500000  1
  Pt  Pt7  1  0.500000  0.500000  0.000000  1
  Pt  Pt8  1  0.500000  0.000000  0.000000  1
  Pt  Pt9  1  0.000000  0.500000  0.000000  1
  Pt  Pt10  1  0.172730  0.827270  0.250000  1
  Pt  Pt11  1  0.172730  0.345462  0.250000  1
  Pt  Pt12  1  0.654538  0.827270  0.250000  1
  Pt  Pt13  1  0.827270  0.172730  0.750000  1
  Pt  Pt14  1  0.827270  0.654538  0.750000  1
  Pt  Pt15  1  0.345462  0.172730  0.750000  1
