# generated using pymatgen
data_Tb3ZnCo9GeB4
_symmetry_space_group_name_H-M   'P 1'
_cell_length_a   5.14225802
_cell_length_b   5.14197380
_cell_length_c   9.54315503
_cell_angle_alpha   89.99601278
_cell_angle_beta   89.99952481
_cell_angle_gamma   120.00357514
_symmetry_Int_Tables_number   1
_chemical_formula_structural   Tb3ZnCo9GeB4
_chemical_formula_sum   'Tb3 Zn1 Co9 Ge1 B4'
_cell_volume   218.51974546
_cell_formula_units_Z   1
loop_
 _symmetry_equiv_pos_site_id
 _symmetry_equiv_pos_as_xyz
  1  'x, y, z'
loop_
 _atom_site_type_symbol
 _atom_site_label
 _atom_site_symmetry_multiplicity
 _atom_site_fract_x
 _atom_site_fract_y
 _atom_site_fract_z
 _atom_site_occupancy
  Tb  Tb0  1  0.999979  0.000012  0.999984  1
  Tb  Tb1  1  0.000012  0.000013  0.340643  1
  Tb  Tb2  1  0.999992  0.000003  0.659419  1
  Zn  Zn3  1  0.333273  0.666643  0.999965  1
  Co  Co4  1  0.499708  0.999448  0.500017  1
  Co  Co5  1  0.499733  0.500271  0.500006  1
  Co  Co6  1  0.000537  0.500280  0.500007  1
  Co  Co7  1  0.501151  0.002286  0.206490  1
  Co  Co8  1  0.501153  0.498852  0.206504  1
  Co  Co9  1  0.997704  0.498861  0.206525  1
  Co  Co10  1  0.501138  0.002310  0.793477  1
  Co  Co11  1  0.501152  0.498858  0.793478  1
  Co  Co12  1  0.997680  0.498866  0.793461  1
  Ge  Ge13  1  0.666702  0.333364  0.999952  1
  B  B14  1  0.333368  0.666711  0.348250  1
  B  B15  1  0.666634  0.333249  0.350006  1
  B  B16  1  0.666660  0.333312  0.650030  1
  B  B17  1  0.333326  0.666659  0.651788  1
