# generated using pymatgen
data_LaPrTh2(Al3Ir)6
_symmetry_space_group_name_H-M   'P 1'
_cell_length_a   7.65879125
_cell_length_b   7.66218281
_cell_length_c   9.58510000
_cell_angle_alpha   90.00000000
_cell_angle_beta   90.00000000
_cell_angle_gamma   119.49773402
_symmetry_Int_Tables_number   1
_chemical_formula_structural   LaPrTh2(Al3Ir)6
_chemical_formula_sum   'La1 Pr1 Th2 Al18 Ir6'
_cell_volume   489.57122391
_cell_formula_units_Z   1
loop_
 _symmetry_equiv_pos_site_id
 _symmetry_equiv_pos_as_xyz
  1  'x, y, z'
loop_
 _atom_site_type_symbol
 _atom_site_label
 _atom_site_symmetry_multiplicity
 _atom_site_fract_x
 _atom_site_fract_y
 _atom_site_fract_z
 _atom_site_occupancy
  La  La0  1  0.004703  0.329964  0.750000  1
  Pr  Pr1  1  0.329803  0.005227  0.750000  1
  Th  Th2  1  0.994975  0.670506  0.250000  1
  Th  Th3  1  0.670561  0.995146  0.250000  1
  Al  Al4  1  0.133413  0.132770  0.250000  1
  Al  Al5  1  0.869824  0.869596  0.750000  1
  Al  Al6  1  0.005369  0.335283  0.073395  1
  Al  Al7  1  0.997694  0.666468  0.924753  1
  Al  Al8  1  0.997694  0.666468  0.575247  1
  Al  Al9  1  0.335029  0.004698  0.428038  1
  Al  Al10  1  0.005369  0.335283  0.426605  1
  Al  Al11  1  0.663536  0.996240  0.575270  1
  Al  Al12  1  0.663536  0.996240  0.924730  1
  Al  Al13  1  0.335029  0.004698  0.071962  1
  Al  Al14  1  0.335336  0.334415  0.549413  1
  Al  Al15  1  0.663367  0.663374  0.452938  1
  Al  Al16  1  0.663367  0.663374  0.047062  1
  Al  Al17  1  0.335336  0.334415  0.950587  1
  Al  Al18  1  0.340034  0.543807  0.250000  1
  Al  Al19  1  0.659443  0.452938  0.750000  1
  Al  Al20  1  0.543890  0.339363  0.250000  1
  Al  Al21  1  0.453785  0.660479  0.750000  1
  Ir  Ir22  1  0.673087  0.329462  0.003193  1
  Ir  Ir23  1  0.329012  0.672248  0.003067  1
  Ir  Ir24  1  0.329012  0.672248  0.496933  1
  Ir  Ir25  1  0.673087  0.329462  0.496807  1
  Ir  Ir26  1  0.997354  0.997914  0.003609  1
  Ir  Ir27  1  0.997354  0.997914  0.496391  1
