# generated using pymatgen
data_Ho4Fe(NiO4)3
_symmetry_space_group_name_H-M   'P 1'
_cell_length_a   5.20542673
_cell_length_b   5.64782867
_cell_length_c   7.49868933
_cell_angle_alpha   89.56307404
_cell_angle_beta   89.84093807
_cell_angle_gamma   90.09460639
_symmetry_Int_Tables_number   1
_chemical_formula_structural   Ho4Fe(NiO4)3
_chemical_formula_sum   'Ho4 Fe1 Ni3 O12'
_cell_volume   220.44908675
_cell_formula_units_Z   1
loop_
 _symmetry_equiv_pos_site_id
 _symmetry_equiv_pos_as_xyz
  1  'x, y, z'
loop_
 _atom_site_type_symbol
 _atom_site_label
 _atom_site_symmetry_multiplicity
 _atom_site_fract_x
 _atom_site_fract_y
 _atom_site_fract_z
 _atom_site_occupancy
  Ho  Ho0  1  0.978906  0.076171  0.244389  1
  Ho  Ho1  1  0.477351  0.417293  0.755699  1
  Ho  Ho2  1  0.522648  0.582708  0.244301  1
  Ho  Ho3  1  0.021094  0.923829  0.755611  1
  Fe  Fe4  1  0.000000  0.499999  0.500000  1
  Ni  Ni5  1  0.000000  0.499999  0.000000  1
  Ni  Ni6  1  0.499999  0.000000  0.000000  1
  Ni  Ni7  1  0.499999  0.000000  0.500000  1
  O  O8  1  0.697662  0.313336  0.054247  1
  O  O9  1  0.193339  0.190580  0.947090  1
  O  O10  1  0.810434  0.803455  0.442297  1
  O  O11  1  0.299973  0.684025  0.554717  1
  O  O12  1  0.302338  0.686666  0.945752  1
  O  O13  1  0.806661  0.809421  0.052909  1
  O  O14  1  0.189565  0.196545  0.557704  1
  O  O15  1  0.700027  0.315977  0.445284  1
  O  O16  1  0.111691  0.464400  0.250702  1
  O  O17  1  0.609287  0.033309  0.751446  1
  O  O18  1  0.390713  0.966690  0.248554  1
  O  O19  1  0.888310  0.535598  0.749298  1
