# generated using pymatgen
data_TbTm2Th(Al3Ir)6
_symmetry_space_group_name_H-M   'P 1'
_cell_length_a   7.57208593
_cell_length_b   7.58101926
_cell_length_c   9.46853800
_cell_angle_alpha   90.00000000
_cell_angle_beta   90.00000000
_cell_angle_gamma   119.51573061
_symmetry_Int_Tables_number   1
_chemical_formula_structural   TbTm2Th(Al3Ir)6
_chemical_formula_sum   'Tb1 Tm2 Th1 Al18 Ir6'
_cell_volume   472.99369775
_cell_formula_units_Z   1
loop_
 _symmetry_equiv_pos_site_id
 _symmetry_equiv_pos_as_xyz
  1  'x, y, z'
loop_
 _atom_site_type_symbol
 _atom_site_label
 _atom_site_symmetry_multiplicity
 _atom_site_fract_x
 _atom_site_fract_y
 _atom_site_fract_z
 _atom_site_occupancy
  Tb  Tb0  1  0.672717  0.994945  0.250000  1
  Tm  Tm1  1  0.003971  0.328038  0.750000  1
  Tm  Tm2  1  0.327053  0.004684  0.750000  1
  Th  Th3  1  0.995049  0.671132  0.250000  1
  Al  Al4  1  0.132425  0.133678  0.250000  1
  Al  Al5  1  0.871703  0.873957  0.750000  1
  Al  Al6  1  0.001998  0.331586  0.071567  1
  Al  Al7  1  0.999467  0.664067  0.917668  1
  Al  Al8  1  0.999467  0.664067  0.582332  1
  Al  Al9  1  0.339881  0.005299  0.428353  1
  Al  Al10  1  0.001998  0.331586  0.428433  1
  Al  Al11  1  0.664328  0.000603  0.577170  1
  Al  Al12  1  0.664328  0.000603  0.922830  1
  Al  Al13  1  0.339881  0.005299  0.071647  1
  Al  Al14  1  0.332022  0.332100  0.556272  1
  Al  Al15  1  0.662961  0.666137  0.454858  1
  Al  Al16  1  0.662961  0.666137  0.045142  1
  Al  Al17  1  0.332022  0.332100  0.943728  1
  Al  Al18  1  0.344235  0.548358  0.250000  1
  Al  Al19  1  0.657701  0.448243  0.750000  1
  Al  Al20  1  0.544413  0.337445  0.250000  1
  Al  Al21  1  0.448852  0.660189  0.750000  1
  Ir  Ir22  1  0.673276  0.329392  0.999814  1
  Ir  Ir23  1  0.326324  0.671700  0.999927  1
  Ir  Ir24  1  0.326324  0.671700  0.500073  1
  Ir  Ir25  1  0.673276  0.329392  0.500186  1
  Ir  Ir26  1  0.000682  0.998779  0.000030  1
  Ir  Ir27  1  0.000682  0.998779  0.499970  1
