# generated using pymatgen
data_ErI9
_symmetry_space_group_name_H-M   'P 1'
_cell_length_a   10.47716088
_cell_length_b   10.51120974
_cell_length_c   10.49597470
_cell_angle_alpha   87.43469745
_cell_angle_beta   87.42088836
_cell_angle_gamma   87.37702180
_symmetry_Int_Tables_number   1
_chemical_formula_structural   ErI9
_chemical_formula_sum   'Er2 I18'
_cell_volume   1152.45982763
_cell_formula_units_Z   2
loop_
 _symmetry_equiv_pos_site_id
 _symmetry_equiv_pos_as_xyz
  1  'x, y, z'
loop_
 _atom_site_type_symbol
 _atom_site_label
 _atom_site_symmetry_multiplicity
 _atom_site_fract_x
 _atom_site_fract_y
 _atom_site_fract_z
 _atom_site_occupancy
  Er  Er0  1  0.500000  0.500000  0.500000  1
  Er  Er1  1  0.000000  0.000000  0.000000  1
  I  I2  1  0.787866  0.466774  0.501220  1
  I  I3  1  0.499979  0.787236  0.465726  1
  I  I4  1  0.465933  0.500962  0.787201  1
  I  I5  1  0.212134  0.533226  0.498780  1
  I  I6  1  0.500021  0.212764  0.534274  1
  I  I7  1  0.534067  0.499038  0.212799  1
  I  I8  1  0.890370  0.373474  0.745902  1
  I  I9  1  0.745195  0.889979  0.373123  1
  I  I10  1  0.373198  0.745520  0.889991  1
  I  I11  1  0.109630  0.626526  0.254098  1
  I  I12  1  0.254805  0.110021  0.626877  1
  I  I13  1  0.626802  0.254480  0.110009  1
  I  I14  1  0.022112  0.978697  0.712241  1
  I  I15  1  0.712188  0.022518  0.977681  1
  I  I16  1  0.978107  0.713223  0.021837  1
  I  I17  1  0.977888  0.021303  0.287759  1
  I  I18  1  0.287812  0.977482  0.022319  1
  I  I19  1  0.021893  0.286777  0.978163  1
