# generated using pymatgen
data_Y2Mn4Co8P7
_symmetry_space_group_name_H-M   'P 1'
_cell_length_a   9.05845546
_cell_length_b   9.03913614
_cell_length_c   3.61974400
_cell_angle_alpha   90.00000000
_cell_angle_beta   90.00000000
_cell_angle_gamma   119.88613528
_symmetry_Int_Tables_number   1
_chemical_formula_structural   Y2Mn4Co8P7
_chemical_formula_sum   'Y2 Mn4 Co8 P7'
_cell_volume   256.97254513
_cell_formula_units_Z   1
loop_
 _symmetry_equiv_pos_site_id
 _symmetry_equiv_pos_as_xyz
  1  'x, y, z'
loop_
 _atom_site_type_symbol
 _atom_site_label
 _atom_site_symmetry_multiplicity
 _atom_site_fract_x
 _atom_site_fract_y
 _atom_site_fract_z
 _atom_site_occupancy
  Y  Y0  1  0.665603  0.332856  0.000000  1
  Y  Y1  1  0.332648  0.666930  0.500000  1
  Mn  Mn2  1  0.845414  0.119787  0.000000  1
  Mn  Mn3  1  0.122772  0.899833  0.500000  1
  Mn  Mn4  1  0.104425  0.225669  0.500000  1
  Mn  Mn5  1  0.776920  0.880419  0.500000  1
  Co  Co6  1  0.369007  0.938955  0.000000  1
  Co  Co7  1  0.061799  0.430505  0.000000  1
  Co  Co8  1  0.568547  0.629081  0.000000  1
  Co  Co9  1  0.880934  0.722852  0.000000  1
  Co  Co10  1  0.276745  0.158652  0.000000  1
  Co  Co11  1  0.948800  0.562410  0.500000  1
  Co  Co12  1  0.437251  0.385795  0.500000  1
  Co  Co13  1  0.612203  0.049829  0.500000  1
  P  P14  1  0.111144  0.701745  0.000000  1
  P  P15  1  0.301510  0.412295  0.000000  1
  P  P16  1  0.588711  0.888811  0.000000  1
  P  P17  1  0.711026  0.595379  0.500000  1
  P  P18  1  0.400882  0.111706  0.500000  1
  P  P19  1  0.881388  0.287660  0.500000  1
  P  P20  1  0.002272  0.998835  0.000000  1
