# generated using pymatgen
data_TmLu5(CoSi3)2
_symmetry_space_group_name_H-M   'P 1'
_cell_length_a   5.51160774
_cell_length_b   5.51160771
_cell_length_c   13.19042085
_cell_angle_alpha   109.30229514
_cell_angle_beta   109.30229654
_cell_angle_gamma   43.66930669
_symmetry_Int_Tables_number   1
_chemical_formula_structural   TmLu5(CoSi3)2
_chemical_formula_sum   'Tm1 Lu5 Co2 Si6'
_cell_volume   258.54203837
_cell_formula_units_Z   1
loop_
 _symmetry_equiv_pos_site_id
 _symmetry_equiv_pos_as_xyz
  1  'x, y, z'
loop_
 _atom_site_type_symbol
 _atom_site_label
 _atom_site_symmetry_multiplicity
 _atom_site_fract_x
 _atom_site_fract_y
 _atom_site_fract_z
 _atom_site_occupancy
  Tm  Tm0  1  0.601171  0.601171  0.919614  1
  Lu  Lu1  1  0.399135  0.399135  0.080645  1
  Lu  Lu2  1  0.746635  0.746635  0.228483  1
  Lu  Lu3  1  0.525072  0.525072  0.379762  1
  Lu  Lu4  1  0.474840  0.474840  0.620128  1
  Lu  Lu5  1  0.253342  0.253342  0.771402  1
  Co  Co6  1  0.247372  0.247372  0.416691  1
  Co  Co7  1  0.752553  0.752553  0.583208  1
  Si  Si8  1  0.116598  0.116598  0.076375  1
  Si  Si9  1  0.050837  0.050837  0.241393  1
  Si  Si10  1  0.863205  0.863205  0.455663  1
  Si  Si11  1  0.136798  0.136798  0.544299  1
  Si  Si12  1  0.948747  0.948747  0.758287  1
  Si  Si13  1  0.883693  0.883693  0.924052  1
