# generated using pymatgen
data_TbHo(SnIr)2
_symmetry_space_group_name_H-M   'P 1'
_cell_length_a   7.47455885
_cell_length_b   7.48065412
_cell_length_c   7.95312900
_cell_angle_alpha   90.00000000
_cell_angle_beta   90.00000000
_cell_angle_gamma   120.01142248
_symmetry_Int_Tables_number   1
_chemical_formula_structural   TbHo(SnIr)2
_chemical_formula_sum   'Tb3 Ho3 Sn6 Ir6'
_cell_volume   385.07364843
_cell_formula_units_Z   3
loop_
 _symmetry_equiv_pos_site_id
 _symmetry_equiv_pos_as_xyz
  1  'x, y, z'
loop_
 _atom_site_type_symbol
 _atom_site_label
 _atom_site_symmetry_multiplicity
 _atom_site_fract_x
 _atom_site_fract_y
 _atom_site_fract_z
 _atom_site_occupancy
  Tb  Tb0  1  0.406785  0.001077  0.250000  1
  Tb  Tb1  1  0.594433  0.593002  0.750000  1
  Tb  Tb2  1  0.003462  0.407991  0.750000  1
  Ho  Ho3  1  0.594868  0.595601  0.250000  1
  Ho  Ho4  1  0.996735  0.402961  0.250000  1
  Ho  Ho5  1  0.404490  0.999655  0.750000  1
  Sn  Sn6  1  0.258704  0.258854  0.498100  1
  Sn  Sn7  1  0.258704  0.258854  0.001900  1
  Sn  Sn8  1  0.741057  0.999690  0.997669  1
  Sn  Sn9  1  0.000198  0.741667  0.498325  1
  Sn  Sn10  1  0.741057  0.999690  0.502331  1
  Sn  Sn11  1  0.000198  0.741667  0.001675  1
  Ir  Ir12  1  0.667057  0.333271  0.500540  1
  Ir  Ir13  1  0.667057  0.333271  0.999460  1
  Ir  Ir14  1  0.332798  0.666351  0.002849  1
  Ir  Ir15  1  0.332798  0.666351  0.497151  1
  Ir  Ir16  1  0.002644  0.000234  0.750000  1
  Ir  Ir17  1  0.996953  0.999813  0.250000  1
