# generated using pymatgen
data_PrZn3P7N12
_symmetry_space_group_name_H-M   'P 1'
_cell_length_a   7.28752279
_cell_length_b   7.31468356
_cell_length_c   7.28752333
_cell_angle_alpha   109.54673491
_cell_angle_beta   109.39560863
_cell_angle_gamma   109.54673319
_symmetry_Int_Tables_number   1
_chemical_formula_structural   PrZn3P7N12
_chemical_formula_sum   'Pr1 Zn3 P7 N12'
_cell_volume   298.76375925
_cell_formula_units_Z   1
loop_
 _symmetry_equiv_pos_site_id
 _symmetry_equiv_pos_as_xyz
  1  'x, y, z'
loop_
 _atom_site_type_symbol
 _atom_site_label
 _atom_site_symmetry_multiplicity
 _atom_site_fract_x
 _atom_site_fract_y
 _atom_site_fract_z
 _atom_site_occupancy
  Pr  Pr0  1  0.000000  0.309144  0.000000  1
  Zn  Zn1  1  0.664628  0.663144  0.664628  1
  Zn  Zn2  1  0.335372  0.998516  0.000000  1
  Zn  Zn3  1  0.000000  0.998516  0.335372  1
  P  P4  1  0.744656  0.253794  0.492593  1
  P  P5  1  0.252062  0.761201  0.507407  1
  P  P6  1  0.507407  0.761201  0.252062  1
  P  P7  1  0.492593  0.253794  0.744656  1
  P  P8  1  0.747938  0.509138  0.255344  1
  P  P9  1  0.255344  0.509138  0.747938  1
  P  P10  1  0.000000  0.929402  0.000000  1
  N  N11  1  0.570629  0.282965  0.000000  1
  N  N12  1  0.433389  0.438312  0.703235  1
  N  N13  1  0.000000  0.282965  0.570629  1
  N  N14  1  0.269847  0.004923  0.566611  1
  N  N15  1  0.703235  0.438312  0.433389  1
  N  N16  1  0.000000  0.571446  0.296218  1
  N  N17  1  0.566611  0.004923  0.269847  1
  N  N18  1  0.429371  0.712337  0.429371  1
  N  N19  1  0.296218  0.571446  0.000000  1
  N  N20  1  0.703782  0.275228  0.703782  1
  N  N21  1  0.730153  0.735077  0.296765  1
  N  N22  1  0.296765  0.735077  0.730153  1
