# generated using pymatgen
data_Dy10IrRh5
_symmetry_space_group_name_H-M   'P 1'
_cell_length_a   10.90560600
_cell_length_b   10.90613000
_cell_length_c   6.36557900
_cell_angle_alpha   90.00000000
_cell_angle_beta   89.99706180
_cell_angle_gamma   90.00000000
_symmetry_Int_Tables_number   1
_chemical_formula_structural   Dy10IrRh5
_chemical_formula_sum   'Dy20 Ir2 Rh10'
_cell_volume   757.10895939
_cell_formula_units_Z   2
loop_
 _symmetry_equiv_pos_site_id
 _symmetry_equiv_pos_as_xyz
  1  'x, y, z'
loop_
 _atom_site_type_symbol
 _atom_site_label
 _atom_site_symmetry_multiplicity
 _atom_site_fract_x
 _atom_site_fract_y
 _atom_site_fract_z
 _atom_site_occupancy
  Dy  Dy0  1  0.291241  0.090077  0.378607  1
  Dy  Dy1  1  0.291241  0.909923  0.878607  1
  Dy  Dy2  1  0.708839  0.088761  0.878624  1
  Dy  Dy3  1  0.708839  0.911239  0.378624  1
  Dy  Dy4  1  0.587637  0.790609  0.878683  1
  Dy  Dy5  1  0.587637  0.209391  0.378683  1
  Dy  Dy6  1  0.410762  0.790621  0.379526  1
  Dy  Dy7  1  0.410762  0.209379  0.879526  1
  Dy  Dy8  1  0.210008  0.412007  0.620660  1
  Dy  Dy9  1  0.210008  0.587993  0.120660  1
  Dy  Dy10  1  0.791263  0.411099  0.121089  1
  Dy  Dy11  1  0.791263  0.588901  0.621089  1
  Dy  Dy12  1  0.911245  0.708965  0.121259  1
  Dy  Dy13  1  0.911245  0.291035  0.621259  1
  Dy  Dy14  1  0.090139  0.708610  0.621555  1
  Dy  Dy15  1  0.090139  0.291390  0.121555  1
  Dy  Dy16  1  0.999920  0.999844  0.500020  1
  Dy  Dy17  1  0.999920  0.000156  0.000020  1
  Dy  Dy18  1  0.499618  0.499843  0.999967  1
  Dy  Dy19  1  0.499618  0.500157  0.499967  1
  Ir  Ir20  1  0.345965  0.345471  0.249916  1
  Ir  Ir21  1  0.345965  0.654529  0.749916  1
  Rh  Rh22  1  0.846035  0.153788  0.250096  1
  Rh  Rh23  1  0.846035  0.846212  0.750096  1
  Rh  Rh24  1  0.153300  0.153476  0.749861  1
  Rh  Rh25  1  0.153300  0.846524  0.249861  1
  Rh  Rh26  1  0.654496  0.345976  0.750086  1
  Rh  Rh27  1  0.654496  0.654024  0.250086  1
  Rh  Rh28  1  0.500466  0.999801  0.124405  1
  Rh  Rh29  1  0.500466  0.000199  0.624405  1
  Rh  Rh30  1  0.999067  0.499949  0.875647  1
  Rh  Rh31  1  0.999067  0.500051  0.375647  1
