# generated using pymatgen
data_Zn22IrPd2
_symmetry_space_group_name_H-M   'P 1'
_cell_length_a   7.81011745
_cell_length_b   7.81011849
_cell_length_c   7.84511530
_cell_angle_alpha   72.32637013
_cell_angle_beta   72.32636814
_cell_angle_gamma   57.75533821
_symmetry_Int_Tables_number   1
_chemical_formula_structural   Zn22IrPd2
_chemical_formula_sum   'Zn22 Ir1 Pd2'
_cell_volume   379.63067592
_cell_formula_units_Z   1
loop_
 _symmetry_equiv_pos_site_id
 _symmetry_equiv_pos_as_xyz
  1  'x, y, z'
loop_
 _atom_site_type_symbol
 _atom_site_label
 _atom_site_symmetry_multiplicity
 _atom_site_fract_x
 _atom_site_fract_y
 _atom_site_fract_z
 _atom_site_occupancy
  Zn  Zn0  1  0.344129  0.734038  0.316201  1
  Zn  Zn1  1  0.655871  0.265962  0.683799  1
  Zn  Zn2  1  0.265962  0.655871  0.683799  1
  Zn  Zn3  1  0.734038  0.344129  0.316201  1
  Zn  Zn4  1  0.683189  0.316811  0.000000  1
  Zn  Zn5  1  0.316811  0.683189  0.000000  1
  Zn  Zn6  1  0.831098  0.831098  0.781999  1
  Zn  Zn7  1  0.168902  0.168902  0.218001  1
  Zn  Zn8  1  0.975098  0.975098  0.173729  1
  Zn  Zn9  1  0.024902  0.024902  0.826271  1
  Zn  Zn10  1  0.355806  0.355806  0.274962  1
  Zn  Zn11  1  0.644194  0.644194  0.725038  1
  Zn  Zn12  1  0.685854  0.685854  0.381579  1
  Zn  Zn13  1  0.314146  0.314146  0.618421  1
  Zn  Zn14  1  0.658492  0.023735  0.458076  1
  Zn  Zn15  1  0.341508  0.976265  0.541924  1
  Zn  Zn16  1  0.976265  0.341508  0.541924  1
  Zn  Zn17  1  0.023735  0.658492  0.458076  1
  Zn  Zn18  1  0.623109  0.997947  0.107934  1
  Zn  Zn19  1  0.376891  0.002053  0.892066  1
  Zn  Zn20  1  0.002053  0.376891  0.892066  1
  Zn  Zn21  1  0.997947  0.623109  0.107934  1
  Ir  Ir22  1  0.000000  0.000000  0.500000  1
  Pd  Pd23  1  0.658635  0.658635  0.054912  1
  Pd  Pd24  1  0.341365  0.341365  0.945088  1
