# generated using pymatgen
data_Er3Co3Si7
_symmetry_space_group_name_H-M   'P 1'
_cell_length_a   12.81119239
_cell_length_b   12.81119278
_cell_length_c   3.98473500
_cell_angle_alpha   90.00000000
_cell_angle_beta   90.00000000
_cell_angle_gamma   161.70400132
_symmetry_Int_Tables_number   1
_chemical_formula_structural   Er3Co3Si7
_chemical_formula_sum   'Er3 Co3 Si7'
_cell_volume   205.30808839
_cell_formula_units_Z   1
loop_
 _symmetry_equiv_pos_site_id
 _symmetry_equiv_pos_as_xyz
  1  'x, y, z'
loop_
 _atom_site_type_symbol
 _atom_site_label
 _atom_site_symmetry_multiplicity
 _atom_site_fract_x
 _atom_site_fract_y
 _atom_site_fract_z
 _atom_site_occupancy
  Er  Er0  1  0.003246  0.996754  0.000000  1
  Er  Er1  1  0.687305  0.312695  0.500000  1
  Er  Er2  1  0.317065  0.682935  0.500000  1
  Co  Co3  1  0.863632  0.136368  0.000000  1
  Co  Co4  1  0.135774  0.864226  0.000000  1
  Co  Co5  1  0.450804  0.549196  0.500000  1
  Si  Si6  1  0.595461  0.404539  0.000000  1
  Si  Si7  1  0.407461  0.592539  0.000000  1
  Si  Si8  1  0.775090  0.224910  0.000000  1
  Si  Si9  1  0.226467  0.773533  0.000000  1
  Si  Si10  1  0.907756  0.092244  0.500000  1
  Si  Si11  1  0.093784  0.906216  0.500000  1
  Si  Si12  1  0.536157  0.463843  0.500000  1
