# generated using pymatgen
data_PbSe2O7
_symmetry_space_group_name_H-M   'P 1'
_cell_length_a   14.65295800
_cell_length_b   5.89314345
_cell_length_c   10.96157299
_cell_angle_alpha   58.67519238
_cell_angle_beta   90.00000000
_cell_angle_gamma   90.00000000
_symmetry_Int_Tables_number   1
_chemical_formula_structural   PbSe2O7
_chemical_formula_sum   'Pb4 Se8 O28'
_cell_volume   808.57806282
_cell_formula_units_Z   4
loop_
 _symmetry_equiv_pos_site_id
 _symmetry_equiv_pos_as_xyz
  1  'x, y, z'
loop_
 _atom_site_type_symbol
 _atom_site_label
 _atom_site_symmetry_multiplicity
 _atom_site_fract_x
 _atom_site_fract_y
 _atom_site_fract_z
 _atom_site_occupancy
  Pb  Pb0  1  0.349658  0.125592  0.671841  1
  Pb  Pb1  1  0.849658  0.874408  0.828159  1
  Pb  Pb2  1  0.650342  0.874408  0.328159  1
  Pb  Pb3  1  0.150342  0.125592  0.171841  1
  Se  Se4  1  0.525559  0.628771  0.693317  1
  Se  Se5  1  0.025559  0.371229  0.806683  1
  Se  Se6  1  0.474441  0.371229  0.306683  1
  Se  Se7  1  0.974441  0.628771  0.193317  1
  Se  Se8  1  0.185039  0.713622  0.587533  1
  Se  Se9  1  0.685039  0.286378  0.912467  1
  Se  Se10  1  0.814961  0.286378  0.412467  1
  Se  Se11  1  0.314961  0.713622  0.087533  1
  O  O12  1  0.443442  0.513726  0.637219  1
  O  O13  1  0.943442  0.486274  0.862781  1
  O  O14  1  0.556558  0.486274  0.362781  1
  O  O15  1  0.056558  0.513726  0.137219  1
  O  O16  1  0.613637  0.753587  0.583888  1
  O  O17  1  0.113637  0.246413  0.916112  1
  O  O18  1  0.386363  0.246413  0.416112  1
  O  O19  1  0.886363  0.753587  0.083888  1
  O  O20  1  0.824977  0.015511  0.571691  1
  O  O21  1  0.324977  0.984489  0.928309  1
  O  O22  1  0.175023  0.984489  0.428309  1
  O  O23  1  0.675023  0.015511  0.071691  1
  O  O24  1  0.434138  0.675082  0.147760  1
  O  O25  1  0.934138  0.324918  0.352240  1
  O  O26  1  0.565862  0.324918  0.852240  1
  O  O27  1  0.065862  0.675082  0.647760  1
  O  O28  1  0.511322  0.178732  0.248841  1
  O  O29  1  0.011322  0.821268  0.251159  1
  O  O30  1  0.488678  0.821268  0.751159  1
  O  O31  1  0.988678  0.178732  0.748841  1
  O  O32  1  0.288689  0.441468  0.087678  1
  O  O33  1  0.788689  0.558532  0.412322  1
  O  O34  1  0.711311  0.558532  0.912322  1
  O  O35  1  0.211311  0.441468  0.587678  1
  O  O36  1  0.255265  0.761084  0.200143  1
  O  O37  1  0.755265  0.238916  0.299857  1
  O  O38  1  0.744735  0.238916  0.799857  1
  O  O39  1  0.244735  0.761084  0.700143  1
