# generated using pymatgen
data_HfSc2(Co2Sn)3
_symmetry_space_group_name_H-M   'P 1'
_cell_length_a   4.40242100
_cell_length_b   6.24266900
_cell_length_c   13.20860900
_cell_angle_alpha   90.00160098
_cell_angle_beta   90.00101509
_cell_angle_gamma   90.00025863
_symmetry_Int_Tables_number   1
_chemical_formula_structural   HfSc2(Co2Sn)3
_chemical_formula_sum   'Hf2 Sc4 Co12 Sn6'
_cell_volume   363.01031356
_cell_formula_units_Z   2
loop_
 _symmetry_equiv_pos_site_id
 _symmetry_equiv_pos_as_xyz
  1  'x, y, z'
loop_
 _atom_site_type_symbol
 _atom_site_label
 _atom_site_symmetry_multiplicity
 _atom_site_fract_x
 _atom_site_fract_y
 _atom_site_fract_z
 _atom_site_occupancy
  Hf  Hf0  1  0.000008  0.000046  0.999577  1
  Hf  Hf1  1  0.500262  0.499947  0.167099  1
  Sc  Sc2  1  0.000247  0.999917  0.334551  1
  Sc  Sc3  1  0.499994  0.500129  0.500801  1
  Sc  Sc4  1  0.999771  0.999970  0.665838  1
  Sc  Sc5  1  0.499759  0.499953  0.832120  1
  Co  Co6  1  0.500012  0.245603  0.001747  1
  Co  Co7  1  0.500012  0.754436  0.001762  1
  Co  Co8  1  0.000301  0.254392  0.164932  1
  Co  Co9  1  0.000301  0.745599  0.164913  1
  Co  Co10  1  0.500313  0.252763  0.332026  1
  Co  Co11  1  0.500313  0.747231  0.332020  1
  Co  Co12  1  0.000006  0.248930  0.500293  1
  Co  Co13  1  0.000003  0.751090  0.500310  1
  Co  Co14  1  0.499700  0.251116  0.666342  1
  Co  Co15  1  0.499699  0.748897  0.666356  1
  Co  Co16  1  0.999710  0.247227  0.834634  1
  Co  Co17  1  0.999710  0.752752  0.834632  1
  Sn  Sn18  1  0.000007  0.500013  0.998000  1
  Sn  Sn19  1  0.500302  0.000037  0.168643  1
  Sn  Sn20  1  0.000298  0.499970  0.335459  1
  Sn  Sn21  1  0.500007  0.999983  0.499857  1
  Sn  Sn22  1  0.999561  0.500033  0.666773  1
  Sn  Sn23  1  0.499706  0.999962  0.831317  1
