# generated using pymatgen
data_LaY2Rh9
_symmetry_space_group_name_H-M   'P 1'
_cell_length_a   5.35187200
_cell_length_b   5.35191224
_cell_length_c   17.40663600
_cell_angle_alpha   90.00000000
_cell_angle_beta   90.00000000
_cell_angle_gamma   119.99737621
_symmetry_Int_Tables_number   1
_chemical_formula_structural   LaY2Rh9
_chemical_formula_sum   'La2 Y4 Rh18'
_cell_volume   431.78908766
_cell_formula_units_Z   2
loop_
 _symmetry_equiv_pos_site_id
 _symmetry_equiv_pos_as_xyz
  1  'x, y, z'
loop_
 _atom_site_type_symbol
 _atom_site_label
 _atom_site_symmetry_multiplicity
 _atom_site_fract_x
 _atom_site_fract_y
 _atom_site_fract_z
 _atom_site_occupancy
  La  La0  1  0.333335  0.666667  0.750000  1
  La  La1  1  0.666665  0.333333  0.250000  1
  Y  Y2  1  0.333338  0.666660  0.958191  1
  Y  Y3  1  0.666662  0.333340  0.041809  1
  Y  Y4  1  0.666662  0.333340  0.458191  1
  Y  Y5  1  0.333338  0.666660  0.541809  1
  Rh  Rh6  1  0.167521  0.832479  0.374947  1
  Rh  Rh7  1  0.167531  0.335076  0.374942  1
  Rh  Rh8  1  0.664927  0.832470  0.374945  1
  Rh  Rh9  1  0.832479  0.167521  0.625053  1
  Rh  Rh10  1  0.832469  0.664924  0.625058  1
  Rh  Rh11  1  0.335073  0.167530  0.625055  1
  Rh  Rh12  1  0.832479  0.167521  0.874947  1
  Rh  Rh13  1  0.832469  0.664924  0.874942  1
  Rh  Rh14  1  0.335073  0.167530  0.874945  1
  Rh  Rh15  1  0.167521  0.832479  0.125053  1
  Rh  Rh16  1  0.167531  0.335076  0.125058  1
  Rh  Rh17  1  0.664927  0.832470  0.125055  1
  Rh  Rh18  1  0.333317  0.666751  0.250000  1
  Rh  Rh19  1  0.666683  0.333249  0.750000  1
  Rh  Rh20  1  0.000005  0.999934  0.250000  1
  Rh  Rh21  1  0.999995  0.000066  0.750000  1
  Rh  Rh22  1  0.000000  0.000000  0.500000  1
  Rh  Rh23  1  0.000000  0.000000  0.000000  1
