# generated using pymatgen
data_Ce6ZnCd22Bi
_symmetry_space_group_name_H-M   'P 1'
_cell_length_a   10.10846570
_cell_length_b   10.10846694
_cell_length_c   10.10846500
_cell_angle_alpha   60.00000307
_cell_angle_beta   59.99999901
_cell_angle_gamma   60.00000151
_symmetry_Int_Tables_number   1
_chemical_formula_structural   Ce6ZnCd22Bi
_chemical_formula_sum   'Ce6 Zn1 Cd22 Bi1'
_cell_volume   730.36636092
_cell_formula_units_Z   1
loop_
 _symmetry_equiv_pos_site_id
 _symmetry_equiv_pos_as_xyz
  1  'x, y, z'
loop_
 _atom_site_type_symbol
 _atom_site_label
 _atom_site_symmetry_multiplicity
 _atom_site_fract_x
 _atom_site_fract_y
 _atom_site_fract_z
 _atom_site_occupancy
  Ce  Ce0  1  0.776666  0.776666  0.223334  1
  Ce  Ce1  1  0.223334  0.776666  0.223334  1
  Ce  Ce2  1  0.776666  0.223334  0.223334  1
  Ce  Ce3  1  0.223334  0.223334  0.776666  1
  Ce  Ce4  1  0.776666  0.223334  0.776666  1
  Ce  Ce5  1  0.223334  0.776666  0.776666  1
  Zn  Zn6  1  0.500000  0.500000  0.500000  1
  Cd  Cd7  1  0.836845  0.836845  0.489462  1
  Cd  Cd8  1  0.836845  0.489462  0.836845  1
  Cd  Cd9  1  0.489462  0.836845  0.836845  1
  Cd  Cd10  1  0.836845  0.836845  0.836845  1
  Cd  Cd11  1  0.163155  0.163155  0.510538  1
  Cd  Cd12  1  0.163155  0.510538  0.163155  1
  Cd  Cd13  1  0.510538  0.163155  0.163155  1
  Cd  Cd14  1  0.163155  0.163155  0.163155  1
  Cd  Cd15  1  0.620906  0.620906  0.137285  1
  Cd  Cd16  1  0.620906  0.137285  0.620906  1
  Cd  Cd17  1  0.137285  0.620906  0.620906  1
  Cd  Cd18  1  0.620906  0.620906  0.620906  1
  Cd  Cd19  1  0.379094  0.379094  0.862715  1
  Cd  Cd20  1  0.379094  0.862715  0.379094  1
  Cd  Cd21  1  0.862715  0.379094  0.379094  1
  Cd  Cd22  1  0.379094  0.379094  0.379094  1
  Cd  Cd23  1  0.000000  0.000000  0.500000  1
  Cd  Cd24  1  0.500000  0.000000  0.500000  1
  Cd  Cd25  1  0.000000  0.500000  0.500000  1
  Cd  Cd26  1  0.500000  0.500000  0.000000  1
  Cd  Cd27  1  0.000000  0.500000  0.000000  1
  Cd  Cd28  1  0.500000  0.000000  0.000000  1
  Bi  Bi29  1  0.000000  0.000000  0.000000  1
