# generated using pymatgen
data_Ho3Pa(GaPd2)4
_symmetry_space_group_name_H-M   'P 1'
_cell_length_a   5.64546706
_cell_length_b   7.17370400
_cell_length_c   7.35433900
_cell_angle_alpha   90.00000000
_cell_angle_beta   89.47326752
_cell_angle_gamma   90.00000000
_symmetry_Int_Tables_number   1
_chemical_formula_structural   Ho3Pa(GaPd2)4
_chemical_formula_sum   'Ho3 Pa1 Ga4 Pd8'
_cell_volume   297.83012468
_cell_formula_units_Z   1
loop_
 _symmetry_equiv_pos_site_id
 _symmetry_equiv_pos_as_xyz
  1  'x, y, z'
loop_
 _atom_site_type_symbol
 _atom_site_label
 _atom_site_symmetry_multiplicity
 _atom_site_fract_x
 _atom_site_fract_y
 _atom_site_fract_z
 _atom_site_occupancy
  Ho  Ho0  1  0.146116  0.750000  0.529776  1
  Ho  Ho1  1  0.650059  0.250000  0.968656  1
  Ho  Ho2  1  0.850659  0.250000  0.466439  1
  Pa  Pa3  1  0.348368  0.750000  0.031550  1
  Ga  Ga4  1  0.646490  0.750000  0.388471  1
  Ga  Ga5  1  0.850586  0.750000  0.882902  1
  Ga  Ga6  1  0.352166  0.250000  0.612806  1
  Ga  Ga7  1  0.144587  0.250000  0.116554  1
  Pd  Pd8  1  0.918811  0.554341  0.184781  1
  Pd  Pd9  1  0.578998  0.947960  0.687416  1
  Pd  Pd10  1  0.092392  0.049053  0.819343  1
  Pd  Pd11  1  0.415285  0.451544  0.309883  1
  Pd  Pd12  1  0.092392  0.450947  0.819343  1
  Pd  Pd13  1  0.415285  0.048456  0.309883  1
  Pd  Pd14  1  0.918811  0.945659  0.184781  1
  Pd  Pd15  1  0.578998  0.552040  0.687416  1
