# generated using pymatgen
data_Li6Dy2PuN6
_symmetry_space_group_name_H-M   'P 1'
_cell_length_a   5.96271400
_cell_length_b   5.96271467
_cell_length_c   5.47575200
_cell_angle_alpha   90.00000000
_cell_angle_beta   90.00000000
_cell_angle_gamma   119.99999775
_symmetry_Int_Tables_number   1
_chemical_formula_structural   Li6Dy2PuN6
_chemical_formula_sum   'Li6 Dy2 Pu1 N6'
_cell_volume   168.60188240
_cell_formula_units_Z   1
loop_
 _symmetry_equiv_pos_site_id
 _symmetry_equiv_pos_as_xyz
  1  'x, y, z'
loop_
 _atom_site_type_symbol
 _atom_site_label
 _atom_site_symmetry_multiplicity
 _atom_site_fract_x
 _atom_site_fract_y
 _atom_site_fract_z
 _atom_site_occupancy
  Li  Li0  1  0.979349  0.649214  0.607922  1
  Li  Li1  1  0.350786  0.330135  0.607922  1
  Li  Li2  1  0.669865  0.020651  0.607922  1
  Li  Li3  1  0.002983  0.336965  0.389560  1
  Li  Li4  1  0.663035  0.666018  0.389560  1
  Li  Li5  1  0.333982  0.997017  0.389560  1
  Dy  Dy6  1  0.000000  0.000000  0.998799  1
  Dy  Dy7  1  0.333333  0.666667  0.994220  1
  Pu  Pu8  1  0.666667  0.333333  0.004819  1
  N  N9  1  0.973639  0.640594  0.227202  1
  N  N10  1  0.359406  0.333045  0.227202  1
  N  N11  1  0.666955  0.026361  0.227202  1
  N  N12  1  0.971747  0.333794  0.776038  1
  N  N13  1  0.666206  0.637954  0.776038  1
  N  N14  1  0.362046  0.028253  0.776038  1
