# generated using pymatgen
data_SrRe3Si2Os
_symmetry_space_group_name_H-M   'P 1'
_cell_length_a   7.53576952
_cell_length_b   7.53577055
_cell_length_c   4.10708800
_cell_angle_alpha   90.00000000
_cell_angle_beta   90.00000000
_cell_angle_gamma   148.28373233
_symmetry_Int_Tables_number   1
_chemical_formula_structural   SrRe3Si2Os
_chemical_formula_sum   'Sr1 Re3 Si2 Os1'
_cell_volume   122.61346355
_cell_formula_units_Z   1
loop_
 _symmetry_equiv_pos_site_id
 _symmetry_equiv_pos_as_xyz
  1  'x, y, z'
loop_
 _atom_site_type_symbol
 _atom_site_label
 _atom_site_symmetry_multiplicity
 _atom_site_fract_x
 _atom_site_fract_y
 _atom_site_fract_z
 _atom_site_occupancy
  Sr  Sr0  1  0.001467  0.998533  0.000000  1
  Re  Re1  1  0.302118  0.697882  0.000000  1
  Re  Re2  1  0.810441  0.189559  0.500000  1
  Re  Re3  1  0.697762  0.302238  0.000000  1
  Si  Si4  1  0.409790  0.590210  0.500000  1
  Si  Si5  1  0.591620  0.408380  0.500000  1
  Os  Os6  1  0.186803  0.813197  0.500000  1
