# generated using pymatgen
data_Er6Al24Os5Pt2Rh
_symmetry_space_group_name_H-M   'P 1'
_cell_length_a   8.82001099
_cell_length_b   8.82640644
_cell_length_c   9.52109073
_cell_angle_alpha   90.07785544
_cell_angle_beta   89.60750820
_cell_angle_gamma   119.69251610
_symmetry_Int_Tables_number   1
_chemical_formula_structural   Er6Al24Os5Pt2Rh
_chemical_formula_sum   'Er6 Al24 Os5 Pt2 Rh1'
_cell_volume   643.86720421
_cell_formula_units_Z   1
loop_
 _symmetry_equiv_pos_site_id
 _symmetry_equiv_pos_as_xyz
  1  'x, y, z'
loop_
 _atom_site_type_symbol
 _atom_site_label
 _atom_site_symmetry_multiplicity
 _atom_site_fract_x
 _atom_site_fract_y
 _atom_site_fract_z
 _atom_site_occupancy
  Er  Er0  1  0.189734  0.386867  0.252592  1
  Er  Er1  1  0.810266  0.613133  0.747408  1
  Er  Er2  1  0.611310  0.813140  0.252027  1
  Er  Er3  1  0.388690  0.186860  0.747973  1
  Er  Er4  1  0.197387  0.808798  0.251546  1
  Er  Er5  1  0.802613  0.191202  0.748454  1
  Al  Al6  1  0.337707  0.669088  0.026605  1
  Al  Al7  1  0.662293  0.330912  0.973395  1
  Al  Al8  1  0.668920  0.331445  0.523214  1
  Al  Al9  1  0.331080  0.668555  0.476786  1
  Al  Al10  1  0.158133  0.324463  0.578242  1
  Al  Al11  1  0.841867  0.675537  0.421758  1
  Al  Al12  1  0.674587  0.840711  0.577029  1
  Al  Al13  1  0.833825  0.676077  0.078551  1
  Al  Al14  1  0.325413  0.159289  0.422971  1
  Al  Al15  1  0.166175  0.323923  0.921449  1
  Al  Al16  1  0.163901  0.835903  0.575670  1
  Al  Al17  1  0.325864  0.162041  0.076640  1
  Al  Al18  1  0.836099  0.164097  0.424330  1
  Al  Al19  1  0.674136  0.837959  0.923360  1
  Al  Al20  1  0.832269  0.159334  0.075945  1
  Al  Al21  1  0.167731  0.840666  0.924055  1
  Al  Al22  1  0.561566  0.125690  0.249610  1
  Al  Al23  1  0.438434  0.874310  0.750390  1
  Al  Al24  1  0.874352  0.438914  0.252992  1
  Al  Al25  1  0.125648  0.561086  0.747008  1
  Al  Al26  1  0.561326  0.439895  0.246402  1
  Al  Al27  1  0.438674  0.560105  0.753598  1
  Al  Al28  1  0.999608  0.001997  0.250101  1
  Al  Al29  1  0.000392  0.998003  0.749899  1
  Os  Os30  1  0.500000  0.000000  0.000000  1
  Os  Os31  1  0.500000  0.000000  0.500000  1
  Os  Os32  1  0.000000  0.500000  0.500000  1
  Os  Os33  1  0.000000  0.000000  0.000000  1
  Os  Os34  1  0.000000  0.000000  0.500000  1
  Pt  Pt35  1  0.000000  0.500000  0.000000  1
  Pt  Pt36  1  0.500000  0.500000  0.500000  1
  Rh  Rh37  1  0.500000  0.500000  0.000000  1
