# generated using pymatgen
data_Tb(Nd2Os)2
_symmetry_space_group_name_H-M   'P 1'
_cell_length_a   6.59740708
_cell_length_b   7.42658720
_cell_length_c   8.79059489
_cell_angle_alpha   96.42240557
_cell_angle_beta   112.04001083
_cell_angle_gamma   89.99999876
_symmetry_Int_Tables_number   1
_chemical_formula_structural   Tb(Nd2Os)2
_chemical_formula_sum   'Tb2 Nd8 Os4'
_cell_volume   396.31318554
_cell_formula_units_Z   2
loop_
 _symmetry_equiv_pos_site_id
 _symmetry_equiv_pos_as_xyz
  1  'x, y, z'
loop_
 _atom_site_type_symbol
 _atom_site_label
 _atom_site_symmetry_multiplicity
 _atom_site_fract_x
 _atom_site_fract_y
 _atom_site_fract_z
 _atom_site_occupancy
  Tb  Tb0  1  0.430373  0.750000  0.000000  1
  Tb  Tb1  1  0.569627  0.250000  0.000000  1
  Nd  Nd2  1  0.976819  0.917028  0.182288  1
  Nd  Nd3  1  0.794531  0.582972  0.817712  1
  Nd  Nd4  1  0.023181  0.082972  0.817712  1
  Nd  Nd5  1  0.205469  0.417028  0.182288  1
  Nd  Nd6  1  0.639374  0.814648  0.432010  1
  Nd  Nd7  1  0.207363  0.685352  0.567990  1
  Nd  Nd8  1  0.360626  0.185352  0.567990  1
  Nd  Nd9  1  0.792637  0.314648  0.432010  1
  Os  Os10  1  0.816862  0.572480  0.214738  1
  Os  Os11  1  0.602124  0.927520  0.785262  1
  Os  Os12  1  0.183138  0.427520  0.785262  1
  Os  Os13  1  0.397876  0.072480  0.214738  1
