# generated using pymatgen
data_Li9Ga3Pt4
_symmetry_space_group_name_H-M   'P 1'
_cell_length_a   6.06903351
_cell_length_b   6.06986412
_cell_length_c   6.07044200
_cell_angle_alpha   90.02218255
_cell_angle_beta   89.97657768
_cell_angle_gamma   90.02688299
_symmetry_Int_Tables_number   1
_chemical_formula_structural   Li9Ga3Pt4
_chemical_formula_sum   'Li9 Ga3 Pt4'
_cell_volume   223.62414952
_cell_formula_units_Z   1
loop_
 _symmetry_equiv_pos_site_id
 _symmetry_equiv_pos_as_xyz
  1  'x, y, z'
loop_
 _atom_site_type_symbol
 _atom_site_label
 _atom_site_symmetry_multiplicity
 _atom_site_fract_x
 _atom_site_fract_y
 _atom_site_fract_z
 _atom_site_occupancy
  Li  Li0  1  0.256258  0.743783  0.256227  1
  Li  Li1  1  0.743865  0.256125  0.256295  1
  Li  Li2  1  0.256287  0.256107  0.743918  1
  Li  Li3  1  0.999729  0.000125  0.999832  1
  Li  Li4  1  0.999947  0.500008  0.500012  1
  Li  Li5  1  0.743851  0.743686  0.743878  1
  Li  Li6  1  0.500062  0.000071  0.500028  1
  Li  Li7  1  0.500036  0.499998  0.999931  1
  Li  Li8  1  0.499958  0.499999  0.499995  1
  Ga  Ga9  1  0.000013  0.000094  0.500040  1
  Ga  Ga10  1  0.000031  0.499926  0.999992  1
  Ga  Ga11  1  0.500063  0.000019  0.000014  1
  Pt  Pt12  1  0.241969  0.241937  0.241963  1
  Pt  Pt13  1  0.757867  0.242145  0.757868  1
  Pt  Pt14  1  0.758033  0.758004  0.241996  1
  Pt  Pt15  1  0.242032  0.757975  0.758008  1
