# generated using pymatgen
data_Yb12Tm8Si15Sb
_symmetry_space_group_name_H-M   'P 1'
_cell_length_a   7.34171692
_cell_length_b   7.82240332
_cell_length_c   15.03594647
_cell_angle_alpha   89.81283274
_cell_angle_beta   90.32569639
_cell_angle_gamma   89.99971696
_symmetry_Int_Tables_number   1
_chemical_formula_structural   Yb12Tm8Si15Sb
_chemical_formula_sum   'Yb12 Tm8 Si15 Sb1'
_cell_volume   863.49390433
_cell_formula_units_Z   1
loop_
 _symmetry_equiv_pos_site_id
 _symmetry_equiv_pos_as_xyz
  1  'x, y, z'
loop_
 _atom_site_type_symbol
 _atom_site_label
 _atom_site_symmetry_multiplicity
 _atom_site_fract_x
 _atom_site_fract_y
 _atom_site_fract_z
 _atom_site_occupancy
  Yb  Yb0  1  0.981190  0.822137  0.401610  1
  Yb  Yb1  1  0.476011  0.682267  0.094699  1
  Yb  Yb2  1  0.510170  0.310198  0.597160  1
  Yb  Yb3  1  0.023794  0.182753  0.906654  1
  Yb  Yb4  1  0.025264  0.176740  0.595770  1
  Yb  Yb5  1  0.523781  0.318157  0.905956  1
  Yb  Yb6  1  0.476250  0.686386  0.403044  1
  Yb  Yb7  1  0.976074  0.817017  0.094454  1
  Yb  Yb8  1  0.347658  0.022864  0.753857  1
  Yb  Yb9  1  0.850264  0.479530  0.754366  1
  Yb  Yb10  1  0.150320  0.520927  0.248920  1
  Yb  Yb11  1  0.649842  0.976430  0.248182  1
  Tm  Tm12  1  0.315615  0.176573  0.120531  1
  Tm  Tm13  1  0.819505  0.314654  0.373179  1
  Tm  Tm14  1  0.184814  0.676690  0.879359  1
  Tm  Tm15  1  0.675280  0.837982  0.626438  1
  Tm  Tm16  1  0.318506  0.174700  0.376490  1
  Tm  Tm17  1  0.815011  0.323465  0.120846  1
  Tm  Tm18  1  0.192008  0.679509  0.622063  1
  Tm  Tm19  1  0.685528  0.823945  0.879361  1
  Si  Si20  1  0.355497  0.966378  0.962156  1
  Si  Si21  1  0.647373  0.033973  0.462351  1
  Si  Si22  1  0.144554  0.466811  0.038212  1
  Si  Si23  1  0.161174  0.464850  0.459351  1
  Si  Si24  1  0.645368  0.033085  0.038100  1
  Si  Si25  1  0.354276  0.965547  0.536582  1
  Si  Si26  1  0.855304  0.533883  0.962356  1
  Si  Si27  1  0.976270  0.879514  0.749439  1
  Si  Si28  1  0.477467  0.620467  0.751297  1
  Si  Si29  1  0.523411  0.379673  0.249125  1
  Si  Si30  1  0.024753  0.117372  0.248145  1
  Si  Si31  1  0.246874  0.397619  0.750361  1
  Si  Si32  1  0.749037  0.106341  0.751992  1
  Si  Si33  1  0.253271  0.895494  0.248686  1
  Si  Si34  1  0.752758  0.602453  0.250381  1
  Sb  Sb35  1  0.835729  0.533615  0.538526  1
