# generated using pymatgen
data_Y4Ga4Pd3Pt
_symmetry_space_group_name_H-M   'P 1'
_cell_length_a   4.47150100
_cell_length_b   6.96456119
_cell_length_c   7.69465572
_cell_angle_alpha   90.74637769
_cell_angle_beta   90.00000000
_cell_angle_gamma   90.00000000
_symmetry_Int_Tables_number   1
_chemical_formula_structural   Y4Ga4Pd3Pt
_chemical_formula_sum   'Y4 Ga4 Pd3 Pt1'
_cell_volume   239.60696227
_cell_formula_units_Z   1
loop_
 _symmetry_equiv_pos_site_id
 _symmetry_equiv_pos_as_xyz
  1  'x, y, z'
loop_
 _atom_site_type_symbol
 _atom_site_label
 _atom_site_symmetry_multiplicity
 _atom_site_fract_x
 _atom_site_fract_y
 _atom_site_fract_z
 _atom_site_occupancy
  Y  Y0  1  0.250000  0.986777  0.302488  1
  Y  Y1  1  0.250000  0.481750  0.199844  1
  Y  Y2  1  0.750000  0.018024  0.697499  1
  Y  Y3  1  0.750000  0.517844  0.800489  1
  Ga  Ga4  1  0.250000  0.325356  0.575256  1
  Ga  Ga5  1  0.250000  0.824290  0.927090  1
  Ga  Ga6  1  0.750000  0.674438  0.424948  1
  Ga  Ga7  1  0.750000  0.177583  0.072914  1
  Pd  Pd8  1  0.250000  0.218432  0.900920  1
  Pd  Pd9  1  0.250000  0.719153  0.598483  1
  Pd  Pd10  1  0.750000  0.780332  0.098259  1
  Pt  Pt11  1  0.750000  0.276019  0.401810  1
