# generated using pymatgen
data_Pr8Y9Sc3Si15Ir
_symmetry_space_group_name_H-M   'P 1'
_cell_length_a   7.40416452
_cell_length_b   7.80057216
_cell_length_c   14.85504000
_cell_angle_alpha   90.00000000
_cell_angle_beta   90.00000000
_cell_angle_gamma   90.39808288
_symmetry_Int_Tables_number   1
_chemical_formula_structural   Pr8Y9Sc3Si15Ir
_chemical_formula_sum   'Pr8 Y9 Sc3 Si15 Ir1'
_cell_volume   857.95767130
_cell_formula_units_Z   1
loop_
 _symmetry_equiv_pos_site_id
 _symmetry_equiv_pos_as_xyz
  1  'x, y, z'
loop_
 _atom_site_type_symbol
 _atom_site_label
 _atom_site_symmetry_multiplicity
 _atom_site_fract_x
 _atom_site_fract_y
 _atom_site_fract_z
 _atom_site_occupancy
  Pr  Pr0  1  0.019351  0.179502  0.400294  1
  Pr  Pr1  1  0.519323  0.322275  0.400069  1
  Pr  Pr2  1  0.474365  0.679981  0.902854  1
  Pr  Pr3  1  0.474365  0.679981  0.597146  1
  Pr  Pr4  1  0.984659  0.819620  0.597146  1
  Pr  Pr5  1  0.984659  0.819620  0.902854  1
  Pr  Pr6  1  0.519323  0.322275  0.099931  1
  Pr  Pr7  1  0.019351  0.179502  0.099706  1
  Y  Y8  1  0.318401  0.179731  0.623151  1
  Y  Y9  1  0.679175  0.821517  0.375007  1
  Y  Y10  1  0.639054  0.979698  0.750000  1
  Y  Y11  1  0.178553  0.678663  0.374172  1
  Y  Y12  1  0.825507  0.321637  0.876792  1
  Y  Y13  1  0.825507  0.321637  0.623208  1
  Y  Y14  1  0.318401  0.179731  0.876849  1
  Y  Y15  1  0.178553  0.678663  0.125828  1
  Y  Y16  1  0.679175  0.821517  0.124993  1
  Sc  Sc17  1  0.845589  0.489493  0.250000  1
  Sc  Sc18  1  0.344934  0.014709  0.250000  1
  Sc  Sc19  1  0.162818  0.524245  0.750000  1
  Si  Si20  1  0.477337  0.605477  0.250000  1
  Si  Si21  1  0.028233  0.104868  0.750000  1
  Si  Si22  1  0.528878  0.392199  0.750000  1
  Si  Si23  1  0.147743  0.467953  0.536627  1
  Si  Si24  1  0.977738  0.895363  0.250000  1
  Si  Si25  1  0.721272  0.127356  0.250000  1
  Si  Si26  1  0.853794  0.529101  0.041981  1
  Si  Si27  1  0.354324  0.970443  0.041483  1
  Si  Si28  1  0.147743  0.467953  0.963373  1
  Si  Si29  1  0.647531  0.034703  0.536528  1
  Si  Si30  1  0.354324  0.970443  0.458517  1
  Si  Si31  1  0.853794  0.529101  0.458019  1
  Si  Si32  1  0.778425  0.613463  0.750000  1
  Si  Si33  1  0.222813  0.375154  0.250000  1
  Si  Si34  1  0.647531  0.034703  0.963472  1
  Ir  Ir35  1  0.267451  0.867719  0.750000  1
