# generated using pymatgen
data_Ac2BiAsPt2
_symmetry_space_group_name_H-M   'P 1'
_cell_length_a   8.50564300
_cell_length_b   4.59620066
_cell_length_c   8.05997500
_cell_angle_alpha   90.56523802
_cell_angle_beta   90.00000000
_cell_angle_gamma   90.00000000
_symmetry_Int_Tables_number   1
_chemical_formula_structural   Ac2BiAsPt2
_chemical_formula_sum   'Ac4 Bi2 As2 Pt4'
_cell_volume   315.07844387
_cell_formula_units_Z   2
loop_
 _symmetry_equiv_pos_site_id
 _symmetry_equiv_pos_as_xyz
  1  'x, y, z'
loop_
 _atom_site_type_symbol
 _atom_site_label
 _atom_site_symmetry_multiplicity
 _atom_site_fract_x
 _atom_site_fract_y
 _atom_site_fract_z
 _atom_site_occupancy
  Ac  Ac0  1  0.157888  0.252071  0.766031  1
  Ac  Ac1  1  0.657888  0.747929  0.233969  1
  Ac  Ac2  1  0.171425  0.751679  0.234601  1
  Ac  Ac3  1  0.671425  0.248321  0.765399  1
  Bi  Bi4  1  0.905451  0.251809  0.418145  1
  Bi  Bi5  1  0.405451  0.748191  0.581855  1
  As  As6  1  0.905465  0.751992  0.924702  1
  As  As7  1  0.405465  0.248008  0.075298  1
  Pt  Pt8  1  0.434375  0.244472  0.385527  1
  Pt  Pt9  1  0.934375  0.755528  0.614473  1
  Pt  Pt10  1  0.425398  0.744460  0.930377  1
  Pt  Pt11  1  0.925398  0.255540  0.069623  1
