# generated using pymatgen
data_Be7Cr3SiW
_symmetry_space_group_name_H-M   'P 1'
_cell_length_a   4.30700600
_cell_length_b   4.30700547
_cell_length_c   7.15346000
_cell_angle_alpha   90.00000000
_cell_angle_beta   90.00000000
_cell_angle_gamma   120.00000406
_symmetry_Int_Tables_number   1
_chemical_formula_structural   Be7Cr3SiW
_chemical_formula_sum   'Be7 Cr3 Si1 W1'
_cell_volume   114.92054244
_cell_formula_units_Z   1
loop_
 _symmetry_equiv_pos_site_id
 _symmetry_equiv_pos_as_xyz
  1  'x, y, z'
loop_
 _atom_site_type_symbol
 _atom_site_label
 _atom_site_symmetry_multiplicity
 _atom_site_fract_x
 _atom_site_fract_y
 _atom_site_fract_z
 _atom_site_occupancy
  Be  Be0  1  0.000000  0.000000  0.998781  1
  Be  Be1  1  0.828500  0.171500  0.245827  1
  Be  Be2  1  0.828500  0.656999  0.245827  1
  Be  Be3  1  0.343001  0.171500  0.245827  1
  Be  Be4  1  0.171345  0.828655  0.754520  1
  Be  Be5  1  0.171345  0.342690  0.754520  1
  Be  Be6  1  0.657310  0.828655  0.754520  1
  Cr  Cr7  1  0.333333  0.666667  0.437272  1
  Cr  Cr8  1  0.666667  0.333333  0.564943  1
  Cr  Cr9  1  0.666667  0.333333  0.933906  1
  Si  Si10  1  0.000000  0.000000  0.502141  1
  W  W11  1  0.333333  0.666667  0.061915  1
