# generated using pymatgen
data_YU(FeGe)2
_symmetry_space_group_name_H-M   'P 1'
_cell_length_a   7.18305849
_cell_length_b   4.37014500
_cell_length_c   6.83639655
_cell_angle_alpha   90.00000000
_cell_angle_beta   94.77131226
_cell_angle_gamma   90.00000000
_symmetry_Int_Tables_number   1
_chemical_formula_structural   YU(FeGe)2
_chemical_formula_sum   'Y2 U2 Fe4 Ge4'
_cell_volume   213.85770006
_cell_formula_units_Z   2
loop_
 _symmetry_equiv_pos_site_id
 _symmetry_equiv_pos_as_xyz
  1  'x, y, z'
loop_
 _atom_site_type_symbol
 _atom_site_label
 _atom_site_symmetry_multiplicity
 _atom_site_fract_x
 _atom_site_fract_y
 _atom_site_fract_z
 _atom_site_occupancy
  Y  Y0  1  0.023881  0.249999  0.729111  1
  Y  Y1  1  0.976120  0.750001  0.270889  1
  U  U2  1  0.513888  0.249999  0.801405  1
  U  U3  1  0.486114  0.750001  0.198596  1
  Fe  Fe4  1  0.728496  0.249999  0.035750  1
  Fe  Fe5  1  0.271505  0.750001  0.964249  1
  Fe  Fe6  1  0.374477  0.249999  0.474210  1
  Fe  Fe7  1  0.625522  0.750001  0.525791  1
  Ge  Ge8  1  0.712474  0.249999  0.399938  1
  Ge  Ge9  1  0.287526  0.750001  0.600062  1
  Ge  Ge10  1  0.206012  0.249999  0.120268  1
  Ge  Ge11  1  0.793989  0.750001  0.879732  1
