# generated using pymatgen
data_Sm2Ni10Mo2P7
_symmetry_space_group_name_H-M   'P 1'
_cell_length_a   9.17926631
_cell_length_b   9.20658472
_cell_length_c   3.73423500
_cell_angle_alpha   90.00000000
_cell_angle_beta   90.00000000
_cell_angle_gamma   119.95848963
_symmetry_Int_Tables_number   1
_chemical_formula_structural   Sm2Ni10Mo2P7
_chemical_formula_sum   'Sm2 Ni10 Mo2 P7'
_cell_volume   273.41372287
_cell_formula_units_Z   1
loop_
 _symmetry_equiv_pos_site_id
 _symmetry_equiv_pos_as_xyz
  1  'x, y, z'
loop_
 _atom_site_type_symbol
 _atom_site_label
 _atom_site_symmetry_multiplicity
 _atom_site_fract_x
 _atom_site_fract_y
 _atom_site_fract_z
 _atom_site_occupancy
  Sm  Sm0  1  0.997666  0.001336  0.000000  1
  Sm  Sm1  1  0.333256  0.667418  0.500000  1
  Ni  Ni2  1  0.297264  0.394962  0.000000  1
  Ni  Ni3  1  0.097259  0.703887  0.000000  1
  Ni  Ni4  1  0.387466  0.175556  0.000000  1
  Ni  Ni5  1  0.793573  0.617932  0.000000  1
  Ni  Ni6  1  0.817941  0.206659  0.000000  1
  Ni  Ni7  1  0.235846  0.951381  0.500000  1
  Ni  Ni8  1  0.051812  0.278781  0.500000  1
  Ni  Ni9  1  0.718823  0.771764  0.500000  1
  Ni  Ni10  1  0.567952  0.113397  0.500000  1
  Ni  Ni11  1  0.603936  0.899602  0.000000  1
  Mo  Mo12  1  0.881025  0.450110  0.500000  1
  Mo  Mo13  1  0.551445  0.432589  0.500000  1
  P  P14  1  0.664069  0.329676  0.000000  1
  P  P15  1  0.074414  0.441592  0.000000  1
  P  P16  1  0.261899  0.219479  0.500000  1
  P  P17  1  0.776193  0.044226  0.500000  1
  P  P18  1  0.960729  0.740049  0.500000  1
  P  P19  1  0.557740  0.633507  0.000000  1
  P  P20  1  0.369691  0.926099  0.000000  1
