# generated using pymatgen
data_Er8Co(Si4Au)3
_symmetry_space_group_name_H-M   'P 1'
_cell_length_a   8.11866900
_cell_length_b   8.11866823
_cell_length_c   8.06960300
_cell_angle_alpha   90.00000000
_cell_angle_beta   90.00000000
_cell_angle_gamma   119.99999906
_symmetry_Int_Tables_number   1
_chemical_formula_structural   Er8Co(Si4Au)3
_chemical_formula_sum   'Er8 Co1 Si12 Au3'
_cell_volume   460.63022865
_cell_formula_units_Z   1
loop_
 _symmetry_equiv_pos_site_id
 _symmetry_equiv_pos_as_xyz
  1  'x, y, z'
loop_
 _atom_site_type_symbol
 _atom_site_label
 _atom_site_symmetry_multiplicity
 _atom_site_fract_x
 _atom_site_fract_y
 _atom_site_fract_z
 _atom_site_occupancy
  Er  Er0  1  0.497305  0.994611  0.243714  1
  Er  Er1  1  0.494093  0.988186  0.756647  1
  Er  Er2  1  0.005389  0.502695  0.243714  1
  Er  Er3  1  0.011814  0.505907  0.756647  1
  Er  Er4  1  0.497305  0.502695  0.243714  1
  Er  Er5  1  0.494093  0.505907  0.756647  1
  Er  Er6  1  0.000000  0.000000  0.248359  1
  Er  Er7  1  0.000000  0.000000  0.751875  1
  Co  Co8  1  0.333333  0.666667  0.001334  1
  Si  Si9  1  0.174477  0.348952  0.002460  1
  Si  Si10  1  0.839624  0.679247  0.998458  1
  Si  Si11  1  0.651048  0.825523  0.002460  1
  Si  Si12  1  0.836397  0.672795  0.496885  1
  Si  Si13  1  0.320753  0.160376  0.998458  1
  Si  Si14  1  0.162857  0.325715  0.503105  1
  Si  Si15  1  0.174477  0.825523  0.002460  1
  Si  Si16  1  0.327205  0.163603  0.496885  1
  Si  Si17  1  0.839624  0.160376  0.998458  1
  Si  Si18  1  0.674285  0.837143  0.503105  1
  Si  Si19  1  0.836397  0.163603  0.496885  1
  Si  Si20  1  0.162857  0.837143  0.503105  1
  Au  Au21  1  0.666667  0.333333  0.995011  1
  Au  Au22  1  0.666667  0.333333  0.506774  1
  Au  Au23  1  0.333333  0.666667  0.492833  1
