# generated using pymatgen
data_Lu2U(SnRh)3
_symmetry_space_group_name_H-M   'P 1'
_cell_length_a   7.46103795
_cell_length_b   7.56593346
_cell_length_c   3.84841700
_cell_angle_alpha   90.00000000
_cell_angle_beta   90.00000000
_cell_angle_gamma   120.46616487
_symmetry_Int_Tables_number   1
_chemical_formula_structural   Lu2U(SnRh)3
_chemical_formula_sum   'Lu2 U1 Sn3 Rh3'
_cell_volume   187.24716347
_cell_formula_units_Z   1
loop_
 _symmetry_equiv_pos_site_id
 _symmetry_equiv_pos_as_xyz
  1  'x, y, z'
loop_
 _atom_site_type_symbol
 _atom_site_label
 _atom_site_symmetry_multiplicity
 _atom_site_fract_x
 _atom_site_fract_y
 _atom_site_fract_z
 _atom_site_occupancy
  Lu  Lu0  1  0.406130  0.404350  0.500000  1
  Lu  Lu1  1  0.593870  0.998220  0.500000  1
  U  U2  1  0.000000  0.584619  0.500000  1
  Sn  Sn3  1  0.727564  0.740385  0.000000  1
  Sn  Sn4  1  0.272436  0.012821  0.000000  1
  Sn  Sn5  1  0.000000  0.247300  0.000000  1
  Rh  Rh6  1  0.693124  0.358241  0.000000  1
  Rh  Rh7  1  0.306876  0.665118  0.000000  1
  Rh  Rh8  1  0.000000  0.988945  0.500000  1
