# generated using pymatgen
data_Yb9Ho(Sn3H)2
_symmetry_space_group_name_H-M   'P 1'
_cell_length_a   9.32946852
_cell_length_b   9.32946842
_cell_length_c   9.34742022
_cell_angle_alpha   128.44657526
_cell_angle_beta   128.44657357
_cell_angle_gamma   75.96377133
_symmetry_Int_Tables_number   1
_chemical_formula_structural   Yb9Ho(Sn3H)2
_chemical_formula_sum   'Yb9 Ho1 Sn6 H2'
_cell_volume   485.08012286
_cell_formula_units_Z   1
loop_
 _symmetry_equiv_pos_site_id
 _symmetry_equiv_pos_as_xyz
  1  'x, y, z'
loop_
 _atom_site_type_symbol
 _atom_site_label
 _atom_site_symmetry_multiplicity
 _atom_site_fract_x
 _atom_site_fract_y
 _atom_site_fract_z
 _atom_site_occupancy
  Yb  Yb0  1  0.499149  0.502476  0.001380  1
  Yb  Yb1  1  0.002476  0.999149  0.001380  1
  Yb  Yb2  1  0.184513  0.684513  0.173066  1
  Yb  Yb3  1  0.008218  0.185473  0.498835  1
  Yb  Yb4  1  0.685473  0.508218  0.498835  1
  Yb  Yb5  1  0.490406  0.990406  0.179620  1
  Yb  Yb6  1  0.812947  0.312947  0.822984  1
  Yb  Yb7  1  0.988323  0.812422  0.498362  1
  Yb  Yb8  1  0.312422  0.488323  0.498362  1
  Ho  Ho9  1  0.513127  0.013127  0.823378  1
  Sn  Sn10  1  0.254798  0.244131  0.994516  1
  Sn  Sn11  1  0.744131  0.754798  0.994516  1
  Sn  Sn12  1  0.867730  0.367730  0.237111  1
  Sn  Sn13  1  0.125727  0.625727  0.752165  1
  Sn  Sn14  1  0.371051  0.127741  0.505067  1
  Sn  Sn15  1  0.627741  0.871051  0.505067  1
  H  H16  1  0.261596  0.761596  0.513236  1
  H  H17  1  0.750170  0.250170  0.502122  1
