# generated using pymatgen
data_Tb3ErGa18Ir5Pt
_symmetry_space_group_name_H-M   'P 1'
_cell_length_a   7.61868957
_cell_length_b   7.61894560
_cell_length_c   9.48949804
_cell_angle_alpha   89.97150304
_cell_angle_beta   89.96692607
_cell_angle_gamma   119.92233053
_symmetry_Int_Tables_number   1
_chemical_formula_structural   Tb3ErGa18Ir5Pt
_chemical_formula_sum   'Tb3 Er1 Ga18 Ir5 Pt1'
_cell_volume   477.40629441
_cell_formula_units_Z   1
loop_
 _symmetry_equiv_pos_site_id
 _symmetry_equiv_pos_as_xyz
  1  'x, y, z'
loop_
 _atom_site_type_symbol
 _atom_site_label
 _atom_site_symmetry_multiplicity
 _atom_site_fract_x
 _atom_site_fract_y
 _atom_site_fract_z
 _atom_site_occupancy
  Tb  Tb0  1  0.995919  0.668301  0.750968  1
  Tb  Tb1  1  0.002661  0.330710  0.249096  1
  Tb  Tb2  1  0.669312  0.997493  0.750921  1
  Er  Er3  1  0.331353  0.003729  0.248862  1
  Ga  Ga4  1  0.128394  0.126889  0.750386  1
  Ga  Ga5  1  0.873514  0.871937  0.249647  1
  Ga  Ga6  1  0.003015  0.334290  0.581434  1
  Ga  Ga7  1  0.005370  0.669867  0.417873  1
  Ga  Ga8  1  0.002334  0.666563  0.080176  1
  Ga  Ga9  1  0.334172  0.998456  0.921361  1
  Ga  Ga10  1  0.998964  0.334025  0.920125  1
  Ga  Ga11  1  0.665110  0.001085  0.080769  1
  Ga  Ga12  1  0.664864  0.997240  0.417705  1
  Ga  Ga13  1  0.331101  0.995727  0.580458  1
  Ga  Ga14  1  0.331946  0.331274  0.064694  1
  Ga  Ga15  1  0.667927  0.668096  0.936416  1
  Ga  Ga16  1  0.667443  0.670685  0.567241  1
  Ga  Ga17  1  0.329458  0.331699  0.431466  1
  Ga  Ga18  1  0.340345  0.547867  0.750641  1
  Ga  Ga19  1  0.659677  0.455178  0.247629  1
  Ga  Ga20  1  0.543871  0.339667  0.752543  1
  Ga  Ga21  1  0.452071  0.659896  0.249383  1
  Ir  Ir22  1  0.329082  0.670848  0.499742  1
  Ir  Ir23  1  0.328558  0.671401  0.000284  1
  Ir  Ir24  1  0.671603  0.328322  0.000348  1
  Ir  Ir25  1  0.000323  0.999929  0.499647  1
  Ir  Ir26  1  0.000075  0.000180  0.000370  1
  Pt  Pt27  1  0.671536  0.328646  0.499814  1
