# generated using pymatgen
data_LuTh3Al16(GaIr3)2
_symmetry_space_group_name_H-M   'P 1'
_cell_length_a   7.62688345
_cell_length_b   7.63459152
_cell_length_c   9.51343800
_cell_angle_alpha   90.00000000
_cell_angle_beta   90.00000000
_cell_angle_gamma   119.47503442
_symmetry_Int_Tables_number   1
_chemical_formula_structural   LuTh3Al16(GaIr3)2
_chemical_formula_sum   'Lu1 Th3 Al16 Ga2 Ir6'
_cell_volume   482.25217344
_cell_formula_units_Z   1
loop_
 _symmetry_equiv_pos_site_id
 _symmetry_equiv_pos_as_xyz
  1  'x, y, z'
loop_
 _atom_site_type_symbol
 _atom_site_label
 _atom_site_symmetry_multiplicity
 _atom_site_fract_x
 _atom_site_fract_y
 _atom_site_fract_z
 _atom_site_occupancy
  Lu  Lu0  1  0.327760  0.004818  0.750000  1
  Th  Th1  1  0.996812  0.673519  0.250000  1
  Th  Th2  1  0.003302  0.328527  0.750000  1
  Th  Th3  1  0.669577  0.991866  0.250000  1
  Al  Al4  1  0.870333  0.868844  0.750000  1
  Al  Al5  1  0.005375  0.335590  0.074250  1
  Al  Al6  1  0.001120  0.669970  0.921762  1
  Al  Al7  1  0.001120  0.669970  0.578238  1
  Al  Al8  1  0.335879  0.005238  0.432966  1
  Al  Al9  1  0.005375  0.335590  0.425750  1
  Al  Al10  1  0.658532  0.995738  0.578004  1
  Al  Al11  1  0.658532  0.995738  0.921996  1
  Al  Al12  1  0.335879  0.005238  0.067034  1
  Al  Al13  1  0.335993  0.331958  0.557600  1
  Al  Al14  1  0.663563  0.662720  0.457106  1
  Al  Al15  1  0.663563  0.662720  0.042894  1
  Al  Al16  1  0.335993  0.331958  0.942400  1
  Al  Al17  1  0.656554  0.449382  0.750000  1
  Al  Al18  1  0.545711  0.339498  0.250000  1
  Al  Al19  1  0.452751  0.663170  0.750000  1
  Ga  Ga20  1  0.137495  0.134732  0.250000  1
  Ga  Ga21  1  0.342146  0.542528  0.250000  1
  Ir  Ir22  1  0.672610  0.328216  0.999818  1
  Ir  Ir23  1  0.326741  0.671779  0.997918  1
  Ir  Ir24  1  0.326741  0.671779  0.502082  1
  Ir  Ir25  1  0.672610  0.328216  0.500182  1
  Ir  Ir26  1  0.998967  0.000350  0.997396  1
  Ir  Ir27  1  0.998967  0.000350  0.502604  1
