# generated using pymatgen
data_TaNb3(SiRu)4
_symmetry_space_group_name_H-M   'P 1'
_cell_length_a   6.36275155
_cell_length_b   3.86160000
_cell_length_c   7.31798263
_cell_angle_alpha   90.00000000
_cell_angle_beta   89.95245262
_cell_angle_gamma   90.00000000
_symmetry_Int_Tables_number   1
_chemical_formula_structural   TaNb3(SiRu)4
_chemical_formula_sum   'Ta1 Nb3 Si4 Ru4'
_cell_volume   179.80570857
_cell_formula_units_Z   1
loop_
 _symmetry_equiv_pos_site_id
 _symmetry_equiv_pos_as_xyz
  1  'x, y, z'
loop_
 _atom_site_type_symbol
 _atom_site_label
 _atom_site_symmetry_multiplicity
 _atom_site_fract_x
 _atom_site_fract_y
 _atom_site_fract_z
 _atom_site_occupancy
  Ta  Ta0  1  0.479091  0.750001  0.817708  1
  Nb  Nb1  1  0.520592  0.250001  0.181871  1
  Nb  Nb2  1  0.021166  0.250001  0.319219  1
  Nb  Nb3  1  0.978459  0.750001  0.680335  1
  Si  Si4  1  0.225626  0.750001  0.123120  1
  Si  Si5  1  0.725872  0.750001  0.376771  1
  Si  Si6  1  0.273343  0.250001  0.622489  1
  Si  Si7  1  0.775121  0.250001  0.877468  1
  Ru  Ru8  1  0.847371  0.750001  0.060514  1
  Ru  Ru9  1  0.348711  0.750001  0.438476  1
  Ru  Ru10  1  0.650471  0.250001  0.564444  1
  Ru  Ru11  1  0.154175  0.250001  0.937594  1
