# generated using pymatgen
data_Nd3MgCd2PdPb2
_symmetry_space_group_name_H-M   'P 1'
_cell_length_a   7.59893200
_cell_length_b   7.65132631
_cell_length_c   4.72418500
_cell_angle_alpha   90.00000000
_cell_angle_beta   90.00000000
_cell_angle_gamma   119.77373587
_symmetry_Int_Tables_number   1
_chemical_formula_structural   Nd3MgCd2PdPb2
_chemical_formula_sum   'Nd3 Mg1 Cd2 Pd1 Pb2'
_cell_volume   238.41440268
_cell_formula_units_Z   1
loop_
 _symmetry_equiv_pos_site_id
 _symmetry_equiv_pos_as_xyz
  1  'x, y, z'
loop_
 _atom_site_type_symbol
 _atom_site_label
 _atom_site_symmetry_multiplicity
 _atom_site_fract_x
 _atom_site_fract_y
 _atom_site_fract_z
 _atom_site_occupancy
  Nd  Nd0  1  0.606638  0.000000  0.000000  1
  Nd  Nd1  1  0.997713  0.599855  0.000000  1
  Nd  Nd2  1  0.397858  0.400145  0.000000  1
  Mg  Mg3  1  0.221362  0.000000  0.500000  1
  Cd  Cd4  1  0.001295  0.228956  0.500000  1
  Cd  Cd5  1  0.772339  0.771044  0.500000  1
  Pd  Pd6  1  0.009576  0.000000  0.000000  1
  Pb  Pb7  1  0.332168  0.671117  0.500000  1
  Pb  Pb8  1  0.661052  0.328883  0.500000  1
