# generated using pymatgen
data_Tb3CeAlB4Ir9
_symmetry_space_group_name_H-M   'P 1'
_cell_length_a   10.79421580
_cell_length_b   10.79421557
_cell_length_c   10.79421629
_cell_angle_alpha   29.64631121
_cell_angle_beta   29.64631187
_cell_angle_gamma   29.64631073
_symmetry_Int_Tables_number   1
_chemical_formula_structural   Tb3CeAlB4Ir9
_chemical_formula_sum   'Tb3 Ce1 Al1 B4 Ir9'
_cell_volume   272.43321805
_cell_formula_units_Z   1
loop_
 _symmetry_equiv_pos_site_id
 _symmetry_equiv_pos_as_xyz
  1  'x, y, z'
loop_
 _atom_site_type_symbol
 _atom_site_label
 _atom_site_symmetry_multiplicity
 _atom_site_fract_x
 _atom_site_fract_y
 _atom_site_fract_z
 _atom_site_occupancy
  Tb  Tb0  1  0.150767  0.150767  0.150767  1
  Tb  Tb1  1  0.949601  0.949601  0.949601  1
  Tb  Tb2  1  0.849717  0.849717  0.849717  1
  Ce  Ce3  1  0.050847  0.050847  0.050847  1
  Al  Al4  1  0.500229  0.500229  0.500229  1
  B  B5  1  0.615377  0.615377  0.615377  1
  B  B6  1  0.717592  0.717592  0.717592  1
  B  B7  1  0.384242  0.384242  0.384242  1
  B  B8  1  0.281939  0.281939  0.281939  1
  Ir  Ir9  1  0.401832  0.901794  0.401832  1
  Ir  Ir10  1  0.901794  0.401832  0.401832  1
  Ir  Ir11  1  0.499708  0.499708  0.999581  1
  Ir  Ir12  1  0.499708  0.999581  0.499708  1
  Ir  Ir13  1  0.999581  0.499708  0.499708  1
  Ir  Ir14  1  0.598457  0.098321  0.598457  1
  Ir  Ir15  1  0.598457  0.598457  0.098321  1
  Ir  Ir16  1  0.098321  0.598457  0.598457  1
  Ir  Ir17  1  0.401832  0.401832  0.901794  1
