# generated using pymatgen
data_K3Y(TaS4)2
_symmetry_space_group_name_H-M   'P 1'
_cell_length_a   9.02879642
_cell_length_b   10.34774525
_cell_length_c   11.17697026
_cell_angle_alpha   107.45456129
_cell_angle_beta   102.54519952
_cell_angle_gamma   113.77843520
_symmetry_Int_Tables_number   1
_chemical_formula_structural   K3Y(TaS4)2
_chemical_formula_sum   'K6 Y2 Ta4 S16'
_cell_volume   840.42756458
_cell_formula_units_Z   2
loop_
 _symmetry_equiv_pos_site_id
 _symmetry_equiv_pos_as_xyz
  1  'x, y, z'
loop_
 _atom_site_type_symbol
 _atom_site_label
 _atom_site_symmetry_multiplicity
 _atom_site_fract_x
 _atom_site_fract_y
 _atom_site_fract_z
 _atom_site_occupancy
  K  K0  1  0.500000  0.499998  0.000002  1
  K  K1  1  0.000003  0.500001  0.999997  1
  K  K2  1  0.754957  0.004687  0.009500  1
  K  K3  1  0.988707  0.738846  0.477634  1
  K  K4  1  0.011291  0.261158  0.522367  1
  K  K5  1  0.245044  0.995317  0.990510  1
  Y  Y6  1  0.492804  0.242754  0.485562  1
  Y  Y7  1  0.507195  0.757245  0.514438  1
  Ta  Ta8  1  0.251202  0.351439  0.256199  1
  Ta  Ta9  1  0.505142  0.904835  0.256188  1
  Ta  Ta10  1  0.494860  0.095165  0.743813  1
  Ta  Ta11  1  0.748797  0.648559  0.743801  1
  S  S12  1  0.146703  0.270897  0.027654  1
  S  S13  1  0.381020  0.756887  0.027612  1
  S  S14  1  0.163003  0.133053  0.297435  1
  S  S15  1  0.634605  0.164520  0.297494  1
  S  S16  1  0.305385  0.865153  0.354349  1
  S  S17  1  0.549044  0.489186  0.354290  1
  S  S18  1  0.704972  0.850511  0.360000  1
  S  S19  1  0.155140  0.509501  0.359922  1
  S  S20  1  0.844858  0.490499  0.640075  1
  S  S21  1  0.295034  0.149492  0.640004  1
  S  S22  1  0.450953  0.510813  0.645709  1
  S  S23  1  0.694610  0.134842  0.645646  1
  S  S24  1  0.365395  0.835481  0.702505  1
  S  S25  1  0.836995  0.866946  0.702564  1
  S  S26  1  0.618986  0.243113  0.972385  1
  S  S27  1  0.853297  0.729102  0.972346  1
