# generated using pymatgen
data_Gd5Er5(RuPb3)2
_symmetry_space_group_name_H-M   'P 1'
_cell_length_a   9.29146200
_cell_length_b   9.28626220
_cell_length_c   6.56001100
_cell_angle_alpha   90.00000000
_cell_angle_beta   90.00000000
_cell_angle_gamma   119.98148459
_symmetry_Int_Tables_number   1
_chemical_formula_structural   Gd5Er5(RuPb3)2
_chemical_formula_sum   'Gd5 Er5 Ru2 Pb6'
_cell_volume   490.27663179
_cell_formula_units_Z   1
loop_
 _symmetry_equiv_pos_site_id
 _symmetry_equiv_pos_as_xyz
  1  'x, y, z'
loop_
 _atom_site_type_symbol
 _atom_site_label
 _atom_site_symmetry_multiplicity
 _atom_site_fract_x
 _atom_site_fract_y
 _atom_site_fract_z
 _atom_site_occupancy
  Gd  Gd0  1  0.000000  0.763265  0.750000  1
  Gd  Gd1  1  0.333448  0.666613  0.500126  1
  Gd  Gd2  1  0.666552  0.333164  0.500126  1
  Gd  Gd3  1  0.333448  0.666613  0.999874  1
  Gd  Gd4  1  0.666552  0.333164  0.999874  1
  Er  Er5  1  0.235879  0.000178  0.250000  1
  Er  Er6  1  0.763763  0.999935  0.750000  1
  Er  Er7  1  0.000000  0.235806  0.250000  1
  Er  Er8  1  0.764121  0.764300  0.250000  1
  Er  Er9  1  0.236237  0.236171  0.750000  1
  Ru  Ru10  1  0.000000  0.001083  0.000742  1
  Ru  Ru11  1  0.000000  0.001083  0.499258  1
  Pb  Pb12  1  0.401316  0.401546  0.250000  1
  Pb  Pb13  1  0.000000  0.400386  0.750000  1
  Pb  Pb14  1  0.000000  0.597980  0.250000  1
  Pb  Pb15  1  0.598684  0.000230  0.250000  1
  Pb  Pb16  1  0.403445  0.000963  0.750000  1
  Pb  Pb17  1  0.596555  0.597519  0.750000  1
