# generated using pymatgen
data_Li(GaRh)2
_symmetry_space_group_name_H-M   'P 1'
_cell_length_a   7.13695900
_cell_length_b   7.13695900
_cell_length_c   2.93167200
_cell_angle_alpha   90.00000000
_cell_angle_beta   90.00000000
_cell_angle_gamma   90.00000000
_symmetry_Int_Tables_number   1
_chemical_formula_structural   Li(GaRh)2
_chemical_formula_sum   'Li2 Ga4 Rh4'
_cell_volume   149.32818374
_cell_formula_units_Z   2
loop_
 _symmetry_equiv_pos_site_id
 _symmetry_equiv_pos_as_xyz
  1  'x, y, z'
loop_
 _atom_site_type_symbol
 _atom_site_label
 _atom_site_symmetry_multiplicity
 _atom_site_fract_x
 _atom_site_fract_y
 _atom_site_fract_z
 _atom_site_occupancy
  Li  Li0  1  0.000000  0.000000  0.000000  1
  Li  Li1  1  0.500000  0.500000  0.000000  1
  Ga  Ga2  1  0.142473  0.642473  0.000000  1
  Ga  Ga3  1  0.357527  0.142473  0.000000  1
  Ga  Ga4  1  0.642473  0.857527  0.000000  1
  Ga  Ga5  1  0.857527  0.357527  0.000000  1
  Rh  Rh6  1  0.155060  0.344940  0.500000  1
  Rh  Rh7  1  0.344940  0.844940  0.500000  1
  Rh  Rh8  1  0.655060  0.155060  0.500000  1
  Rh  Rh9  1  0.844940  0.655060  0.500000  1
