# generated using pymatgen
data_Sc8VSi16Tc11
_symmetry_space_group_name_H-M   'P 1'
_cell_length_a   6.65779197
_cell_length_b   6.64850610
_cell_length_c   12.27719886
_cell_angle_alpha   89.87420596
_cell_angle_beta   89.89274989
_cell_angle_gamma   89.98034118
_symmetry_Int_Tables_number   1
_chemical_formula_structural   Sc8VSi16Tc11
_chemical_formula_sum   'Sc8 V1 Si16 Tc11'
_cell_volume   543.44018614
_cell_formula_units_Z   1
loop_
 _symmetry_equiv_pos_site_id
 _symmetry_equiv_pos_as_xyz
  1  'x, y, z'
loop_
 _atom_site_type_symbol
 _atom_site_label
 _atom_site_symmetry_multiplicity
 _atom_site_fract_x
 _atom_site_fract_y
 _atom_site_fract_z
 _atom_site_occupancy
  Sc  Sc0  1  0.000932  0.659291  0.030304  1
  Sc  Sc1  1  0.840251  0.498641  0.280809  1
  Sc  Sc2  1  0.158051  0.498225  0.780248  1
  Sc  Sc3  1  0.500931  0.842348  0.718797  1
  Sc  Sc4  1  0.497343  0.157101  0.220337  1
  Sc  Sc5  1  0.995790  0.338666  0.528951  1
  Sc  Sc6  1  0.658121  0.002213  0.969732  1
  Sc  Sc7  1  0.340963  0.997560  0.469768  1
  V  V8  1  0.832433  0.009130  0.374870  1
  Si  Si9  1  0.281431  0.969792  0.065768  1
  Si  Si10  1  0.534947  0.787586  0.316084  1
  Si  Si11  1  0.470929  0.220389  0.815193  1
  Si  Si12  1  0.780726  0.530688  0.684564  1
  Si  Si13  1  0.214985  0.469262  0.183827  1
  Si  Si14  1  0.716360  0.033635  0.565884  1
  Si  Si15  1  0.970393  0.282394  0.934668  1
  Si  Si16  1  0.034519  0.711566  0.434288  1
  Si  Si17  1  0.693000  0.375538  0.066022  1
  Si  Si18  1  0.124589  0.195787  0.317616  1
  Si  Si19  1  0.875209  0.808119  0.814853  1
  Si  Si20  1  0.192729  0.125198  0.683817  1
  Si  Si21  1  0.804555  0.875992  0.185752  1
  Si  Si22  1  0.307007  0.623800  0.565354  1
  Si  Si23  1  0.376142  0.693135  0.933567  1
  Si  Si24  1  0.625957  0.299908  0.432213  1
  Tc  Tc25  1  0.330821  0.329223  0.999012  1
  Tc  Tc26  1  0.167868  0.833091  0.250848  1
  Tc  Tc27  1  0.829215  0.172295  0.750390  1
  Tc  Tc28  1  0.669100  0.671401  0.499937  1
  Tc  Tc29  1  0.977479  0.176588  0.128982  1
  Tc  Tc30  1  0.328268  0.485743  0.376221  1
  Tc  Tc31  1  0.680168  0.525420  0.880605  1
  Tc  Tc32  1  0.475765  0.321869  0.621184  1
  Tc  Tc33  1  0.517345  0.673041  0.122010  1
  Tc  Tc34  1  0.020613  0.827977  0.626563  1
  Tc  Tc35  1  0.175066  0.977388  0.870960  1
