# generated using pymatgen
data_Ta5Fe(B2Ru5)2
_symmetry_space_group_name_H-M   'P 1'
_cell_length_a   9.36717600
_cell_length_b   9.36717600
_cell_length_c   3.01295800
_cell_angle_alpha   90.00000000
_cell_angle_beta   90.00000000
_cell_angle_gamma   90.00000000
_symmetry_Int_Tables_number   1
_chemical_formula_structural   Ta5Fe(B2Ru5)2
_chemical_formula_sum   'Ta5 Fe1 B4 Ru10'
_cell_volume   264.36894522
_cell_formula_units_Z   1
loop_
 _symmetry_equiv_pos_site_id
 _symmetry_equiv_pos_as_xyz
  1  'x, y, z'
loop_
 _atom_site_type_symbol
 _atom_site_label
 _atom_site_symmetry_multiplicity
 _atom_site_fract_x
 _atom_site_fract_y
 _atom_site_fract_z
 _atom_site_occupancy
  Ta  Ta0  1  0.820871  0.674661  0.000000  1
  Ta  Ta1  1  0.179129  0.325339  0.000000  1
  Ta  Ta2  1  0.325339  0.820871  0.000000  1
  Ta  Ta3  1  0.674661  0.179129  0.000000  1
  Ta  Ta4  1  0.000000  0.000000  0.000000  1
  Fe  Fe5  1  0.500000  0.500000  0.000000  1
  B  B6  1  0.617146  0.870795  0.000000  1
  B  B7  1  0.382854  0.129205  0.000000  1
  B  B8  1  0.129205  0.617146  0.000000  1
  B  B9  1  0.870795  0.382854  0.000000  1
  Ru  Ru10  1  0.500000  0.000000  0.500000  1
  Ru  Ru11  1  0.000000  0.500000  0.500000  1
  Ru  Ru12  1  0.568529  0.713655  0.500000  1
  Ru  Ru13  1  0.431471  0.286345  0.500000  1
  Ru  Ru14  1  0.072664  0.780465  0.500000  1
  Ru  Ru15  1  0.927336  0.219535  0.500000  1
  Ru  Ru16  1  0.286345  0.568529  0.500000  1
  Ru  Ru17  1  0.713655  0.431471  0.500000  1
  Ru  Ru18  1  0.219535  0.072664  0.500000  1
  Ru  Ru19  1  0.780465  0.927336  0.500000  1
