# generated using pymatgen
data_RbVNiF6
_symmetry_space_group_name_H-M   'P 1'
_cell_length_a   7.39763533
_cell_length_b   7.39763551
_cell_length_c   7.39763571
_cell_angle_alpha   120.74405729
_cell_angle_beta   118.88385232
_cell_angle_gamma   90.33004888
_symmetry_Int_Tables_number   1
_chemical_formula_structural   RbVNiF6
_chemical_formula_sum   'Rb2 V2 Ni2 F12'
_cell_volume   286.96799600
_cell_formula_units_Z   2
loop_
 _symmetry_equiv_pos_site_id
 _symmetry_equiv_pos_as_xyz
  1  'x, y, z'
loop_
 _atom_site_type_symbol
 _atom_site_label
 _atom_site_symmetry_multiplicity
 _atom_site_fract_x
 _atom_site_fract_y
 _atom_site_fract_z
 _atom_site_occupancy
  Rb  Rb0  1  0.369609  0.119609  0.250000  1
  Rb  Rb1  1  0.630391  0.880391  0.750000  1
  V  V2  1  0.000000  0.500000  0.500000  1
  V  V3  1  0.500000  0.500000  0.000000  1
  Ni  Ni4  1  0.000000  0.500000  0.000000  1
  Ni  Ni5  1  0.000000  0.000000  0.500000  1
  F  F6  1  0.319422  0.569422  0.750000  1
  F  F7  1  0.924336  0.174336  0.750000  1
  F  F8  1  0.326170  0.183190  0.758042  1
  F  F9  1  0.925147  0.568128  0.741958  1
  F  F10  1  0.326170  0.568128  0.142981  1
  F  F11  1  0.925147  0.183190  0.357019  1
  F  F12  1  0.680578  0.430578  0.250000  1
  F  F13  1  0.075664  0.825664  0.250000  1
  F  F14  1  0.673830  0.816810  0.241958  1
  F  F15  1  0.074853  0.431872  0.258042  1
  F  F16  1  0.673830  0.431872  0.857019  1
  F  F17  1  0.074853  0.816810  0.642981  1
