# generated using pymatgen
data_Pr16CdHg3(OsPt)2
_symmetry_space_group_name_H-M   'P 1'
_cell_length_a   10.02871134
_cell_length_b   10.04820577
_cell_length_c   10.12765500
_cell_angle_alpha   59.73809512
_cell_angle_beta   59.67309054
_cell_angle_gamma   59.62405627
_symmetry_Int_Tables_number   1
_chemical_formula_structural   Pr16CdHg3(OsPt)2
_chemical_formula_sum   'Pr16 Cd1 Hg3 Os2 Pt2'
_cell_volume   716.37789794
_cell_formula_units_Z   1
loop_
 _symmetry_equiv_pos_site_id
 _symmetry_equiv_pos_as_xyz
  1  'x, y, z'
loop_
 _atom_site_type_symbol
 _atom_site_label
 _atom_site_symmetry_multiplicity
 _atom_site_fract_x
 _atom_site_fract_y
 _atom_site_fract_z
 _atom_site_occupancy
  Pr  Pr0  1  0.349683  0.349006  0.353670  1
  Pr  Pr1  1  0.349683  0.349006  0.947641  1
  Pr  Pr2  1  0.345028  0.955753  0.349609  1
  Pr  Pr3  1  0.953438  0.345539  0.350511  1
  Pr  Pr4  1  0.813467  0.189337  0.193501  1
  Pr  Pr5  1  0.187827  0.814506  0.804783  1
  Pr  Pr6  1  0.187827  0.814506  0.192884  1
  Pr  Pr7  1  0.813467  0.189337  0.803694  1
  Pr  Pr8  1  0.188868  0.189817  0.810657  1
  Pr  Pr9  1  0.804249  0.804371  0.195690  1
  Pr  Pr10  1  0.938861  0.556126  0.564953  1
  Pr  Pr11  1  0.554994  0.939793  0.940285  1
  Pr  Pr12  1  0.554994  0.939793  0.564926  1
  Pr  Pr13  1  0.938861  0.556126  0.940060  1
  Pr  Pr14  1  0.561038  0.561997  0.938483  1
  Pr  Pr15  1  0.938555  0.939158  0.561143  1
  Cd  Cd16  1  0.261764  0.579825  0.579204  1
  Hg  Hg17  1  0.582288  0.584867  0.584490  1
  Hg  Hg18  1  0.582288  0.584867  0.248354  1
  Hg  Hg19  1  0.583100  0.246797  0.585051  1
  Os  Os20  1  0.144071  0.144295  0.136086  1
  Os  Os21  1  0.144071  0.144295  0.575550  1
  Pt  Pt22  1  0.147053  0.574146  0.139401  1
  Pt  Pt23  1  0.574522  0.146735  0.139372  1
