# generated using pymatgen
data_TbY2Ga6(Ni2Pd)3
_symmetry_space_group_name_H-M   'P 1'
_cell_length_a   4.17738300
_cell_length_b   8.95123976
_cell_length_c   8.95123902
_cell_angle_alpha   60.05651715
_cell_angle_beta   90.00000000
_cell_angle_gamma   90.00000000
_symmetry_Int_Tables_number   1
_chemical_formula_structural   TbY2Ga6(Ni2Pd)3
_chemical_formula_sum   'Tb1 Y2 Ga6 Ni6 Pd3'
_cell_volume   290.03360578
_cell_formula_units_Z   1
loop_
 _symmetry_equiv_pos_site_id
 _symmetry_equiv_pos_as_xyz
  1  'x, y, z'
loop_
 _atom_site_type_symbol
 _atom_site_label
 _atom_site_symmetry_multiplicity
 _atom_site_fract_x
 _atom_site_fract_y
 _atom_site_fract_z
 _atom_site_occupancy
  Tb  Tb0  1  0.000000  0.999858  0.000142  1
  Y  Y1  1  0.500000  0.333379  0.333407  1
  Y  Y2  1  0.500000  0.666593  0.666621  1
  Ga  Ga3  1  0.500000  0.716053  0.283947  1
  Ga  Ga4  1  0.500000  0.283907  0.000039  1
  Ga  Ga5  1  0.500000  0.999961  0.716093  1
  Ga  Ga6  1  0.000000  0.466498  0.533502  1
  Ga  Ga7  1  0.000000  0.533493  0.000002  1
  Ga  Ga8  1  0.000000  0.999998  0.466507  1
  Ni  Ni9  1  0.000000  0.220315  0.165676  1
  Ni  Ni10  1  0.000000  0.165686  0.614068  1
  Ni  Ni11  1  0.000000  0.614037  0.220446  1
  Ni  Ni12  1  0.000000  0.834323  0.779685  1
  Ni  Ni13  1  0.000000  0.385932  0.834314  1
  Ni  Ni14  1  0.000000  0.779554  0.385963  1
  Pd  Pd15  1  0.500000  0.286030  0.713970  1
  Pd  Pd16  1  0.500000  0.714213  0.999928  1
  Pd  Pd17  1  0.500000  0.000072  0.285787  1
