# generated using pymatgen
data_CaGa5Pt3
_symmetry_space_group_name_H-M   'P 1'
_cell_length_a   4.08063400
_cell_length_b   7.50058600
_cell_length_c   21.02163100
_cell_angle_alpha   90.00000000
_cell_angle_beta   90.00000000
_cell_angle_gamma   90.00000000
_symmetry_Int_Tables_number   1
_chemical_formula_structural   CaGa5Pt3
_chemical_formula_sum   'Ca4 Ga20 Pt12'
_cell_volume   643.41213446
_cell_formula_units_Z   4
loop_
 _symmetry_equiv_pos_site_id
 _symmetry_equiv_pos_as_xyz
  1  'x, y, z'
loop_
 _atom_site_type_symbol
 _atom_site_label
 _atom_site_symmetry_multiplicity
 _atom_site_fract_x
 _atom_site_fract_y
 _atom_site_fract_z
 _atom_site_occupancy
  Ca  Ca0  1  0.250000  0.116659  0.639738  1
  Ca  Ca1  1  0.750000  0.883341  0.360262  1
  Ca  Ca2  1  0.250000  0.383341  0.139738  1
  Ca  Ca3  1  0.750000  0.616659  0.860262  1
  Ga  Ga4  1  0.750000  0.350024  0.381734  1
  Ga  Ga5  1  0.750000  0.880438  0.983056  1
  Ga  Ga6  1  0.750000  0.678746  0.199405  1
  Ga  Ga7  1  0.250000  0.873028  0.489354  1
  Ga  Ga8  1  0.250000  0.626972  0.989354  1
  Ga  Ga9  1  0.250000  0.321254  0.800595  1
  Ga  Ga10  1  0.750000  0.078026  0.206728  1
  Ga  Ga11  1  0.250000  0.649976  0.618266  1
  Ga  Ga12  1  0.250000  0.578026  0.293272  1
  Ga  Ga13  1  0.250000  0.178746  0.300595  1
  Ga  Ga14  1  0.750000  0.149976  0.881734  1
  Ga  Ga15  1  0.250000  0.921974  0.793272  1
  Ga  Ga16  1  0.750000  0.373028  0.010646  1
  Ga  Ga17  1  0.750000  0.619562  0.483056  1
  Ga  Ga18  1  0.750000  0.126972  0.510646  1
  Ga  Ga19  1  0.250000  0.119562  0.016944  1
  Ga  Ga20  1  0.250000  0.850024  0.118266  1
  Ga  Ga21  1  0.250000  0.380438  0.516944  1
  Ga  Ga22  1  0.750000  0.421974  0.706728  1
  Ga  Ga23  1  0.750000  0.821254  0.699405  1
  Pt  Pt24  1  0.750000  0.382138  0.260620  1
  Pt  Pt25  1  0.250000  0.882138  0.239380  1
  Pt  Pt26  1  0.250000  0.617862  0.739380  1
  Pt  Pt27  1  0.750000  0.117862  0.760620  1
  Pt  Pt28  1  0.250000  0.164580  0.425290  1
  Pt  Pt29  1  0.750000  0.424937  0.585779  1
  Pt  Pt30  1  0.750000  0.075063  0.085779  1
  Pt  Pt31  1  0.250000  0.924937  0.914221  1
  Pt  Pt32  1  0.750000  0.835420  0.574710  1
  Pt  Pt33  1  0.250000  0.335420  0.925290  1
  Pt  Pt34  1  0.750000  0.664580  0.074710  1
  Pt  Pt35  1  0.250000  0.575063  0.414221  1
