# generated using pymatgen
data_TbYCr2Co10As7
_symmetry_space_group_name_H-M   'P 1'
_cell_length_a   3.75217500
_cell_length_b   9.39363296
_cell_length_c   9.42150049
_cell_angle_alpha   119.93674181
_cell_angle_beta   90.00000000
_cell_angle_gamma   90.00000000
_symmetry_Int_Tables_number   1
_chemical_formula_structural   TbYCr2Co10As7
_chemical_formula_sum   'Tb1 Y1 Cr2 Co10 As7'
_cell_volume   287.76890171
_cell_formula_units_Z   1
loop_
 _symmetry_equiv_pos_site_id
 _symmetry_equiv_pos_as_xyz
  1  'x, y, z'
loop_
 _atom_site_type_symbol
 _atom_site_label
 _atom_site_symmetry_multiplicity
 _atom_site_fract_x
 _atom_site_fract_y
 _atom_site_fract_z
 _atom_site_occupancy
  Tb  Tb0  1  0.000000  0.670882  0.337290  1
  Y  Y1  1  0.500000  0.332319  0.666634  1
  Cr  Cr2  1  0.500000  0.775177  0.892608  1
  Cr  Cr3  1  0.500000  0.120080  0.223222  1
  Co  Co4  1  0.000000  0.569197  0.941556  1
  Co  Co5  1  0.000000  0.371008  0.430681  1
  Co  Co6  1  0.000000  0.058220  0.628126  1
  Co  Co7  1  0.500000  0.096580  0.878872  1
  Co  Co8  1  0.000000  0.879485  0.156327  1
  Co  Co9  1  0.000000  0.280957  0.122412  1
  Co  Co10  1  0.000000  0.842207  0.721858  1
  Co  Co11  1  0.500000  0.948477  0.381755  1
  Co  Co12  1  0.500000  0.432491  0.048772  1
  Co  Co13  1  0.500000  0.618395  0.566253  1
  As  As14  1  0.000000  0.002295  0.998796  1
  As  As15  1  0.500000  0.707887  0.116704  1
  As  As16  1  0.500000  0.411312  0.291719  1
  As  As17  1  0.500000  0.887969  0.596678  1
  As  As18  1  0.000000  0.586500  0.701560  1
  As  As19  1  0.000000  0.114022  0.412977  1
  As  As20  1  0.000000  0.294536  0.885200  1
