# generated using pymatgen
data_Y2Mn12P7
_symmetry_space_group_name_H-M   'P 1'
_cell_length_a   9.30641200
_cell_length_b   9.30696911
_cell_length_c   3.60050300
_cell_angle_alpha   90.00000000
_cell_angle_beta   90.00000000
_cell_angle_gamma   119.99920804
_symmetry_Int_Tables_number   1
_chemical_formula_structural   Y2Mn12P7
_chemical_formula_sum   'Y2 Mn12 P7'
_cell_volume   270.07713749
_cell_formula_units_Z   1
loop_
 _symmetry_equiv_pos_site_id
 _symmetry_equiv_pos_as_xyz
  1  'x, y, z'
loop_
 _atom_site_type_symbol
 _atom_site_label
 _atom_site_symmetry_multiplicity
 _atom_site_fract_x
 _atom_site_fract_y
 _atom_site_fract_z
 _atom_site_occupancy
  Y  Y0  1  0.666648  0.333382  0.000000  1
  Y  Y1  1  0.333349  0.666594  0.500000  1
  Mn  Mn2  1  0.048534  0.624368  0.000000  1
  Mn  Mn3  1  0.575847  0.951464  0.000000  1
  Mn  Mn4  1  0.375656  0.424171  0.000000  1
  Mn  Mn5  1  0.275598  0.118578  0.000000  1
  Mn  Mn6  1  0.842969  0.724370  0.000000  1
  Mn  Mn7  1  0.881379  0.157026  0.000000  1
  Mn  Mn8  1  0.437952  0.044141  0.500000  1
  Mn  Mn9  1  0.606167  0.562033  0.500000  1
  Mn  Mn10  1  0.955863  0.393807  0.500000  1
  Mn  Mn11  1  0.103315  0.874895  0.500000  1
  Mn  Mn12  1  0.771592  0.896678  0.500000  1
  Mn  Mn13  1  0.125137  0.228480  0.500000  1
  P  P14  1  0.291180  0.880376  0.000000  1
  P  P15  1  0.589214  0.708791  0.000000  1
  P  P16  1  0.119637  0.410767  0.000000  1
  P  P17  1  0.407429  0.279271  0.500000  1
  P  P18  1  0.871770  0.592616  0.500000  1
  P  P19  1  0.720816  0.128223  0.500000  1
  P  P20  1  0.999948  0.999968  0.000000  1
