# generated using pymatgen
data_Tb5Dy(BiO7)2
_symmetry_space_group_name_H-M   'P 1'
_cell_length_a   6.58442561
_cell_length_b   6.56580073
_cell_length_c   7.73845908
_cell_angle_alpha   106.88417434
_cell_angle_beta   89.72957936
_cell_angle_gamma   98.70725658
_symmetry_Int_Tables_number   1
_chemical_formula_structural   Tb5Dy(BiO7)2
_chemical_formula_sum   'Tb5 Dy1 Bi2 O14'
_cell_volume   316.16602560
_cell_formula_units_Z   1
loop_
 _symmetry_equiv_pos_site_id
 _symmetry_equiv_pos_as_xyz
  1  'x, y, z'
loop_
 _atom_site_type_symbol
 _atom_site_label
 _atom_site_symmetry_multiplicity
 _atom_site_fract_x
 _atom_site_fract_y
 _atom_site_fract_z
 _atom_site_occupancy
  Tb  Tb0  1  0.538336  0.994565  0.748068  1
  Tb  Tb1  1  0.272084  0.537768  0.882878  1
  Tb  Tb2  1  0.727774  0.462612  0.117517  1
  Tb  Tb3  1  0.733466  0.475249  0.612291  1
  Tb  Tb4  1  0.266539  0.524533  0.387289  1
  Dy  Dy5  1  0.461765  0.005573  0.251964  1
  Bi  Bi6  1  0.999986  0.000010  0.499765  1
  Bi  Bi7  1  0.999968  0.999968  0.000278  1
  O  O8  1  0.445606  0.649406  0.167785  1
  O  O9  1  0.554704  0.352316  0.832863  1
  O  O10  1  0.301804  0.922104  0.952065  1
  O  O11  1  0.698166  0.077791  0.049392  1
  O  O12  1  0.298374  0.923633  0.511966  1
  O  O13  1  0.701556  0.076237  0.486539  1
  O  O14  1  0.544924  0.362090  0.344668  1
  O  O15  1  0.454321  0.636550  0.654722  1
  O  O16  1  0.925499  0.667546  0.960887  1
  O  O17  1  0.074392  0.332378  0.039094  1
  O  O18  1  0.069739  0.348881  0.620341  1
  O  O19  1  0.929888  0.650910  0.379703  1
  O  O20  1  0.875314  0.900894  0.724605  1
  O  O21  1  0.125797  0.098987  0.275321  1
