# generated using pymatgen
data_NpZn9Ag2
_symmetry_space_group_name_H-M   'P 1'
_cell_length_a   8.38740128
_cell_length_b   8.38838436
_cell_length_c   8.38740270
_cell_angle_alpha   100.09439946
_cell_angle_beta   99.61561267
_cell_angle_gamma   131.11667107
_symmetry_Int_Tables_number   1
_chemical_formula_structural   NpZn9Ag2
_chemical_formula_sum   'Np2 Zn18 Ag4'
_cell_volume   404.75024919
_cell_formula_units_Z   2
loop_
 _symmetry_equiv_pos_site_id
 _symmetry_equiv_pos_as_xyz
  1  'x, y, z'
loop_
 _atom_site_type_symbol
 _atom_site_label
 _atom_site_symmetry_multiplicity
 _atom_site_fract_x
 _atom_site_fract_y
 _atom_site_fract_z
 _atom_site_occupancy
  Np  Np0  1  0.997271  0.997180  0.999910  1
  Np  Np1  1  0.252729  0.752820  0.500090  1
  Zn  Zn2  1  0.753155  0.166816  0.827057  1
  Zn  Zn3  1  0.073676  0.246285  0.412891  1
  Zn  Zn4  1  0.339759  0.166816  0.413661  1
  Zn  Zn5  1  0.073581  0.660726  0.827387  1
  Zn  Zn6  1  0.910241  0.583184  0.086339  1
  Zn  Zn7  1  0.339804  0.926087  0.172781  1
  Zn  Zn8  1  0.749223  0.249164  0.499940  1
  Zn  Zn9  1  0.910196  0.823913  0.327219  1
  Zn  Zn10  1  0.500777  0.500836  0.000060  1
  Zn  Zn11  1  0.416661  0.089274  0.912856  1
  Zn  Zn12  1  0.496845  0.583184  0.672943  1
  Zn  Zn13  1  0.176419  0.089274  0.672613  1
  Zn  Zn14  1  0.753306  0.926087  0.586283  1
  Zn  Zn15  1  0.833339  0.660726  0.587144  1
  Zn  Zn16  1  0.416606  0.503715  0.327392  1
  Zn  Zn17  1  0.496694  0.823913  0.913717  1
  Zn  Zn18  1  0.176324  0.503715  0.087109  1
  Zn  Zn19  1  0.833394  0.246285  0.172608  1
  Ag  Ag20  1  0.625000  0.875000  0.250000  1
  Ag  Ag21  1  0.625000  0.375000  0.250000  1
  Ag  Ag22  1  0.125000  0.375000  0.750000  1
  Ag  Ag23  1  0.625000  0.375000  0.750000  1
