# generated using pymatgen
data_YbY3Ga18(CoPd2)2
_symmetry_space_group_name_H-M   'P 1'
_cell_length_a   7.58293442
_cell_length_b   7.57595243
_cell_length_c   9.48178600
_cell_angle_alpha   90.00000000
_cell_angle_beta   90.00000000
_cell_angle_gamma   119.57951713
_symmetry_Int_Tables_number   1
_chemical_formula_structural   YbY3Ga18(CoPd2)2
_chemical_formula_sum   'Yb1 Y3 Ga18 Co2 Pd4'
_cell_volume   473.71801836
_cell_formula_units_Z   1
loop_
 _symmetry_equiv_pos_site_id
 _symmetry_equiv_pos_as_xyz
  1  'x, y, z'
loop_
 _atom_site_type_symbol
 _atom_site_label
 _atom_site_symmetry_multiplicity
 _atom_site_fract_x
 _atom_site_fract_y
 _atom_site_fract_z
 _atom_site_occupancy
  Yb  Yb0  1  0.013596  0.332896  0.250000  1
  Y  Y1  1  0.316792  0.991775  0.250000  1
  Y  Y2  1  0.008034  0.682129  0.750000  1
  Y  Y3  1  0.667177  0.986905  0.750000  1
  Ga  Ga4  1  0.347338  0.014779  0.922231  1
  Ga  Ga5  1  0.984992  0.650511  0.079013  1
  Ga  Ga6  1  0.347338  0.014779  0.577769  1
  Ga  Ga7  1  0.984992  0.650511  0.420987  1
  Ga  Ga8  1  0.666588  0.019044  0.079953  1
  Ga  Ga9  1  0.983773  0.335057  0.922886  1
  Ga  Ga10  1  0.666588  0.019044  0.420047  1
  Ga  Ga11  1  0.983773  0.335057  0.577114  1
  Ga  Ga12  1  0.666206  0.656915  0.935812  1
  Ga  Ga13  1  0.342145  0.334084  0.064874  1
  Ga  Ga14  1  0.666206  0.656915  0.564188  1
  Ga  Ga15  1  0.342145  0.334084  0.435126  1
  Ga  Ga16  1  0.133339  0.137991  0.750000  1
  Ga  Ga17  1  0.862591  0.867304  0.250000  1
  Ga  Ga18  1  0.463271  0.663280  0.250000  1
  Ga  Ga19  1  0.335817  0.535921  0.750000  1
  Ga  Ga20  1  0.569241  0.339214  0.750000  1
  Ga  Ga21  1  0.660695  0.428808  0.250000  1
  Co  Co22  1  0.667942  0.331693  0.998635  1
  Co  Co23  1  0.667942  0.331693  0.501365  1
  Pd  Pd24  1  0.998341  0.001384  0.999745  1
  Pd  Pd25  1  0.998341  0.001384  0.500255  1
  Pd  Pd26  1  0.327400  0.673420  0.999665  1
  Pd  Pd27  1  0.327400  0.673420  0.500335  1
