# generated using pymatgen
data_MnSe23
_symmetry_space_group_name_H-M   'P 1'
_cell_length_a   5.48466520
_cell_length_b   10.08254414
_cell_length_c   15.64949600
_cell_angle_alpha   98.94882388
_cell_angle_beta   86.30809311
_cell_angle_gamma   94.29197879
_symmetry_Int_Tables_number   1
_chemical_formula_structural   MnSe23
_chemical_formula_sum   'Mn1 Se23'
_cell_volume   851.25283311
_cell_formula_units_Z   1
loop_
 _symmetry_equiv_pos_site_id
 _symmetry_equiv_pos_as_xyz
  1  'x, y, z'
loop_
 _atom_site_type_symbol
 _atom_site_label
 _atom_site_symmetry_multiplicity
 _atom_site_fract_x
 _atom_site_fract_y
 _atom_site_fract_z
 _atom_site_occupancy
  Mn  Mn0  1  0.440044  0.228484  0.308012  1
  Se  Se1  1  0.538315  0.806420  0.386553  1
  Se  Se2  1  0.942012  0.349003  0.148668  1
  Se  Se3  1  0.694398  0.207507  0.425590  1
  Se  Se4  1  0.297799  0.779647  0.514536  1
  Se  Se5  1  0.182494  0.271870  0.023808  1
  Se  Se6  1  0.791007  0.729576  0.029823  1
  Se  Se7  1  0.133943  0.375332  0.379142  1
  Se  Se8  1  0.731048  0.602479  0.352174  1
  Se  Se9  1  0.734951  0.151804  0.194102  1
  Se  Se10  1  0.329155  0.911874  0.146772  1
  Se  Se11  1  0.761479  0.614395  0.624885  1
  Se  Se12  1  0.249800  0.348299  0.617491  1
  Se  Se13  1  0.226463  0.871045  0.867648  1
  Se  Se14  1  0.748541  0.117014  0.850295  1
  Se  Se15  1  0.081641  0.708232  0.131099  1
  Se  Se16  1  0.576069  0.819775  0.626539  1
  Se  Se17  1  0.448858  0.158569  0.550597  1
  Se  Se18  1  0.997426  0.671493  0.892756  1
  Se  Se19  1  0.986501  0.314742  0.901275  1
  Se  Se20  1  0.413908  0.464109  0.273769  1
  Se  Se21  1  0.147449  0.043759  0.272366  1
  Se  Se22  1  0.519931  0.481664  0.713949  1
  Se  Se23  1  0.026771  0.972907  0.768154  1
