# generated using pymatgen
data_K6Sr6AlGaP8
_symmetry_space_group_name_H-M   'P 1'
_cell_length_a   10.00372000
_cell_length_b   10.00372117
_cell_length_c   7.46586200
_cell_angle_alpha   90.00000000
_cell_angle_beta   90.00000000
_cell_angle_gamma   119.99999614
_symmetry_Int_Tables_number   1
_chemical_formula_structural   K6Sr6AlGaP8
_chemical_formula_sum   'K6 Sr6 Al1 Ga1 P8'
_cell_volume   647.04384803
_cell_formula_units_Z   1
loop_
 _symmetry_equiv_pos_site_id
 _symmetry_equiv_pos_as_xyz
  1  'x, y, z'
loop_
 _atom_site_type_symbol
 _atom_site_label
 _atom_site_symmetry_multiplicity
 _atom_site_fract_x
 _atom_site_fract_y
 _atom_site_fract_z
 _atom_site_occupancy
  K  K0  1  0.730051  0.865025  0.174970  1
  K  K1  1  0.864763  0.135237  0.674477  1
  K  K2  1  0.864763  0.729527  0.674477  1
  K  K3  1  0.134975  0.269949  0.174970  1
  K  K4  1  0.134975  0.865025  0.174970  1
  K  K5  1  0.270473  0.135237  0.674477  1
  Sr  Sr6  1  0.054144  0.527072  0.498718  1
  Sr  Sr7  1  0.472928  0.945856  0.498718  1
  Sr  Sr8  1  0.472928  0.527072  0.498718  1
  Sr  Sr9  1  0.526711  0.473289  0.998198  1
  Sr  Sr10  1  0.526711  0.053422  0.998198  1
  Sr  Sr11  1  0.946578  0.473289  0.998198  1
  Al  Al12  1  0.666667  0.333333  0.379511  1
  Ga  Ga13  1  0.333333  0.666667  0.879506  1
  P  P14  1  0.666667  0.333333  0.713162  1
  P  P15  1  0.598707  0.799354  0.771400  1
  P  P16  1  0.798289  0.201711  0.272037  1
  P  P17  1  0.798289  0.596576  0.272037  1
  P  P18  1  0.333333  0.666667  0.216825  1
  P  P19  1  0.200646  0.401293  0.771400  1
  P  P20  1  0.200646  0.799354  0.771400  1
  P  P21  1  0.403424  0.201711  0.272037  1
