# generated using pymatgen
data_Dy4YCr3(Co4P3)4
_symmetry_space_group_name_H-M   'P 1'
_cell_length_a   12.00464800
_cell_length_b   12.00464825
_cell_length_c   3.67178200
_cell_angle_alpha   90.00000000
_cell_angle_beta   90.00000000
_cell_angle_gamma   119.99678641
_symmetry_Int_Tables_number   1
_chemical_formula_structural   Dy4YCr3(Co4P3)4
_chemical_formula_sum   'Dy4 Y1 Cr3 Co16 P12'
_cell_volume   458.26897077
_cell_formula_units_Z   1
loop_
 _symmetry_equiv_pos_site_id
 _symmetry_equiv_pos_as_xyz
  1  'x, y, z'
loop_
 _atom_site_type_symbol
 _atom_site_label
 _atom_site_symmetry_multiplicity
 _atom_site_fract_x
 _atom_site_fract_y
 _atom_site_fract_z
 _atom_site_occupancy
  Dy  Dy0  1  0.666685  0.333342  0.000000  1
  Dy  Dy1  1  0.333342  0.666685  0.000000  1
  Dy  Dy2  1  0.812717  0.000012  0.500000  1
  Dy  Dy3  1  0.000012  0.812717  0.500000  1
  Y  Y4  1  0.187293  0.187293  0.500000  1
  Cr  Cr5  1  0.554762  0.554762  0.000000  1
  Cr  Cr6  1  0.445258  0.999961  0.000000  1
  Cr  Cr7  1  0.999961  0.445258  0.000000  1
  Co  Co8  1  0.823062  0.200393  0.000000  1
  Co  Co9  1  0.799625  0.622672  0.000000  1
  Co  Co10  1  0.377423  0.176925  0.000000  1
  Co  Co11  1  0.200393  0.823062  0.000000  1
  Co  Co12  1  0.622672  0.799625  0.000000  1
  Co  Co13  1  0.176925  0.377423  0.000000  1
  Co  Co14  1  0.643952  0.125927  0.500000  1
  Co  Co15  1  0.874074  0.518016  0.500000  1
  Co  Co16  1  0.482039  0.356072  0.500000  1
  Co  Co17  1  0.125927  0.643952  0.500000  1
  Co  Co18  1  0.518016  0.874074  0.500000  1
  Co  Co19  1  0.356072  0.482039  0.500000  1
  Co  Co20  1  0.717236  0.717236  0.500000  1
  Co  Co21  1  0.282796  0.999942  0.500000  1
  Co  Co22  1  0.999942  0.282796  0.500000  1
  Co  Co23  1  0.999837  0.999837  0.000000  1
  P  P24  1  0.367099  0.367099  0.000000  1
  P  P25  1  0.633052  0.999990  0.000000  1
  P  P26  1  0.999990  0.633052  0.000000  1
  P  P27  1  0.837388  0.317222  0.500000  1
  P  P28  1  0.682784  0.520142  0.500000  1
  P  P29  1  0.479849  0.162621  0.500000  1
  P  P30  1  0.317222  0.837388  0.500000  1
  P  P31  1  0.520142  0.682784  0.500000  1
  P  P32  1  0.162621  0.479849  0.500000  1
  P  P33  1  0.820354  0.820354  0.000000  1
  P  P34  1  0.179633  0.999842  0.000000  1
  P  P35  1  0.999842  0.179633  0.000000  1
