# generated using pymatgen
data_Ti6Zn4Cu2CN
_symmetry_space_group_name_H-M   'P 1'
_cell_length_a   8.07467776
_cell_length_b   8.09688950
_cell_length_c   8.09689051
_cell_angle_alpha   60.19588116
_cell_angle_beta   60.09070036
_cell_angle_gamma   60.09070431
_symmetry_Int_Tables_number   1
_chemical_formula_structural   Ti6Zn4Cu2CN
_chemical_formula_sum   'Ti12 Zn8 Cu4 C2 N2'
_cell_volume   375.38877644
_cell_formula_units_Z   2
loop_
 _symmetry_equiv_pos_site_id
 _symmetry_equiv_pos_as_xyz
  1  'x, y, z'
loop_
 _atom_site_type_symbol
 _atom_site_label
 _atom_site_symmetry_multiplicity
 _atom_site_fract_x
 _atom_site_fract_y
 _atom_site_fract_z
 _atom_site_occupancy
  Ti  Ti0  1  0.815295  0.818388  0.183507  1
  Ti  Ti1  1  0.182810  0.183507  0.818388  1
  Ti  Ti2  1  0.815295  0.183507  0.818388  1
  Ti  Ti3  1  0.182810  0.818388  0.183507  1
  Ti  Ti4  1  0.184241  0.815759  0.815759  1
  Ti  Ti5  1  0.817862  0.182138  0.182138  1
  Ti  Ti6  1  0.434705  0.431612  0.066493  1
  Ti  Ti7  1  0.067190  0.066493  0.431612  1
  Ti  Ti8  1  0.434705  0.066493  0.431612  1
  Ti  Ti9  1  0.067190  0.431612  0.066493  1
  Ti  Ti10  1  0.065759  0.434241  0.434241  1
  Ti  Ti11  1  0.432138  0.067862  0.067862  1
  Zn  Zn12  1  0.751189  0.416252  0.416252  1
  Zn  Zn13  1  0.416435  0.750726  0.416405  1
  Zn  Zn14  1  0.416435  0.416405  0.750726  1
  Zn  Zn15  1  0.416310  0.416252  0.416252  1
  Zn  Zn16  1  0.498811  0.833748  0.833748  1
  Zn  Zn17  1  0.833565  0.499274  0.833595  1
  Zn  Zn18  1  0.833565  0.833595  0.499274  1
  Zn  Zn19  1  0.833690  0.833748  0.833748  1
  Cu  Cu20  1  0.125000  0.625000  0.625000  1
  Cu  Cu21  1  0.625000  0.125000  0.625000  1
  Cu  Cu22  1  0.625000  0.625000  0.125000  1
  Cu  Cu23  1  0.625000  0.625000  0.625000  1
  C  C24  1  0.125000  0.625000  0.125000  1
  C  C25  1  0.125000  0.125000  0.625000  1
  N  N26  1  0.625000  0.125000  0.125000  1
  N  N27  1  0.125000  0.125000  0.125000  1
