# generated using pymatgen
data_Tm7Zr(Nb3Ge4)4
_symmetry_space_group_name_H-M   'P 1'
_cell_length_a   6.96470446
_cell_length_b   7.12902966
_cell_length_c   13.51791375
_cell_angle_alpha   90.06983340
_cell_angle_beta   90.08764184
_cell_angle_gamma   90.02602519
_symmetry_Int_Tables_number   1
_chemical_formula_structural   Tm7Zr(Nb3Ge4)4
_chemical_formula_sum   'Tm7 Zr1 Nb12 Ge16'
_cell_volume   671.18448481
_cell_formula_units_Z   1
loop_
 _symmetry_equiv_pos_site_id
 _symmetry_equiv_pos_as_xyz
  1  'x, y, z'
loop_
 _atom_site_type_symbol
 _atom_site_label
 _atom_site_symmetry_multiplicity
 _atom_site_fract_x
 _atom_site_fract_y
 _atom_site_fract_z
 _atom_site_occupancy
  Tm  Tm0  1  0.492920  0.676022  0.593599  1
  Tm  Tm1  1  0.994494  0.824977  0.906001  1
  Tm  Tm2  1  0.505602  0.324983  0.094364  1
  Tm  Tm3  1  0.005928  0.174309  0.406835  1
  Tm  Tm4  1  0.505179  0.324696  0.406731  1
  Tm  Tm5  1  0.005366  0.175772  0.094364  1
  Tm  Tm6  1  0.494086  0.675772  0.905214  1
  Zr  Zr7  1  0.992075  0.822943  0.595591  1
  Nb  Nb8  1  0.660706  0.166592  0.625425  1
  Nb  Nb9  1  0.158693  0.331262  0.872289  1
  Nb  Nb10  1  0.341989  0.830950  0.126353  1
  Nb  Nb11  1  0.842720  0.671122  0.375069  1
  Nb  Nb12  1  0.341646  0.830912  0.373773  1
  Nb  Nb13  1  0.841232  0.668579  0.126680  1
  Nb  Nb14  1  0.660439  0.168190  0.873173  1
  Nb  Nb15  1  0.158352  0.330943  0.625215  1
  Nb  Nb16  1  0.834974  0.489507  0.748287  1
  Nb  Nb17  1  0.332936  0.011154  0.748842  1
  Nb  Nb18  1  0.165434  0.512199  0.250715  1
  Nb  Nb19  1  0.666233  0.988989  0.250931  1
  Ge  Ge20  1  0.680097  0.961045  0.459806  1
  Ge  Ge21  1  0.177482  0.538041  0.041438  1
  Ge  Ge22  1  0.323522  0.039213  0.958082  1
  Ge  Ge23  1  0.823594  0.462870  0.541649  1
  Ge  Ge24  1  0.316349  0.035881  0.541607  1
  Ge  Ge25  1  0.821849  0.461154  0.958426  1
  Ge  Ge26  1  0.677077  0.961495  0.041784  1
  Ge  Ge27  1  0.176877  0.540581  0.459623  1
  Ge  Ge28  1  0.459761  0.379373  0.749189  1
  Ge  Ge29  1  0.959287  0.118089  0.748747  1
  Ge  Ge30  1  0.541892  0.620045  0.250437  1
  Ge  Ge31  1  0.041729  0.881015  0.249929  1
  Ge  Ge32  1  0.694190  0.856022  0.749682  1
  Ge  Ge33  1  0.193109  0.644086  0.749048  1
  Ge  Ge34  1  0.306204  0.143855  0.250324  1
  Ge  Ge35  1  0.805978  0.357365  0.250783  1
