# generated using pymatgen
data_Hf16VNi4Pd3
_symmetry_space_group_name_H-M   'P 1'
_cell_length_a   8.72118164
_cell_length_b   8.72118144
_cell_length_c   8.72118100
_cell_angle_alpha   59.64195486
_cell_angle_beta   59.64195565
_cell_angle_gamma   59.64195403
_symmetry_Int_Tables_number   1
_chemical_formula_structural   Hf16VNi4Pd3
_chemical_formula_sum   'Hf16 V1 Ni4 Pd3'
_cell_volume   465.22510770
_cell_formula_units_Z   1
loop_
 _symmetry_equiv_pos_site_id
 _symmetry_equiv_pos_as_xyz
  1  'x, y, z'
loop_
 _atom_site_type_symbol
 _atom_site_label
 _atom_site_symmetry_multiplicity
 _atom_site_fract_x
 _atom_site_fract_y
 _atom_site_fract_z
 _atom_site_occupancy
  Hf  Hf0  1  0.693925  0.102565  0.102565  1
  Hf  Hf1  1  0.102565  0.693925  0.102565  1
  Hf  Hf2  1  0.102565  0.102565  0.693925  1
  Hf  Hf3  1  0.109689  0.109689  0.109689  1
  Hf  Hf4  1  0.313558  0.313558  0.670753  1
  Hf  Hf5  1  0.683058  0.683058  0.316278  1
  Hf  Hf6  1  0.313558  0.670753  0.313558  1
  Hf  Hf7  1  0.683058  0.316278  0.683058  1
  Hf  Hf8  1  0.670753  0.313558  0.313558  1
  Hf  Hf9  1  0.316278  0.683058  0.683058  1
  Hf  Hf10  1  0.945527  0.945527  0.555747  1
  Hf  Hf11  1  0.552167  0.552167  0.951901  1
  Hf  Hf12  1  0.945527  0.555747  0.945527  1
  Hf  Hf13  1  0.552167  0.951901  0.552167  1
  Hf  Hf14  1  0.555747  0.945527  0.945527  1
  Hf  Hf15  1  0.951901  0.552167  0.552167  1
  V  V16  1  0.331217  0.331217  0.331217  1
  Ni  Ni17  1  0.321075  0.897978  0.897978  1
  Ni  Ni18  1  0.897978  0.321075  0.897978  1
  Ni  Ni19  1  0.897978  0.897978  0.321075  1
  Ni  Ni20  1  0.891704  0.891704  0.891704  1
  Pd  Pd21  1  0.989254  0.339374  0.339374  1
  Pd  Pd22  1  0.339374  0.989254  0.339374  1
  Pd  Pd23  1  0.339374  0.339374  0.989254  1
