# generated using pymatgen
data_Ca9V8Ge12(PbO16)3
_symmetry_space_group_name_H-M   'P 1'
_cell_length_a   10.92817674
_cell_length_b   10.92817743
_cell_length_c   10.93841674
_cell_angle_alpha   109.23677490
_cell_angle_beta   109.97272799
_cell_angle_gamma   109.16718096
_symmetry_Int_Tables_number   1
_chemical_formula_structural   Ca9V8Ge12(PbO16)3
_chemical_formula_sum   'Ca9 V8 Ge12 Pb3 O48'
_cell_volume   1006.01914721
_cell_formula_units_Z   1
loop_
 _symmetry_equiv_pos_site_id
 _symmetry_equiv_pos_as_xyz
  1  'x, y, z'
loop_
 _atom_site_type_symbol
 _atom_site_label
 _atom_site_symmetry_multiplicity
 _atom_site_fract_x
 _atom_site_fract_y
 _atom_site_fract_z
 _atom_site_occupancy
  Ca  Ca0  1  0.875831  0.625831  0.250000  1
  Ca  Ca1  1  0.624539  0.250839  0.876588  1
  Ca  Ca2  1  0.874251  0.747951  0.623412  1
  Ca  Ca3  1  0.750821  0.125492  0.377226  1
  Ca  Ca4  1  0.248267  0.373596  0.122774  1
  Ca  Ca5  1  0.375447  0.125447  0.250000  1
  Ca  Ca6  1  0.123682  0.373682  0.750000  1
  Ca  Ca7  1  0.375449  0.749700  0.124392  1
  Ca  Ca8  1  0.125308  0.251057  0.375608  1
  V  V9  1  0.497176  0.494855  0.494619  1
  V  V10  1  0.502095  0.000779  0.496765  1
  V  V11  1  0.997283  0.496266  0.497876  1
  V  V12  1  0.498390  0.499408  0.002124  1
  V  V13  1  0.999722  0.002779  0.501865  1
  V  V14  1  0.000914  0.497857  0.998135  1
  V  V15  1  0.500236  0.002558  0.005381  1
  V  V16  1  0.004014  0.005330  0.003235  1
  Ge  Ge17  1  0.125709  0.749873  0.875955  1
  Ge  Ge18  1  0.875868  0.252800  0.126354  1
  Ge  Ge19  1  0.624816  0.374816  0.250000  1
  Ge  Ge20  1  0.751549  0.879323  0.132046  1
  Ge  Ge21  1  0.878938  0.128938  0.750000  1
  Ge  Ge22  1  0.247277  0.619503  0.367954  1
  Ge  Ge23  1  0.749158  0.369790  0.620094  1
  Ge  Ge24  1  0.249695  0.129063  0.879906  1
  Ge  Ge25  1  0.126415  0.876415  0.250000  1
  Ge  Ge26  1  0.369934  0.619934  0.750000  1
  Ge  Ge27  1  0.626447  0.749514  0.373646  1
  Ge  Ge28  1  0.373918  0.249754  0.624045  1
  Pb  Pb29  1  0.248962  0.874937  0.622037  1
  Pb  Pb30  1  0.752900  0.626925  0.877963  1
  Pb  Pb31  1  0.624764  0.874764  0.750000  1
  O  O32  1  0.412060  0.809199  0.807286  1
  O  O33  1  0.880549  0.396983  0.080113  1
  O  O34  1  0.099024  0.990526  0.691703  1
  O  O35  1  0.501913  0.604774  0.692714  1
  O  O36  1  0.690513  0.091099  0.699044  1
  O  O37  1  0.620872  0.696248  0.510442  1
  O  O38  1  0.620076  0.418919  0.104680  1
  O  O39  1  0.700391  0.508452  0.607061  1
  O  O40  1  0.814239  0.515396  0.395320  1
  O  O41  1  0.989145  0.805133  0.881116  1
  O  O42  1  0.804790  0.894855  0.998425  1
  O  O43  1  0.703177  0.693329  0.096464  1
  O  O44  1  0.424017  0.108030  0.618884  1
  O  O45  1  0.396431  0.806366  0.501575  1
  O  O46  1  0.075618  0.693819  0.684021  1
  O  O47  1  0.096865  0.606713  0.403536  1
  O  O48  1  0.509798  0.391597  0.815979  1
  O  O49  1  0.079400  0.882251  0.392402  1
  O  O50  1  0.989849  0.686998  0.107598  1
  O  O51  1  0.182253  0.480719  0.602146  1
  O  O52  1  0.685807  0.110431  0.989558  1
  O  O53  1  0.798823  0.407321  0.808297  1
  O  O54  1  0.401392  0.093331  0.892939  1
  O  O55  1  0.892056  0.991469  0.800956  1
  O  O56  1  0.583948  0.187238  0.204853  1
  O  O57  1  0.119301  0.603034  0.917469  1
  O  O58  1  0.898812  0.020993  0.319503  1
  O  O59  1  0.482385  0.379096  0.295147  1
  O  O60  1  0.315120  0.918475  0.297900  1
  O  O61  1  0.378629  0.294292  0.482025  1
  O  O62  1  0.378573  0.580107  0.897854  1
  O  O63  1  0.296446  0.480102  0.376732  1
  O  O64  1  0.120574  0.017220  0.202100  1
  O  O65  1  0.603371  0.919714  0.123268  1
  O  O66  1  0.201490  0.579309  0.180497  1
  O  O67  1  0.185564  0.201832  0.582531  1
  O  O68  1  0.312267  0.896604  0.017975  1
  O  O69  1  0.020232  0.314069  0.898072  1
  O  O70  1  0.915997  0.122160  0.601928  1
  O  O71  1  0.483284  0.602482  0.185879  1
  O  O72  1  0.897272  0.377071  0.582477  1
  O  O73  1  0.916603  0.297406  0.314121  1
  O  O74  1  0.601228  0.184479  0.477633  1
  O  O75  1  0.584522  0.896233  0.378995  1
  O  O76  1  0.294594  0.314795  0.917523  1
  O  O77  1  0.206846  0.123596  0.022367  1
  O  O78  1  0.017238  0.205526  0.121005  1
  O  O79  1  0.816869  0.800435  0.419887  1
