# generated using pymatgen
data_Dy2LuMg3SiHg2
_symmetry_space_group_name_H-M   'P 1'
_cell_length_a   7.44155043
_cell_length_b   7.41626205
_cell_length_c   4.33884600
_cell_angle_alpha   90.00000000
_cell_angle_beta   90.00000000
_cell_angle_gamma   119.66548351
_symmetry_Int_Tables_number   1
_chemical_formula_structural   Dy2LuMg3SiHg2
_chemical_formula_sum   'Dy2 Lu1 Mg3 Si1 Hg2'
_cell_volume   208.06902902
_cell_formula_units_Z   1
loop_
 _symmetry_equiv_pos_site_id
 _symmetry_equiv_pos_as_xyz
  1  'x, y, z'
loop_
 _atom_site_type_symbol
 _atom_site_label
 _atom_site_symmetry_multiplicity
 _atom_site_fract_x
 _atom_site_fract_y
 _atom_site_fract_z
 _atom_site_occupancy
  Dy  Dy0  1  0.579228  0.008705  0.000000  1
  Dy  Dy1  1  0.991016  0.570475  0.000000  1
  Lu  Lu2  1  0.428831  0.420329  0.000000  1
  Mg  Mg3  1  0.250928  0.002289  0.500000  1
  Mg  Mg4  1  0.999283  0.249210  0.500000  1
  Mg  Mg5  1  0.749607  0.748500  0.500000  1
  Si  Si6  1  0.665114  0.334062  0.500000  1
  Hg  Hg7  1  0.333952  0.664179  0.500000  1
  Hg  Hg8  1  0.002043  0.002249  0.000000  1
