# generated using pymatgen
data_NdY(CoB)8
_symmetry_space_group_name_H-M   'P 1'
_cell_length_a   7.00371900
_cell_length_b   7.00371900
_cell_length_c   3.80056200
_cell_angle_alpha   90.00000000
_cell_angle_beta   90.00000000
_cell_angle_gamma   90.00000000
_symmetry_Int_Tables_number   1
_chemical_formula_structural   NdY(CoB)8
_chemical_formula_sum   'Nd1 Y1 Co8 B8'
_cell_volume   186.42547063
_cell_formula_units_Z   1
loop_
 _symmetry_equiv_pos_site_id
 _symmetry_equiv_pos_as_xyz
  1  'x, y, z'
loop_
 _atom_site_type_symbol
 _atom_site_label
 _atom_site_symmetry_multiplicity
 _atom_site_fract_x
 _atom_site_fract_y
 _atom_site_fract_z
 _atom_site_occupancy
  Nd  Nd0  1  0.500000  0.500000  0.500000  1
  Y  Y1  1  0.000000  0.000000  0.000000  1
  Co  Co2  1  0.355428  0.884752  0.392610  1
  Co  Co3  1  0.618006  0.860078  0.891734  1
  Co  Co4  1  0.644572  0.115248  0.392610  1
  Co  Co5  1  0.139922  0.618006  0.108266  1
  Co  Co6  1  0.884752  0.644572  0.607390  1
  Co  Co7  1  0.860078  0.381994  0.108266  1
  Co  Co8  1  0.381994  0.139922  0.891734  1
  Co  Co9  1  0.115248  0.355428  0.607390  1
  B  B10  1  0.839309  0.293495  0.606044  1
  B  B11  1  0.160691  0.706505  0.606044  1
  B  B12  1  0.801036  0.663704  0.103229  1
  B  B13  1  0.336296  0.801036  0.896771  1
  B  B14  1  0.663704  0.198964  0.896771  1
  B  B15  1  0.293495  0.160691  0.393956  1
  B  B16  1  0.706505  0.839309  0.393956  1
  B  B17  1  0.198964  0.336296  0.103229  1
