# generated using pymatgen
data_Ca3Pr(Ga2Ag)4
_symmetry_space_group_name_H-M   'P 1'
_cell_length_a   4.39405400
_cell_length_b   7.06650128
_cell_length_c   10.64022682
_cell_angle_alpha   90.36521294
_cell_angle_beta   90.00000000
_cell_angle_gamma   90.00000000
_symmetry_Int_Tables_number   1
_chemical_formula_structural   Ca3Pr(Ga2Ag)4
_chemical_formula_sum   'Ca3 Pr1 Ga8 Ag4'
_cell_volume   330.37858975
_cell_formula_units_Z   1
loop_
 _symmetry_equiv_pos_site_id
 _symmetry_equiv_pos_as_xyz
  1  'x, y, z'
loop_
 _atom_site_type_symbol
 _atom_site_label
 _atom_site_symmetry_multiplicity
 _atom_site_fract_x
 _atom_site_fract_y
 _atom_site_fract_z
 _atom_site_occupancy
  Ca  Ca0  1  0.750000  0.224894  0.174112  1
  Ca  Ca1  1  0.750000  0.725509  0.326025  1
  Ca  Ca2  1  0.250000  0.274051  0.670724  1
  Pr  Pr3  1  0.250000  0.779745  0.827653  1
  Ga  Ga4  1  0.250000  0.699185  0.532254  1
  Ga  Ga5  1  0.750000  0.299796  0.466124  1
  Ga  Ga6  1  0.750000  0.795870  0.036511  1
  Ga  Ga7  1  0.250000  0.206065  0.965694  1
  Ga  Ga8  1  0.250000  0.922569  0.148288  1
  Ga  Ga9  1  0.750000  0.079280  0.850490  1
  Ga  Ga10  1  0.750000  0.572730  0.649570  1
  Ga  Ga11  1  0.250000  0.425265  0.348973  1
  Ag  Ag12  1  0.250000  0.539112  0.102594  1
  Ag  Ag13  1  0.750000  0.456924  0.902553  1
  Ag  Ag14  1  0.750000  0.957680  0.598065  1
  Ag  Ag15  1  0.250000  0.041326  0.400370  1
