# generated using pymatgen
data_Zr10CuSiSn5Sb
_symmetry_space_group_name_H-M   'P 1'
_cell_length_a   8.69925534
_cell_length_b   8.69813599
_cell_length_c   5.85201232
_cell_angle_alpha   90.07708492
_cell_angle_beta   89.96146613
_cell_angle_gamma   119.99573703
_symmetry_Int_Tables_number   1
_chemical_formula_structural   Zr10CuSiSn5Sb
_chemical_formula_sum   'Zr10 Cu1 Si1 Sn5 Sb1'
_cell_volume   383.49737591
_cell_formula_units_Z   1
loop_
 _symmetry_equiv_pos_site_id
 _symmetry_equiv_pos_as_xyz
  1  'x, y, z'
loop_
 _atom_site_type_symbol
 _atom_site_label
 _atom_site_symmetry_multiplicity
 _atom_site_fract_x
 _atom_site_fract_y
 _atom_site_fract_z
 _atom_site_occupancy
  Zr  Zr0  1  0.667621  0.333383  0.999646  1
  Zr  Zr1  1  0.332379  0.665762  0.999646  1
  Zr  Zr2  1  0.332577  0.666038  0.500394  1
  Zr  Zr3  1  0.667423  0.333462  0.500394  1
  Zr  Zr4  1  0.737430  0.737701  0.745141  1
  Zr  Zr5  1  0.262570  0.000272  0.745141  1
  Zr  Zr6  1  0.000000  0.262955  0.745777  1
  Zr  Zr7  1  0.261096  0.261893  0.254612  1
  Zr  Zr8  1  0.738904  0.000798  0.254612  1
  Zr  Zr9  1  0.000000  0.736980  0.254504  1
  Cu  Cu10  1  0.000000  0.998961  0.999035  1
  Si  Si11  1  0.000000  0.999424  0.500880  1
  Sn  Sn12  1  0.389246  0.388523  0.751858  1
  Sn  Sn13  1  0.610754  0.999277  0.751858  1
  Sn  Sn14  1  0.000000  0.613086  0.751319  1
  Sn  Sn15  1  0.611241  0.611533  0.248436  1
  Sn  Sn16  1  0.388759  0.000293  0.248436  1
  Sb  Sb17  1  0.000000  0.389659  0.248310  1
