# generated using pymatgen
data_Sc10Cd8NiAu3
_symmetry_space_group_name_H-M   'P 1'
_cell_length_a   3.38579700
_cell_length_b   7.71139337
_cell_length_c   17.76062952
_cell_angle_alpha   90.09015206
_cell_angle_beta   90.00000000
_cell_angle_gamma   90.00000000
_symmetry_Int_Tables_number   1
_chemical_formula_structural   Sc10Cd8NiAu3
_chemical_formula_sum   'Sc10 Cd8 Ni1 Au3'
_cell_volume   463.71547730
_cell_formula_units_Z   1
loop_
 _symmetry_equiv_pos_site_id
 _symmetry_equiv_pos_as_xyz
  1  'x, y, z'
loop_
 _atom_site_type_symbol
 _atom_site_label
 _atom_site_symmetry_multiplicity
 _atom_site_fract_x
 _atom_site_fract_y
 _atom_site_fract_z
 _atom_site_occupancy
  Sc  Sc0  1  0.500000  0.128987  0.922196  1
  Sc  Sc1  1  0.500000  0.628924  0.578325  1
  Sc  Sc2  1  0.500000  0.370506  0.420483  1
  Sc  Sc3  1  0.500000  0.879050  0.089781  1
  Sc  Sc4  1  0.500000  0.000608  0.499494  1
  Sc  Sc5  1  0.500000  0.754437  0.782809  1
  Sc  Sc6  1  0.500000  0.761597  0.275496  1
  Sc  Sc7  1  0.500000  0.254857  0.717132  1
  Sc  Sc8  1  0.500000  0.500151  0.000200  1
  Sc  Sc9  1  0.500000  0.220565  0.216701  1
  Cd  Cd10  1  0.000000  0.204358  0.068639  1
  Cd  Cd11  1  0.000000  0.707704  0.433226  1
  Cd  Cd12  1  0.000000  0.935067  0.644270  1
  Cd  Cd13  1  0.000000  0.061223  0.350371  1
  Cd  Cd14  1  0.000000  0.292187  0.565732  1
  Cd  Cd15  1  0.000000  0.435388  0.855650  1
  Cd  Cd16  1  0.000000  0.568493  0.145742  1
  Cd  Cd17  1  0.000000  0.792939  0.935566  1
  Ni  Ni18  1  0.000000  0.957621  0.195142  1
  Au  Au19  1  0.000000  0.456732  0.302893  1
  Au  Au20  1  0.000000  0.544051  0.695169  1
  Au  Au21  1  0.000000  0.044556  0.804984  1
