# generated using pymatgen
data_RbAc(SmB12)2
_symmetry_space_group_name_H-M   'P 1'
_cell_length_a   7.22382270
_cell_length_b   7.22382334
_cell_length_c   5.91409200
_cell_angle_alpha   90.00000000
_cell_angle_beta   90.00000000
_cell_angle_gamma   109.35569232
_symmetry_Int_Tables_number   1
_chemical_formula_structural   RbAc(SmB12)2
_chemical_formula_sum   'Rb1 Ac1 Sm2 B24'
_cell_volume   291.17535916
_cell_formula_units_Z   1
loop_
 _symmetry_equiv_pos_site_id
 _symmetry_equiv_pos_as_xyz
  1  'x, y, z'
loop_
 _atom_site_type_symbol
 _atom_site_label
 _atom_site_symmetry_multiplicity
 _atom_site_fract_x
 _atom_site_fract_y
 _atom_site_fract_z
 _atom_site_occupancy
  Rb  Rb0  1  0.749969  0.250031  0.500000  1
  Ac  Ac1  1  0.998002  0.001998  0.000000  1
  Sm  Sm2  1  0.500155  0.499845  0.000000  1
  Sm  Sm3  1  0.253229  0.746771  0.500000  1
  B  B4  1  0.177653  0.327724  0.648715  1
  B  B5  1  0.926677  0.575932  0.149680  1
  B  B6  1  0.672276  0.822347  0.648715  1
  B  B7  1  0.424068  0.073323  0.149680  1
  B  B8  1  0.177653  0.327724  0.351285  1
  B  B9  1  0.926677  0.575932  0.850320  1
  B  B10  1  0.672276  0.822347  0.351285  1
  B  B11  1  0.424068  0.073323  0.850320  1
  B  B12  1  0.401672  0.398724  0.500000  1
  B  B13  1  0.150308  0.650897  0.000000  1
  B  B14  1  0.897364  0.899686  0.500000  1
  B  B15  1  0.647661  0.148178  0.000000  1
  B  B16  1  0.325095  0.175149  0.648676  1
  B  B17  1  0.077418  0.428476  0.149752  1
  B  B18  1  0.824851  0.674905  0.648676  1
  B  B19  1  0.571524  0.922582  0.149752  1
  B  B20  1  0.100314  0.102636  0.500000  1
  B  B21  1  0.851822  0.352339  0.000000  1
  B  B22  1  0.601276  0.598328  0.500000  1
  B  B23  1  0.349103  0.849692  0.000000  1
  B  B24  1  0.325095  0.175149  0.351324  1
  B  B25  1  0.077418  0.428476  0.850248  1
  B  B26  1  0.824851  0.674905  0.351324  1
  B  B27  1  0.571524  0.922582  0.850248  1
