# generated using pymatgen
data_Nd10B2Cl15
_symmetry_space_group_name_H-M   'P 1'
_cell_length_a   9.04806559
_cell_length_b   9.89232897
_cell_length_c   10.65843203
_cell_angle_alpha   90.40926051
_cell_angle_beta   114.74383748
_cell_angle_gamma   111.29136764
_symmetry_Int_Tables_number   1
_chemical_formula_structural   Nd10B2Cl15
_chemical_formula_sum   'Nd10 B2 Cl15'
_cell_volume   792.87194550
_cell_formula_units_Z   1
loop_
 _symmetry_equiv_pos_site_id
 _symmetry_equiv_pos_as_xyz
  1  'x, y, z'
loop_
 _atom_site_type_symbol
 _atom_site_label
 _atom_site_symmetry_multiplicity
 _atom_site_fract_x
 _atom_site_fract_y
 _atom_site_fract_z
 _atom_site_occupancy
  Nd  Nd0  1  0.811812  0.419385  0.280498  1
  Nd  Nd1  1  0.188188  0.580615  0.719502  1
  Nd  Nd2  1  0.682514  0.743375  0.818245  1
  Nd  Nd3  1  0.317486  0.256625  0.181755  1
  Nd  Nd4  1  0.526949  0.699966  0.101889  1
  Nd  Nd5  1  0.473051  0.300034  0.898111  1
  Nd  Nd6  1  0.591247  0.037809  0.334446  1
  Nd  Nd7  1  0.408753  0.962191  0.665554  1
  Nd  Nd8  1  0.734955  0.078437  0.050086  1
  Nd  Nd9  1  0.265045  0.921563  0.949914  1
  B  B10  1  0.465800  0.816163  0.873782  1
  B  B11  1  0.534200  0.183837  0.126218  1
  Cl  Cl12  1  0.000000  0.000000  0.000000  1
  Cl  Cl13  1  0.635643  0.883447  0.586868  1
  Cl  Cl14  1  0.364357  0.116553  0.413132  1
  Cl  Cl15  1  0.881592  0.299006  0.523655  1
  Cl  Cl16  1  0.118408  0.700994  0.476345  1
  Cl  Cl17  1  0.296138  0.765698  0.181108  1
  Cl  Cl18  1  0.703862  0.234302  0.818892  1
  Cl  Cl19  1  0.055177  0.344636  0.227842  1
  Cl  Cl20  1  0.169364  0.058552  0.705507  1
  Cl  Cl21  1  0.830636  0.941448  0.294493  1
  Cl  Cl22  1  0.236759  0.411374  0.945564  1
  Cl  Cl23  1  0.763241  0.588626  0.054436  1
  Cl  Cl24  1  0.407687  0.468281  0.661513  1
  Cl  Cl25  1  0.592313  0.531719  0.338487  1
  Cl  Cl26  1  0.944823  0.655364  0.772158  1
