# generated using pymatgen
data_YHo8LuPt8
_symmetry_space_group_name_H-M   'P 1'
_cell_length_a   7.43871300
_cell_length_b   7.52433702
_cell_length_c   14.71389401
_cell_angle_alpha   90.00626247
_cell_angle_beta   90.00000000
_cell_angle_gamma   90.00000000
_symmetry_Int_Tables_number   1
_chemical_formula_structural   YHo8LuPt8
_chemical_formula_sum   'Y2 Ho16 Lu2 Pt16'
_cell_volume   823.55700119
_cell_formula_units_Z   2
loop_
 _symmetry_equiv_pos_site_id
 _symmetry_equiv_pos_as_xyz
  1  'x, y, z'
loop_
 _atom_site_type_symbol
 _atom_site_label
 _atom_site_symmetry_multiplicity
 _atom_site_fract_x
 _atom_site_fract_y
 _atom_site_fract_z
 _atom_site_occupancy
  Y  Y0  1  0.498342  0.679242  0.406825  1
  Y  Y1  1  0.998342  0.820758  0.093175  1
  Ho  Ho2  1  0.818843  0.488328  0.749850  1
  Ho  Ho3  1  0.318843  0.011672  0.750150  1
  Ho  Ho4  1  0.656324  0.832387  0.622176  1
  Ho  Ho5  1  0.156324  0.667613  0.877824  1
  Ho  Ho6  1  0.844444  0.331823  0.377613  1
  Ho  Ho7  1  0.344444  0.168177  0.122387  1
  Ho  Ho8  1  0.344413  0.167962  0.377712  1
  Ho  Ho9  1  0.844413  0.332038  0.122288  1
  Ho  Ho10  1  0.156262  0.668100  0.621994  1
  Ho  Ho11  1  0.656262  0.831900  0.878006  1
  Ho  Ho12  1  0.997662  0.820359  0.406418  1
  Ho  Ho13  1  0.497662  0.679641  0.093582  1
  Ho  Ho14  1  0.502588  0.319606  0.593129  1
  Ho  Ho15  1  0.002588  0.180394  0.906871  1
  Ho  Ho16  1  0.002082  0.179813  0.593023  1
  Ho  Ho17  1  0.502082  0.320187  0.906977  1
  Lu  Lu18  1  0.681250  0.988064  0.249926  1
  Lu  Lu19  1  0.181250  0.511936  0.250074  1
  Pt  Pt20  1  0.818410  0.643949  0.250636  1
  Pt  Pt21  1  0.318410  0.856051  0.249364  1
  Pt  Pt22  1  0.681702  0.143546  0.750004  1
  Pt  Pt23  1  0.181702  0.356454  0.749996  1
  Pt  Pt24  1  0.546048  0.386089  0.249676  1
  Pt  Pt25  1  0.046048  0.113911  0.250324  1
  Pt  Pt26  1  0.952554  0.887316  0.750055  1
  Pt  Pt27  1  0.452554  0.612684  0.749945  1
  Pt  Pt28  1  0.816220  0.531294  0.542244  1
  Pt  Pt29  1  0.316220  0.968706  0.957756  1
  Pt  Pt30  1  0.684772  0.032965  0.458447  1
  Pt  Pt31  1  0.184772  0.467035  0.041553  1
  Pt  Pt32  1  0.182366  0.466957  0.458325  1
  Pt  Pt33  1  0.682366  0.033043  0.041675  1
  Pt  Pt34  1  0.315718  0.969404  0.542391  1
  Pt  Pt35  1  0.815718  0.530596  0.957609  1
