# generated using pymatgen
data_CsHf3VO8
_symmetry_space_group_name_H-M   'P 1'
_cell_length_a   7.68160085
_cell_length_b   7.68160085
_cell_length_c   10.70004100
_cell_angle_alpha   46.54867012
_cell_angle_beta   46.54867011
_cell_angle_gamma   24.47048188
_symmetry_Int_Tables_number   1
_chemical_formula_structural   CsHf3VO8
_chemical_formula_sum   'Cs1 Hf3 V1 O8'
_cell_volume   185.81177009
_cell_formula_units_Z   1
loop_
 _symmetry_equiv_pos_site_id
 _symmetry_equiv_pos_as_xyz
  1  'x, y, z'
loop_
 _atom_site_type_symbol
 _atom_site_label
 _atom_site_symmetry_multiplicity
 _atom_site_fract_x
 _atom_site_fract_y
 _atom_site_fract_z
 _atom_site_occupancy
  Cs  Cs0  1  0.496599  0.496599  0.999278  1
  Hf  Hf1  1  0.661732  0.661732  0.170238  1
  Hf  Hf2  1  0.156083  0.156083  0.497123  1
  Hf  Hf3  1  0.840092  0.840092  0.514441  1
  V  V4  1  0.345960  0.345960  0.816924  1
  O  O5  1  0.157459  0.157459  0.050610  1
  O  O6  1  0.845645  0.845645  0.945034  1
  O  O7  1  0.209683  0.209683  0.634221  1
  O  O8  1  0.785373  0.785373  0.373593  1
  O  O9  1  0.535711  0.535711  0.630932  1
  O  O10  1  0.461912  0.461912  0.370114  1
  O  O11  1  0.169047  0.169047  0.291119  1
  O  O12  1  0.834706  0.834706  0.706372  1
