# generated using pymatgen
data_Sc12Fe(Si4Os)3
_symmetry_space_group_name_H-M   'P 1'
_cell_length_a   3.99345600
_cell_length_b   10.26993831
_cell_length_c   11.68852894
_cell_angle_alpha   89.79305799
_cell_angle_beta   90.00000000
_cell_angle_gamma   90.00000000
_symmetry_Int_Tables_number   1
_chemical_formula_structural   Sc12Fe(Si4Os)3
_chemical_formula_sum   'Sc12 Fe1 Si12 Os3'
_cell_volume   479.37321297
_cell_formula_units_Z   1
loop_
 _symmetry_equiv_pos_site_id
 _symmetry_equiv_pos_as_xyz
  1  'x, y, z'
loop_
 _atom_site_type_symbol
 _atom_site_label
 _atom_site_symmetry_multiplicity
 _atom_site_fract_x
 _atom_site_fract_y
 _atom_site_fract_z
 _atom_site_occupancy
  Sc  Sc0  1  0.250000  0.878143  0.017550  1
  Sc  Sc1  1  0.250000  0.618850  0.522230  1
  Sc  Sc2  1  0.750000  0.124009  0.979697  1
  Sc  Sc3  1  0.750000  0.377419  0.480103  1
  Sc  Sc4  1  0.250000  0.920588  0.606309  1
  Sc  Sc5  1  0.250000  0.579358  0.105532  1
  Sc  Sc6  1  0.750000  0.078917  0.395714  1
  Sc  Sc7  1  0.750000  0.421978  0.898437  1
  Sc  Sc8  1  0.250000  0.651591  0.797465  1
  Sc  Sc9  1  0.250000  0.840347  0.299126  1
  Sc  Sc10  1  0.750000  0.341260  0.200912  1
  Sc  Sc11  1  0.750000  0.164495  0.700592  1
  Fe  Fe12  1  0.250000  0.389853  0.675807  1
  Si  Si13  1  0.250000  0.018386  0.821216  1
  Si  Si14  1  0.250000  0.485053  0.322880  1
  Si  Si15  1  0.750000  0.985508  0.177644  1
  Si  Si16  1  0.750000  0.503755  0.679135  1
  Si  Si17  1  0.250000  0.257758  0.837716  1
  Si  Si18  1  0.250000  0.248848  0.343154  1
  Si  Si19  1  0.750000  0.749300  0.156603  1
  Si  Si20  1  0.750000  0.747514  0.658611  1
  Si  Si21  1  0.250000  0.198508  0.547522  1
  Si  Si22  1  0.250000  0.306262  0.044164  1
  Si  Si23  1  0.750000  0.804645  0.456044  1
  Si  Si24  1  0.750000  0.694686  0.953500  1
  Os  Os25  1  0.250000  0.111101  0.176599  1
  Os  Os26  1  0.750000  0.611087  0.323591  1
  Os  Os27  1  0.750000  0.890780  0.822146  1
