# generated using pymatgen
data_NdHoTlRuO7
_symmetry_space_group_name_H-M   'P 1'
_cell_length_a   6.37810471
_cell_length_b   6.63749479
_cell_length_c   7.60627100
_cell_angle_alpha   90.00000000
_cell_angle_beta   90.00000000
_cell_angle_gamma   110.99013973
_symmetry_Int_Tables_number   1
_chemical_formula_structural   NdHoTlRuO7
_chemical_formula_sum   'Nd2 Ho2 Tl2 Ru2 O14'
_cell_volume   300.64089291
_cell_formula_units_Z   2
loop_
 _symmetry_equiv_pos_site_id
 _symmetry_equiv_pos_as_xyz
  1  'x, y, z'
loop_
 _atom_site_type_symbol
 _atom_site_label
 _atom_site_symmetry_multiplicity
 _atom_site_fract_x
 _atom_site_fract_y
 _atom_site_fract_z
 _atom_site_occupancy
  Nd  Nd0  1  0.000000  0.000000  0.500000  1
  Nd  Nd1  1  0.000000  0.000000  0.000000  1
  Ho  Ho2  1  0.947897  0.489373  0.750000  1
  Ho  Ho3  1  0.052103  0.510627  0.250000  1
  Tl  Tl4  1  0.487032  0.983787  0.750000  1
  Tl  Tl5  1  0.512968  0.016213  0.250000  1
  Ru  Ru6  1  0.500000  0.500000  0.500000  1
  Ru  Ru7  1  0.500000  0.500000  0.000000  1
  O  O8  1  0.587421  0.501022  0.750000  1
  O  O9  1  0.412579  0.498978  0.250000  1
  O  O10  1  0.847636  0.130841  0.750000  1
  O  O11  1  0.152364  0.869159  0.250000  1
  O  O12  1  0.123714  0.849345  0.750000  1
  O  O13  1  0.876286  0.150655  0.250000  1
  O  O14  1  0.427266  0.184641  0.002222  1
  O  O15  1  0.572734  0.815359  0.502222  1
  O  O16  1  0.175398  0.430379  0.964019  1
  O  O17  1  0.824602  0.569621  0.464019  1
  O  O18  1  0.427266  0.184641  0.497778  1
  O  O19  1  0.572734  0.815359  0.997778  1
  O  O20  1  0.824602  0.569621  0.035981  1
  O  O21  1  0.175398  0.430379  0.535981  1
