# generated using pymatgen
data_Pd(PtCl3)2
_symmetry_space_group_name_H-M   'P 1'
_cell_length_a   8.63296729
_cell_length_b   8.65264404
_cell_length_c   8.63296617
_cell_angle_alpha   108.13601308
_cell_angle_beta   108.13800002
_cell_angle_gamma   108.13601906
_symmetry_Int_Tables_number   1
_chemical_formula_structural   Pd(PtCl3)2
_chemical_formula_sum   'Pd2 Pt4 Cl12'
_cell_volume   519.49863779
_cell_formula_units_Z   2
loop_
 _symmetry_equiv_pos_site_id
 _symmetry_equiv_pos_as_xyz
  1  'x, y, z'
loop_
 _atom_site_type_symbol
 _atom_site_label
 _atom_site_symmetry_multiplicity
 _atom_site_fract_x
 _atom_site_fract_y
 _atom_site_fract_z
 _atom_site_occupancy
  Pd  Pd0  1  0.928850  0.929252  0.689254  1
  Pd  Pd1  1  0.689254  0.929252  0.928850  1
  Pt  Pt2  1  0.928713  0.689425  0.928713  1
  Pt  Pt3  1  0.069850  0.309923  0.069850  1
  Pt  Pt4  1  0.070167  0.070547  0.310779  1
  Pt  Pt5  1  0.310779  0.070547  0.070167  1
  Cl  Cl6  1  0.000420  0.237090  0.766216  1
  Cl  Cl7  1  0.766321  0.000896  0.237958  1
  Cl  Cl8  1  0.234984  0.765801  0.000009  1
  Cl  Cl9  1  0.000009  0.765801  0.234984  1
  Cl  Cl10  1  0.237958  0.000896  0.766321  1
  Cl  Cl11  1  0.766216  0.237090  0.000420  1
  Cl  Cl12  1  0.136829  0.372288  0.372799  1
  Cl  Cl13  1  0.372799  0.372288  0.136829  1
  Cl  Cl14  1  0.373145  0.137211  0.373145  1
  Cl  Cl15  1  0.624347  0.861977  0.624347  1
  Cl  Cl16  1  0.862283  0.624857  0.627076  1
  Cl  Cl17  1  0.627076  0.624857  0.862283  1
