# generated using pymatgen
data_Hf6Sc2Ti2Al12Pt7
_symmetry_space_group_name_H-M   'P 1'
_cell_length_a   8.87255487
_cell_length_b   8.86928600
_cell_length_c   8.86928555
_cell_angle_alpha   59.98330321
_cell_angle_beta   59.98780793
_cell_angle_gamma   59.98780903
_symmetry_Int_Tables_number   1
_chemical_formula_structural   Hf6Sc2Ti2Al12Pt7
_chemical_formula_sum   'Hf6 Sc2 Ti2 Al12 Pt7'
_cell_volume   493.37385045
_cell_formula_units_Z   1
loop_
 _symmetry_equiv_pos_site_id
 _symmetry_equiv_pos_as_xyz
  1  'x, y, z'
loop_
 _atom_site_type_symbol
 _atom_site_label
 _atom_site_symmetry_multiplicity
 _atom_site_fract_x
 _atom_site_fract_y
 _atom_site_fract_z
 _atom_site_occupancy
  Hf  Hf0  1  0.680522  0.680946  0.320408  1
  Hf  Hf1  1  0.318125  0.680946  0.320408  1
  Hf  Hf2  1  0.683717  0.316283  0.316283  1
  Hf  Hf3  1  0.318125  0.320408  0.680946  1
  Hf  Hf4  1  0.680522  0.320408  0.680946  1
  Hf  Hf5  1  0.322161  0.677839  0.677839  1
  Sc  Sc6  1  0.354683  0.881341  0.881341  1
  Sc  Sc7  1  0.882633  0.881341  0.881341  1
  Ti  Ti8  1  0.880235  0.878882  0.360647  1
  Ti  Ti9  1  0.880235  0.360647  0.878882  1
  Al  Al10  1  0.119479  0.123341  0.637702  1
  Al  Al11  1  0.119479  0.637702  0.123341  1
  Al  Al12  1  0.636659  0.121841  0.121841  1
  Al  Al13  1  0.119660  0.121841  0.121841  1
  Al  Al14  1  0.664134  0.661178  0.010552  1
  Al  Al15  1  0.664134  0.010552  0.661178  1
  Al  Al16  1  0.008787  0.662840  0.662840  1
  Al  Al17  1  0.665531  0.662840  0.662840  1
  Al  Al18  1  0.336123  0.335641  0.992114  1
  Al  Al19  1  0.336123  0.992114  0.335641  1
  Al  Al20  1  0.991931  0.335861  0.335861  1
  Al  Al21  1  0.336348  0.335861  0.335861  1
  Pt  Pt22  1  0.991065  0.008935  0.008935  1
  Pt  Pt23  1  0.001097  0.999179  0.495617  1
  Pt  Pt24  1  0.504107  0.999179  0.495617  1
  Pt  Pt25  1  0.999633  0.500367  0.500367  1
  Pt  Pt26  1  0.504107  0.495617  0.999179  1
  Pt  Pt27  1  0.001097  0.495617  0.999179  1
  Pt  Pt28  1  0.499549  0.000451  0.000451  1
