# generated using pymatgen
data_Ce4Ta3Ti3Ge8
_symmetry_space_group_name_H-M   'P 1'
_cell_length_a   7.13823500
_cell_length_b   7.25337974
_cell_length_c   13.83597900
_cell_angle_alpha   89.94180670
_cell_angle_beta   90.00000000
_cell_angle_gamma   90.00000000
_symmetry_Int_Tables_number   1
_chemical_formula_structural   Ce4Ta3Ti3Ge8
_chemical_formula_sum   'Ce8 Ta6 Ti6 Ge16'
_cell_volume   716.37583314
_cell_formula_units_Z   2
loop_
 _symmetry_equiv_pos_site_id
 _symmetry_equiv_pos_as_xyz
  1  'x, y, z'
loop_
 _atom_site_type_symbol
 _atom_site_label
 _atom_site_symmetry_multiplicity
 _atom_site_fract_x
 _atom_site_fract_y
 _atom_site_fract_z
 _atom_site_occupancy
  Ce  Ce0  1  0.495964  0.671750  0.595088  1
  Ce  Ce1  1  0.995991  0.828245  0.905442  1
  Ce  Ce2  1  0.504477  0.329132  0.094701  1
  Ce  Ce3  1  0.004601  0.171829  0.404170  1
  Ce  Ce4  1  0.504505  0.328571  0.404826  1
  Ce  Ce5  1  0.004434  0.171320  0.094674  1
  Ce  Ce6  1  0.494399  0.668896  0.905963  1
  Ce  Ce7  1  0.994369  0.830519  0.595052  1
  Ta  Ta8  1  0.657241  0.167754  0.628861  1
  Ta  Ta9  1  0.158029  0.331973  0.872075  1
  Ta  Ta10  1  0.830572  0.490967  0.750425  1
  Ta  Ta11  1  0.330936  0.008858  0.750339  1
  Ta  Ta12  1  0.169693  0.505139  0.249565  1
  Ta  Ta13  1  0.669988  0.994942  0.249773  1
  Ti  Ti14  1  0.341284  0.833295  0.127084  1
  Ti  Ti15  1  0.841058  0.666443  0.372141  1
  Ti  Ti16  1  0.341586  0.833914  0.371843  1
  Ti  Ti17  1  0.841077  0.666520  0.127251  1
  Ti  Ti18  1  0.659168  0.166001  0.873456  1
  Ti  Ti19  1  0.159410  0.333977  0.627156  1
  Ge  Ge20  1  0.672486  0.952331  0.453985  1
  Ge  Ge21  1  0.172029  0.547746  0.045960  1
  Ge  Ge22  1  0.328376  0.044050  0.955191  1
  Ge  Ge23  1  0.828166  0.454636  0.545106  1
  Ge  Ge24  1  0.327420  0.047841  0.545686  1
  Ge  Ge25  1  0.827363  0.452622  0.954256  1
  Ge  Ge26  1  0.673125  0.953070  0.046414  1
  Ge  Ge27  1  0.173266  0.547526  0.453218  1
  Ge  Ge28  1  0.459213  0.369397  0.751933  1
  Ge  Ge29  1  0.959084  0.130851  0.749067  1
  Ge  Ge30  1  0.540775  0.634775  0.249577  1
  Ge  Ge31  1  0.040896  0.865397  0.249523  1
  Ge  Ge32  1  0.689050  0.865991  0.752386  1
  Ge  Ge33  1  0.189800  0.633361  0.749029  1
  Ge  Ge34  1  0.310269  0.132089  0.249262  1
  Ge  Ge35  1  0.809904  0.368272  0.249521  1
