# generated using pymatgen
data_Dy3HoAl10(Ga4Ir3)2
_symmetry_space_group_name_H-M   'P 1'
_cell_length_a   7.53551312
_cell_length_b   7.53422359
_cell_length_c   9.55258401
_cell_angle_alpha   90.10733285
_cell_angle_beta   89.84816239
_cell_angle_gamma   119.67796514
_symmetry_Int_Tables_number   1
_chemical_formula_structural   Dy3HoAl10(Ga4Ir3)2
_chemical_formula_sum   'Dy3 Ho1 Al10 Ga8 Ir6'
_cell_volume   471.19577931
_cell_formula_units_Z   1
loop_
 _symmetry_equiv_pos_site_id
 _symmetry_equiv_pos_as_xyz
  1  'x, y, z'
loop_
 _atom_site_type_symbol
 _atom_site_label
 _atom_site_symmetry_multiplicity
 _atom_site_fract_x
 _atom_site_fract_y
 _atom_site_fract_z
 _atom_site_occupancy
  Dy  Dy0  1  0.996474  0.666823  0.245667  1
  Dy  Dy1  1  0.003529  0.333173  0.754337  1
  Dy  Dy2  1  0.672438  0.998707  0.249152  1
  Ho  Ho3  1  0.327586  0.001294  0.750824  1
  Al  Al4  1  0.997617  0.665379  0.570869  1
  Al  Al5  1  0.334403  0.000723  0.427667  1
  Al  Al6  1  0.002471  0.334714  0.429192  1
  Al  Al7  1  0.665502  0.999271  0.572468  1
  Al  Al8  1  0.664013  0.997011  0.926653  1
  Al  Al9  1  0.335878  0.002978  0.073213  1
  Al  Al10  1  0.333599  0.333478  0.556393  1
  Al  Al11  1  0.666399  0.666433  0.443665  1
  Al  Al12  1  0.666756  0.666180  0.054696  1
  Al  Al13  1  0.333240  0.333731  0.945248  1
  Ga  Ga14  1  0.129958  0.126417  0.250616  1
  Ga  Ga15  1  0.870153  0.873635  0.749387  1
  Ga  Ga16  1  0.999833  0.333504  0.079859  1
  Ga  Ga17  1  0.000280  0.666616  0.920084  1
  Ga  Ga18  1  0.341016  0.548728  0.250873  1
  Ga  Ga19  1  0.658901  0.451155  0.749129  1
  Ga  Ga20  1  0.546280  0.339333  0.249990  1
  Ga  Ga21  1  0.453676  0.660716  0.750014  1
  Ir  Ir22  1  0.667264  0.325857  0.999144  1
  Ir  Ir23  1  0.332674  0.674119  0.000776  1
  Ir  Ir24  1  0.328019  0.671831  0.500887  1
  Ir  Ir25  1  0.671925  0.328169  0.499196  1
  Ir  Ir26  1  0.000058  0.000013  0.999958  1
  Ir  Ir27  1  0.000057  0.000012  0.500043  1
