# generated using pymatgen
data_Ho3TcB7
_symmetry_space_group_name_H-M   'P 1'
_cell_length_a   8.05327233
_cell_length_b   8.05327117
_cell_length_c   9.32695900
_cell_angle_alpha   90.00000000
_cell_angle_beta   90.00000000
_cell_angle_gamma   154.71424799
_symmetry_Int_Tables_number   1
_chemical_formula_structural   Ho3TcB7
_chemical_formula_sum   'Ho6 Tc2 B14'
_cell_volume   258.37347749
_cell_formula_units_Z   2
loop_
 _symmetry_equiv_pos_site_id
 _symmetry_equiv_pos_as_xyz
  1  'x, y, z'
loop_
 _atom_site_type_symbol
 _atom_site_label
 _atom_site_symmetry_multiplicity
 _atom_site_fract_x
 _atom_site_fract_y
 _atom_site_fract_z
 _atom_site_occupancy
  Ho  Ho0  1  0.895304  0.104696  0.440244  1
  Ho  Ho1  1  0.104696  0.895304  0.559756  1
  Ho  Ho2  1  0.895304  0.104696  0.059756  1
  Ho  Ho3  1  0.104696  0.895304  0.940244  1
  Ho  Ho4  1  0.241725  0.758275  0.250000  1
  Ho  Ho5  1  0.758275  0.241725  0.750000  1
  Tc  Tc6  1  0.052923  0.947077  0.250000  1
  Tc  Tc7  1  0.947077  0.052923  0.750000  1
  B  B8  1  0.727119  0.272881  0.466959  1
  B  B9  1  0.272881  0.727119  0.533041  1
  B  B10  1  0.727119  0.272881  0.033041  1
  B  B11  1  0.272881  0.727119  0.966959  1
  B  B12  1  0.631994  0.368006  0.151070  1
  B  B13  1  0.368006  0.631994  0.848930  1
  B  B14  1  0.631994  0.368006  0.348930  1
  B  B15  1  0.368006  0.631994  0.651070  1
  B  B16  1  0.520800  0.479200  0.095736  1
  B  B17  1  0.479200  0.520800  0.904264  1
  B  B18  1  0.520800  0.479200  0.404264  1
  B  B19  1  0.479200  0.520800  0.595736  1
  B  B20  1  0.457112  0.542888  0.250000  1
  B  B21  1  0.542888  0.457112  0.750000  1
