# generated using pymatgen
data_Sr8Li2CdSi12Hg
_symmetry_space_group_name_H-M   'P 1'
_cell_length_a   11.89803145
_cell_length_b   10.21628638
_cell_length_c   8.51501642
_cell_angle_alpha   78.20389072
_cell_angle_beta   57.20182020
_cell_angle_gamma   44.99850491
_symmetry_Int_Tables_number   1
_chemical_formula_structural   Sr8Li2CdSi12Hg
_chemical_formula_sum   'Sr8 Li2 Cd1 Si12 Hg1'
_cell_volume   586.75586457
_cell_formula_units_Z   1
loop_
 _symmetry_equiv_pos_site_id
 _symmetry_equiv_pos_as_xyz
  1  'x, y, z'
loop_
 _atom_site_type_symbol
 _atom_site_label
 _atom_site_symmetry_multiplicity
 _atom_site_fract_x
 _atom_site_fract_y
 _atom_site_fract_z
 _atom_site_occupancy
  Sr  Sr0  1  0.126786  0.120453  0.873618  1
  Sr  Sr1  1  0.873444  0.879308  0.126808  1
  Sr  Sr2  1  0.128469  0.123528  0.374148  1
  Sr  Sr3  1  0.374298  0.373893  0.128690  1
  Sr  Sr4  1  0.621898  0.624259  0.377474  1
  Sr  Sr5  1  0.377114  0.376763  0.622015  1
  Sr  Sr6  1  0.626386  0.627051  0.872975  1
  Sr  Sr7  1  0.872923  0.873908  0.626374  1
  Li  Li8  1  0.166771  0.833195  0.167812  1
  Li  Li9  1  0.416751  0.083290  0.417708  1
  Cd  Cd10  1  0.083133  0.416738  0.082193  1
  Si  Si11  1  0.909608  0.596204  0.433289  1
  Si  Si12  1  0.076146  0.418019  0.587822  1
  Si  Si13  1  0.431611  0.061938  0.910914  1
  Si  Si14  1  0.588820  0.916558  0.074585  1
  Si  Si15  1  0.333930  0.660493  0.829417  1
  Si  Si16  1  0.652720  0.340241  0.190100  1
  Si  Si17  1  0.832161  0.174229  0.332065  1
  Si  Si18  1  0.189247  0.818692  0.653507  1
  Si  Si19  1  0.907339  0.592969  0.907857  1
  Si  Si20  1  0.585526  0.914557  0.584719  1
  Si  Si21  1  0.335091  0.664219  0.335202  1
  Si  Si22  1  0.657189  0.342973  0.658308  1
  Hg  Hg23  1  0.832644  0.166528  0.832395  1
