# generated using pymatgen
data_K7RbAl6Ga2(SnSe4)8
_symmetry_space_group_name_H-M   'P 1'
_cell_length_a   12.92655174
_cell_length_b   7.39645110
_cell_length_c   18.17946700
_cell_angle_alpha   81.13585267
_cell_angle_beta   90.13090248
_cell_angle_gamma   89.97383225
_symmetry_Int_Tables_number   1
_chemical_formula_structural   K7RbAl6Ga2(SnSe4)8
_chemical_formula_sum   'K7 Rb1 Al6 Ga2 Sn8 Se32'
_cell_volume   1717.38520642
_cell_formula_units_Z   1
loop_
 _symmetry_equiv_pos_site_id
 _symmetry_equiv_pos_as_xyz
  1  'x, y, z'
loop_
 _atom_site_type_symbol
 _atom_site_label
 _atom_site_symmetry_multiplicity
 _atom_site_fract_x
 _atom_site_fract_y
 _atom_site_fract_z
 _atom_site_occupancy
  K  K0  1  0.436138  0.776401  0.323790  1
  K  K1  1  0.564625  0.223082  0.676858  1
  K  K2  1  0.934814  0.223560  0.175787  1
  K  K3  1  0.064184  0.777174  0.823356  1
  K  K4  1  0.599966  0.244747  0.044983  1
  K  K5  1  0.399697  0.755255  0.955166  1
  K  K6  1  0.099604  0.758034  0.454331  1
  Rb  Rb7  1  0.902371  0.252970  0.548035  1
  Al  Al8  1  0.755241  0.993170  0.339899  1
  Al  Al9  1  0.245694  0.007400  0.659819  1
  Al  Al10  1  0.256240  0.007814  0.159446  1
  Al  Al11  1  0.743083  0.989009  0.841801  1
  Al  Al12  1  0.752397  0.462516  0.360975  1
  Al  Al13  1  0.247271  0.538595  0.638433  1
  Ga  Ga14  1  0.255273  0.537311  0.138396  1
  Ga  Ga15  1  0.744457  0.461228  0.861841  1
  Sn  Sn16  1  0.705311  0.748035  0.183111  1
  Sn  Sn17  1  0.294287  0.252285  0.816273  1
  Sn  Sn18  1  0.207228  0.250643  0.316001  1
  Sn  Sn19  1  0.793540  0.746777  0.683444  1
  Sn  Sn20  1  0.816436  0.709639  0.013325  1
  Sn  Sn21  1  0.184165  0.289073  0.987023  1
  Sn  Sn22  1  0.317200  0.289334  0.487104  1
  Sn  Sn23  1  0.683004  0.712241  0.511887  1
  Se  Se24  1  0.176858  0.931835  0.282584  1
  Se  Se25  1  0.822960  0.063351  0.719287  1
  Se  Se26  1  0.675223  0.066372  0.216725  1
  Se  Se27  1  0.325020  0.933254  0.783105  1
  Se  Se28  1  0.861291  0.726118  0.350261  1
  Se  Se29  1  0.139650  0.273809  0.651411  1
  Se  Se30  1  0.364984  0.270684  0.150889  1
  Se  Se31  1  0.634201  0.726803  0.849763  1
  Se  Se32  1  0.625555  0.757624  0.050245  1
  Se  Se33  1  0.374684  0.242170  0.949229  1
  Se  Se34  1  0.127213  0.240787  0.448415  1
  Se  Se35  1  0.873676  0.757144  0.550883  1
  Se  Se36  1  0.618166  0.487337  0.267086  1
  Se  Se37  1  0.381757  0.513258  0.732129  1
  Se  Se38  1  0.119057  0.512256  0.232496  1
  Se  Se39  1  0.880625  0.485028  0.767547  1
  Se  Se40  1  0.607647  0.977387  0.422165  1
  Se  Se41  1  0.393257  0.026019  0.577470  1
  Se  Se42  1  0.108073  0.026635  0.077417  1
  Se  Se43  1  0.891943  0.972666  0.923170  1
  Se  Se44  1  0.895014  0.706263  0.144889  1
  Se  Se45  1  0.105024  0.293502  0.855464  1
  Se  Se46  1  0.396210  0.294830  0.355606  1
  Se  Se47  1  0.604380  0.705410  0.643714  1
  Se  Se48  1  0.379678  0.779130  0.142305  1
  Se  Se49  1  0.620147  0.219037  0.858273  1
  Se  Se50  1  0.876974  0.225562  0.355716  1
  Se  Se51  1  0.123054  0.776743  0.642662  1
  Se  Se52  1  0.654727  0.394595  0.477402  1
  Se  Se53  1  0.340499  0.609259  0.520507  1
  Se  Se54  1  0.158548  0.608879  0.019500  1
  Se  Se55  1  0.841675  0.389959  0.980601  1
