# generated using pymatgen
data_Ho8Er2(InBi)3
_symmetry_space_group_name_H-M   'P 1'
_cell_length_a   9.02362000
_cell_length_b   9.02362123
_cell_length_c   6.53452900
_cell_angle_alpha   90.00000000
_cell_angle_beta   90.00000000
_cell_angle_gamma   120.00000281
_symmetry_Int_Tables_number   1
_chemical_formula_structural   Ho8Er2(InBi)3
_chemical_formula_sum   'Ho8 Er2 In3 Bi3'
_cell_volume   460.79373387
_cell_formula_units_Z   1
loop_
 _symmetry_equiv_pos_site_id
 _symmetry_equiv_pos_as_xyz
  1  'x, y, z'
loop_
 _atom_site_type_symbol
 _atom_site_label
 _atom_site_symmetry_multiplicity
 _atom_site_fract_x
 _atom_site_fract_y
 _atom_site_fract_z
 _atom_site_occupancy
  Ho  Ho0  1  0.666667  0.333333  0.007221  1
  Ho  Ho1  1  0.333333  0.666667  0.007221  1
  Ho  Ho2  1  0.763697  0.763697  0.749960  1
  Ho  Ho3  1  0.236303  0.000000  0.749960  1
  Ho  Ho4  1  0.000000  0.236303  0.749960  1
  Ho  Ho5  1  0.238046  0.238046  0.250037  1
  Ho  Ho6  1  0.761954  0.000000  0.250037  1
  Ho  Ho7  1  0.000000  0.761954  0.250037  1
  Er  Er8  1  0.333333  0.666667  0.492717  1
  Er  Er9  1  0.666667  0.333333  0.492717  1
  In  In10  1  0.606526  0.606526  0.250138  1
  In  In11  1  0.393474  0.000000  0.250138  1
  In  In12  1  0.000000  0.393474  0.250138  1
  Bi  Bi13  1  0.396006  0.396006  0.749907  1
  Bi  Bi14  1  0.603994  0.000000  0.749907  1
  Bi  Bi15  1  0.000000  0.603994  0.749907  1
