# generated using pymatgen
data_Dy17Tm3(SnPb7)2
_symmetry_space_group_name_H-M   'P 1'
_cell_length_a   8.18184300
_cell_length_b   8.25442024
_cell_length_c   15.62724800
_cell_angle_alpha   90.00000000
_cell_angle_beta   90.00000000
_cell_angle_gamma   90.01381304
_symmetry_Int_Tables_number   1
_chemical_formula_structural   Dy17Tm3(SnPb7)2
_chemical_formula_sum   'Dy17 Tm3 Sn2 Pb14'
_cell_volume   1055.40757951
_cell_formula_units_Z   1
loop_
 _symmetry_equiv_pos_site_id
 _symmetry_equiv_pos_as_xyz
  1  'x, y, z'
loop_
 _atom_site_type_symbol
 _atom_site_label
 _atom_site_symmetry_multiplicity
 _atom_site_fract_x
 _atom_site_fract_y
 _atom_site_fract_z
 _atom_site_occupancy
  Dy  Dy0  1  0.378165  0.839289  0.877108  1
  Dy  Dy1  1  0.877709  0.661019  0.622831  1
  Dy  Dy2  1  0.622272  0.158813  0.379502  1
  Dy  Dy3  1  0.122233  0.341162  0.120696  1
  Dy  Dy4  1  0.622272  0.158813  0.120498  1
  Dy  Dy5  1  0.122233  0.341162  0.379304  1
  Dy  Dy6  1  0.378165  0.839289  0.622892  1
  Dy  Dy7  1  0.877709  0.661019  0.877169  1
  Dy  Dy8  1  0.535580  0.326374  0.898753  1
  Dy  Dy9  1  0.035314  0.173306  0.601251  1
  Dy  Dy10  1  0.464530  0.676188  0.400402  1
  Dy  Dy11  1  0.964529  0.823827  0.099375  1
  Dy  Dy12  1  0.464530  0.676188  0.099598  1
  Dy  Dy13  1  0.964529  0.823827  0.400625  1
  Dy  Dy14  1  0.535580  0.326374  0.601247  1
  Dy  Dy15  1  0.035314  0.173306  0.898749  1
  Dy  Dy16  1  0.210755  0.507153  0.750000  1
  Tm  Tm17  1  0.710967  0.992457  0.750000  1
  Tm  Tm18  1  0.790744  0.495517  0.250000  1
  Tm  Tm19  1  0.290808  0.004393  0.250000  1
  Sn  Sn20  1  0.574860  0.624407  0.750000  1
  Sn  Sn21  1  0.073785  0.876422  0.750000  1
  Pb  Pb22  1  0.281715  0.032840  0.042447  1
  Pb  Pb23  1  0.781871  0.467222  0.457524  1
  Pb  Pb24  1  0.717454  0.966613  0.543158  1
  Pb  Pb25  1  0.217717  0.533694  0.957385  1
  Pb  Pb26  1  0.717454  0.966613  0.956842  1
  Pb  Pb27  1  0.217717  0.533694  0.542615  1
  Pb  Pb28  1  0.281715  0.032840  0.457553  1
  Pb  Pb29  1  0.781871  0.467222  0.042476  1
  Pb  Pb30  1  0.427683  0.374692  0.250000  1
  Pb  Pb31  1  0.927629  0.125106  0.250000  1
  Pb  Pb32  1  0.345668  0.152090  0.750000  1
  Pb  Pb33  1  0.845170  0.346819  0.750000  1
  Pb  Pb34  1  0.651971  0.845910  0.250000  1
  Pb  Pb35  1  0.151775  0.654343  0.250000  1
