# generated using pymatgen
data_Ho3In3RuAu2
_symmetry_space_group_name_H-M   'P 1'
_cell_length_a   7.80012200
_cell_length_b   7.80012304
_cell_length_c   3.83943400
_cell_angle_alpha   90.00000000
_cell_angle_beta   90.00000000
_cell_angle_gamma   119.99999561
_symmetry_Int_Tables_number   1
_chemical_formula_structural   Ho3In3RuAu2
_chemical_formula_sum   'Ho3 In3 Ru1 Au2'
_cell_volume   202.30224669
_cell_formula_units_Z   1
loop_
 _symmetry_equiv_pos_site_id
 _symmetry_equiv_pos_as_xyz
  1  'x, y, z'
loop_
 _atom_site_type_symbol
 _atom_site_label
 _atom_site_symmetry_multiplicity
 _atom_site_fract_x
 _atom_site_fract_y
 _atom_site_fract_z
 _atom_site_occupancy
  Ho  Ho0  1  0.395964  0.395964  0.500000  1
  Ho  Ho1  1  0.604036  0.000000  0.500000  1
  Ho  Ho2  1  0.000000  0.604036  0.500000  1
  In  In3  1  0.742590  0.742590  0.000000  1
  In  In4  1  0.257410  0.000000  0.000000  1
  In  In5  1  0.000000  0.257410  0.000000  1
  Ru  Ru6  1  0.000000  0.000000  0.500000  1
  Au  Au7  1  0.666667  0.333333  0.000000  1
  Au  Au8  1  0.333333  0.666667  0.000000  1
