# generated using pymatgen
data_Bi(S8Br)3
_symmetry_space_group_name_H-M   'P 1'
_cell_length_a   15.10887081
_cell_length_b   15.10887080
_cell_length_c   15.10887062
_cell_angle_alpha   118.79001587
_cell_angle_beta   118.79001376
_cell_angle_gamma   118.79000968
_symmetry_Int_Tables_number   1
_chemical_formula_structural   Bi(S8Br)3
_chemical_formula_sum   'Bi1 S24 Br3'
_cell_volume   980.25773139
_cell_formula_units_Z   1
loop_
 _symmetry_equiv_pos_site_id
 _symmetry_equiv_pos_as_xyz
  1  'x, y, z'
loop_
 _atom_site_type_symbol
 _atom_site_label
 _atom_site_symmetry_multiplicity
 _atom_site_fract_x
 _atom_site_fract_y
 _atom_site_fract_z
 _atom_site_occupancy
  Bi  Bi0  1  0.280473  0.280473  0.280473  1
  S  S1  1  0.013841  0.609395  0.609395  1
  S  S2  1  0.609395  0.609395  0.013841  1
  S  S3  1  0.609395  0.013841  0.609395  1
  S  S4  1  0.234662  0.845449  0.716680  1
  S  S5  1  0.845449  0.716680  0.234662  1
  S  S6  1  0.716680  0.234662  0.845449  1
  S  S7  1  0.845449  0.234662  0.716680  1
  S  S8  1  0.234662  0.716680  0.845449  1
  S  S9  1  0.716680  0.845449  0.234662  1
  S  S10  1  0.100341  0.628766  0.446551  1
  S  S11  1  0.628766  0.446551  0.100341  1
  S  S12  1  0.446551  0.100341  0.628766  1
  S  S13  1  0.628766  0.100341  0.446551  1
  S  S14  1  0.100341  0.446551  0.628766  1
  S  S15  1  0.446551  0.628766  0.100341  1
  S  S16  1  0.357960  0.745711  0.616311  1
  S  S17  1  0.745711  0.616311  0.357960  1
  S  S18  1  0.616311  0.357960  0.745711  1
  S  S19  1  0.745711  0.357960  0.616311  1
  S  S20  1  0.357960  0.616311  0.745711  1
  S  S21  1  0.616311  0.745711  0.357960  1
  S  S22  1  0.188445  0.467609  0.467609  1
  S  S23  1  0.467609  0.467609  0.188445  1
  S  S24  1  0.467609  0.188445  0.467609  1
  Br  Br25  1  0.108663  0.958404  0.958404  1
  Br  Br26  1  0.958404  0.958404  0.108663  1
  Br  Br27  1  0.958404  0.108663  0.958404  1
