# generated using pymatgen
data_Eu4GaSiIr4
_symmetry_space_group_name_H-M   'P 1'
_cell_length_a   5.82369947
_cell_length_b   5.82370008
_cell_length_c   7.63795400
_cell_angle_alpha   80.12724881
_cell_angle_beta   80.12723778
_cell_angle_gamma   61.06678006
_symmetry_Int_Tables_number   1
_chemical_formula_structural   Eu4GaSiIr4
_chemical_formula_sum   'Eu4 Ga1 Si1 Ir4'
_cell_volume   222.17465520
_cell_formula_units_Z   1
loop_
 _symmetry_equiv_pos_site_id
 _symmetry_equiv_pos_as_xyz
  1  'x, y, z'
loop_
 _atom_site_type_symbol
 _atom_site_label
 _atom_site_symmetry_multiplicity
 _atom_site_fract_x
 _atom_site_fract_y
 _atom_site_fract_z
 _atom_site_occupancy
  Eu  Eu0  1  0.990447  0.718745  0.140873  1
  Eu  Eu1  1  0.281255  0.009553  0.359127  1
  Eu  Eu2  1  0.011745  0.281972  0.858199  1
  Eu  Eu3  1  0.718028  0.988255  0.641801  1
  Ga  Ga4  1  0.410342  0.589658  0.750000  1
  Si  Si5  1  0.573550  0.426450  0.250000  1
  Ir  Ir6  1  0.498270  0.777011  0.001743  1
  Ir  Ir7  1  0.222989  0.501730  0.498257  1
  Ir  Ir8  1  0.515206  0.221833  0.020822  1
  Ir  Ir9  1  0.778167  0.484794  0.479178  1
