# generated using pymatgen
data_Ho3Tm(CO3)6
_symmetry_space_group_name_H-M   'P 1'
_cell_length_a   8.17631738
_cell_length_b   8.38959042
_cell_length_c   8.42665000
_cell_angle_alpha   119.86921002
_cell_angle_beta   90.04369895
_cell_angle_gamma   89.97462422
_symmetry_Int_Tables_number   1
_chemical_formula_structural   Ho3Tm(CO3)6
_chemical_formula_sum   'Ho3 Tm1 C6 O18'
_cell_volume   501.25050272
_cell_formula_units_Z   1
loop_
 _symmetry_equiv_pos_site_id
 _symmetry_equiv_pos_as_xyz
  1  'x, y, z'
loop_
 _atom_site_type_symbol
 _atom_site_label
 _atom_site_symmetry_multiplicity
 _atom_site_fract_x
 _atom_site_fract_y
 _atom_site_fract_z
 _atom_site_occupancy
  Ho  Ho0  1  0.966536  0.665535  0.332333  1
  Ho  Ho1  1  0.533256  0.667216  0.333298  1
  Ho  Ho2  1  0.466228  0.332774  0.666705  1
  Tm  Tm3  1  0.033774  0.334331  0.667561  1
  C  C4  1  0.248553  0.966006  0.376957  1
  C  C5  1  0.249211  0.411488  0.034674  1
  C  C6  1  0.750626  0.375254  0.412781  1
  C  C7  1  0.249397  0.624427  0.588779  1
  C  C8  1  0.750864  0.586938  0.963363  1
  C  C9  1  0.751523  0.035924  0.623477  1
  O  O10  1  0.112184  0.879403  0.323354  1
  O  O11  1  0.387352  0.883350  0.327670  1
  O  O12  1  0.750250  0.658532  0.142058  1
  O  O13  1  0.387460  0.446318  0.118307  1
  O  O14  1  0.112389  0.443332  0.119994  1
  O  O15  1  0.749964  0.482263  0.340222  1
  O  O16  1  0.751538  0.856623  0.515460  1
  O  O17  1  0.112509  0.676862  0.555195  1
  O  O18  1  0.387702  0.674000  0.554650  1
  O  O19  1  0.613169  0.322697  0.445036  1
  O  O20  1  0.888527  0.326755  0.449067  1
  O  O21  1  0.246498  0.145109  0.485921  1
  O  O22  1  0.248048  0.516403  0.660152  1
  O  O23  1  0.888707  0.552257  0.879197  1
  O  O24  1  0.613429  0.554046  0.878682  1
  O  O25  1  0.247817  0.341099  0.856173  1
  O  O26  1  0.613574  0.119703  0.675736  1
  O  O27  1  0.888914  0.121354  0.673201  1
