# generated using pymatgen
data_TbY2Sn3Ir2Pd
_symmetry_space_group_name_H-M   'P 1'
_cell_length_a   7.59722300
_cell_length_b   7.59742408
_cell_length_c   3.91197000
_cell_angle_alpha   90.00000000
_cell_angle_beta   90.00000000
_cell_angle_gamma   120.00296775
_symmetry_Int_Tables_number   1
_chemical_formula_structural   TbY2Sn3Ir2Pd
_chemical_formula_sum   'Tb1 Y2 Sn3 Ir2 Pd1'
_cell_volume   195.53945603
_cell_formula_units_Z   1
loop_
 _symmetry_equiv_pos_site_id
 _symmetry_equiv_pos_as_xyz
  1  'x, y, z'
loop_
 _atom_site_type_symbol
 _atom_site_label
 _atom_site_symmetry_multiplicity
 _atom_site_fract_x
 _atom_site_fract_y
 _atom_site_fract_z
 _atom_site_occupancy
  Tb  Tb0  1  0.410368  0.398216  0.000000  1
  Y  Y1  1  0.602252  0.012126  0.000000  1
  Y  Y2  1  0.987962  0.589986  0.000000  1
  Sn  Sn3  1  0.258367  0.997930  0.500000  1
  Sn  Sn4  1  0.001569  0.260186  0.500000  1
  Sn  Sn5  1  0.739932  0.741765  0.500000  1
  Ir  Ir6  1  0.666255  0.333238  0.500000  1
  Ir  Ir7  1  0.000035  0.999971  0.000000  1
  Pd  Pd8  1  0.333261  0.666582  0.500000  1
