# generated using pymatgen
data_ThMgNi4
_symmetry_space_group_name_H-M   'P 1'
_cell_length_a   5.02087200
_cell_length_b   5.02087155
_cell_length_c   5.02087200
_cell_angle_alpha   120.00000298
_cell_angle_beta   90.00000000
_cell_angle_gamma   120.00000298
_symmetry_Int_Tables_number   1
_chemical_formula_structural   ThMgNi4
_chemical_formula_sum   'Th1 Mg1 Ni4'
_cell_volume   89.49986360
_cell_formula_units_Z   1
loop_
 _symmetry_equiv_pos_site_id
 _symmetry_equiv_pos_as_xyz
  1  'x, y, z'
loop_
 _atom_site_type_symbol
 _atom_site_label
 _atom_site_symmetry_multiplicity
 _atom_site_fract_x
 _atom_site_fract_y
 _atom_site_fract_z
 _atom_site_occupancy
  Th  Th0  1  0.000000  0.000000  0.000000  1
  Mg  Mg1  1  0.750001  0.500001  0.250000  1
  Ni  Ni2  1  0.376581  0.753161  0.129741  1
  Ni  Ni3  1  0.870259  0.246840  0.623419  1
  Ni  Ni4  1  0.376581  0.246840  0.623420  1
  Ni  Ni5  1  0.376581  0.753161  0.623420  1
