# generated using pymatgen
data_Ho16In4Ru2PtRh
_symmetry_space_group_name_H-M   'P 1'
_cell_length_a   9.64862653
_cell_length_b   9.64023612
_cell_length_c   9.61400541
_cell_angle_alpha   59.90460698
_cell_angle_beta   59.88080238
_cell_angle_gamma   59.97120861
_symmetry_Int_Tables_number   1
_chemical_formula_structural   Ho16In4Ru2PtRh
_chemical_formula_sum   'Ho16 In4 Ru2 Pt1 Rh1'
_cell_volume   631.16365479
_cell_formula_units_Z   1
loop_
 _symmetry_equiv_pos_site_id
 _symmetry_equiv_pos_as_xyz
  1  'x, y, z'
loop_
 _atom_site_type_symbol
 _atom_site_label
 _atom_site_symmetry_multiplicity
 _atom_site_fract_x
 _atom_site_fract_y
 _atom_site_fract_z
 _atom_site_occupancy
  Ho  Ho0  1  0.189296  0.187935  0.809345  1
  Ho  Ho1  1  0.599991  0.597947  0.202070  1
  Ho  Ho2  1  0.441698  0.064336  0.438895  1
  Ho  Ho3  1  0.441069  0.438990  0.061328  1
  Ho  Ho4  1  0.813424  0.187935  0.809345  1
  Ho  Ho5  1  0.189030  0.808379  0.188410  1
  Ho  Ho6  1  0.441203  0.062350  0.055243  1
  Ho  Ho7  1  0.187300  0.811360  0.814040  1
  Ho  Ho8  1  0.058613  0.438990  0.061328  1
  Ho  Ho9  1  0.814181  0.808379  0.188410  1
  Ho  Ho10  1  0.202482  0.596855  0.600165  1
  Ho  Ho11  1  0.060388  0.439933  0.439290  1
  Ho  Ho12  1  0.055070  0.064336  0.438895  1
  Ho  Ho13  1  0.808510  0.191230  0.191750  1
  Ho  Ho14  1  0.598413  0.203372  0.599801  1
  Ho  Ho15  1  0.600498  0.596855  0.600165  1
  In  In16  1  0.833445  0.832707  0.832357  1
  In  In17  1  0.833216  0.832568  0.501002  1
  In  In18  1  0.501491  0.832707  0.832357  1
  In  In19  1  0.833785  0.499597  0.832834  1
  Ru  Ru20  1  0.390165  0.392676  0.392299  1
  Ru  Ru21  1  0.824859  0.392676  0.392299  1
  Pt  Pt22  1  0.391105  0.825060  0.392729  1
  Rh  Rh23  1  0.390767  0.392825  0.825642  1
