# generated using pymatgen
data_Ho3Er2P12Ru17Pt2
_symmetry_space_group_name_H-M   'P 1'
_cell_length_a   12.60397100
_cell_length_b   12.52193959
_cell_length_c   3.97994700
_cell_angle_alpha   90.00000000
_cell_angle_beta   90.00000000
_cell_angle_gamma   120.21694083
_symmetry_Int_Tables_number   1
_chemical_formula_structural   Ho3Er2P12Ru17Pt2
_chemical_formula_sum   'Ho3 Er2 P12 Ru17 Pt2'
_cell_volume   542.79192480
_cell_formula_units_Z   1
loop_
 _symmetry_equiv_pos_site_id
 _symmetry_equiv_pos_as_xyz
  1  'x, y, z'
loop_
 _atom_site_type_symbol
 _atom_site_label
 _atom_site_symmetry_multiplicity
 _atom_site_fract_x
 _atom_site_fract_y
 _atom_site_fract_z
 _atom_site_occupancy
  Ho  Ho0  1  0.001589  0.182748  0.500000  1
  Ho  Ho1  1  0.818840  0.817252  0.500000  1
  Ho  Ho2  1  0.183434  0.000000  0.500000  1
  Er  Er3  1  0.664075  0.326985  0.000000  1
  Er  Er4  1  0.337090  0.673015  0.000000  1
  P  P5  1  0.997459  0.812292  0.000000  1
  P  P6  1  0.185167  0.187708  0.000000  1
  P  P7  1  0.818765  0.000000  0.000000  1
  P  P8  1  0.692656  0.169434  0.500000  1
  P  P9  1  0.816464  0.515736  0.500000  1
  P  P10  1  0.477759  0.299317  0.500000  1
  P  P11  1  0.178442  0.700683  0.500000  1
  P  P12  1  0.523222  0.830566  0.500000  1
  P  P13  1  0.300727  0.484264  0.500000  1
  P  P14  1  0.000296  0.364692  0.000000  1
  P  P15  1  0.635604  0.635308  0.000000  1
  P  P16  1  0.372978  0.000000  0.000000  1
  Ru  Ru17  1  0.555185  0.000000  0.000000  1
  Ru  Ru18  1  0.997137  0.709322  0.500000  1
  Ru  Ru19  1  0.287815  0.290678  0.500000  1
  Ru  Ru20  1  0.719102  0.000000  0.500000  1
  Ru  Ru21  1  0.809061  0.184464  0.000000  1
  Ru  Ru22  1  0.812781  0.617964  0.000000  1
  Ru  Ru23  1  0.375863  0.192625  0.000000  1
  Ru  Ru24  1  0.183238  0.807375  0.000000  1
  Ru  Ru25  1  0.624597  0.815536  0.000000  1
  Ru  Ru26  1  0.194817  0.382036  0.000000  1
  Ru  Ru27  1  0.869923  0.364710  0.500000  1
  Ru  Ru28  1  0.628736  0.505471  0.500000  1
  Ru  Ru29  1  0.491794  0.124133  0.500000  1
  Ru  Ru30  1  0.367660  0.875867  0.500000  1
  Ru  Ru31  1  0.505213  0.635290  0.500000  1
  Ru  Ru32  1  0.123265  0.494529  0.500000  1
  Ru  Ru33  1  0.003056  0.000000  0.000000  1
  Pt  Pt34  1  0.997779  0.549371  0.000000  1
  Pt  Pt35  1  0.448408  0.450629  0.000000  1
