# generated using pymatgen
data_Mn2Al3FeRh6
_symmetry_space_group_name_H-M   'P 1'
_cell_length_a   4.28763100
_cell_length_b   6.03671900
_cell_length_c   12.84674400
_cell_angle_alpha   90.00000000
_cell_angle_beta   89.99997327
_cell_angle_gamma   90.00000000
_symmetry_Int_Tables_number   1
_chemical_formula_structural   Mn2Al3FeRh6
_chemical_formula_sum   'Mn4 Al6 Fe2 Rh12'
_cell_volume   332.51514649
_cell_formula_units_Z   2
loop_
 _symmetry_equiv_pos_site_id
 _symmetry_equiv_pos_as_xyz
  1  'x, y, z'
loop_
 _atom_site_type_symbol
 _atom_site_label
 _atom_site_symmetry_multiplicity
 _atom_site_fract_x
 _atom_site_fract_y
 _atom_site_fract_z
 _atom_site_occupancy
  Mn  Mn0  1  0.999998  0.000000  0.000006  1
  Mn  Mn1  1  0.499845  0.500000  0.166631  1
  Mn  Mn2  1  0.999845  0.000000  0.333369  1
  Mn  Mn3  1  0.499998  0.500000  0.499994  1
  Al  Al4  1  0.999993  0.500000  0.001212  1
  Al  Al5  1  0.499842  0.000000  0.166534  1
  Al  Al6  1  0.999842  0.500000  0.333467  1
  Al  Al7  1  0.499993  0.000000  0.498788  1
  Al  Al8  1  0.000187  0.500000  0.665409  1
  Al  Al9  1  0.500187  0.000000  0.834592  1
  Fe  Fe10  1  0.000145  0.000000  0.666331  1
  Fe  Fe11  1  0.500145  0.500000  0.833669  1
  Rh  Rh12  1  0.500000  0.252381  0.997978  1
  Rh  Rh13  1  0.500000  0.747620  0.997978  1
  Rh  Rh14  1  0.999856  0.249660  0.166524  1
  Rh  Rh15  1  0.999856  0.750341  0.166524  1
  Rh  Rh16  1  0.499856  0.250339  0.333477  1
  Rh  Rh17  1  0.499856  0.749662  0.333477  1
  Rh  Rh18  1  0.000000  0.247618  0.502022  1
  Rh  Rh19  1  0.000000  0.752383  0.502022  1
  Rh  Rh20  1  0.500139  0.248683  0.668447  1
  Rh  Rh21  1  0.500139  0.751318  0.668447  1
  Rh  Rh22  1  0.000139  0.251316  0.831552  1
  Rh  Rh23  1  0.000139  0.748685  0.831552  1
