# generated using pymatgen
data_Y8Co(Si4Au)3
_symmetry_space_group_name_H-M   'P 1'
_cell_length_a   8.14301600
_cell_length_b   8.14301488
_cell_length_c   8.22057600
_cell_angle_alpha   90.00000000
_cell_angle_beta   90.00000000
_cell_angle_gamma   119.99999644
_symmetry_Int_Tables_number   1
_chemical_formula_structural   Y8Co(Si4Au)3
_chemical_formula_sum   'Y8 Co1 Si12 Au3'
_cell_volume   472.06675048
_cell_formula_units_Z   1
loop_
 _symmetry_equiv_pos_site_id
 _symmetry_equiv_pos_as_xyz
  1  'x, y, z'
loop_
 _atom_site_type_symbol
 _atom_site_label
 _atom_site_symmetry_multiplicity
 _atom_site_fract_x
 _atom_site_fract_y
 _atom_site_fract_z
 _atom_site_occupancy
  Y  Y0  1  0.496662  0.993324  0.244064  1
  Y  Y1  1  0.495681  0.991362  0.756450  1
  Y  Y2  1  0.006676  0.503338  0.244064  1
  Y  Y3  1  0.008638  0.504319  0.756450  1
  Y  Y4  1  0.496662  0.503338  0.244064  1
  Y  Y5  1  0.495681  0.504319  0.756450  1
  Y  Y6  1  0.000000  0.000000  0.247859  1
  Y  Y7  1  0.000000  0.000000  0.751866  1
  Co  Co8  1  0.333333  0.666667  0.000011  1
  Si  Si9  1  0.174730  0.349461  0.002081  1
  Si  Si10  1  0.839390  0.678780  0.998083  1
  Si  Si11  1  0.650539  0.825270  0.002081  1
  Si  Si12  1  0.836286  0.672572  0.496629  1
  Si  Si13  1  0.321220  0.160610  0.998083  1
  Si  Si14  1  0.163064  0.326130  0.503274  1
  Si  Si15  1  0.174730  0.825270  0.002081  1
  Si  Si16  1  0.327428  0.163714  0.496629  1
  Si  Si17  1  0.839390  0.160610  0.998083  1
  Si  Si18  1  0.673870  0.836936  0.503274  1
  Si  Si19  1  0.836286  0.163714  0.496629  1
  Si  Si20  1  0.163064  0.836936  0.503274  1
  Au  Au21  1  0.666667  0.333333  0.999174  1
  Au  Au22  1  0.666667  0.333333  0.501411  1
  Au  Au23  1  0.333333  0.666667  0.497936  1
