# generated using pymatgen
data_Tb11In9AgRu3
_symmetry_space_group_name_H-M   'P 1'
_cell_length_a   3.72633000
_cell_length_b   13.19365556
_cell_length_c   13.19957287
_cell_angle_alpha   111.81264454
_cell_angle_beta   90.00000000
_cell_angle_gamma   90.00000000
_symmetry_Int_Tables_number   1
_chemical_formula_structural   Tb11In9AgRu3
_chemical_formula_sum   'Tb11 In9 Ag1 Ru3'
_cell_volume   602.48087402
_cell_formula_units_Z   1
loop_
 _symmetry_equiv_pos_site_id
 _symmetry_equiv_pos_as_xyz
  1  'x, y, z'
loop_
 _atom_site_type_symbol
 _atom_site_label
 _atom_site_symmetry_multiplicity
 _atom_site_fract_x
 _atom_site_fract_y
 _atom_site_fract_z
 _atom_site_occupancy
  Tb  Tb0  1  0.000000  0.940923  0.587250  1
  Tb  Tb1  1  0.000000  0.084795  0.419829  1
  Tb  Tb2  1  0.000000  0.580729  0.922155  1
  Tb  Tb3  1  0.000000  0.415187  0.075399  1
  Tb  Tb4  1  0.000000  0.160667  0.840846  1
  Tb  Tb5  1  0.000000  0.837326  0.161448  1
  Tb  Tb6  1  0.000000  0.375075  0.623348  1
  Tb  Tb7  1  0.000000  0.610492  0.358818  1
  Tb  Tb8  1  0.000000  0.676692  0.694454  1
  Tb  Tb9  1  0.000000  0.311825  0.312270  1
  Tb  Tb10  1  0.000000  0.998795  0.001683  1
  In  In11  1  0.500000  0.166086  0.633350  1
  In  In12  1  0.500000  0.847335  0.370111  1
  In  In13  1  0.500000  0.630650  0.161547  1
  In  In14  1  0.500000  0.366242  0.841246  1
  In  In15  1  0.500000  0.927577  0.783158  1
  In  In16  1  0.500000  0.075957  0.220302  1
  In  In17  1  0.500000  0.778233  0.920948  1
  In  In18  1  0.500000  0.218324  0.078279  1
  In  In19  1  0.500000  0.499700  0.497326  1
  Ag  Ag20  1  0.500000  0.751596  0.548329  1
  Ru  Ru21  1  0.500000  0.253289  0.451723  1
  Ru  Ru22  1  0.500000  0.547214  0.753150  1
  Ru  Ru23  1  0.500000  0.445292  0.243030  1
