# generated using pymatgen
data_Li5Ti6VIr12
_symmetry_space_group_name_H-M   'P 1'
_cell_length_a   4.29415100
_cell_length_b   6.03070200
_cell_length_c   12.86118500
_cell_angle_alpha   89.99992190
_cell_angle_beta   89.99927890
_cell_angle_gamma   89.99997716
_symmetry_Int_Tables_number   1
_chemical_formula_structural   Li5Ti6VIr12
_chemical_formula_sum   'Li5 Ti6 V1 Ir12'
_cell_volume   333.06282864
_cell_formula_units_Z   1
loop_
 _symmetry_equiv_pos_site_id
 _symmetry_equiv_pos_as_xyz
  1  'x, y, z'
loop_
 _atom_site_type_symbol
 _atom_site_label
 _atom_site_symmetry_multiplicity
 _atom_site_fract_x
 _atom_site_fract_y
 _atom_site_fract_z
 _atom_site_occupancy
  Li  Li0  1  0.499850  0.000000  0.167351  1
  Li  Li1  1  0.999830  0.500000  0.333876  1
  Li  Li2  1  0.500001  0.000000  0.500000  1
  Li  Li3  1  0.000169  0.500000  0.666124  1
  Li  Li4  1  0.500149  0.000000  0.832648  1
  Ti  Ti5  1  0.000000  0.000000  0.000000  1
  Ti  Ti6  1  0.499868  0.500000  0.175173  1
  Ti  Ti7  1  0.999845  0.999999  0.337992  1
  Ti  Ti8  1  0.500001  0.500000  0.500000  1
  Ti  Ti9  1  0.000154  0.000001  0.662009  1
  Ti  Ti10  1  0.500131  0.500000  0.824827  1
  V  V11  1  0.000000  0.500000  0.000000  1
  Ir  Ir12  1  0.500001  0.254759  0.000000  1
  Ir  Ir13  1  0.500001  0.745242  0.000000  1
  Ir  Ir14  1  0.999868  0.249934  0.164456  1
  Ir  Ir15  1  0.999868  0.750067  0.164456  1
  Ir  Ir16  1  0.499849  0.247552  0.333357  1
  Ir  Ir17  1  0.499848  0.752448  0.333358  1
  Ir  Ir18  1  0.999999  0.251585  0.500000  1
  Ir  Ir19  1  0.000001  0.748415  0.500000  1
  Ir  Ir20  1  0.500152  0.247552  0.666643  1
  Ir  Ir21  1  0.500151  0.752448  0.666644  1
  Ir  Ir22  1  0.000134  0.249933  0.835544  1
  Ir  Ir23  1  0.000134  0.750066  0.835544  1
