# generated using pymatgen
data_Li4Nd4Si7Ge
_symmetry_space_group_name_H-M   'P 1'
_cell_length_a   3.89814200
_cell_length_b   7.73518230
_cell_length_c   10.51874276
_cell_angle_alpha   89.93358822
_cell_angle_beta   90.00000000
_cell_angle_gamma   90.00000000
_symmetry_Int_Tables_number   1
_chemical_formula_structural   Li4Nd4Si7Ge
_chemical_formula_sum   'Li4 Nd4 Si7 Ge1'
_cell_volume   317.16974403
_cell_formula_units_Z   1
loop_
 _symmetry_equiv_pos_site_id
 _symmetry_equiv_pos_as_xyz
  1  'x, y, z'
loop_
 _atom_site_type_symbol
 _atom_site_label
 _atom_site_symmetry_multiplicity
 _atom_site_fract_x
 _atom_site_fract_y
 _atom_site_fract_z
 _atom_site_occupancy
  Li  Li0  1  0.250000  0.492373  0.390767  1
  Li  Li1  1  0.250000  0.991786  0.110097  1
  Li  Li2  1  0.750000  0.508977  0.607251  1
  Li  Li3  1  0.750000  0.006485  0.890772  1
  Nd  Nd4  1  0.250000  0.137022  0.633028  1
  Nd  Nd5  1  0.250000  0.644355  0.866121  1
  Nd  Nd6  1  0.750000  0.859893  0.365287  1
  Nd  Nd7  1  0.750000  0.360483  0.136045  1
  Si  Si8  1  0.250000  0.223938  0.931113  1
  Si  Si9  1  0.250000  0.728134  0.571864  1
  Si  Si10  1  0.750000  0.772097  0.072372  1
  Si  Si11  1  0.750000  0.271816  0.428006  1
  Si  Si12  1  0.250000  0.160857  0.322523  1
  Si  Si13  1  0.250000  0.661337  0.177922  1
  Si  Si14  1  0.750000  0.838480  0.678076  1
  Ge  Ge15  1  0.750000  0.341969  0.818755  1
