# generated using pymatgen
data_TbY3Al4Ir3Au
_symmetry_space_group_name_H-M   'P 1'
_cell_length_a   4.38563200
_cell_length_b   6.89922700
_cell_length_c   7.87520414
_cell_angle_alpha   89.87984135
_cell_angle_beta   90.00000000
_cell_angle_gamma   90.00000000
_symmetry_Int_Tables_number   1
_chemical_formula_structural   TbY3Al4Ir3Au
_chemical_formula_sum   'Tb1 Y3 Al4 Ir3 Au1'
_cell_volume   238.28323461
_cell_formula_units_Z   1
loop_
 _symmetry_equiv_pos_site_id
 _symmetry_equiv_pos_as_xyz
  1  'x, y, z'
loop_
 _atom_site_type_symbol
 _atom_site_label
 _atom_site_symmetry_multiplicity
 _atom_site_fract_x
 _atom_site_fract_y
 _atom_site_fract_z
 _atom_site_occupancy
  Tb  Tb0  1  0.750000  0.972938  0.679970  1
  Y  Y1  1  0.250000  0.021656  0.323895  1
  Y  Y2  1  0.250000  0.537408  0.183408  1
  Y  Y3  1  0.750000  0.480253  0.812053  1
  Al  Al4  1  0.250000  0.140021  0.930307  1
  Al  Al5  1  0.250000  0.644036  0.564442  1
  Al  Al6  1  0.750000  0.843842  0.062188  1
  Al  Al7  1  0.750000  0.361330  0.443212  1
  Ir  Ir8  1  0.250000  0.271123  0.616303  1
  Ir  Ir9  1  0.250000  0.770774  0.883447  1
  Ir  Ir10  1  0.750000  0.730174  0.382443  1
  Au  Au11  1  0.750000  0.226445  0.118332  1
