# generated using pymatgen
data_NaMn6O12
_symmetry_space_group_name_H-M   'P 1'
_cell_length_a   8.24626015
_cell_length_b   8.24626081
_cell_length_c   9.82699735
_cell_angle_alpha   54.08844231
_cell_angle_beta   54.08843662
_cell_angle_gamma   65.14978902
_symmetry_Int_Tables_number   1
_chemical_formula_structural   NaMn6O12
_chemical_formula_sum   'Na2 Mn12 O24'
_cell_volume   435.38236473
_cell_formula_units_Z   2
loop_
 _symmetry_equiv_pos_site_id
 _symmetry_equiv_pos_as_xyz
  1  'x, y, z'
loop_
 _atom_site_type_symbol
 _atom_site_label
 _atom_site_symmetry_multiplicity
 _atom_site_fract_x
 _atom_site_fract_y
 _atom_site_fract_z
 _atom_site_occupancy
  Na  Na0  1  0.752970  0.247030  0.000000  1
  Na  Na1  1  0.247030  0.752970  0.000000  1
  Mn  Mn2  1  0.332899  0.332899  0.820066  1
  Mn  Mn3  1  0.003297  0.667441  0.816179  1
  Mn  Mn4  1  0.667441  0.003297  0.816179  1
  Mn  Mn5  1  0.996703  0.332559  0.183821  1
  Mn  Mn6  1  0.667101  0.667101  0.179934  1
  Mn  Mn7  1  0.332559  0.996703  0.183821  1
  Mn  Mn8  1  0.145287  0.145287  0.526634  1
  Mn  Mn9  1  0.485087  0.816637  0.516070  1
  Mn  Mn10  1  0.816637  0.485087  0.516070  1
  Mn  Mn11  1  0.854713  0.854713  0.473366  1
  Mn  Mn12  1  0.183363  0.514913  0.483930  1
  Mn  Mn13  1  0.514913  0.183363  0.483930  1
  O  O14  1  0.340504  0.340504  0.618185  1
  O  O15  1  0.014693  0.677006  0.612350  1
  O  O16  1  0.677006  0.014693  0.612350  1
  O  O17  1  0.985307  0.322994  0.387650  1
  O  O18  1  0.659496  0.659496  0.381815  1
  O  O19  1  0.322994  0.985307  0.387650  1
  O  O20  1  0.338226  0.338226  0.363193  1
  O  O21  1  0.020874  0.667703  0.351154  1
  O  O22  1  0.667703  0.020874  0.351154  1
  O  O23  1  0.979126  0.332297  0.648846  1
  O  O24  1  0.661774  0.661774  0.636807  1
  O  O25  1  0.332297  0.979126  0.648846  1
  O  O26  1  0.621169  0.292070  0.719783  1
  O  O27  1  0.292070  0.621169  0.719783  1
  O  O28  1  0.954987  0.954987  0.722270  1
  O  O29  1  0.707930  0.378831  0.280217  1
  O  O30  1  0.378831  0.707930  0.280217  1
  O  O31  1  0.045013  0.045013  0.277730  1
  O  O32  1  0.963260  0.627421  0.055462  1
  O  O33  1  0.627421  0.963260  0.055462  1
  O  O34  1  0.295055  0.295055  0.052628  1
  O  O35  1  0.372579  0.036740  0.944538  1
  O  O36  1  0.036740  0.372579  0.944538  1
  O  O37  1  0.704945  0.704945  0.947372  1
