# generated using pymatgen
data_Tb11Ho9CoBi8Ru3
_symmetry_space_group_name_H-M   'P 1'
_cell_length_a   7.99624455
_cell_length_b   8.98552500
_cell_length_c   12.48678387
_cell_angle_alpha   90.00000000
_cell_angle_beta   90.13996059
_cell_angle_gamma   90.00000000
_symmetry_Int_Tables_number   1
_chemical_formula_structural   Tb11Ho9CoBi8Ru3
_chemical_formula_sum   'Tb11 Ho9 Co1 Bi8 Ru3'
_cell_volume   897.17843012
_cell_formula_units_Z   1
loop_
 _symmetry_equiv_pos_site_id
 _symmetry_equiv_pos_as_xyz
  1  'x, y, z'
loop_
 _atom_site_type_symbol
 _atom_site_label
 _atom_site_symmetry_multiplicity
 _atom_site_fract_x
 _atom_site_fract_y
 _atom_site_fract_z
 _atom_site_occupancy
  Tb  Tb0  1  0.846689  0.750000  0.800037  1
  Tb  Tb1  1  0.344733  0.250000  0.706736  1
  Tb  Tb2  1  0.654203  0.750000  0.294700  1
  Tb  Tb3  1  0.377552  0.750000  0.693880  1
  Tb  Tb4  1  0.620968  0.250000  0.306985  1
  Tb  Tb5  1  0.877972  0.250000  0.808094  1
  Tb  Tb6  1  0.119027  0.750000  0.188101  1
  Tb  Tb7  1  0.946178  0.750000  0.504606  1
  Tb  Tb8  1  0.053803  0.250000  0.495799  1
  Tb  Tb9  1  0.448419  0.250000  0.996535  1
  Tb  Tb10  1  0.551060  0.750000  0.003635  1
  Ho  Ho11  1  0.154719  0.250000  0.204729  1
  Ho  Ho12  1  0.674758  0.041537  0.564244  1
  Ho  Ho13  1  0.324391  0.957611  0.435630  1
  Ho  Ho14  1  0.175294  0.957425  0.935989  1
  Ho  Ho15  1  0.324391  0.542389  0.435630  1
  Ho  Ho16  1  0.826063  0.036985  0.062950  1
  Ho  Ho17  1  0.674758  0.458463  0.564244  1
  Ho  Ho18  1  0.826063  0.463015  0.062950  1
  Ho  Ho19  1  0.175294  0.542575  0.935989  1
  Co  Co20  1  0.933208  0.750000  0.009011  1
  Bi  Bi21  1  0.571876  0.492567  0.827460  1
  Bi  Bi22  1  0.428647  0.507131  0.172529  1
  Bi  Bi23  1  0.070079  0.507537  0.673155  1
  Bi  Bi24  1  0.428647  0.992869  0.172529  1
  Bi  Bi25  1  0.929821  0.492451  0.326291  1
  Bi  Bi26  1  0.571876  0.007433  0.827460  1
  Bi  Bi27  1  0.929821  0.007549  0.326291  1
  Bi  Bi28  1  0.070079  0.992463  0.673155  1
  Ru  Ru29  1  0.572058  0.750000  0.511106  1
  Ru  Ru30  1  0.426768  0.250000  0.489155  1
  Ru  Ru31  1  0.070786  0.250000  0.990393  1
