# generated using pymatgen
data_CeEr7AlPt24
_symmetry_space_group_name_H-M   'P 1'
_cell_length_a   8.33765238
_cell_length_b   8.33765204
_cell_length_c   8.33765273
_cell_angle_alpha   90.02877505
_cell_angle_beta   89.97122533
_cell_angle_gamma   89.97122062
_symmetry_Int_Tables_number   1
_chemical_formula_structural   CeEr7AlPt24
_chemical_formula_sum   'Ce1 Er7 Al1 Pt24'
_cell_volume   579.60375274
_cell_formula_units_Z   1
loop_
 _symmetry_equiv_pos_site_id
 _symmetry_equiv_pos_as_xyz
  1  'x, y, z'
loop_
 _atom_site_type_symbol
 _atom_site_label
 _atom_site_symmetry_multiplicity
 _atom_site_fract_x
 _atom_site_fract_y
 _atom_site_fract_z
 _atom_site_occupancy
  Ce  Ce0  1  0.747605  0.252395  0.252395  1
  Er  Er1  1  0.251234  0.251366  0.251366  1
  Er  Er2  1  0.748683  0.748448  0.748448  1
  Er  Er3  1  0.748634  0.748766  0.251366  1
  Er  Er4  1  0.748634  0.251366  0.748766  1
  Er  Er5  1  0.251552  0.251317  0.748448  1
  Er  Er6  1  0.251552  0.748448  0.251317  1
  Er  Er7  1  0.251541  0.748459  0.748459  1
  Al  Al8  1  0.000139  0.999861  0.999861  1
  Pt  Pt9  1  0.260857  0.500173  0.999515  1
  Pt  Pt10  1  0.739130  0.500119  0.999436  1
  Pt  Pt11  1  0.000564  0.260870  0.500119  1
  Pt  Pt12  1  0.499881  0.260870  0.999436  1
  Pt  Pt13  1  0.000485  0.739143  0.500173  1
  Pt  Pt14  1  0.499827  0.739143  0.999515  1
  Pt  Pt15  1  0.499881  0.999436  0.260870  1
  Pt  Pt16  1  0.260857  0.999515  0.500173  1
  Pt  Pt17  1  0.499827  0.999515  0.739143  1
  Pt  Pt18  1  0.739130  0.999436  0.500119  1
  Pt  Pt19  1  0.000564  0.500119  0.260870  1
  Pt  Pt20  1  0.000485  0.500173  0.739143  1
  Pt  Pt21  1  0.253169  0.500341  0.500341  1
  Pt  Pt22  1  0.746598  0.500750  0.500750  1
  Pt  Pt23  1  0.499250  0.253402  0.500750  1
  Pt  Pt24  1  0.499659  0.746831  0.500341  1
  Pt  Pt25  1  0.499250  0.500750  0.253402  1
  Pt  Pt26  1  0.499659  0.500341  0.746831  1
  Pt  Pt27  1  0.291412  0.999878  0.999878  1
  Pt  Pt28  1  0.707877  0.999087  0.999087  1
  Pt  Pt29  1  0.000913  0.292123  0.999087  1
  Pt  Pt30  1  0.000122  0.708588  0.999878  1
  Pt  Pt31  1  0.000913  0.999087  0.292123  1
  Pt  Pt32  1  0.000122  0.999878  0.708588  1
