# generated using pymatgen
data_LiTb16Al3Co4
_symmetry_space_group_name_H-M   'P 1'
_cell_length_a   9.49882817
_cell_length_b   9.49882798
_cell_length_c   9.49882851
_cell_angle_alpha   59.67714642
_cell_angle_beta   59.67714416
_cell_angle_gamma   59.67714068
_symmetry_Int_Tables_number   1
_chemical_formula_structural   LiTb16Al3Co4
_chemical_formula_sum   'Li1 Tb16 Al3 Co4'
_cell_volume   601.58632323
_cell_formula_units_Z   1
loop_
 _symmetry_equiv_pos_site_id
 _symmetry_equiv_pos_as_xyz
  1  'x, y, z'
loop_
 _atom_site_type_symbol
 _atom_site_label
 _atom_site_symmetry_multiplicity
 _atom_site_fract_x
 _atom_site_fract_y
 _atom_site_fract_z
 _atom_site_occupancy
  Li  Li0  1  0.570300  0.570300  0.570300  1
  Tb  Tb1  1  0.807486  0.192779  0.192779  1
  Tb  Tb2  1  0.187051  0.811655  0.811655  1
  Tb  Tb3  1  0.192779  0.807486  0.192779  1
  Tb  Tb4  1  0.811655  0.187051  0.811655  1
  Tb  Tb5  1  0.192779  0.192779  0.807486  1
  Tb  Tb6  1  0.811655  0.811655  0.187051  1
  Tb  Tb7  1  0.942510  0.562143  0.562144  1
  Tb  Tb8  1  0.561247  0.939731  0.939732  1
  Tb  Tb9  1  0.562144  0.942510  0.562144  1
  Tb  Tb10  1  0.939731  0.561247  0.939732  1
  Tb  Tb11  1  0.562144  0.562143  0.942511  1
  Tb  Tb12  1  0.939731  0.939731  0.561248  1
  Tb  Tb13  1  0.347848  0.347848  0.347848  1
  Tb  Tb14  1  0.348367  0.348367  0.955448  1
  Tb  Tb15  1  0.348367  0.955448  0.348367  1
  Tb  Tb16  1  0.955448  0.348367  0.348367  1
  Al  Al17  1  0.574294  0.574294  0.267536  1
  Al  Al18  1  0.574294  0.267536  0.574294  1
  Al  Al19  1  0.267536  0.574294  0.574294  1
  Co  Co20  1  0.142341  0.142341  0.142341  1
  Co  Co21  1  0.141166  0.141166  0.577959  1
  Co  Co22  1  0.141166  0.577959  0.141166  1
  Co  Co23  1  0.577959  0.141166  0.141166  1
