# generated using pymatgen
data_Ca3U5Re3TcB24
_symmetry_space_group_name_H-M   'P 1'
_cell_length_a   3.64722000
_cell_length_b   9.28849193
_cell_length_c   11.40880301
_cell_angle_alpha   90.02383870
_cell_angle_beta   90.00000000
_cell_angle_gamma   90.00000000
_symmetry_Int_Tables_number   1
_chemical_formula_structural   Ca3U5Re3TcB24
_chemical_formula_sum   'Ca3 U5 Re3 Tc1 B24'
_cell_volume   386.49796573
_cell_formula_units_Z   1
loop_
 _symmetry_equiv_pos_site_id
 _symmetry_equiv_pos_as_xyz
  1  'x, y, z'
loop_
 _atom_site_type_symbol
 _atom_site_label
 _atom_site_symmetry_multiplicity
 _atom_site_fract_x
 _atom_site_fract_y
 _atom_site_fract_z
 _atom_site_occupancy
  Ca  Ca0  1  0.000000  0.338819  0.407986  1
  Ca  Ca1  1  0.000000  0.661256  0.589977  1
  Ca  Ca2  1  0.000000  0.836006  0.093145  1
  U  U3  1  0.000000  0.163098  0.908341  1
  U  U4  1  0.000000  0.954780  0.395289  1
  U  U5  1  0.000000  0.042927  0.602808  1
  U  U6  1  0.000000  0.458406  0.105612  1
  U  U7  1  0.000000  0.544340  0.896575  1
  Re  Re8  1  0.000000  0.349672  0.687039  1
  Re  Re9  1  0.000000  0.146728  0.176587  1
  Re  Re10  1  0.000000  0.859005  0.819574  1
  Tc  Tc11  1  0.000000  0.647075  0.317137  1
  B  B12  1  0.500000  0.552505  0.431039  1
  B  B13  1  0.500000  0.446454  0.570686  1
  B  B14  1  0.500000  0.053638  0.067649  1
  B  B15  1  0.500000  0.950266  0.930144  1
  B  B16  1  0.500000  0.743111  0.422118  1
  B  B17  1  0.500000  0.255866  0.578242  1
  B  B18  1  0.500000  0.243190  0.076005  1
  B  B19  1  0.500000  0.756524  0.921928  1
  B  B20  1  0.500000  0.801866  0.274837  1
  B  B21  1  0.500000  0.196273  0.727261  1
  B  B22  1  0.500000  0.302201  0.225036  1
  B  B23  1  0.500000  0.699082  0.775145  1
  B  B24  1  0.500000  0.643081  0.189074  1
  B  B25  1  0.500000  0.354534  0.812845  1
  B  B26  1  0.500000  0.143400  0.310113  1
  B  B27  1  0.500000  0.857027  0.688720  1
  B  B28  1  0.500000  0.990208  0.218986  1
  B  B29  1  0.500000  0.013360  0.781593  1
  B  B30  1  0.500000  0.489979  0.280867  1
  B  B31  1  0.500000  0.510033  0.719690  1
  B  B32  1  0.500000  0.638561  0.038127  1
  B  B33  1  0.500000  0.357445  0.960907  1
  B  B34  1  0.500000  0.136811  0.461031  1
  B  B35  1  0.500000  0.862473  0.537886  1
