# generated using pymatgen
data_Y2Sc3Pt4
_symmetry_space_group_name_H-M   'P 1'
_cell_length_a   7.28499900
_cell_length_b   7.30426100
_cell_length_c   14.18303500
_cell_angle_alpha   90.00000000
_cell_angle_beta   90.00000000
_cell_angle_gamma   90.00000000
_symmetry_Int_Tables_number   1
_chemical_formula_structural   Y2Sc3Pt4
_chemical_formula_sum   'Y8 Sc12 Pt16'
_cell_volume   754.70105027
_cell_formula_units_Z   4
loop_
 _symmetry_equiv_pos_site_id
 _symmetry_equiv_pos_as_xyz
  1  'x, y, z'
loop_
 _atom_site_type_symbol
 _atom_site_label
 _atom_site_symmetry_multiplicity
 _atom_site_fract_x
 _atom_site_fract_y
 _atom_site_fract_z
 _atom_site_occupancy
  Y  Y0  1  0.003422  0.823146  0.407081  1
  Y  Y1  1  0.503422  0.676854  0.092919  1
  Y  Y2  1  0.496578  0.323146  0.592919  1
  Y  Y3  1  0.996578  0.176854  0.907081  1
  Y  Y4  1  0.996578  0.176854  0.592919  1
  Y  Y5  1  0.496578  0.323146  0.907081  1
  Y  Y6  1  0.503422  0.676854  0.407081  1
  Y  Y7  1  0.003422  0.823146  0.092919  1
  Sc  Sc8  1  0.679066  0.997149  0.250000  1
  Sc  Sc9  1  0.179066  0.502851  0.250000  1
  Sc  Sc10  1  0.820934  0.497149  0.750000  1
  Sc  Sc11  1  0.320934  0.002851  0.750000  1
  Sc  Sc12  1  0.654974  0.832276  0.624473  1
  Sc  Sc13  1  0.154974  0.667724  0.875527  1
  Sc  Sc14  1  0.845026  0.332276  0.375527  1
  Sc  Sc15  1  0.345026  0.167724  0.124473  1
  Sc  Sc16  1  0.345026  0.167724  0.375527  1
  Sc  Sc17  1  0.845026  0.332276  0.124473  1
  Sc  Sc18  1  0.154974  0.667724  0.624473  1
  Sc  Sc19  1  0.654974  0.832276  0.875527  1
  Pt  Pt20  1  0.814757  0.641764  0.250000  1
  Pt  Pt21  1  0.314757  0.858236  0.250000  1
  Pt  Pt22  1  0.685243  0.141764  0.750000  1
  Pt  Pt23  1  0.185243  0.358236  0.750000  1
  Pt  Pt24  1  0.542705  0.377522  0.250000  1
  Pt  Pt25  1  0.042705  0.122478  0.250000  1
  Pt  Pt26  1  0.957295  0.877522  0.750000  1
  Pt  Pt27  1  0.457295  0.622478  0.750000  1
  Pt  Pt28  1  0.821303  0.541880  0.541698  1
  Pt  Pt29  1  0.321303  0.958120  0.958302  1
  Pt  Pt30  1  0.678697  0.041880  0.458302  1
  Pt  Pt31  1  0.178697  0.458120  0.041698  1
  Pt  Pt32  1  0.178697  0.458120  0.458302  1
  Pt  Pt33  1  0.678697  0.041880  0.041698  1
  Pt  Pt34  1  0.321303  0.958120  0.541698  1
  Pt  Pt35  1  0.821303  0.541880  0.958302  1
