# generated using pymatgen
data_Pr4Ga9GeAu6
_symmetry_space_group_name_H-M   'P 1'
_cell_length_a   6.25992803
_cell_length_b   8.78119237
_cell_length_c   8.77216521
_cell_angle_alpha   75.46111893
_cell_angle_beta   69.09581303
_cell_angle_gamma   69.11831568
_symmetry_Int_Tables_number   1
_chemical_formula_structural   Pr4Ga9GeAu6
_chemical_formula_sum   'Pr4 Ga9 Ge1 Au6'
_cell_volume   416.61709872
_cell_formula_units_Z   1
loop_
 _symmetry_equiv_pos_site_id
 _symmetry_equiv_pos_as_xyz
  1  'x, y, z'
loop_
 _atom_site_type_symbol
 _atom_site_label
 _atom_site_symmetry_multiplicity
 _atom_site_fract_x
 _atom_site_fract_y
 _atom_site_fract_z
 _atom_site_occupancy
  Pr  Pr0  1  0.873156  0.864724  0.388961  1
  Pr  Pr1  1  0.124957  0.135195  0.614892  1
  Pr  Pr2  1  0.373452  0.388384  0.864710  1
  Pr  Pr3  1  0.627823  0.610506  0.133847  1
  Ga  Ga4  1  0.250956  0.501036  0.497996  1
  Ga  Ga5  1  0.750012  0.501036  0.497996  1
  Ga  Ga6  1  0.017335  0.230149  0.235056  1
  Ga  Ga7  1  0.479165  0.769033  0.767656  1
  Ga  Ga8  1  0.984146  0.769033  0.767656  1
  Ga  Ga9  1  0.517460  0.230149  0.235056  1
  Ga  Ga10  1  0.617013  0.029390  0.736582  1
  Ga  Ga11  1  0.384562  0.968493  0.262384  1
  Ga  Ga12  1  0.116153  0.736146  0.031547  1
  Ge  Ge13  1  0.882666  0.265707  0.968963  1
  Au  Au14  1  0.250409  0.999008  0.000522  1
  Au  Au15  1  0.750060  0.999008  0.000522  1
  Au  Au16  1  0.633168  0.246797  0.486867  1
  Au  Au17  1  0.366557  0.753717  0.513166  1
  Au  Au18  1  0.135454  0.483757  0.245336  1
  Au  Au19  1  0.865491  0.518734  0.750284  1
