# generated using pymatgen
data_Tb8InHgRu2
_symmetry_space_group_name_H-M   'P 1'
_cell_length_a   9.63034426
_cell_length_b   9.63034487
_cell_length_c   9.67069800
_cell_angle_alpha   59.86129890
_cell_angle_beta   59.86129681
_cell_angle_gamma   59.87642632
_symmetry_Int_Tables_number   1
_chemical_formula_structural   Tb8InHgRu2
_chemical_formula_sum   'Tb16 In2 Hg2 Ru4'
_cell_volume   632.27683317
_cell_formula_units_Z   2
loop_
 _symmetry_equiv_pos_site_id
 _symmetry_equiv_pos_as_xyz
  1  'x, y, z'
loop_
 _atom_site_type_symbol
 _atom_site_label
 _atom_site_symmetry_multiplicity
 _atom_site_fract_x
 _atom_site_fract_y
 _atom_site_fract_z
 _atom_site_occupancy
  Tb  Tb0  1  0.808539  0.808539  0.191461  1
  Tb  Tb1  1  0.811075  0.190738  0.807925  1
  Tb  Tb2  1  0.189602  0.189602  0.810398  1
  Tb  Tb3  1  0.651207  0.046111  0.651340  1
  Tb  Tb4  1  0.060529  0.060529  0.439471  1
  Tb  Tb5  1  0.440915  0.440915  0.059085  1
  Tb  Tb6  1  0.651771  0.651771  0.651609  1
  Tb  Tb7  1  0.811075  0.190738  0.190261  1
  Tb  Tb8  1  0.190738  0.811075  0.807925  1
  Tb  Tb9  1  0.046111  0.651207  0.651340  1
  Tb  Tb10  1  0.440803  0.062104  0.057743  1
  Tb  Tb11  1  0.440803  0.062104  0.439350  1
  Tb  Tb12  1  0.062104  0.440803  0.057743  1
  Tb  Tb13  1  0.651771  0.651771  0.044850  1
  Tb  Tb14  1  0.190738  0.811075  0.190261  1
  Tb  Tb15  1  0.062104  0.440803  0.439350  1
  In  In16  1  0.418419  0.742795  0.419393  1
  In  In17  1  0.742795  0.418419  0.419393  1
  Hg  Hg18  1  0.415293  0.415293  0.414782  1
  Hg  Hg19  1  0.415293  0.415293  0.754630  1
  Ru  Ru20  1  0.859014  0.419165  0.860911  1
  Ru  Ru21  1  0.860067  0.860067  0.861968  1
  Ru  Ru22  1  0.860067  0.860067  0.417900  1
  Ru  Ru23  1  0.419165  0.859014  0.860911  1
