# generated using pymatgen
data_Y4Sc4B24IrRh3
_symmetry_space_group_name_H-M   'P 1'
_cell_length_a   3.55754400
_cell_length_b   9.01586323
_cell_length_c   11.38190029
_cell_angle_alpha   89.97407977
_cell_angle_beta   90.00000000
_cell_angle_gamma   90.00000000
_symmetry_Int_Tables_number   1
_chemical_formula_structural   Y4Sc4B24IrRh3
_chemical_formula_sum   'Y4 Sc4 B24 Ir1 Rh3'
_cell_volume   365.06679021
_cell_formula_units_Z   1
loop_
 _symmetry_equiv_pos_site_id
 _symmetry_equiv_pos_as_xyz
  1  'x, y, z'
loop_
 _atom_site_type_symbol
 _atom_site_label
 _atom_site_symmetry_multiplicity
 _atom_site_fract_x
 _atom_site_fract_y
 _atom_site_fract_z
 _atom_site_occupancy
  Y  Y0  1  0.500000  0.319693  0.414061  1
  Y  Y1  1  0.500000  0.679917  0.586678  1
  Y  Y2  1  0.500000  0.179651  0.913910  1
  Y  Y3  1  0.500000  0.820630  0.085486  1
  Sc  Sc4  1  0.500000  0.444495  0.124605  1
  Sc  Sc5  1  0.500000  0.555389  0.875014  1
  Sc  Sc6  1  0.500000  0.055241  0.625043  1
  Sc  Sc7  1  0.500000  0.945119  0.375184  1
  B  B8  1  0.000000  0.099878  0.473047  1
  B  B9  1  0.000000  0.900188  0.526974  1
  B  B10  1  0.000000  0.399925  0.972968  1
  B  B11  1  0.000000  0.599912  0.026942  1
  B  B12  1  0.000000  0.130040  0.318400  1
  B  B13  1  0.000000  0.870013  0.681815  1
  B  B14  1  0.000000  0.370310  0.818226  1
  B  B15  1  0.000000  0.629687  0.181646  1
  B  B16  1  0.000000  0.054681  0.065852  1
  B  B17  1  0.000000  0.945180  0.934078  1
  B  B18  1  0.000000  0.445035  0.566065  1
  B  B19  1  0.000000  0.554760  0.433983  1
  B  B20  1  0.000000  0.481737  0.285051  1
  B  B21  1  0.000000  0.518231  0.714976  1
  B  B22  1  0.000000  0.018116  0.785060  1
  B  B23  1  0.000000  0.982048  0.214800  1
  B  B24  1  0.000000  0.254008  0.080678  1
  B  B25  1  0.000000  0.746010  0.919369  1
  B  B26  1  0.000000  0.245811  0.580643  1
  B  B27  1  0.000000  0.754220  0.419467  1
  B  B28  1  0.000000  0.295662  0.235433  1
  B  B29  1  0.000000  0.704058  0.764592  1
  B  B30  1  0.000000  0.204064  0.735313  1
  B  B31  1  0.000000  0.795946  0.264733  1
  Ir  Ir32  1  0.500000  0.641755  0.318413  1
  Rh  Rh33  1  0.500000  0.141648  0.181929  1
  Rh  Rh34  1  0.500000  0.858242  0.818123  1
  Rh  Rh35  1  0.500000  0.358702  0.681444  1
