# generated using pymatgen
data_CeMn2(P6Rh)2
_symmetry_space_group_name_H-M   'P 1'
_cell_length_a   6.95913696
_cell_length_b   6.95913816
_cell_length_c   6.92209700
_cell_angle_alpha   109.47041095
_cell_angle_beta   109.51617949
_cell_angle_gamma   109.64305607
_symmetry_Int_Tables_number   1
_chemical_formula_structural   CeMn2(P6Rh)2
_chemical_formula_sum   'Ce1 Mn2 P12 Rh2'
_cell_volume   257.37288285
_cell_formula_units_Z   1
loop_
 _symmetry_equiv_pos_site_id
 _symmetry_equiv_pos_as_xyz
  1  'x, y, z'
loop_
 _atom_site_type_symbol
 _atom_site_label
 _atom_site_symmetry_multiplicity
 _atom_site_fract_x
 _atom_site_fract_y
 _atom_site_fract_z
 _atom_site_occupancy
  Ce  Ce0  1  0.000000  0.000000  0.000000  1
  Mn  Mn1  1  0.000000  0.000000  0.500000  1
  Mn  Mn2  1  0.500000  0.500000  0.500000  1
  P  P3  1  0.848241  0.651052  0.499293  1
  P  P4  1  0.859134  0.358186  0.217320  1
  P  P5  1  0.140866  0.641814  0.782680  1
  P  P6  1  0.362896  0.499641  0.155479  1
  P  P7  1  0.500098  0.157610  0.365115  1
  P  P8  1  0.151759  0.348948  0.500707  1
  P  P9  1  0.655838  0.792582  0.155479  1
  P  P10  1  0.207504  0.865017  0.365115  1
  P  P11  1  0.637104  0.500359  0.844521  1
  P  P12  1  0.792496  0.134983  0.634885  1
  P  P13  1  0.344162  0.207418  0.844521  1
  P  P14  1  0.499902  0.842390  0.634885  1
  Rh  Rh15  1  0.000000  0.500000  0.000000  1
  Rh  Rh16  1  0.500000  0.000000  0.000000  1
