# generated using pymatgen
data_Y8Hf9Si16W3
_symmetry_space_group_name_H-M   'P 1'
_cell_length_a   7.19064289
_cell_length_b   7.19064361
_cell_length_c   13.16561201
_cell_angle_alpha   90.11096716
_cell_angle_beta   90.11096899
_cell_angle_gamma   90.08977030
_symmetry_Int_Tables_number   1
_chemical_formula_structural   Y8Hf9Si16W3
_chemical_formula_sum   'Y8 Hf9 Si16 W3'
_cell_volume   680.72918875
_cell_formula_units_Z   1
loop_
 _symmetry_equiv_pos_site_id
 _symmetry_equiv_pos_as_xyz
  1  'x, y, z'
loop_
 _atom_site_type_symbol
 _atom_site_label
 _atom_site_symmetry_multiplicity
 _atom_site_fract_x
 _atom_site_fract_y
 _atom_site_fract_z
 _atom_site_occupancy
  Y  Y0  1  0.999426  0.344031  0.215376  1
  Y  Y1  1  0.003289  0.656821  0.714778  1
  Y  Y2  1  0.155170  0.499841  0.464140  1
  Y  Y3  1  0.500159  0.844830  0.035860  1
  Y  Y4  1  0.845870  0.501811  0.967713  1
  Y  Y5  1  0.498189  0.154130  0.532287  1
  Y  Y6  1  0.343179  0.996711  0.785222  1
  Y  Y7  1  0.655969  0.000574  0.284624  1
  Hf  Hf8  1  0.675113  0.324887  0.750000  1
  Hf  Hf9  1  0.147403  0.992833  0.373548  1
  Hf  Hf10  1  0.854392  0.004825  0.876519  1
  Hf  Hf11  1  0.505818  0.649822  0.621457  1
  Hf  Hf12  1  0.350178  0.494182  0.878543  1
  Hf  Hf13  1  0.492685  0.351969  0.125473  1
  Hf  Hf14  1  0.648031  0.507315  0.374527  1
  Hf  Hf15  1  0.995175  0.145608  0.623481  1
  Hf  Hf16  1  0.007167  0.852597  0.126452  1
  Si  Si17  1  0.361060  0.298099  0.316544  1
  Si  Si18  1  0.637679  0.705353  0.817319  1
  Si  Si19  1  0.203190  0.861620  0.565789  1
  Si  Si20  1  0.138380  0.796810  0.934211  1
  Si  Si21  1  0.797603  0.138165  0.067009  1
  Si  Si22  1  0.861835  0.202397  0.432991  1
  Si  Si23  1  0.294647  0.362321  0.682681  1
  Si  Si24  1  0.701901  0.638940  0.183456  1
  Si  Si25  1  0.295927  0.050119  0.184045  1
  Si  Si26  1  0.704889  0.947762  0.682076  1
  Si  Si27  1  0.449511  0.795413  0.432371  1
  Si  Si28  1  0.204587  0.550489  0.067629  1
  Si  Si29  1  0.546685  0.202960  0.936151  1
  Si  Si30  1  0.797040  0.453315  0.563849  1
  Si  Si31  1  0.052238  0.295111  0.817924  1
  Si  Si32  1  0.949881  0.704073  0.315955  1
  W  W33  1  0.176605  0.175137  0.001413  1
  W  W34  1  0.824863  0.823395  0.498587  1
  W  W35  1  0.324267  0.675733  0.250000  1
