# generated using pymatgen
data_Dy3Ho3TcBi2
_symmetry_space_group_name_H-M   'P 1'
_cell_length_a   4.29386300
_cell_length_b   8.29815149
_cell_length_c   8.29815200
_cell_angle_alpha   119.99998610
_cell_angle_beta   90.00000000
_cell_angle_gamma   90.00000000
_symmetry_Int_Tables_number   1
_chemical_formula_structural   Dy3Ho3TcBi2
_chemical_formula_sum   'Dy3 Ho3 Tc1 Bi2'
_cell_volume   256.05992906
_cell_formula_units_Z   1
loop_
 _symmetry_equiv_pos_site_id
 _symmetry_equiv_pos_as_xyz
  1  'x, y, z'
loop_
 _atom_site_type_symbol
 _atom_site_label
 _atom_site_symmetry_multiplicity
 _atom_site_fract_x
 _atom_site_fract_y
 _atom_site_fract_z
 _atom_site_occupancy
  Dy  Dy0  1  0.000000  0.391293  0.391293  1
  Dy  Dy1  1  0.000000  0.000000  0.608707  1
  Dy  Dy2  1  0.000000  0.608707  0.000000  1
  Ho  Ho3  1  0.500000  0.768673  0.768673  1
  Ho  Ho4  1  0.500000  0.000000  0.231327  1
  Ho  Ho5  1  0.500000  0.231327  0.000000  1
  Tc  Tc6  1  0.000000  0.000000  0.000000  1
  Bi  Bi7  1  0.500000  0.666667  0.333333  1
  Bi  Bi8  1  0.500000  0.333333  0.666667  1
