# generated using pymatgen
data_Tb4Co19Si12Os
_symmetry_space_group_name_H-M   'P 1'
_cell_length_a   3.76508400
_cell_length_b   10.57667740
_cell_length_c   12.04542700
_cell_angle_alpha   90.11791587
_cell_angle_beta   90.00000000
_cell_angle_gamma   90.00000000
_symmetry_Int_Tables_number   1
_chemical_formula_structural   Tb4Co19Si12Os
_chemical_formula_sum   'Tb4 Co19 Si12 Os1'
_cell_volume   479.67292791
_cell_formula_units_Z   1
loop_
 _symmetry_equiv_pos_site_id
 _symmetry_equiv_pos_as_xyz
  1  'x, y, z'
loop_
 _atom_site_type_symbol
 _atom_site_label
 _atom_site_symmetry_multiplicity
 _atom_site_fract_x
 _atom_site_fract_y
 _atom_site_fract_z
 _atom_site_occupancy
  Tb  Tb0  1  0.250000  0.585046  0.702456  1
  Tb  Tb1  1  0.250000  0.917001  0.202773  1
  Tb  Tb2  1  0.750000  0.417233  0.297546  1
  Tb  Tb3  1  0.750000  0.083124  0.795816  1
  Co  Co4  1  0.250000  0.794366  0.490818  1
  Co  Co5  1  0.750000  0.295269  0.010013  1
  Co  Co6  1  0.750000  0.206270  0.508847  1
  Co  Co7  1  0.250000  0.405258  0.491523  1
  Co  Co8  1  0.250000  0.095423  0.990452  1
  Co  Co9  1  0.750000  0.594184  0.510623  1
  Co  Co10  1  0.750000  0.907354  0.009863  1
  Co  Co11  1  0.250000  0.214846  0.175604  1
  Co  Co12  1  0.250000  0.284980  0.675502  1
  Co  Co13  1  0.750000  0.784368  0.824134  1
  Co  Co14  1  0.750000  0.714729  0.325989  1
  Co  Co15  1  0.250000  0.885361  0.696469  1
  Co  Co16  1  0.250000  0.614439  0.199961  1
  Co  Co17  1  0.750000  0.116554  0.301646  1
  Co  Co18  1  0.750000  0.383138  0.801824  1
  Co  Co19  1  0.250000  0.467947  0.931846  1
  Co  Co20  1  0.250000  0.028603  0.429972  1
  Co  Co21  1  0.750000  0.528102  0.068555  1
  Co  Co22  1  0.750000  0.972039  0.567658  1
  Si  Si23  1  0.250000  0.413742  0.110275  1
  Si  Si24  1  0.250000  0.085851  0.607695  1
  Si  Si25  1  0.750000  0.583257  0.889162  1
  Si  Si26  1  0.750000  0.914348  0.390686  1
  Si  Si27  1  0.250000  0.272027  0.870739  1
  Si  Si28  1  0.250000  0.226402  0.372023  1
  Si  Si29  1  0.750000  0.726355  0.131738  1
  Si  Si30  1  0.750000  0.775604  0.628709  1
  Si  Si31  1  0.250000  0.604065  0.394943  1
  Si  Si32  1  0.250000  0.898886  0.891272  1
  Si  Si33  1  0.750000  0.395145  0.606606  1
  Si  Si34  1  0.750000  0.104896  0.105607  1
  Os  Os35  1  0.250000  0.703786  0.990655  1
