# generated using pymatgen
data_CeErAl8FeCo
_symmetry_space_group_name_H-M   'P 1'
_cell_length_a   4.05209200
_cell_length_b   6.73956500
_cell_length_c   7.60310200
_cell_angle_alpha   90.00000000
_cell_angle_beta   90.00000000
_cell_angle_gamma   90.00000000
_symmetry_Int_Tables_number   1
_chemical_formula_structural   CeErAl8FeCo
_chemical_formula_sum   'Ce1 Er1 Al8 Fe1 Co1'
_cell_volume   207.63567796
_cell_formula_units_Z   1
loop_
 _symmetry_equiv_pos_site_id
 _symmetry_equiv_pos_as_xyz
  1  'x, y, z'
loop_
 _atom_site_type_symbol
 _atom_site_label
 _atom_site_symmetry_multiplicity
 _atom_site_fract_x
 _atom_site_fract_y
 _atom_site_fract_z
 _atom_site_occupancy
  Ce  Ce0  1  0.000000  0.610387  0.750000  1
  Er  Er1  1  0.000000  0.385192  0.250000  1
  Al  Al2  1  0.500000  0.301102  0.566218  1
  Al  Al3  1  0.500000  0.696059  0.431431  1
  Al  Al4  1  0.500000  0.301102  0.933782  1
  Al  Al5  1  0.500000  0.696059  0.068569  1
  Al  Al6  1  0.000000  0.000478  0.999858  1
  Al  Al7  1  0.000000  0.000478  0.500142  1
  Al  Al8  1  0.500000  0.046301  0.250000  1
  Al  Al9  1  0.500000  0.957483  0.750000  1
  Fe  Fe10  1  0.000000  0.201121  0.750000  1
  Co  Co11  1  0.000000  0.804239  0.250000  1
