# generated using pymatgen
data_CaPaCr3S8
_symmetry_space_group_name_H-M   'P 1'
_cell_length_a   8.10631340
_cell_length_b   8.10631411
_cell_length_c   8.10631526
_cell_angle_alpha   52.40267689
_cell_angle_beta   52.40266957
_cell_angle_gamma   52.40266693
_symmetry_Int_Tables_number   1
_chemical_formula_structural   CaPaCr3S8
_chemical_formula_sum   'Ca1 Pa1 Cr3 S8'
_cell_volume   309.46535616
_cell_formula_units_Z   1
loop_
 _symmetry_equiv_pos_site_id
 _symmetry_equiv_pos_as_xyz
  1  'x, y, z'
loop_
 _atom_site_type_symbol
 _atom_site_label
 _atom_site_symmetry_multiplicity
 _atom_site_fract_x
 _atom_site_fract_y
 _atom_site_fract_z
 _atom_site_occupancy
  Ca  Ca0  1  0.500000  0.500000  0.500000  1
  Pa  Pa1  1  0.000000  0.000000  0.000000  1
  Cr  Cr2  1  0.000000  0.500000  0.500000  1
  Cr  Cr3  1  0.500000  0.000000  0.500000  1
  Cr  Cr4  1  0.500000  0.500000  0.000000  1
  S  S5  1  0.288843  0.754429  0.754429  1
  S  S6  1  0.245571  0.245571  0.711157  1
  S  S7  1  0.711157  0.245571  0.245571  1
  S  S8  1  0.245571  0.711157  0.245571  1
  S  S9  1  0.272943  0.272943  0.272943  1
  S  S10  1  0.727057  0.727057  0.727057  1
  S  S11  1  0.754429  0.288843  0.754429  1
  S  S12  1  0.754429  0.754429  0.288843  1
