# generated using pymatgen
data_Ho8Nb11Si16Pd
_symmetry_space_group_name_H-M   'P 1'
_cell_length_a   7.06362492
_cell_length_b   7.06362452
_cell_length_c   12.98290784
_cell_angle_alpha   90.21345244
_cell_angle_beta   89.78654667
_cell_angle_gamma   89.67215920
_symmetry_Int_Tables_number   1
_chemical_formula_structural   Ho8Nb11Si16Pd
_chemical_formula_sum   'Ho8 Nb11 Si16 Pd1'
_cell_volume   647.75986882
_cell_formula_units_Z   1
loop_
 _symmetry_equiv_pos_site_id
 _symmetry_equiv_pos_as_xyz
  1  'x, y, z'
loop_
 _atom_site_type_symbol
 _atom_site_label
 _atom_site_symmetry_multiplicity
 _atom_site_fract_x
 _atom_site_fract_y
 _atom_site_fract_z
 _atom_site_occupancy
  Ho  Ho0  1  0.342012  0.002342  0.467151  1
  Ho  Ho1  1  0.495852  0.842450  0.717806  1
  Ho  Ho2  1  0.501950  0.157676  0.215707  1
  Ho  Ho3  1  0.842450  0.495852  0.282194  1
  Ho  Ho4  1  0.157676  0.501950  0.784293  1
  Ho  Ho5  1  0.654977  0.000609  0.967571  1
  Ho  Ho6  1  0.002342  0.342012  0.532849  1
  Ho  Ho7  1  0.000609  0.654977  0.032429  1
  Nb  Nb8  1  0.173734  0.826259  0.248420  1
  Nb  Nb9  1  0.826259  0.173734  0.751580  1
  Nb  Nb10  1  0.671613  0.671613  0.500000  1
  Nb  Nb11  1  0.150320  0.006459  0.875973  1
  Nb  Nb12  1  0.495826  0.654080  0.122964  1
  Nb  Nb13  1  0.504434  0.349010  0.624348  1
  Nb  Nb14  1  0.654080  0.495826  0.877036  1
  Nb  Nb15  1  0.349010  0.504434  0.375652  1
  Nb  Nb16  1  0.848842  0.992532  0.373597  1
  Nb  Nb17  1  0.006459  0.150320  0.124027  1
  Nb  Nb18  1  0.992532  0.848842  0.626403  1
  Si  Si19  1  0.202703  0.136352  0.683564  1
  Si  Si20  1  0.370033  0.711799  0.930841  1
  Si  Si21  1  0.635231  0.294452  0.431872  1
  Si  Si22  1  0.711799  0.370033  0.069159  1
  Si  Si23  1  0.294452  0.635231  0.568128  1
  Si  Si24  1  0.796616  0.865195  0.181967  1
  Si  Si25  1  0.136352  0.202703  0.316436  1
  Si  Si26  1  0.865195  0.796616  0.818033  1
  Si  Si27  1  0.289171  0.946156  0.062491  1
  Si  Si28  1  0.546324  0.793703  0.312752  1
  Si  Si29  1  0.450353  0.208404  0.813783  1
  Si  Si30  1  0.793703  0.546324  0.687248  1
  Si  Si31  1  0.208404  0.450353  0.186217  1
  Si  Si32  1  0.705517  0.046683  0.563791  1
  Si  Si33  1  0.946156  0.289171  0.937509  1
  Si  Si34  1  0.046683  0.705517  0.436209  1
  Pd  Pd35  1  0.330331  0.330331  0.000000  1
