# generated using pymatgen
data_Li4CrNi9As7
_symmetry_space_group_name_H-M   'P 1'
_cell_length_a   9.42481213
_cell_length_b   9.44518791
_cell_length_c   3.73505300
_cell_angle_alpha   90.00000000
_cell_angle_beta   90.00000000
_cell_angle_gamma   120.19493603
_symmetry_Int_Tables_number   1
_chemical_formula_structural   Li4CrNi9As7
_chemical_formula_sum   'Li4 Cr1 Ni9 As7'
_cell_volume   287.37849273
_cell_formula_units_Z   1
loop_
 _symmetry_equiv_pos_site_id
 _symmetry_equiv_pos_as_xyz
  1  'x, y, z'
loop_
 _atom_site_type_symbol
 _atom_site_label
 _atom_site_symmetry_multiplicity
 _atom_site_fract_x
 _atom_site_fract_y
 _atom_site_fract_z
 _atom_site_occupancy
  Li  Li0  1  0.444780  0.213958  0.500000  1
  Li  Li1  1  0.788546  0.234031  0.500000  1
  Li  Li2  1  0.334688  0.671360  0.000000  1
  Li  Li3  1  0.998831  0.000778  0.500000  1
  Cr  Cr4  1  0.757532  0.548447  0.500000  1
  Ni  Ni5  1  0.278713  0.375062  0.500000  1
  Ni  Ni6  1  0.623388  0.900660  0.500000  1
  Ni  Ni7  1  0.100947  0.719993  0.500000  1
  Ni  Ni8  1  0.497567  0.451071  0.000000  1
  Ni  Ni9  1  0.549017  0.050570  0.000000  1
  Ni  Ni10  1  0.955999  0.500334  0.000000  1
  Ni  Ni11  1  0.720116  0.761504  0.000000  1
  Ni  Ni12  1  0.236009  0.953758  0.000000  1
  Ni  Ni13  1  0.045085  0.283528  0.000000  1
  As  As14  1  0.959701  0.751954  0.000000  1
  As  As15  1  0.240010  0.203162  0.000000  1
  As  As16  1  0.793697  0.036930  0.000000  1
  As  As17  1  0.670766  0.340704  0.000000  1
  As  As18  1  0.537349  0.622641  0.500000  1
  As  As19  1  0.377443  0.914695  0.500000  1
  As  As20  1  0.089820  0.464859  0.500000  1
