# generated using pymatgen
data_Pr9Y(InGa2)2
_symmetry_space_group_name_H-M   'P 1'
_cell_length_a   8.56220100
_cell_length_b   8.56220100
_cell_length_c   13.15009700
_cell_angle_alpha   90.00000000
_cell_angle_beta   90.00000000
_cell_angle_gamma   90.00000000
_symmetry_Int_Tables_number   1
_chemical_formula_structural   Pr9Y(InGa2)2
_chemical_formula_sum   'Pr18 Y2 In4 Ga8'
_cell_volume   964.05052163
_cell_formula_units_Z   2
loop_
 _symmetry_equiv_pos_site_id
 _symmetry_equiv_pos_as_xyz
  1  'x, y, z'
loop_
 _atom_site_type_symbol
 _atom_site_label
 _atom_site_symmetry_multiplicity
 _atom_site_fract_x
 _atom_site_fract_y
 _atom_site_fract_z
 _atom_site_occupancy
  Pr  Pr0  1  0.847393  0.838949  0.893381  1
  Pr  Pr1  1  0.158885  0.154977  0.604572  1
  Pr  Pr2  1  0.845023  0.158885  0.395428  1
  Pr  Pr3  1  0.154977  0.841115  0.395428  1
  Pr  Pr4  1  0.341115  0.345023  0.395428  1
  Pr  Pr5  1  0.838949  0.152607  0.106619  1
  Pr  Pr6  1  0.338949  0.652607  0.893381  1
  Pr  Pr7  1  0.161051  0.847393  0.106619  1
  Pr  Pr8  1  0.500000  0.000000  0.768533  1
  Pr  Pr9  1  0.000000  0.500000  0.231467  1
  Pr  Pr10  1  0.345023  0.658885  0.604572  1
  Pr  Pr11  1  0.652607  0.661051  0.106619  1
  Pr  Pr12  1  0.654977  0.341115  0.604572  1
  Pr  Pr13  1  0.841115  0.845023  0.604572  1
  Pr  Pr14  1  0.661051  0.347393  0.893381  1
  Pr  Pr15  1  0.152607  0.161051  0.893381  1
  Pr  Pr16  1  0.658885  0.654977  0.395428  1
  Pr  Pr17  1  0.347393  0.338949  0.106619  1
  Y  Y18  1  0.000000  0.500000  0.736840  1
  Y  Y19  1  0.500000  0.000000  0.263160  1
  In  In20  1  0.000000  0.500000  0.987821  1
  In  In21  1  0.500000  0.000000  0.012179  1
  In  In22  1  0.500000  0.000000  0.504734  1
  In  In23  1  0.000000  0.500000  0.495266  1
  Ga  Ga24  1  0.643455  0.353356  0.252127  1
  Ga  Ga25  1  0.356545  0.646644  0.252127  1
  Ga  Ga26  1  0.146644  0.143455  0.252127  1
  Ga  Ga27  1  0.353356  0.356545  0.747873  1
  Ga  Ga28  1  0.143455  0.853356  0.747873  1
  Ga  Ga29  1  0.853356  0.856545  0.252127  1
  Ga  Ga30  1  0.646644  0.643455  0.747873  1
  Ga  Ga31  1  0.856545  0.146644  0.747873  1
