# generated using pymatgen
data_La7Dy13(Si7Pt)2
_symmetry_space_group_name_H-M   'P 1'
_cell_length_a   7.52506035
_cell_length_b   7.84949216
_cell_length_c   15.01278562
_cell_angle_alpha   89.81869349
_cell_angle_beta   89.92966332
_cell_angle_gamma   89.94045474
_symmetry_Int_Tables_number   1
_chemical_formula_structural   La7Dy13(Si7Pt)2
_chemical_formula_sum   'La7 Dy13 Si14 Pt2'
_cell_volume   886.76816892
_cell_formula_units_Z   1
loop_
 _symmetry_equiv_pos_site_id
 _symmetry_equiv_pos_as_xyz
  1  'x, y, z'
loop_
 _atom_site_type_symbol
 _atom_site_label
 _atom_site_symmetry_multiplicity
 _atom_site_fract_x
 _atom_site_fract_y
 _atom_site_fract_z
 _atom_site_occupancy
  La  La0  1  0.974901  0.824991  0.099603  1
  La  La1  1  0.474288  0.675986  0.401126  1
  La  La2  1  0.524287  0.321119  0.901022  1
  La  La3  1  0.024089  0.179202  0.596551  1
  La  La4  1  0.024446  0.178664  0.901644  1
  La  La5  1  0.527030  0.320768  0.598328  1
  La  La6  1  0.475329  0.674901  0.099564  1
  Dy  Dy7  1  0.644628  0.982766  0.251197  1
  Dy  Dy8  1  0.144685  0.518684  0.251930  1
  Dy  Dy9  1  0.849918  0.489798  0.749467  1
  Dy  Dy10  1  0.349924  0.010719  0.749883  1
  Dy  Dy11  1  0.969068  0.817597  0.397518  1
  Dy  Dy12  1  0.683081  0.822985  0.876717  1
  Dy  Dy13  1  0.181727  0.680179  0.622096  1
  Dy  Dy14  1  0.816970  0.321283  0.123602  1
  Dy  Dy15  1  0.314335  0.174649  0.378334  1
  Dy  Dy16  1  0.315364  0.175977  0.123830  1
  Dy  Dy17  1  0.816606  0.322448  0.377070  1
  Dy  Dy18  1  0.182970  0.677106  0.876507  1
  Dy  Dy19  1  0.685077  0.824097  0.622800  1
  Si  Si20  1  0.733393  0.119720  0.749512  1
  Si  Si21  1  0.232441  0.381611  0.749164  1
  Si  Si22  1  0.021272  0.111494  0.252825  1
  Si  Si23  1  0.523097  0.383396  0.250079  1
  Si  Si24  1  0.475648  0.616919  0.749485  1
  Si  Si25  1  0.976511  0.884837  0.749448  1
  Si  Si26  1  0.859359  0.531245  0.960136  1
  Si  Si27  1  0.362642  0.970258  0.540809  1
  Si  Si28  1  0.643438  0.031741  0.038036  1
  Si  Si29  1  0.142204  0.472455  0.460061  1
  Si  Si30  1  0.143872  0.467279  0.038222  1
  Si  Si31  1  0.650503  0.028943  0.460737  1
  Si  Si32  1  0.359053  0.968940  0.959624  1
  Si  Si33  1  0.859521  0.536803  0.537932  1
  Pt  Pt34  1  0.771986  0.620920  0.252351  1
  Pt  Pt35  1  0.266335  0.879522  0.252788  1
