# generated using pymatgen
data_Er8Lu4InNi4Os
_symmetry_space_group_name_H-M   'P 1'
_cell_length_a   8.19751518
_cell_length_b   8.19714045
_cell_length_c   8.19751517
_cell_angle_alpha   111.63687928
_cell_angle_beta   109.97595685
_cell_angle_gamma   106.83889695
_symmetry_Int_Tables_number   1
_chemical_formula_structural   Er8Lu4InNi4Os
_chemical_formula_sum   'Er8 Lu4 In1 Ni4 Os1'
_cell_volume   423.26734469
_cell_formula_units_Z   1
loop_
 _symmetry_equiv_pos_site_id
 _symmetry_equiv_pos_as_xyz
  1  'x, y, z'
loop_
 _atom_site_type_symbol
 _atom_site_label
 _atom_site_symmetry_multiplicity
 _atom_site_fract_x
 _atom_site_fract_y
 _atom_site_fract_z
 _atom_site_occupancy
  Er  Er0  1  0.414445  0.222903  0.191538  1
  Er  Er1  1  0.585555  0.777097  0.808462  1
  Er  Er2  1  0.031365  0.222903  0.808457  1
  Er  Er3  1  0.968635  0.777097  0.191543  1
  Er  Er4  1  0.180180  0.279891  0.460078  1
  Er  Er5  1  0.819820  0.720109  0.539922  1
  Er  Er6  1  0.180187  0.720109  0.900290  1
  Er  Er7  1  0.819813  0.279891  0.099710  1
  Lu  Lu8  1  0.322164  0.627949  0.305783  1
  Lu  Lu9  1  0.677836  0.372051  0.694217  1
  Lu  Lu10  1  0.322150  0.016347  0.694199  1
  Lu  Lu11  1  0.677850  0.983653  0.305801  1
  In  In12  1  0.500000  0.500000  0.000000  1
  Ni  Ni13  1  0.361969  0.000000  0.361969  1
  Ni  Ni14  1  0.638031  0.000000  0.638031  1
  Ni  Ni15  1  0.120213  0.620004  0.499791  1
  Ni  Ni16  1  0.879787  0.379996  0.500209  1
  Os  Os17  1  0.000000  0.000000  0.000000  1
