# generated using pymatgen
data_Tb3Y7(Pb3S)2
_symmetry_space_group_name_H-M   'P 1'
_cell_length_a   9.17132200
_cell_length_b   9.17132264
_cell_length_c   6.74654000
_cell_angle_alpha   90.00000000
_cell_angle_beta   90.00000000
_cell_angle_gamma   120.00000491
_symmetry_Int_Tables_number   1
_chemical_formula_structural   Tb3Y7(Pb3S)2
_chemical_formula_sum   'Tb3 Y7 Pb6 S2'
_cell_volume   491.44579481
_cell_formula_units_Z   1
loop_
 _symmetry_equiv_pos_site_id
 _symmetry_equiv_pos_as_xyz
  1  'x, y, z'
loop_
 _atom_site_type_symbol
 _atom_site_label
 _atom_site_symmetry_multiplicity
 _atom_site_fract_x
 _atom_site_fract_y
 _atom_site_fract_z
 _atom_site_occupancy
  Tb  Tb0  1  0.756718  0.756718  0.750000  1
  Tb  Tb1  1  0.243282  0.000000  0.750000  1
  Tb  Tb2  1  0.000000  0.243282  0.750000  1
  Y  Y3  1  0.243281  0.243281  0.250000  1
  Y  Y4  1  0.756719  0.000000  0.250000  1
  Y  Y5  1  0.000000  0.756719  0.250000  1
  Y  Y6  1  0.666667  0.333333  0.000069  1
  Y  Y7  1  0.333333  0.666667  0.000069  1
  Y  Y8  1  0.333333  0.666667  0.499931  1
  Y  Y9  1  0.666667  0.333333  0.499931  1
  Pb  Pb10  1  0.397487  0.397487  0.750000  1
  Pb  Pb11  1  0.602513  0.000000  0.750000  1
  Pb  Pb12  1  0.000000  0.602513  0.750000  1
  Pb  Pb13  1  0.602630  0.602630  0.250000  1
  Pb  Pb14  1  0.397370  0.000000  0.250000  1
  Pb  Pb15  1  0.000000  0.397370  0.250000  1
  S  S16  1  0.000000  0.000000  0.000150  1
  S  S17  1  0.000000  0.000000  0.499850  1
