# generated using pymatgen
data_Tb13Er3In2(AgIr2)2
_symmetry_space_group_name_H-M   'P 1'
_cell_length_a   9.61888687
_cell_length_b   9.61084811
_cell_length_c   9.59863615
_cell_angle_alpha   60.14984649
_cell_angle_beta   59.91284694
_cell_angle_gamma   59.97862138
_symmetry_Int_Tables_number   1
_chemical_formula_structural   Tb13Er3In2(AgIr2)2
_chemical_formula_sum   'Tb13 Er3 In2 Ag2 Ir4'
_cell_volume   627.64297058
_cell_formula_units_Z   1
loop_
 _symmetry_equiv_pos_site_id
 _symmetry_equiv_pos_as_xyz
  1  'x, y, z'
loop_
 _atom_site_type_symbol
 _atom_site_label
 _atom_site_symmetry_multiplicity
 _atom_site_fract_x
 _atom_site_fract_y
 _atom_site_fract_z
 _atom_site_occupancy
  Tb  Tb0  1  0.311192  0.686703  0.310762  1
  Tb  Tb1  1  0.937600  0.560764  0.560721  1
  Tb  Tb2  1  0.311971  0.311583  0.686214  1
  Tb  Tb3  1  0.099640  0.100023  0.100159  1
  Tb  Tb4  1  0.557753  0.559235  0.940345  1
  Tb  Tb5  1  0.099796  0.102092  0.698818  1
  Tb  Tb6  1  0.692614  0.309393  0.684554  1
  Tb  Tb7  1  0.693521  0.685376  0.308274  1
  Tb  Tb8  1  0.691971  0.309955  0.308990  1
  Tb  Tb9  1  0.309377  0.689869  0.689342  1
  Tb  Tb10  1  0.558808  0.939503  0.559775  1
  Tb  Tb11  1  0.701218  0.099100  0.098963  1
  Tb  Tb12  1  0.558456  0.941520  0.941638  1
  Er  Er13  1  0.099801  0.699492  0.101243  1
  Er  Er14  1  0.941634  0.939293  0.559269  1
  Er  Er15  1  0.941740  0.558941  0.940374  1
  In  In16  1  0.329060  0.006944  0.333661  1
  In  In17  1  0.328696  0.334383  0.007238  1
  Ag  Ag18  1  0.331158  0.334147  0.332999  1
  Ag  Ag19  1  0.001689  0.334047  0.332604  1
  Ir  Ir20  1  0.893096  0.888937  0.891916  1
  Ir  Ir21  1  0.893376  0.891549  0.325148  1
  Ir  Ir22  1  0.324048  0.890839  0.893542  1
  Ir  Ir23  1  0.891783  0.326313  0.893449  1
