# generated using pymatgen
data_MnNb4VOs6
_symmetry_space_group_name_H-M   'P 1'
_cell_length_a   5.12310908
_cell_length_b   5.00374358
_cell_length_c   8.40954000
_cell_angle_alpha   90.00000000
_cell_angle_beta   90.00000000
_cell_angle_gamma   119.61535177
_symmetry_Int_Tables_number   1
_chemical_formula_structural   MnNb4VOs6
_chemical_formula_sum   'Mn1 Nb4 V1 Os6'
_cell_volume   187.41390875
_cell_formula_units_Z   1
loop_
 _symmetry_equiv_pos_site_id
 _symmetry_equiv_pos_as_xyz
  1  'x, y, z'
loop_
 _atom_site_type_symbol
 _atom_site_label
 _atom_site_symmetry_multiplicity
 _atom_site_fract_x
 _atom_site_fract_y
 _atom_site_fract_z
 _atom_site_occupancy
  Mn  Mn0  1  0.172478  0.825253  0.750000  1
  Nb  Nb1  1  0.331790  0.667029  0.434962  1
  Nb  Nb2  1  0.668063  0.336689  0.931512  1
  Nb  Nb3  1  0.668063  0.336689  0.568488  1
  Nb  Nb4  1  0.331790  0.667029  0.065038  1
  V  V5  1  0.830446  0.659804  0.250000  1
  Os  Os6  1  0.166659  0.345383  0.750000  1
  Os  Os7  1  0.830597  0.175280  0.250000  1
  Os  Os8  1  0.347945  0.180514  0.250000  1
  Os  Os9  1  0.646615  0.832339  0.750000  1
  Os  Os10  1  0.002777  0.986996  0.995260  1
  Os  Os11  1  0.002777  0.986996  0.504740  1
