# generated using pymatgen
data_CdPd(RhO3)2
_symmetry_space_group_name_H-M   'P 1'
_cell_length_a   6.34415002
_cell_length_b   6.34414994
_cell_length_c   3.15602400
_cell_angle_alpha   90.00000000
_cell_angle_beta   90.00000000
_cell_angle_gamma   110.33620729
_symmetry_Int_Tables_number   1
_chemical_formula_structural   CdPd(RhO3)2
_chemical_formula_sum   'Cd1 Pd1 Rh2 O6'
_cell_volume   119.10691406
_cell_formula_units_Z   1
loop_
 _symmetry_equiv_pos_site_id
 _symmetry_equiv_pos_as_xyz
  1  'x, y, z'
loop_
 _atom_site_type_symbol
 _atom_site_label
 _atom_site_symmetry_multiplicity
 _atom_site_fract_x
 _atom_site_fract_y
 _atom_site_fract_z
 _atom_site_occupancy
  Cd  Cd0  1  0.500000  0.500000  0.000000  1
  Pd  Pd1  1  0.000000  0.000000  0.000000  1
  Rh  Rh2  1  0.000000  0.500000  0.500000  1
  Rh  Rh3  1  0.500000  0.000000  0.500000  1
  O  O4  1  0.666159  0.926493  0.000000  1
  O  O5  1  0.333841  0.073507  0.000000  1
  O  O6  1  0.926493  0.666159  0.000000  1
  O  O7  1  0.073507  0.333841  0.000000  1
  O  O8  1  0.671518  0.328482  0.500000  1
  O  O9  1  0.328482  0.671518  0.500000  1
