# generated using pymatgen
data_Na7Mn12(PO4)12
_symmetry_space_group_name_H-M   'P 1'
_cell_length_a   9.34189566
_cell_length_b   9.34189500
_cell_length_c   12.08585000
_cell_angle_alpha   68.98807419
_cell_angle_beta   68.98807573
_cell_angle_gamma   85.62735985
_symmetry_Int_Tables_number   1
_chemical_formula_structural   Na7Mn12(PO4)12
_chemical_formula_sum   'Na7 Mn12 P12 O48'
_cell_volume   917.48077215
_cell_formula_units_Z   1
loop_
 _symmetry_equiv_pos_site_id
 _symmetry_equiv_pos_as_xyz
  1  'x, y, z'
loop_
 _atom_site_type_symbol
 _atom_site_label
 _atom_site_symmetry_multiplicity
 _atom_site_fract_x
 _atom_site_fract_y
 _atom_site_fract_z
 _atom_site_occupancy
  Na  Na0  1  0.249147  0.004516  0.869929  1
  Na  Na1  1  0.750728  0.498603  0.379656  1
  Na  Na2  1  0.995484  0.750853  0.130071  1
  Na  Na3  1  0.501397  0.249272  0.620344  1
  Na  Na4  1  0.102103  0.897897  0.500000  1
  Na  Na5  1  0.870460  0.594898  0.771146  1
  Na  Na6  1  0.405102  0.129540  0.228854  1
  Mn  Mn7  1  0.887480  0.112520  0.000000  1
  Mn  Mn8  1  0.393334  0.606666  0.500000  1
  Mn  Mn9  1  0.601612  0.892142  0.749824  1
  Mn  Mn10  1  0.107858  0.398388  0.250176  1
  Mn  Mn11  1  0.217498  0.666045  0.776536  1
  Mn  Mn12  1  0.734382  0.164245  0.275883  1
  Mn  Mn13  1  0.333955  0.782502  0.223464  1
  Mn  Mn14  1  0.835755  0.265618  0.724117  1
  Mn  Mn15  1  0.282144  0.351149  0.966895  1
  Mn  Mn16  1  0.772586  0.831786  0.473374  1
  Mn  Mn17  1  0.168214  0.227414  0.526626  1
  Mn  Mn18  1  0.648851  0.717856  0.033105  1
  P  P19  1  0.075299  0.055207  0.197472  1
  P  P20  1  0.584063  0.537172  0.702247  1
  P  P21  1  0.944793  0.924701  0.802528  1
  P  P22  1  0.462828  0.415937  0.297753  1
  P  P23  1  0.424096  0.952977  0.543889  1
  P  P24  1  0.923072  0.459212  0.048185  1
  P  P25  1  0.540788  0.076928  0.951815  1
  P  P26  1  0.047023  0.575904  0.456111  1
  P  P27  1  0.340246  0.659754  0.000000  1
  P  P28  1  0.837440  0.162560  0.500000  1
  P  P29  1  0.160044  0.336290  0.756471  1
  P  P30  1  0.663710  0.839956  0.243529  1
  O  O31  1  0.988918  0.937247  0.909395  1
  O  O32  1  0.485745  0.432016  0.412818  1
  O  O33  1  0.062753  0.011082  0.090605  1
  O  O34  1  0.567984  0.514255  0.587182  1
  O  O35  1  0.509816  0.064404  0.838091  1
  O  O36  1  0.010649  0.562859  0.345243  1
  O  O37  1  0.437141  0.989351  0.654757  1
  O  O38  1  0.935596  0.490184  0.161909  1
  O  O39  1  0.048047  0.823063  0.732937  1
  O  O40  1  0.567681  0.294771  0.251445  1
  O  O41  1  0.176937  0.951953  0.267063  1
  O  O42  1  0.705229  0.432319  0.748555  1
  O  O43  1  0.437233  0.186273  0.010225  1
  O  O44  1  0.945992  0.689314  0.514034  1
  O  O45  1  0.310686  0.054008  0.485966  1
  O  O46  1  0.813727  0.562767  0.989775  1
  O  O47  1  0.869569  0.286459  0.090062  1
  O  O48  1  0.363060  0.781401  0.590344  1
  O  O49  1  0.713541  0.130431  0.909938  1
  O  O50  1  0.218599  0.636940  0.409656  1
  O  O51  1  0.640647  0.705025  0.670386  1
  O  O52  1  0.139094  0.225394  0.150150  1
  O  O53  1  0.774606  0.860906  0.849850  1
  O  O54  1  0.294975  0.359353  0.329614  1
  O  O55  1  0.907681  0.037993  0.300890  1
  O  O56  1  0.424309  0.506457  0.810869  1
  O  O57  1  0.962007  0.092319  0.699110  1
  O  O58  1  0.493543  0.575691  0.189131  1
  O  O59  1  0.586068  0.973990  0.439174  1
  O  O60  1  0.085892  0.488354  0.941155  1
  O  O61  1  0.511646  0.914108  0.058845  1
  O  O62  1  0.026010  0.413932  0.560826  1
  O  O63  1  0.278884  0.743623  0.892684  1
  O  O64  1  0.755278  0.238636  0.403345  1
  O  O65  1  0.256377  0.721116  0.107316  1
  O  O66  1  0.761364  0.244722  0.596655  1
  O  O67  1  0.229520  0.262204  0.863362  1
  O  O68  1  0.749116  0.761735  0.335235  1
  O  O69  1  0.238265  0.250884  0.664765  1
  O  O70  1  0.737796  0.770480  0.136638  1
  O  O71  1  0.199810  0.512234  0.686916  1
  O  O72  1  0.695100  0.018363  0.182624  1
  O  O73  1  0.981637  0.304900  0.817376  1
  O  O74  1  0.487766  0.800190  0.313084  1
  O  O75  1  0.303543  0.480914  0.059572  1
  O  O76  1  0.802048  0.986166  0.567032  1
  O  O77  1  0.519086  0.696457  0.940428  1
  O  O78  1  0.013834  0.197952  0.432968  1
