# generated using pymatgen
data_Ho3Zn3AgPt2
_symmetry_space_group_name_H-M   'P 1'
_cell_length_a   7.43171800
_cell_length_b   7.43171786
_cell_length_c   3.76700300
_cell_angle_alpha   90.00000000
_cell_angle_beta   90.00000000
_cell_angle_gamma   119.99999171
_symmetry_Int_Tables_number   1
_chemical_formula_structural   Ho3Zn3AgPt2
_chemical_formula_sum   'Ho3 Zn3 Ag1 Pt2'
_cell_volume   180.17937228
_cell_formula_units_Z   1
loop_
 _symmetry_equiv_pos_site_id
 _symmetry_equiv_pos_as_xyz
  1  'x, y, z'
loop_
 _atom_site_type_symbol
 _atom_site_label
 _atom_site_symmetry_multiplicity
 _atom_site_fract_x
 _atom_site_fract_y
 _atom_site_fract_z
 _atom_site_occupancy
  Ho  Ho0  1  0.410796  0.410796  0.000000  1
  Ho  Ho1  1  0.589204  0.000000  0.000000  1
  Ho  Ho2  1  0.000000  0.589204  0.000000  1
  Zn  Zn3  1  0.736116  0.736116  0.500000  1
  Zn  Zn4  1  0.263884  0.000000  0.500000  1
  Zn  Zn5  1  0.000000  0.263884  0.500000  1
  Ag  Ag6  1  0.000000  0.000000  0.000000  1
  Pt  Pt7  1  0.666667  0.333333  0.500000  1
  Pt  Pt8  1  0.333333  0.666667  0.500000  1
