# generated using pymatgen
data_Zr7Fe8Si14Mo
_symmetry_space_group_name_H-M   'P 1'
_cell_length_a   9.53394615
_cell_length_b   9.53394394
_cell_length_c   9.51718491
_cell_angle_alpha   94.05176715
_cell_angle_beta   94.05176493
_cell_angle_gamma   149.19698295
_symmetry_Int_Tables_number   1
_chemical_formula_structural   Zr7Fe8Si14Mo
_chemical_formula_sum   'Zr7 Fe8 Si14 Mo1'
_cell_volume   427.02888021
_cell_formula_units_Z   1
loop_
 _symmetry_equiv_pos_site_id
 _symmetry_equiv_pos_as_xyz
  1  'x, y, z'
loop_
 _atom_site_type_symbol
 _atom_site_label
 _atom_site_symmetry_multiplicity
 _atom_site_fract_x
 _atom_site_fract_y
 _atom_site_fract_z
 _atom_site_occupancy
  Zr  Zr0  1  0.863208  0.863208  0.726417  1
  Zr  Zr1  1  0.862207  0.137619  0.999825  1
  Zr  Zr2  1  0.137619  0.862207  0.999825  1
  Zr  Zr3  1  0.499767  0.303731  0.803500  1
  Zr  Zr4  1  0.503114  0.696038  0.199152  1
  Zr  Zr5  1  0.696038  0.503114  0.199152  1
  Zr  Zr6  1  0.303731  0.499767  0.803500  1
  Fe  Fe7  1  0.398131  0.898131  0.796263  1
  Fe  Fe8  1  0.102805  0.602805  0.205609  1
  Fe  Fe9  1  0.101743  0.898442  0.498170  1
  Fe  Fe10  1  0.396427  0.599728  0.498170  1
  Fe  Fe11  1  0.599728  0.396427  0.498170  1
  Fe  Fe12  1  0.898442  0.101743  0.498170  1
  Fe  Fe13  1  0.898131  0.398131  0.796263  1
  Fe  Fe14  1  0.602805  0.102805  0.205609  1
  Si  Si15  1  0.498358  0.091568  0.589926  1
  Si  Si16  1  0.501572  0.909129  0.410701  1
  Si  Si17  1  0.909129  0.501572  0.410701  1
  Si  Si18  1  0.091568  0.498358  0.589926  1
  Si  Si19  1  0.757199  0.757199  0.006456  1
  Si  Si20  1  0.249257  0.249257  0.006456  1
  Si  Si21  1  0.283975  0.283975  0.567948  1
  Si  Si22  1  0.711888  0.711888  0.423777  1
  Si  Si23  1  0.710461  0.290597  0.001058  1
  Si  Si24  1  0.290597  0.710461  0.001058  1
  Si  Si25  1  0.003184  0.297792  0.300975  1
  Si  Si26  1  0.999179  0.697647  0.696826  1
  Si  Si27  1  0.697647  0.999179  0.696826  1
  Si  Si28  1  0.297792  0.003184  0.300975  1
  Mo  Mo29  1  0.134299  0.134299  0.268597  1
