# generated using pymatgen
data_Ag6AsS5Cl
_symmetry_space_group_name_H-M   'P 1'
_cell_length_a   7.47071377
_cell_length_b   7.47071420
_cell_length_c   13.16192147
_cell_angle_alpha   73.25179598
_cell_angle_beta   73.25179606
_cell_angle_gamma   59.97501266
_symmetry_Int_Tables_number   1
_chemical_formula_structural   Ag6AsS5Cl
_chemical_formula_sum   'Ag12 As2 S10 Cl2'
_cell_volume   599.77847675
_cell_formula_units_Z   2
loop_
 _symmetry_equiv_pos_site_id
 _symmetry_equiv_pos_as_xyz
  1  'x, y, z'
loop_
 _atom_site_type_symbol
 _atom_site_label
 _atom_site_symmetry_multiplicity
 _atom_site_fract_x
 _atom_site_fract_y
 _atom_site_fract_z
 _atom_site_occupancy
  Ag  Ag0  1  0.471488  0.540477  0.505924  1
  Ag  Ag1  1  0.540477  0.471488  0.005924  1
  Ag  Ag2  1  0.052855  0.528130  0.494819  1
  Ag  Ag3  1  0.528130  0.052855  0.994819  1
  Ag  Ag4  1  0.398859  0.629195  0.726395  1
  Ag  Ag5  1  0.629195  0.398859  0.226395  1
  Ag  Ag6  1  0.110065  0.284035  0.723952  1
  Ag  Ag7  1  0.284035  0.110065  0.223952  1
  Ag  Ag8  1  0.968451  0.024409  0.001543  1
  Ag  Ag9  1  0.024409  0.968451  0.501543  1
  Ag  Ag10  1  0.779267  0.909947  0.725341  1
  Ag  Ag11  1  0.909947  0.779267  0.225341  1
  As  As12  1  0.016820  0.515956  0.987624  1
  As  As13  1  0.515956  0.016820  0.487624  1
  S  S14  1  0.207692  0.688701  0.924873  1
  S  S15  1  0.688701  0.207692  0.424873  1
  S  S16  1  0.188897  0.219379  0.922150  1
  S  S17  1  0.219379  0.188897  0.422150  1
  S  S18  1  0.453410  0.960189  0.667076  1
  S  S19  1  0.960189  0.453410  0.167076  1
  S  S20  1  0.131357  0.633415  0.635043  1
  S  S21  1  0.633415  0.131357  0.135043  1
  S  S22  1  0.717475  0.707398  0.924758  1
  S  S23  1  0.707398  0.717475  0.424758  1
  Cl  Cl24  1  0.756437  0.265694  0.746502  1
  Cl  Cl25  1  0.265694  0.756437  0.246502  1
