# generated using pymatgen
data_DyTm3(WO6)2
_symmetry_space_group_name_H-M   'P 1'
_cell_length_a   5.34993000
_cell_length_b   7.63967301
_cell_length_c   11.38417042
_cell_angle_alpha   75.25278663
_cell_angle_beta   90.00000000
_cell_angle_gamma   90.00000000
_symmetry_Int_Tables_number   1
_chemical_formula_structural   DyTm3(WO6)2
_chemical_formula_sum   'Dy2 Tm6 W4 O24'
_cell_volume   449.96312524
_cell_formula_units_Z   2
loop_
 _symmetry_equiv_pos_site_id
 _symmetry_equiv_pos_as_xyz
  1  'x, y, z'
loop_
 _atom_site_type_symbol
 _atom_site_label
 _atom_site_symmetry_multiplicity
 _atom_site_fract_x
 _atom_site_fract_y
 _atom_site_fract_z
 _atom_site_occupancy
  Dy  Dy0  1  0.684646  0.500000  0.750000  1
  Dy  Dy1  1  0.315354  0.500000  0.250000  1
  Tm  Tm2  1  0.739812  0.000000  0.750000  1
  Tm  Tm3  1  0.260188  0.000000  0.250000  1
  Tm  Tm4  1  0.185849  0.796681  0.578212  1
  Tm  Tm5  1  0.814151  0.796681  0.078212  1
  Tm  Tm6  1  0.185849  0.203319  0.921788  1
  Tm  Tm7  1  0.814151  0.203319  0.421788  1
  W  W8  1  0.254432  0.723643  0.885727  1
  W  W9  1  0.745568  0.723643  0.385727  1
  W  W10  1  0.254432  0.276357  0.614273  1
  W  W11  1  0.745568  0.276357  0.114273  1
  O  O12  1  0.039475  0.941242  0.895531  1
  O  O13  1  0.534205  0.849501  0.930914  1
  O  O14  1  0.960525  0.941242  0.395531  1
  O  O15  1  0.461000  0.791695  0.726353  1
  O  O16  1  0.465795  0.849501  0.430914  1
  O  O17  1  0.982076  0.712608  0.769690  1
  O  O18  1  0.539000  0.791695  0.226353  1
  O  O19  1  0.854195  0.635164  0.549468  1
  O  O20  1  0.360014  0.487723  0.887267  1
  O  O21  1  0.017924  0.712608  0.269690  1
  O  O22  1  0.360014  0.512277  0.612733  1
  O  O23  1  0.854195  0.364836  0.950532  1
  O  O24  1  0.145805  0.635164  0.049468  1
  O  O25  1  0.639986  0.487723  0.387267  1
  O  O26  1  0.982076  0.287392  0.730310  1
  O  O27  1  0.639986  0.512277  0.112733  1
  O  O28  1  0.145805  0.364836  0.450532  1
  O  O29  1  0.461000  0.208305  0.773647  1
  O  O30  1  0.017924  0.287392  0.230310  1
  O  O31  1  0.534205  0.150499  0.569086  1
  O  O32  1  0.539000  0.208305  0.273647  1
  O  O33  1  0.039475  0.058758  0.604469  1
  O  O34  1  0.465795  0.150499  0.069086  1
  O  O35  1  0.960525  0.058758  0.104469  1
