# generated using pymatgen
data_Dy2YSi3Ru2
_symmetry_space_group_name_H-M   'P 1'
_cell_length_a   5.76908200
_cell_length_b   5.76908178
_cell_length_c   13.80705300
_cell_angle_alpha   90.00000000
_cell_angle_beta   90.00000000
_cell_angle_gamma   137.46024837
_symmetry_Int_Tables_number   1
_chemical_formula_structural   Dy2YSi3Ru2
_chemical_formula_sum   'Dy4 Y2 Si6 Ru4'
_cell_volume   310.68933169
_cell_formula_units_Z   2
loop_
 _symmetry_equiv_pos_site_id
 _symmetry_equiv_pos_as_xyz
  1  'x, y, z'
loop_
 _atom_site_type_symbol
 _atom_site_label
 _atom_site_symmetry_multiplicity
 _atom_site_fract_x
 _atom_site_fract_y
 _atom_site_fract_z
 _atom_site_occupancy
  Dy  Dy0  1  0.924119  0.075881  0.385469  1
  Dy  Dy1  1  0.075881  0.924119  0.614531  1
  Dy  Dy2  1  0.924119  0.075881  0.114531  1
  Dy  Dy3  1  0.075881  0.924119  0.885469  1
  Y  Y4  1  0.643035  0.356965  0.250000  1
  Y  Y5  1  0.356965  0.643035  0.750000  1
  Si  Si6  1  0.618282  0.381718  0.461587  1
  Si  Si7  1  0.381718  0.618282  0.538413  1
  Si  Si8  1  0.618282  0.381718  0.038413  1
  Si  Si9  1  0.381718  0.618282  0.961587  1
  Si  Si10  1  0.330027  0.669973  0.250000  1
  Si  Si11  1  0.669973  0.330027  0.750000  1
  Ru  Ru12  1  0.786242  0.213758  0.919346  1
  Ru  Ru13  1  0.213758  0.786242  0.080654  1
  Ru  Ru14  1  0.786242  0.213758  0.580654  1
  Ru  Ru15  1  0.213758  0.786242  0.419346  1
