# generated using pymatgen
data_Pr12Ge3AsI12
_symmetry_space_group_name_H-M   'P 1'
_cell_length_a   10.93003004
_cell_length_b   10.93003029
_cell_length_c   10.93002994
_cell_angle_alpha   109.47051645
_cell_angle_beta   109.47051921
_cell_angle_gamma   109.47052261
_symmetry_Int_Tables_number   1
_chemical_formula_structural   Pr12Ge3AsI12
_chemical_formula_sum   'Pr12 Ge3 As1 I12'
_cell_volume   1005.20226001
_cell_formula_units_Z   1
loop_
 _symmetry_equiv_pos_site_id
 _symmetry_equiv_pos_as_xyz
  1  'x, y, z'
loop_
 _atom_site_type_symbol
 _atom_site_label
 _atom_site_symmetry_multiplicity
 _atom_site_fract_x
 _atom_site_fract_y
 _atom_site_fract_z
 _atom_site_occupancy
  Pr  Pr0  1  0.465612  0.483685  0.232280  1
  Pr  Pr1  1  0.750000  0.233508  0.266492  1
  Pr  Pr2  1  0.750000  0.015954  0.484046  1
  Pr  Pr3  1  0.232280  0.465612  0.483685  1
  Pr  Pr4  1  0.266492  0.750000  0.233508  1
  Pr  Pr5  1  0.034388  0.267720  0.016315  1
  Pr  Pr6  1  0.016315  0.034388  0.267720  1
  Pr  Pr7  1  0.484046  0.750000  0.015954  1
  Pr  Pr8  1  0.483685  0.232280  0.465612  1
  Pr  Pr9  1  0.015954  0.484046  0.750000  1
  Pr  Pr10  1  0.267720  0.016315  0.034388  1
  Pr  Pr11  1  0.233508  0.266492  0.750000  1
  Ge  Ge12  1  0.500713  0.999287  0.250000  1
  Ge  Ge13  1  0.999287  0.250000  0.500713  1
  Ge  Ge14  1  0.250000  0.500713  0.999287  1
  As  As15  1  0.250000  0.250000  0.250000  1
  I  I16  1  0.250000  0.757447  0.742553  1
  I  I17  1  0.513941  0.506597  0.756538  1
  I  I18  1  0.986059  0.743462  0.993403  1
  I  I19  1  0.742553  0.250000  0.757447  1
  I  I20  1  0.993403  0.986059  0.743462  1
  I  I21  1  0.250000  0.993303  0.506697  1
  I  I22  1  0.756538  0.513941  0.506597  1
  I  I23  1  0.506697  0.250000  0.993303  1
  I  I24  1  0.757447  0.742553  0.250000  1
  I  I25  1  0.743462  0.993403  0.986059  1
  I  I26  1  0.993303  0.506697  0.250000  1
  I  I27  1  0.506597  0.756538  0.513941  1
