# generated using pymatgen
data_Nd6TmScAu10
_symmetry_space_group_name_H-M   'P 1'
_cell_length_a   8.16331565
_cell_length_b   8.16331551
_cell_length_c   8.16331610
_cell_angle_alpha   65.81467105
_cell_angle_beta   65.81467091
_cell_angle_gamma   65.81464751
_symmetry_Int_Tables_number   1
_chemical_formula_structural   Nd6TmScAu10
_chemical_formula_sum   'Nd6 Tm1 Sc1 Au10'
_cell_volume   433.15350963
_cell_formula_units_Z   1
loop_
 _symmetry_equiv_pos_site_id
 _symmetry_equiv_pos_as_xyz
  1  'x, y, z'
loop_
 _atom_site_type_symbol
 _atom_site_label
 _atom_site_symmetry_multiplicity
 _atom_site_fract_x
 _atom_site_fract_y
 _atom_site_fract_z
 _atom_site_occupancy
  Nd  Nd0  1  0.893804  0.184577  0.620847  1
  Nd  Nd1  1  0.620847  0.893804  0.184577  1
  Nd  Nd2  1  0.184577  0.620847  0.893804  1
  Nd  Nd3  1  0.109530  0.812468  0.378307  1
  Nd  Nd4  1  0.378307  0.109530  0.812468  1
  Nd  Nd5  1  0.812468  0.378307  0.109530  1
  Tm  Tm6  1  0.656799  0.656799  0.656799  1
  Sc  Sc7  1  0.343047  0.343047  0.343047  1
  Au  Au8  1  0.000312  0.000312  0.000312  1
  Au  Au9  1  0.498153  0.498153  0.498153  1
  Au  Au10  1  0.803886  0.803886  0.803886  1
  Au  Au11  1  0.198333  0.198333  0.198333  1
  Au  Au12  1  0.942814  0.546853  0.320929  1
  Au  Au13  1  0.320929  0.942814  0.546853  1
  Au  Au14  1  0.546853  0.320929  0.942814  1
  Au  Au15  1  0.063319  0.450755  0.675267  1
  Au  Au16  1  0.675267  0.063319  0.450755  1
  Au  Au17  1  0.450755  0.675267  0.063319  1
