# generated using pymatgen
data_Tb2YGa2Co9B4
_symmetry_space_group_name_H-M   'P 1'
_cell_length_a   5.15400309
_cell_length_b   5.15350041
_cell_length_c   9.57890300
_cell_angle_alpha   89.99997338
_cell_angle_beta   90.00008809
_cell_angle_gamma   119.99043758
_symmetry_Int_Tables_number   1
_chemical_formula_structural   Tb2YGa2Co9B4
_chemical_formula_sum   'Tb2 Y1 Ga2 Co9 B4'
_cell_volume   220.36125423
_cell_formula_units_Z   1
loop_
 _symmetry_equiv_pos_site_id
 _symmetry_equiv_pos_as_xyz
  1  'x, y, z'
loop_
 _atom_site_type_symbol
 _atom_site_label
 _atom_site_symmetry_multiplicity
 _atom_site_fract_x
 _atom_site_fract_y
 _atom_site_fract_z
 _atom_site_occupancy
  Tb  Tb0  1  0.999995  0.000000  0.340586  1
  Tb  Tb1  1  0.000001  0.000000  0.659449  1
  Y  Y2  1  0.999986  0.000000  0.000015  1
  Ga  Ga3  1  0.333385  0.666716  0.999989  1
  Ga  Ga4  1  0.666591  0.333285  0.999989  1
  Co  Co5  1  0.499997  0.000000  0.500003  1
  Co  Co6  1  0.499997  0.500001  0.500022  1
  Co  Co7  1  0.999997  0.499999  0.500021  1
  Co  Co8  1  0.499992  0.999999  0.207701  1
  Co  Co9  1  0.499991  0.500000  0.207677  1
  Co  Co10  1  0.999992  0.500000  0.207681  1
  Co  Co11  1  0.499999  0.000000  0.792279  1
  Co  Co12  1  0.499998  0.500002  0.792307  1
  Co  Co13  1  0.999996  0.499999  0.792298  1
  B  B14  1  0.333309  0.666637  0.349017  1
  B  B15  1  0.666679  0.333363  0.349018  1
  B  B16  1  0.666659  0.333347  0.650977  1
  B  B17  1  0.333334  0.666653  0.650977  1
