# generated using pymatgen
data_InP6IrO18
_symmetry_space_group_name_H-M   'P 1'
_cell_length_a   5.22489888
_cell_length_b   7.08410991
_cell_length_c   10.66417800
_cell_angle_alpha   98.59672962
_cell_angle_beta   92.63868400
_cell_angle_gamma   93.36072459
_symmetry_Int_Tables_number   1
_chemical_formula_structural   InP6IrO18
_chemical_formula_sum   'In1 P6 Ir1 O18'
_cell_volume   389.01446240
_cell_formula_units_Z   1
loop_
 _symmetry_equiv_pos_site_id
 _symmetry_equiv_pos_as_xyz
  1  'x, y, z'
loop_
 _atom_site_type_symbol
 _atom_site_label
 _atom_site_symmetry_multiplicity
 _atom_site_fract_x
 _atom_site_fract_y
 _atom_site_fract_z
 _atom_site_occupancy
  In  In0  1  0.000000  0.500000  0.500000  1
  P  P1  1  0.499642  0.326024  0.647465  1
  P  P2  1  0.500358  0.673976  0.352535  1
  P  P3  1  0.480931  0.038099  0.824509  1
  P  P4  1  0.519069  0.961901  0.175491  1
  P  P5  1  0.242651  0.313762  0.222879  1
  P  P6  1  0.757349  0.686238  0.777121  1
  Ir  Ir7  1  0.000000  0.000000  0.000000  1
  O  O8  1  0.319005  0.883115  0.070865  1
  O  O9  1  0.680995  0.116885  0.929135  1
  O  O10  1  0.462785  0.871990  0.301960  1
  O  O11  1  0.537215  0.128010  0.698040  1
  O  O12  1  0.614946  0.477823  0.768924  1
  O  O13  1  0.385054  0.522177  0.231076  1
  O  O14  1  0.905265  0.701644  0.660988  1
  O  O15  1  0.094735  0.298356  0.339012  1
  O  O16  1  0.663607  0.328022  0.535334  1
  O  O17  1  0.336393  0.671978  0.464666  1
  O  O18  1  0.486145  0.182968  0.226553  1
  O  O19  1  0.513855  0.817032  0.773447  1
  O  O20  1  0.896176  0.726729  0.906594  1
  O  O21  1  0.103824  0.273271  0.093406  1
  O  O22  1  0.796907  0.932052  0.150312  1
  O  O23  1  0.203093  0.067948  0.849688  1
  O  O24  1  0.781836  0.648240  0.372546  1
  O  O25  1  0.218164  0.351760  0.627454  1
