# generated using pymatgen
data_YbDy6FeI12
_symmetry_space_group_name_H-M   'P 1'
_cell_length_a   9.74297609
_cell_length_b   9.74297443
_cell_length_c   9.74297546
_cell_angle_alpha   107.03331956
_cell_angle_beta   107.03331312
_cell_angle_gamma   107.03331467
_symmetry_Int_Tables_number   1
_chemical_formula_structural   YbDy6FeI12
_chemical_formula_sum   'Yb1 Dy6 Fe1 I12'
_cell_volume   769.52908160
_cell_formula_units_Z   1
loop_
 _symmetry_equiv_pos_site_id
 _symmetry_equiv_pos_as_xyz
  1  'x, y, z'
loop_
 _atom_site_type_symbol
 _atom_site_label
 _atom_site_symmetry_multiplicity
 _atom_site_fract_x
 _atom_site_fract_y
 _atom_site_fract_z
 _atom_site_occupancy
  Yb  Yb0  1  0.500000  0.500000  0.500000  1
  Dy  Dy1  1  0.708313  0.976110  0.906168  1
  Dy  Dy2  1  0.976110  0.906168  0.708313  1
  Dy  Dy3  1  0.093832  0.291687  0.023890  1
  Dy  Dy4  1  0.291687  0.023890  0.093832  1
  Dy  Dy5  1  0.906168  0.708313  0.976110  1
  Dy  Dy6  1  0.023890  0.093832  0.291687  1
  Fe  Fe7  1  0.000000  0.000000  0.000000  1
  I  I8  1  0.072238  0.224632  0.681155  1
  I  I9  1  0.378633  0.149742  0.456352  1
  I  I10  1  0.621367  0.850258  0.543648  1
  I  I11  1  0.224632  0.681155  0.072238  1
  I  I12  1  0.775368  0.318845  0.927762  1
  I  I13  1  0.681155  0.072238  0.224632  1
  I  I14  1  0.543648  0.621367  0.850258  1
  I  I15  1  0.850258  0.543648  0.621367  1
  I  I16  1  0.927762  0.775368  0.318845  1
  I  I17  1  0.318845  0.927762  0.775368  1
  I  I18  1  0.456352  0.378633  0.149742  1
  I  I19  1  0.149742  0.456352  0.378633  1
