# generated using pymatgen
data_Y6Zn17PPt6
_symmetry_space_group_name_H-M   'P 1'
_cell_length_a   9.04304278
_cell_length_b   9.04304310
_cell_length_c   9.04304400
_cell_angle_alpha   60.00000403
_cell_angle_beta   60.00000285
_cell_angle_gamma   60.00000097
_symmetry_Int_Tables_number   1
_chemical_formula_structural   Y6Zn17PPt6
_chemical_formula_sum   'Y6 Zn17 P1 Pt6'
_cell_volume   522.91230075
_cell_formula_units_Z   1
loop_
 _symmetry_equiv_pos_site_id
 _symmetry_equiv_pos_as_xyz
  1  'x, y, z'
loop_
 _atom_site_type_symbol
 _atom_site_label
 _atom_site_symmetry_multiplicity
 _atom_site_fract_x
 _atom_site_fract_y
 _atom_site_fract_z
 _atom_site_occupancy
  Y  Y0  1  0.717533  0.282467  0.282467  1
  Y  Y1  1  0.282467  0.717533  0.717533  1
  Y  Y2  1  0.282467  0.717533  0.282467  1
  Y  Y3  1  0.717533  0.282467  0.717533  1
  Y  Y4  1  0.282467  0.282467  0.717533  1
  Y  Y5  1  0.717533  0.717533  0.282467  1
  Zn  Zn6  1  0.124941  0.124941  0.124941  1
  Zn  Zn7  1  0.875059  0.875059  0.875059  1
  Zn  Zn8  1  0.124941  0.124941  0.625178  1
  Zn  Zn9  1  0.124941  0.625178  0.124941  1
  Zn  Zn10  1  0.875059  0.875059  0.374822  1
  Zn  Zn11  1  0.875059  0.374822  0.875059  1
  Zn  Zn12  1  0.625178  0.124941  0.124941  1
  Zn  Zn13  1  0.374822  0.875059  0.875059  1
  Zn  Zn14  1  0.333829  0.333829  0.333829  1
  Zn  Zn15  1  0.666171  0.666171  0.666171  1
  Zn  Zn16  1  0.333829  0.333829  0.998516  1
  Zn  Zn17  1  0.333829  0.998516  0.333829  1
  Zn  Zn18  1  0.666171  0.666171  0.001484  1
  Zn  Zn19  1  0.666171  0.001484  0.666171  1
  Zn  Zn20  1  0.998516  0.333829  0.333829  1
  Zn  Zn21  1  0.001484  0.666171  0.666171  1
  Zn  Zn22  1  0.000000  0.000000  0.000000  1
  P  P23  1  0.500000  0.500000  0.500000  1
  Pt  Pt24  1  0.500000  0.000000  0.000000  1
  Pt  Pt25  1  0.000000  0.500000  0.500000  1
  Pt  Pt26  1  0.000000  0.500000  0.000000  1
  Pt  Pt27  1  0.500000  0.000000  0.500000  1
  Pt  Pt28  1  0.000000  0.000000  0.500000  1
  Pt  Pt29  1  0.500000  0.500000  0.000000  1
