# generated using pymatgen
data_Hf2Mn5Cr3P4
_symmetry_space_group_name_H-M   'P 1'
_cell_length_a   6.96164773
_cell_length_b   6.73137926
_cell_length_c   3.71604900
_cell_angle_alpha   90.00000000
_cell_angle_beta   90.00000000
_cell_angle_gamma   89.73364279
_symmetry_Int_Tables_number   1
_chemical_formula_structural   Hf2Mn5Cr3P4
_chemical_formula_sum   'Hf2 Mn5 Cr3 P4'
_cell_volume   174.13771557
_cell_formula_units_Z   1
loop_
 _symmetry_equiv_pos_site_id
 _symmetry_equiv_pos_as_xyz
  1  'x, y, z'
loop_
 _atom_site_type_symbol
 _atom_site_label
 _atom_site_symmetry_multiplicity
 _atom_site_fract_x
 _atom_site_fract_y
 _atom_site_fract_z
 _atom_site_occupancy
  Hf  Hf0  1  0.502857  0.500293  0.000000  1
  Hf  Hf1  1  0.000856  0.999130  0.500000  1
  Mn  Mn2  1  0.905458  0.660070  0.000000  1
  Mn  Mn3  1  0.157704  0.582363  0.500000  1
  Mn  Mn4  1  0.839656  0.411687  0.500000  1
  Mn  Mn5  1  0.337299  0.083341  0.000000  1
  Mn  Mn6  1  0.656113  0.921702  0.000000  1
  Cr  Cr7  1  0.595597  0.146323  0.500000  1
  Cr  Cr8  1  0.405098  0.845838  0.500000  1
  Cr  Cr9  1  0.093135  0.354177  0.000000  1
  P  P10  1  0.711431  0.718276  0.500000  1
  P  P11  1  0.294409  0.279001  0.500000  1
  P  P12  1  0.203823  0.778180  0.000000  1
  P  P13  1  0.796565  0.219618  0.000000  1
