# generated using pymatgen
data_Er10FeNiSb4
_symmetry_space_group_name_H-M   'P 1'
_cell_length_a   7.79740700
_cell_length_b   8.74051400
_cell_length_c   12.05605200
_cell_angle_alpha   90.00000000
_cell_angle_beta   90.00000000
_cell_angle_gamma   90.00000000
_symmetry_Int_Tables_number   1
_chemical_formula_structural   Er10FeNiSb4
_chemical_formula_sum   'Er20 Fe2 Ni2 Sb8'
_cell_volume   821.66027186
_cell_formula_units_Z   2
loop_
 _symmetry_equiv_pos_site_id
 _symmetry_equiv_pos_as_xyz
  1  'x, y, z'
loop_
 _atom_site_type_symbol
 _atom_site_label
 _atom_site_symmetry_multiplicity
 _atom_site_fract_x
 _atom_site_fract_y
 _atom_site_fract_z
 _atom_site_occupancy
  Er  Er0  1  0.156085  0.750000  0.203168  1
  Er  Er1  1  0.656085  0.250000  0.296832  1
  Er  Er2  1  0.841155  0.250000  0.792034  1
  Er  Er3  1  0.341155  0.750000  0.707966  1
  Er  Er4  1  0.452004  0.750000  0.998326  1
  Er  Er5  1  0.952004  0.250000  0.501674  1
  Er  Er6  1  0.545765  0.250000  0.002586  1
  Er  Er7  1  0.045765  0.750000  0.497414  1
  Er  Er8  1  0.624992  0.750000  0.305797  1
  Er  Er9  1  0.124992  0.250000  0.194203  1
  Er  Er10  1  0.377187  0.250000  0.693046  1
  Er  Er11  1  0.877187  0.750000  0.806954  1
  Er  Er12  1  0.822154  0.958104  0.065168  1
  Er  Er13  1  0.322154  0.041896  0.434832  1
  Er  Er14  1  0.178169  0.467427  0.934171  1
  Er  Er15  1  0.678169  0.532573  0.565829  1
  Er  Er16  1  0.178169  0.032573  0.934171  1
  Er  Er17  1  0.678169  0.967427  0.565829  1
  Er  Er18  1  0.822154  0.541896  0.065168  1
  Er  Er19  1  0.322154  0.458104  0.434832  1
  Fe  Fe20  1  0.571106  0.250000  0.511124  1
  Fe  Fe21  1  0.071106  0.750000  0.988876  1
  Ni  Ni22  1  0.428880  0.750000  0.489898  1
  Ni  Ni23  1  0.928880  0.250000  0.010102  1
  Sb  Sb24  1  0.930454  0.991836  0.326848  1
  Sb  Sb25  1  0.430454  0.008164  0.173152  1
  Sb  Sb26  1  0.070635  0.492160  0.672257  1
  Sb  Sb27  1  0.570635  0.507840  0.827743  1
  Sb  Sb28  1  0.070635  0.007840  0.672257  1
  Sb  Sb29  1  0.570635  0.992160  0.827743  1
  Sb  Sb30  1  0.930454  0.508164  0.326848  1
  Sb  Sb31  1  0.430454  0.491836  0.173152  1
