# generated using pymatgen
data_Ta2Mn(NbTe2)2
_symmetry_space_group_name_H-M   'P 1'
_cell_length_a   4.87401300
_cell_length_b   10.96353800
_cell_length_c   19.18940300
_cell_angle_alpha   90.00000000
_cell_angle_beta   90.00000000
_cell_angle_gamma   90.00000000
_symmetry_Int_Tables_number   1
_chemical_formula_structural   Ta2Mn(NbTe2)2
_chemical_formula_sum   'Ta8 Mn4 Nb8 Te16'
_cell_volume   1025.41312756
_cell_formula_units_Z   4
loop_
 _symmetry_equiv_pos_site_id
 _symmetry_equiv_pos_as_xyz
  1  'x, y, z'
loop_
 _atom_site_type_symbol
 _atom_site_label
 _atom_site_symmetry_multiplicity
 _atom_site_fract_x
 _atom_site_fract_y
 _atom_site_fract_z
 _atom_site_occupancy
  Ta  Ta0  1  0.500000  0.563851  0.384470  1
  Ta  Ta1  1  0.500000  0.436149  0.615530  1
  Ta  Ta2  1  0.500000  0.063851  0.115530  1
  Ta  Ta3  1  0.500000  0.936149  0.884470  1
  Ta  Ta4  1  0.500000  0.702781  0.536434  1
  Ta  Ta5  1  0.500000  0.297219  0.463566  1
  Ta  Ta6  1  0.500000  0.202781  0.963566  1
  Ta  Ta7  1  0.500000  0.797219  0.036434  1
  Mn  Mn8  1  0.251086  0.500000  0.500000  1
  Mn  Mn9  1  0.748914  0.000000  0.000000  1
  Mn  Mn10  1  0.748914  0.500000  0.500000  1
  Mn  Mn11  1  0.251086  0.000000  0.000000  1
  Nb  Nb12  1  0.000000  0.689728  0.443505  1
  Nb  Nb13  1  0.000000  0.310272  0.556495  1
  Nb  Nb14  1  0.000000  0.189728  0.056495  1
  Nb  Nb15  1  0.000000  0.810272  0.943505  1
  Nb  Nb16  1  0.000000  0.401512  0.391874  1
  Nb  Nb17  1  0.000000  0.598488  0.608126  1
  Nb  Nb18  1  0.000000  0.901512  0.108126  1
  Nb  Nb19  1  0.000000  0.098488  0.891874  1
  Te  Te20  1  0.000000  0.846596  0.562704  1
  Te  Te21  1  0.000000  0.153404  0.437296  1
  Te  Te22  1  0.000000  0.346596  0.937296  1
  Te  Te23  1  0.000000  0.653404  0.062704  1
  Te  Te24  1  0.500000  0.332393  0.316447  1
  Te  Te25  1  0.500000  0.667607  0.683553  1
  Te  Te26  1  0.500000  0.832393  0.183553  1
  Te  Te27  1  0.500000  0.167607  0.816447  1
  Te  Te28  1  0.500000  0.822363  0.404290  1
  Te  Te29  1  0.500000  0.177637  0.595710  1
  Te  Te30  1  0.500000  0.322363  0.095710  1
  Te  Te31  1  0.500000  0.677637  0.904290  1
  Te  Te32  1  0.000000  0.608982  0.301957  1
  Te  Te33  1  0.000000  0.391018  0.698043  1
  Te  Te34  1  0.000000  0.108982  0.198043  1
  Te  Te35  1  0.000000  0.891018  0.801957  1
