# generated using pymatgen
data_Li2Ni9As7Pd3
_symmetry_space_group_name_H-M   'P 1'
_cell_length_a   9.45772100
_cell_length_b   9.45771982
_cell_length_c   3.79646200
_cell_angle_alpha   90.00000000
_cell_angle_beta   90.00000000
_cell_angle_gamma   120.00000761
_symmetry_Int_Tables_number   1
_chemical_formula_structural   Li2Ni9As7Pd3
_chemical_formula_sum   'Li2 Ni9 As7 Pd3'
_cell_volume   294.09158513
_cell_formula_units_Z   1
loop_
 _symmetry_equiv_pos_site_id
 _symmetry_equiv_pos_as_xyz
  1  'x, y, z'
loop_
 _atom_site_type_symbol
 _atom_site_label
 _atom_site_symmetry_multiplicity
 _atom_site_fract_x
 _atom_site_fract_y
 _atom_site_fract_z
 _atom_site_occupancy
  Li  Li0  1  0.333333  0.666667  0.000000  1
  Li  Li1  1  0.000000  0.000000  0.500000  1
  Ni  Ni2  1  0.279784  0.379468  0.500000  1
  Ni  Ni3  1  0.620532  0.900315  0.500000  1
  Ni  Ni4  1  0.099685  0.720216  0.500000  1
  Ni  Ni5  1  0.498347  0.452147  0.000000  1
  Ni  Ni6  1  0.547853  0.046200  0.000000  1
  Ni  Ni7  1  0.953800  0.501653  0.000000  1
  Ni  Ni8  1  0.719962  0.761364  0.000000  1
  Ni  Ni9  1  0.238636  0.958598  0.000000  1
  Ni  Ni10  1  0.041402  0.280038  0.000000  1
  As  As11  1  0.966982  0.761246  0.000000  1
  As  As12  1  0.238754  0.205736  0.000000  1
  As  As13  1  0.794264  0.033018  0.000000  1
  As  As14  1  0.666667  0.333333  0.000000  1
  As  As15  1  0.535705  0.625894  0.500000  1
  As  As16  1  0.374106  0.909811  0.500000  1
  As  As17  1  0.090189  0.464295  0.500000  1
  Pd  Pd18  1  0.762475  0.554579  0.500000  1
  Pd  Pd19  1  0.445421  0.207897  0.500000  1
  Pd  Pd20  1  0.792103  0.237525  0.500000  1
