# generated using pymatgen
data_Tm5Lu3Ga3Co
_symmetry_space_group_name_H-M   'P 1'
_cell_length_a   9.83947400
_cell_length_b   9.83947325
_cell_length_c   6.82012400
_cell_angle_alpha   90.00000000
_cell_angle_beta   90.00000000
_cell_angle_gamma   120.00000925
_symmetry_Int_Tables_number   1
_chemical_formula_structural   Tm5Lu3Ga3Co
_chemical_formula_sum   'Tm10 Lu6 Ga6 Co2'
_cell_volume   571.82954947
_cell_formula_units_Z   2
loop_
 _symmetry_equiv_pos_site_id
 _symmetry_equiv_pos_as_xyz
  1  'x, y, z'
loop_
 _atom_site_type_symbol
 _atom_site_label
 _atom_site_symmetry_multiplicity
 _atom_site_fract_x
 _atom_site_fract_y
 _atom_site_fract_z
 _atom_site_occupancy
  Tm  Tm0  1  0.333333  0.666667  0.671835  1
  Tm  Tm1  1  0.666667  0.333333  0.171835  1
  Tm  Tm2  1  0.464212  0.535788  0.291936  1
  Tm  Tm3  1  0.928422  0.464212  0.791936  1
  Tm  Tm4  1  0.535788  0.071578  0.791936  1
  Tm  Tm5  1  0.464212  0.928422  0.291936  1
  Tm  Tm6  1  0.071578  0.535788  0.291936  1
  Tm  Tm7  1  0.535788  0.464212  0.791936  1
  Tm  Tm8  1  0.000000  0.000000  0.268092  1
  Tm  Tm9  1  0.000000  0.000000  0.768092  1
  Lu  Lu10  1  0.173393  0.826607  0.990033  1
  Lu  Lu11  1  0.346785  0.173393  0.490033  1
  Lu  Lu12  1  0.826607  0.653215  0.490033  1
  Lu  Lu13  1  0.173393  0.346785  0.990033  1
  Lu  Lu14  1  0.653215  0.826607  0.990033  1
  Lu  Lu15  1  0.826607  0.173393  0.490033  1
  Ga  Ga16  1  0.163292  0.836708  0.539780  1
  Ga  Ga17  1  0.326584  0.163292  0.039780  1
  Ga  Ga18  1  0.836708  0.673416  0.039780  1
  Ga  Ga19  1  0.163292  0.326584  0.539780  1
  Ga  Ga20  1  0.673416  0.836708  0.539780  1
  Ga  Ga21  1  0.836708  0.163292  0.039780  1
  Co  Co22  1  0.333333  0.666667  0.056829  1
  Co  Co23  1  0.666667  0.333333  0.556829  1
