# generated using pymatgen
data_DyHo5Zr2(Co4P3)4
_symmetry_space_group_name_H-M   'P 1'
_cell_length_a   3.71261800
_cell_length_b   10.68075000
_cell_length_c   12.38737000
_cell_angle_alpha   90.00000000
_cell_angle_beta   90.00000000
_cell_angle_gamma   90.00000000
_symmetry_Int_Tables_number   1
_chemical_formula_structural   DyHo5Zr2(Co4P3)4
_chemical_formula_sum   'Dy1 Ho5 Zr2 Co16 P12'
_cell_volume   491.20313005
_cell_formula_units_Z   1
loop_
 _symmetry_equiv_pos_site_id
 _symmetry_equiv_pos_as_xyz
  1  'x, y, z'
loop_
 _atom_site_type_symbol
 _atom_site_label
 _atom_site_symmetry_multiplicity
 _atom_site_fract_x
 _atom_site_fract_y
 _atom_site_fract_z
 _atom_site_occupancy
  Dy  Dy0  1  0.000000  0.500000  0.529201  1
  Ho  Ho1  1  0.500000  0.000000  0.470796  1
  Ho  Ho2  1  0.500000  0.821880  0.204821  1
  Ho  Ho3  1  0.500000  0.178120  0.204821  1
  Ho  Ho4  1  0.000000  0.678132  0.795196  1
  Ho  Ho5  1  0.000000  0.321868  0.795196  1
  Zr  Zr6  1  0.500000  0.500000  0.158190  1
  Zr  Zr7  1  0.000000  0.000000  0.841802  1
  Co  Co8  1  0.000000  0.500000  0.985564  1
  Co  Co9  1  0.500000  0.000000  0.014439  1
  Co  Co10  1  0.500000  0.295019  0.433340  1
  Co  Co11  1  0.500000  0.704981  0.433340  1
  Co  Co12  1  0.000000  0.204931  0.566649  1
  Co  Co13  1  0.000000  0.795069  0.566649  1
  Co  Co14  1  0.500000  0.877234  0.701345  1
  Co  Co15  1  0.500000  0.122766  0.701345  1
  Co  Co16  1  0.000000  0.622766  0.298636  1
  Co  Co17  1  0.000000  0.377234  0.298636  1
  Co  Co18  1  0.500000  0.332071  0.992579  1
  Co  Co19  1  0.500000  0.667929  0.992579  1
  Co  Co20  1  0.000000  0.167937  0.007423  1
  Co  Co21  1  0.000000  0.832063  0.007423  1
  Co  Co22  1  0.500000  0.500000  0.703011  1
  Co  Co23  1  0.000000  0.000000  0.297053  1
  P  P24  1  0.500000  0.310386  0.615680  1
  P  P25  1  0.500000  0.689614  0.615680  1
  P  P26  1  0.000000  0.189558  0.384336  1
  P  P27  1  0.000000  0.810442  0.384336  1
  P  P28  1  0.500000  0.500000  0.882952  1
  P  P29  1  0.000000  0.000000  0.117057  1
  P  P30  1  0.500000  0.837917  0.893730  1
  P  P31  1  0.500000  0.162083  0.893730  1
  P  P32  1  0.000000  0.662082  0.106268  1
  P  P33  1  0.000000  0.337918  0.106268  1
  P  P34  1  0.500000  0.500000  0.363392  1
  P  P35  1  0.000000  0.000000  0.636539  1
