# generated using pymatgen
data_ZnAg3(NO3)8
_symmetry_space_group_name_H-M   'P 1'
_cell_length_a   7.90773673
_cell_length_b   7.90773673
_cell_length_c   7.90773673
_cell_angle_alpha   91.41765989
_cell_angle_beta   88.58234011
_cell_angle_gamma   88.58234011
_symmetry_Int_Tables_number   1
_chemical_formula_structural   ZnAg3(NO3)8
_chemical_formula_sum   'Zn1 Ag3 N8 O24'
_cell_volume   494.02726128
_cell_formula_units_Z   1
loop_
 _symmetry_equiv_pos_site_id
 _symmetry_equiv_pos_as_xyz
  1  'x, y, z'
loop_
 _atom_site_type_symbol
 _atom_site_label
 _atom_site_symmetry_multiplicity
 _atom_site_fract_x
 _atom_site_fract_y
 _atom_site_fract_z
 _atom_site_occupancy
  Zn  Zn0  1  0.000000  0.000000  0.500000  1
  Ag  Ag1  1  0.500000  0.500000  0.500000  1
  Ag  Ag2  1  0.500000  0.000000  0.000000  1
  Ag  Ag3  1  0.000000  0.500000  0.000000  1
  N  N4  1  0.682570  0.156618  0.335291  1
  N  N5  1  0.666367  0.333633  0.833633  1
  N  N6  1  0.843382  0.835291  0.817430  1
  N  N7  1  0.835291  0.682570  0.343382  1
  N  N8  1  0.156618  0.164709  0.182570  1
  N  N9  1  0.164709  0.317430  0.656618  1
  N  N10  1  0.333633  0.666367  0.166367  1
  N  N11  1  0.317430  0.843382  0.664709  1
  O  O12  1  0.546375  0.232978  0.814312  1
  O  O13  1  0.564376  0.266296  0.322924  1
  O  O14  1  0.685688  0.453625  0.732978  1
  O  O15  1  0.694173  0.035298  0.229508  1
  O  O16  1  0.729508  0.694173  0.464702  1
  O  O17  1  0.733704  0.822924  0.935624  1
  O  O18  1  0.767022  0.314312  0.953625  1
  O  O19  1  0.787786  0.169842  0.453137  1
  O  O20  1  0.830158  0.953137  0.712214  1
  O  O21  1  0.822924  0.564376  0.233704  1
  O  O22  1  0.964702  0.729508  0.805827  1
  O  O23  1  0.953137  0.787786  0.330158  1
  O  O24  1  0.046863  0.212214  0.669842  1
  O  O25  1  0.035298  0.270492  0.194173  1
  O  O26  1  0.177076  0.435624  0.766296  1
  O  O27  1  0.169842  0.046863  0.287786  1
  O  O28  1  0.232978  0.685688  0.046375  1
  O  O29  1  0.212214  0.830158  0.546863  1
  O  O30  1  0.266296  0.177076  0.064376  1
  O  O31  1  0.270492  0.305827  0.535298  1
  O  O32  1  0.314312  0.546375  0.267022  1
  O  O33  1  0.305827  0.964702  0.770492  1
  O  O34  1  0.435624  0.733704  0.677076  1
  O  O35  1  0.453625  0.767022  0.185688  1
