# generated using pymatgen
data_Li2Dy3(CuSi2)2
_symmetry_space_group_name_H-M   'P 1'
_cell_length_a   7.95389546
_cell_length_b   7.95389498
_cell_length_c   7.95389451
_cell_angle_alpha   149.54276227
_cell_angle_beta   131.31439363
_cell_angle_gamma   58.52019248
_symmetry_Int_Tables_number   1
_chemical_formula_structural   Li2Dy3(CuSi2)2
_chemical_formula_sum   'Li2 Dy3 Cu2 Si4'
_cell_volume   190.12331157
_cell_formula_units_Z   1
loop_
 _symmetry_equiv_pos_site_id
 _symmetry_equiv_pos_as_xyz
  1  'x, y, z'
loop_
 _atom_site_type_symbol
 _atom_site_label
 _atom_site_symmetry_multiplicity
 _atom_site_fract_x
 _atom_site_fract_y
 _atom_site_fract_z
 _atom_site_occupancy
  Li  Li0  1  0.518376  0.830512  0.687864  1
  Li  Li1  1  0.857352  0.169488  0.687864  1
  Dy  Dy2  1  0.871569  0.370206  0.501363  1
  Dy  Dy3  1  0.131157  0.629794  0.501363  1
  Dy  Dy4  1  0.501241  0.500000  0.001241  1
  Cu  Cu5  1  0.135201  0.826109  0.309092  1
  Cu  Cu6  1  0.482984  0.173891  0.309092  1
  Si  Si7  1  0.822190  0.000000  0.822190  1
  Si  Si8  1  0.187391  0.000000  0.187391  1
  Si  Si9  1  0.283310  0.287041  0.996269  1
  Si  Si10  1  0.709228  0.712959  0.996269  1
