# generated using pymatgen
data_Cs4NaGaTe4
_symmetry_space_group_name_H-M   'P 1'
_cell_length_a   9.43991446
_cell_length_b   9.43991444
_cell_length_c   9.43989700
_cell_angle_alpha   131.33481174
_cell_angle_beta   129.54527524
_cell_angle_gamma   72.71388096
_symmetry_Int_Tables_number   1
_chemical_formula_structural   Cs4NaGaTe4
_chemical_formula_sum   'Cs4 Na1 Ga1 Te4'
_cell_volume   475.88186831
_cell_formula_units_Z   1
loop_
 _symmetry_equiv_pos_site_id
 _symmetry_equiv_pos_as_xyz
  1  'x, y, z'
loop_
 _atom_site_type_symbol
 _atom_site_label
 _atom_site_symmetry_multiplicity
 _atom_site_fract_x
 _atom_site_fract_y
 _atom_site_fract_z
 _atom_site_occupancy
  Cs  Cs0  1  0.814830  0.647976  0.175591  1
  Cs  Cs1  1  0.185173  0.360757  0.833142  1
  Cs  Cs2  1  0.527614  0.852029  0.666858  1
  Cs  Cs3  1  0.472385  0.139239  0.324409  1
  Na  Na4  1  0.000001  0.750001  0.750000  1
  Ga  Ga5  1  0.999999  0.249999  0.250000  1
  Te  Te6  1  0.287272  0.561498  0.644330  1
  Te  Te7  1  0.082823  0.938493  0.225755  1
  Te  Te8  1  0.917168  0.142941  0.855670  1
  Te  Te9  1  0.712738  0.357068  0.274245  1
