# generated using pymatgen
data_Tb3YEr(In2Pd)2
_symmetry_space_group_name_H-M   'P 1'
_cell_length_a   3.63635400
_cell_length_b   8.17698535
_cell_length_c   18.29484678
_cell_angle_alpha   89.96661381
_cell_angle_beta   90.00000000
_cell_angle_gamma   90.00000000
_symmetry_Int_Tables_number   1
_chemical_formula_structural   Tb3YEr(In2Pd)2
_chemical_formula_sum   'Tb6 Y2 Er2 In8 Pd4'
_cell_volume   543.98644433
_cell_formula_units_Z   2
loop_
 _symmetry_equiv_pos_site_id
 _symmetry_equiv_pos_as_xyz
  1  'x, y, z'
loop_
 _atom_site_type_symbol
 _atom_site_label
 _atom_site_symmetry_multiplicity
 _atom_site_fract_x
 _atom_site_fract_y
 _atom_site_fract_z
 _atom_site_occupancy
  Tb  Tb0  1  0.000000  0.739188  0.281392  1
  Tb  Tb1  1  0.000000  0.260812  0.718608  1
  Tb  Tb2  1  0.000000  0.761139  0.781103  1
  Tb  Tb3  1  0.000000  0.238861  0.218897  1
  Tb  Tb4  1  0.000000  0.617349  0.083333  1
  Tb  Tb5  1  0.000000  0.382651  0.916667  1
  Y  Y6  1  0.000000  0.500000  0.500000  1
  Y  Y7  1  0.000000  0.000000  0.000000  1
  Er  Er8  1  0.000000  0.883119  0.583932  1
  Er  Er9  1  0.000000  0.116881  0.416068  1
  In  In10  1  0.500000  0.708523  0.932569  1
  In  In11  1  0.500000  0.291477  0.067431  1
  In  In12  1  0.500000  0.793453  0.433207  1
  In  In13  1  0.500000  0.206547  0.566793  1
  In  In14  1  0.500000  0.582306  0.649991  1
  In  In15  1  0.500000  0.417694  0.350009  1
  In  In16  1  0.500000  0.919250  0.150434  1
  In  In17  1  0.500000  0.080750  0.849566  1
  Pd  Pd18  1  0.500000  0.523079  0.196242  1
  Pd  Pd19  1  0.500000  0.476921  0.803758  1
  Pd  Pd20  1  0.500000  0.976305  0.695208  1
  Pd  Pd21  1  0.500000  0.023695  0.304792  1
