# generated using pymatgen
data_Yb2Pr18Si15Os
_symmetry_space_group_name_H-M   'P 1'
_cell_length_a   7.92126376
_cell_length_b   7.91608388
_cell_length_c   15.24723100
_cell_angle_alpha   90.05754851
_cell_angle_beta   89.67586584
_cell_angle_gamma   90.20168098
_symmetry_Int_Tables_number   1
_chemical_formula_structural   Yb2Pr18Si15Os
_chemical_formula_sum   'Yb2 Pr18 Si15 Os1'
_cell_volume   956.06185494
_cell_formula_units_Z   1
loop_
 _symmetry_equiv_pos_site_id
 _symmetry_equiv_pos_as_xyz
  1  'x, y, z'
loop_
 _atom_site_type_symbol
 _atom_site_label
 _atom_site_symmetry_multiplicity
 _atom_site_fract_x
 _atom_site_fract_y
 _atom_site_fract_z
 _atom_site_occupancy
  Yb  Yb0  1  0.309471  0.309001  0.999172  1
  Yb  Yb1  1  0.190158  0.810113  0.250368  1
  Pr  Pr2  1  0.825257  0.188985  0.747677  1
  Pr  Pr3  1  0.692888  0.688104  0.501530  1
  Pr  Pr4  1  0.374614  0.010064  0.448012  1
  Pr  Pr5  1  0.485367  0.877881  0.698132  1
  Pr  Pr6  1  0.509415  0.123643  0.197907  1
  Pr  Pr7  1  0.874970  0.489744  0.299491  1
  Pr  Pr8  1  0.127607  0.505841  0.799783  1
  Pr  Pr9  1  0.625162  0.990882  0.948949  1
  Pr  Pr10  1  0.008018  0.375652  0.550909  1
  Pr  Pr11  1  0.991216  0.623528  0.052031  1
  Pr  Pr12  1  0.132334  0.987191  0.874298  1
  Pr  Pr13  1  0.513365  0.627913  0.126210  1
  Pr  Pr14  1  0.471112  0.360261  0.629008  1
  Pr  Pr15  1  0.627024  0.512516  0.875455  1
  Pr  Pr16  1  0.374500  0.484500  0.373218  1
  Pr  Pr17  1  0.874640  0.017154  0.375809  1
  Pr  Pr18  1  0.987762  0.125826  0.123976  1
  Pr  Pr19  1  0.026959  0.881418  0.626091  1
  Si  Si20  1  0.334282  0.698249  0.950298  1
  Si  Si21  1  0.663714  0.300471  0.450072  1
  Si  Si22  1  0.700996  0.334453  0.052032  1
  Si  Si23  1  0.304645  0.669403  0.546741  1
  Si  Si24  1  0.801094  0.834645  0.200593  1
  Si  Si25  1  0.165844  0.201629  0.298061  1
  Si  Si26  1  0.832806  0.800643  0.800884  1
  Si  Si27  1  0.286949  0.917864  0.058876  1
  Si  Si28  1  0.581641  0.786592  0.309327  1
  Si  Si29  1  0.423066  0.207591  0.812684  1
  Si  Si30  1  0.780030  0.582532  0.691529  1
  Si  Si31  1  0.212268  0.420893  0.190137  1
  Si  Si32  1  0.702803  0.073602  0.558096  1
  Si  Si33  1  0.918449  0.287145  0.942305  1
  Si  Si34  1  0.079511  0.715561  0.440772  1
  Os  Os35  1  0.190059  0.178512  0.699563  1
