# generated using pymatgen
data_Zr4CoOs7
_symmetry_space_group_name_H-M   'P 1'
_cell_length_a   5.19129168
_cell_length_b   5.19129116
_cell_length_c   8.55233100
_cell_angle_alpha   90.00000000
_cell_angle_beta   90.00000000
_cell_angle_gamma   119.55766246
_symmetry_Int_Tables_number   1
_chemical_formula_structural   Zr4CoOs7
_chemical_formula_sum   'Zr4 Co1 Os7'
_cell_volume   200.48621638
_cell_formula_units_Z   1
loop_
 _symmetry_equiv_pos_site_id
 _symmetry_equiv_pos_as_xyz
  1  'x, y, z'
loop_
 _atom_site_type_symbol
 _atom_site_label
 _atom_site_symmetry_multiplicity
 _atom_site_fract_x
 _atom_site_fract_y
 _atom_site_fract_z
 _atom_site_occupancy
  Zr  Zr0  1  0.333618  0.666382  0.431030  1
  Zr  Zr1  1  0.667810  0.332190  0.563713  1
  Zr  Zr2  1  0.667810  0.332190  0.936287  1
  Zr  Zr3  1  0.333618  0.666382  0.068970  1
  Co  Co4  1  0.828867  0.171133  0.250000  1
  Os  Os5  1  0.997218  0.002782  0.496115  1
  Os  Os6  1  0.997218  0.002782  0.003885  1
  Os  Os7  1  0.825928  0.653147  0.250000  1
  Os  Os8  1  0.346853  0.174072  0.250000  1
  Os  Os9  1  0.171797  0.828203  0.750000  1
  Os  Os10  1  0.172432  0.343171  0.750000  1
  Os  Os11  1  0.656829  0.827568  0.750000  1
