# generated using pymatgen
data_Ho3Zn3C
_symmetry_space_group_name_H-M   'P 1'
_cell_length_a   9.13425313
_cell_length_b   9.13425358
_cell_length_c   9.13425300
_cell_angle_alpha   59.99999848
_cell_angle_beta   59.99999684
_cell_angle_gamma   60.00000371
_symmetry_Int_Tables_number   1
_chemical_formula_structural   Ho3Zn3C
_chemical_formula_sum   'Ho12 Zn12 C4'
_cell_volume   538.89498502
_cell_formula_units_Z   4
loop_
 _symmetry_equiv_pos_site_id
 _symmetry_equiv_pos_as_xyz
  1  'x, y, z'
loop_
 _atom_site_type_symbol
 _atom_site_label
 _atom_site_symmetry_multiplicity
 _atom_site_fract_x
 _atom_site_fract_y
 _atom_site_fract_z
 _atom_site_occupancy
  Ho  Ho0  1  0.446752  0.446752  0.053248  1
  Ho  Ho1  1  0.053248  0.446752  0.053248  1
  Ho  Ho2  1  0.446752  0.053248  0.053248  1
  Ho  Ho3  1  0.053248  0.053248  0.446752  1
  Ho  Ho4  1  0.446752  0.053248  0.446752  1
  Ho  Ho5  1  0.053248  0.446752  0.446752  1
  Ho  Ho6  1  0.803248  0.803248  0.196752  1
  Ho  Ho7  1  0.196752  0.803248  0.196752  1
  Ho  Ho8  1  0.803248  0.196752  0.196752  1
  Ho  Ho9  1  0.196752  0.196752  0.803248  1
  Ho  Ho10  1  0.803248  0.196752  0.803248  1
  Ho  Ho11  1  0.196752  0.803248  0.803248  1
  Zn  Zn12  1  0.826792  0.826792  0.519624  1
  Zn  Zn13  1  0.826792  0.519624  0.826792  1
  Zn  Zn14  1  0.519624  0.826792  0.826792  1
  Zn  Zn15  1  0.826792  0.826792  0.826792  1
  Zn  Zn16  1  0.423208  0.423208  0.730376  1
  Zn  Zn17  1  0.423208  0.730376  0.423208  1
  Zn  Zn18  1  0.730376  0.423208  0.423208  1
  Zn  Zn19  1  0.423208  0.423208  0.423208  1
  Zn  Zn20  1  0.625000  0.625000  0.125000  1
  Zn  Zn21  1  0.625000  0.125000  0.625000  1
  Zn  Zn22  1  0.125000  0.625000  0.625000  1
  Zn  Zn23  1  0.625000  0.625000  0.625000  1
  C  C24  1  0.125000  0.125000  0.625000  1
  C  C25  1  0.125000  0.625000  0.125000  1
  C  C26  1  0.625000  0.125000  0.125000  1
  C  C27  1  0.125000  0.125000  0.125000  1
