# generated using pymatgen
data_Li2Nd3Tm3(Co4P3)4
_symmetry_space_group_name_H-M   'P 1'
_cell_length_a   3.73292600
_cell_length_b   10.61466437
_cell_length_c   12.24619772
_cell_angle_alpha   90.07650401
_cell_angle_beta   90.00000000
_cell_angle_gamma   90.00000000
_symmetry_Int_Tables_number   1
_chemical_formula_structural   Li2Nd3Tm3(Co4P3)4
_chemical_formula_sum   'Li2 Nd3 Tm3 Co16 P12'
_cell_volume   485.23992543
_cell_formula_units_Z   1
loop_
 _symmetry_equiv_pos_site_id
 _symmetry_equiv_pos_as_xyz
  1  'x, y, z'
loop_
 _atom_site_type_symbol
 _atom_site_label
 _atom_site_symmetry_multiplicity
 _atom_site_fract_x
 _atom_site_fract_y
 _atom_site_fract_z
 _atom_site_occupancy
  Li  Li0  1  0.500000  0.499253  0.151055  1
  Li  Li1  1  0.000000  0.000390  0.848502  1
  Nd  Nd2  1  0.000000  0.499605  0.524285  1
  Nd  Nd3  1  0.500000  0.000564  0.477331  1
  Nd  Nd4  1  0.500000  0.820131  0.205937  1
  Tm  Tm5  1  0.500000  0.181913  0.204883  1
  Tm  Tm6  1  0.000000  0.679777  0.795315  1
  Tm  Tm7  1  0.000000  0.319495  0.793979  1
  Co  Co8  1  0.500000  0.499273  0.708354  1
  Co  Co9  1  0.000000  0.004977  0.291941  1
  Co  Co10  1  0.000000  0.498080  0.985559  1
  Co  Co11  1  0.500000  0.002042  0.010234  1
  Co  Co12  1  0.500000  0.332763  0.996600  1
  Co  Co13  1  0.500000  0.665559  0.994491  1
  Co  Co14  1  0.000000  0.169055  0.001435  1
  Co  Co15  1  0.000000  0.832863  0.000674  1
  Co  Co16  1  0.500000  0.296192  0.429848  1
  Co  Co17  1  0.500000  0.702672  0.433160  1
  Co  Co18  1  0.000000  0.204515  0.570655  1
  Co  Co19  1  0.000000  0.795890  0.573209  1
  Co  Co20  1  0.500000  0.878287  0.710282  1
  Co  Co21  1  0.500000  0.121743  0.709469  1
  Co  Co22  1  0.000000  0.618668  0.293047  1
  Co  Co23  1  0.000000  0.377666  0.290122  1
  P  P24  1  0.500000  0.498677  0.884848  1
  P  P25  1  0.000000  0.003882  0.111594  1
  P  P26  1  0.500000  0.499720  0.342766  1
  P  P27  1  0.000000  0.000124  0.658107  1
  P  P28  1  0.500000  0.306852  0.618221  1
  P  P29  1  0.500000  0.692159  0.620049  1
  P  P30  1  0.000000  0.193741  0.382112  1
  P  P31  1  0.000000  0.805268  0.387459  1
  P  P32  1  0.500000  0.842145  0.893329  1
  P  P33  1  0.500000  0.158899  0.892439  1
  P  P34  1  0.000000  0.654602  0.102588  1
  P  P35  1  0.000000  0.342560  0.106119  1
