# generated using pymatgen
data_Dy8Ho4InCo6
_symmetry_space_group_name_H-M   'P 1'
_cell_length_a   8.35198286
_cell_length_b   8.35198297
_cell_length_c   8.35198288
_cell_angle_alpha   109.43221236
_cell_angle_beta   109.41566748
_cell_angle_gamma   109.56582652
_symmetry_Int_Tables_number   1
_chemical_formula_structural   Dy8Ho4InCo6
_chemical_formula_sum   'Dy8 Ho4 In1 Co6'
_cell_volume   448.48300323
_cell_formula_units_Z   1
loop_
 _symmetry_equiv_pos_site_id
 _symmetry_equiv_pos_as_xyz
  1  'x, y, z'
loop_
 _atom_site_type_symbol
 _atom_site_label
 _atom_site_symmetry_multiplicity
 _atom_site_fract_x
 _atom_site_fract_y
 _atom_site_fract_z
 _atom_site_occupancy
  Dy  Dy0  1  0.806533  0.697679  0.504212  1
  Dy  Dy1  1  0.193467  0.302321  0.495788  1
  Dy  Dy2  1  0.193467  0.697679  0.891145  1
  Dy  Dy3  1  0.806533  0.302321  0.108855  1
  Dy  Dy4  1  0.697980  0.504473  0.806493  1
  Dy  Dy5  1  0.302020  0.495527  0.193507  1
  Dy  Dy6  1  0.697980  0.891487  0.193507  1
  Dy  Dy7  1  0.302020  0.108513  0.806493  1
  Ho  Ho8  1  0.503511  0.806543  0.696968  1
  Ho  Ho9  1  0.496489  0.193457  0.303032  1
  Ho  Ho10  1  0.109576  0.806543  0.303032  1
  Ho  Ho11  1  0.890424  0.193457  0.696968  1
  In  In12  1  0.000000  0.000000  0.000000  1
  Co  Co13  1  0.886600  0.386600  0.500000  1
  Co  Co14  1  0.113400  0.613400  0.500000  1
  Co  Co15  1  0.386694  0.500000  0.886694  1
  Co  Co16  1  0.613306  0.500000  0.113306  1
  Co  Co17  1  0.500000  0.886802  0.386802  1
  Co  Co18  1  0.500000  0.113198  0.613198  1
