# generated using pymatgen
data_KSb12Ir3Ru
_symmetry_space_group_name_H-M   'P 1'
_cell_length_a   8.17740322
_cell_length_b   8.17740300
_cell_length_c   8.16871500
_cell_angle_alpha   109.44970008
_cell_angle_beta   109.44969954
_cell_angle_gamma   109.49273019
_symmetry_Int_Tables_number   1
_chemical_formula_structural   KSb12Ir3Ru
_chemical_formula_sum   'K1 Sb12 Ir3 Ru1'
_cell_volume   420.60841779
_cell_formula_units_Z   1
loop_
 _symmetry_equiv_pos_site_id
 _symmetry_equiv_pos_as_xyz
  1  'x, y, z'
loop_
 _atom_site_type_symbol
 _atom_site_label
 _atom_site_symmetry_multiplicity
 _atom_site_fract_x
 _atom_site_fract_y
 _atom_site_fract_z
 _atom_site_occupancy
  K  K0  1  0.000000  0.000000  0.000000  1
  Sb  Sb1  1  0.844784  0.662074  0.503297  1
  Sb  Sb2  1  0.155216  0.337926  0.496703  1
  Sb  Sb3  1  0.155104  0.656385  0.811350  1
  Sb  Sb4  1  0.844896  0.343615  0.188650  1
  Sb  Sb5  1  0.656385  0.501280  0.845035  1
  Sb  Sb6  1  0.343615  0.498720  0.154965  1
  Sb  Sb7  1  0.662074  0.817291  0.158778  1
  Sb  Sb8  1  0.337926  0.182709  0.841222  1
  Sb  Sb9  1  0.501280  0.844896  0.656245  1
  Sb  Sb10  1  0.498720  0.155104  0.343755  1
  Sb  Sb11  1  0.182709  0.844784  0.341488  1
  Sb  Sb12  1  0.817291  0.155216  0.658512  1
  Ir  Ir13  1  0.500000  0.500000  0.500000  1
  Ir  Ir14  1  0.500000  0.000000  0.000000  1
  Ir  Ir15  1  0.000000  0.500000  0.000000  1
  Ru  Ru16  1  0.000000  0.000000  0.500000  1
