# generated using pymatgen
data_Zn3PtRh2
_symmetry_space_group_name_H-M   'P 1'
_cell_length_a   4.30144700
_cell_length_b   5.26034907
_cell_length_c   7.46794297
_cell_angle_alpha   90.09558100
_cell_angle_beta   90.00000000
_cell_angle_gamma   90.00000000
_symmetry_Int_Tables_number   1
_chemical_formula_structural   Zn3PtRh2
_chemical_formula_sum   'Zn6 Pt2 Rh4'
_cell_volume   168.97775225
_cell_formula_units_Z   2
loop_
 _symmetry_equiv_pos_site_id
 _symmetry_equiv_pos_as_xyz
  1  'x, y, z'
loop_
 _atom_site_type_symbol
 _atom_site_label
 _atom_site_symmetry_multiplicity
 _atom_site_fract_x
 _atom_site_fract_y
 _atom_site_fract_z
 _atom_site_occupancy
  Zn  Zn0  1  0.750000  0.999628  0.750424  1
  Zn  Zn1  1  0.250000  0.000372  0.249576  1
  Zn  Zn2  1  0.250000  0.671115  0.583062  1
  Zn  Zn3  1  0.750000  0.328885  0.416938  1
  Zn  Zn4  1  0.750000  0.673458  0.083562  1
  Zn  Zn5  1  0.250000  0.326542  0.916438  1
  Pt  Pt6  1  0.250000  0.500692  0.249786  1
  Pt  Pt7  1  0.750000  0.499308  0.750214  1
  Rh  Rh8  1  0.250000  0.829328  0.916632  1
  Rh  Rh9  1  0.750000  0.170672  0.083368  1
  Rh  Rh10  1  0.750000  0.831204  0.417103  1
  Rh  Rh11  1  0.250000  0.168796  0.582897  1
