# generated using pymatgen
data_Rb7Ba(US5)2
_symmetry_space_group_name_H-M   'P 1'
_cell_length_a   7.96248434
_cell_length_b   11.83338419
_cell_length_c   7.82159800
_cell_angle_alpha   101.35293587
_cell_angle_beta   102.29382018
_cell_angle_gamma   110.40113029
_symmetry_Int_Tables_number   1
_chemical_formula_structural   Rb7Ba(US5)2
_chemical_formula_sum   'Rb7 Ba1 U2 S10'
_cell_volume   644.66389396
_cell_formula_units_Z   1
loop_
 _symmetry_equiv_pos_site_id
 _symmetry_equiv_pos_as_xyz
  1  'x, y, z'
loop_
 _atom_site_type_symbol
 _atom_site_label
 _atom_site_symmetry_multiplicity
 _atom_site_fract_x
 _atom_site_fract_y
 _atom_site_fract_z
 _atom_site_occupancy
  Rb  Rb0  1  0.999840  0.499961  0.000033  1
  Rb  Rb1  1  0.419156  0.904522  0.202321  1
  Rb  Rb2  1  0.592981  0.593342  0.292814  1
  Rb  Rb3  1  0.795138  0.299954  0.419039  1
  Rb  Rb4  1  0.204863  0.699980  0.580767  1
  Rb  Rb5  1  0.407139  0.406842  0.707235  1
  Rb  Rb6  1  0.580743  0.095370  0.797701  1
  Ba  Ba7  1  0.999830  0.999804  0.499950  1
  U  U8  1  0.187223  0.192356  0.099172  1
  U  U9  1  0.812442  0.807254  0.900646  1
  S  S10  1  0.506527  0.306075  0.062992  1
  S  S11  1  0.851094  0.034640  0.114976  1
  S  S12  1  0.978122  0.769655  0.195698  1
  S  S13  1  0.175505  0.387103  0.296281  1
  S  S14  1  0.351764  0.151867  0.391986  1
  S  S15  1  0.648465  0.848189  0.608239  1
  S  S16  1  0.824453  0.612747  0.703633  1
  S  S17  1  0.021759  0.230427  0.804188  1
  S  S18  1  0.149312  0.965938  0.885366  1
  S  S19  1  0.493647  0.693973  0.936959  1
