# generated using pymatgen
data_Cs4SbTe4
_symmetry_space_group_name_H-M   'P 1'
_cell_length_a   9.47546900
_cell_length_b   11.99473400
_cell_length_c   16.71667000
_cell_angle_alpha   90.00000000
_cell_angle_beta   90.00000000
_cell_angle_gamma   90.00000000
_symmetry_Int_Tables_number   1
_chemical_formula_structural   Cs4SbTe4
_chemical_formula_sum   'Cs16 Sb4 Te16'
_cell_volume   1899.94533503
_cell_formula_units_Z   4
loop_
 _symmetry_equiv_pos_site_id
 _symmetry_equiv_pos_as_xyz
  1  'x, y, z'
loop_
 _atom_site_type_symbol
 _atom_site_label
 _atom_site_symmetry_multiplicity
 _atom_site_fract_x
 _atom_site_fract_y
 _atom_site_fract_z
 _atom_site_occupancy
  Cs  Cs0  1  0.000000  0.000000  0.000000  1
  Cs  Cs1  1  0.500000  0.000000  0.500000  1
  Cs  Cs2  1  0.000000  0.500000  0.000000  1
  Cs  Cs3  1  0.500000  0.500000  0.500000  1
  Cs  Cs4  1  0.998159  0.750000  0.401000  1
  Cs  Cs5  1  0.498159  0.250000  0.099000  1
  Cs  Cs6  1  0.001841  0.250000  0.599000  1
  Cs  Cs7  1  0.501841  0.750000  0.901000  1
  Cs  Cs8  1  0.822887  0.040526  0.272281  1
  Cs  Cs9  1  0.322887  0.959474  0.227719  1
  Cs  Cs10  1  0.177113  0.540526  0.727719  1
  Cs  Cs11  1  0.677113  0.459474  0.772281  1
  Cs  Cs12  1  0.177113  0.959474  0.727719  1
  Cs  Cs13  1  0.677113  0.040526  0.772281  1
  Cs  Cs14  1  0.822887  0.459474  0.272281  1
  Cs  Cs15  1  0.322887  0.540526  0.227719  1
  Sb  Sb16  1  0.784397  0.750000  0.654989  1
  Sb  Sb17  1  0.215603  0.250000  0.345011  1
  Sb  Sb18  1  0.715603  0.750000  0.154989  1
  Sb  Sb19  1  0.284397  0.250000  0.845011  1
  Te  Te20  1  0.976022  0.250000  0.834526  1
  Te  Te21  1  0.523978  0.250000  0.334526  1
  Te  Te22  1  0.476022  0.750000  0.665474  1
  Te  Te23  1  0.023978  0.750000  0.165474  1
  Te  Te24  1  0.611313  0.557209  0.067064  1
  Te  Te25  1  0.111313  0.442791  0.432936  1
  Te  Te26  1  0.388687  0.057209  0.932936  1
  Te  Te27  1  0.888687  0.942791  0.567064  1
  Te  Te28  1  0.388687  0.442791  0.932936  1
  Te  Te29  1  0.888687  0.557209  0.567064  1
  Te  Te30  1  0.611313  0.942791  0.067064  1
  Te  Te31  1  0.111313  0.057209  0.432936  1
  Te  Te32  1  0.605111  0.750000  0.317208  1
  Te  Te33  1  0.105111  0.250000  0.182792  1
  Te  Te34  1  0.394889  0.250000  0.682792  1
  Te  Te35  1  0.894889  0.750000  0.817208  1
