# generated using pymatgen
data_BaNdHoSe4
_symmetry_space_group_name_H-M   'P 1'
_cell_length_a   4.27642200
_cell_length_b   12.98908600
_cell_length_c   15.36006500
_cell_angle_alpha   90.00000000
_cell_angle_beta   90.00000000
_cell_angle_gamma   90.00000000
_symmetry_Int_Tables_number   1
_chemical_formula_structural   BaNdHoSe4
_chemical_formula_sum   'Ba4 Nd4 Ho4 Se16'
_cell_volume   853.20266022
_cell_formula_units_Z   4
loop_
 _symmetry_equiv_pos_site_id
 _symmetry_equiv_pos_as_xyz
  1  'x, y, z'
loop_
 _atom_site_type_symbol
 _atom_site_label
 _atom_site_symmetry_multiplicity
 _atom_site_fract_x
 _atom_site_fract_y
 _atom_site_fract_z
 _atom_site_occupancy
  Ba  Ba0  1  0.250000  0.758212  0.338796  1
  Ba  Ba1  1  0.250000  0.258212  0.161204  1
  Ba  Ba2  1  0.750000  0.241788  0.661204  1
  Ba  Ba3  1  0.750000  0.741788  0.838796  1
  Nd  Nd4  1  0.250000  0.429130  0.390479  1
  Nd  Nd5  1  0.250000  0.929130  0.109521  1
  Nd  Nd6  1  0.750000  0.570870  0.609521  1
  Nd  Nd7  1  0.750000  0.070870  0.890479  1
  Ho  Ho8  1  0.250000  0.424148  0.900338  1
  Ho  Ho9  1  0.250000  0.924148  0.599662  1
  Ho  Ho10  1  0.750000  0.575852  0.099662  1
  Ho  Ho11  1  0.750000  0.075852  0.400338  1
  Se  Se12  1  0.250000  0.214953  0.831794  1
  Se  Se13  1  0.250000  0.714953  0.668206  1
  Se  Se14  1  0.750000  0.785047  0.168206  1
  Se  Se15  1  0.750000  0.285047  0.331794  1
  Se  Se16  1  0.250000  0.124638  0.522859  1
  Se  Se17  1  0.250000  0.624638  0.977141  1
  Se  Se18  1  0.750000  0.875362  0.477141  1
  Se  Se19  1  0.750000  0.375362  0.022859  1
  Se  Se20  1  0.250000  0.023134  0.287021  1
  Se  Se21  1  0.250000  0.523134  0.212979  1
  Se  Se22  1  0.750000  0.976866  0.712979  1
  Se  Se23  1  0.750000  0.476866  0.787021  1
  Se  Se24  1  0.250000  0.414673  0.580804  1
  Se  Se25  1  0.250000  0.914673  0.919196  1
  Se  Se26  1  0.750000  0.585327  0.419196  1
  Se  Se27  1  0.750000  0.085327  0.080804  1
