# generated using pymatgen
data_Dy5Er(Tm2Si3)2
_symmetry_space_group_name_H-M   'P 1'
_cell_length_a   8.39475152
_cell_length_b   8.39475165
_cell_length_c   6.28436300
_cell_angle_alpha   90.00000000
_cell_angle_beta   90.00000000
_cell_angle_gamma   119.95985749
_symmetry_Int_Tables_number   1
_chemical_formula_structural   Dy5Er(Tm2Si3)2
_chemical_formula_sum   'Dy5 Er1 Tm4 Si6'
_cell_volume   383.69233529
_cell_formula_units_Z   1
loop_
 _symmetry_equiv_pos_site_id
 _symmetry_equiv_pos_as_xyz
  1  'x, y, z'
loop_
 _atom_site_type_symbol
 _atom_site_label
 _atom_site_symmetry_multiplicity
 _atom_site_fract_x
 _atom_site_fract_y
 _atom_site_fract_z
 _atom_site_occupancy
  Dy  Dy0  1  0.243703  0.999927  0.250000  1
  Dy  Dy1  1  0.999927  0.243703  0.250000  1
  Dy  Dy2  1  0.244075  0.244075  0.750000  1
  Dy  Dy3  1  0.756165  0.999836  0.750000  1
  Dy  Dy4  1  0.999836  0.756165  0.750000  1
  Er  Er5  1  0.755832  0.755832  0.250000  1
  Tm  Tm6  1  0.666695  0.333484  0.499948  1
  Tm  Tm7  1  0.333484  0.666695  0.499948  1
  Tm  Tm8  1  0.333484  0.666695  0.000052  1
  Tm  Tm9  1  0.666695  0.333484  0.000052  1
  Si  Si10  1  0.395066  0.395066  0.250000  1
  Si  Si11  1  0.605497  0.999656  0.250000  1
  Si  Si12  1  0.999656  0.605497  0.250000  1
  Si  Si13  1  0.605252  0.605252  0.750000  1
  Si  Si14  1  0.394667  0.999966  0.750000  1
  Si  Si15  1  0.999966  0.394667  0.750000  1
