# generated using pymatgen
data_ErTc3As4Rh3
_symmetry_space_group_name_H-M   'P 1'
_cell_length_a   7.20983201
_cell_length_b   7.20952319
_cell_length_c   3.90189200
_cell_angle_alpha   90.00000000
_cell_angle_beta   90.00000000
_cell_angle_gamma   119.99858115
_symmetry_Int_Tables_number   1
_chemical_formula_structural   ErTc3As4Rh3
_chemical_formula_sum   'Er1 Tc3 As4 Rh3'
_cell_volume   175.64822848
_cell_formula_units_Z   1
loop_
 _symmetry_equiv_pos_site_id
 _symmetry_equiv_pos_as_xyz
  1  'x, y, z'
loop_
 _atom_site_type_symbol
 _atom_site_label
 _atom_site_symmetry_multiplicity
 _atom_site_fract_x
 _atom_site_fract_y
 _atom_site_fract_z
 _atom_site_occupancy
  Er  Er0  1  0.000068  0.000034  0.000000  1
  Tc  Tc1  1  0.536078  0.072131  0.000000  1
  Tc  Tc2  1  0.536078  0.463947  0.000000  1
  Tc  Tc3  1  0.927868  0.463934  0.000000  1
  As  As4  1  0.808606  0.617235  0.500000  1
  As  As5  1  0.333333  0.666667  0.000000  1
  As  As6  1  0.382763  0.191381  0.500000  1
  As  As7  1  0.808606  0.191371  0.500000  1
  Rh  Rh8  1  0.607108  0.803555  0.500000  1
  Rh  Rh9  1  0.196411  0.392873  0.500000  1
  Rh  Rh10  1  0.196411  0.803538  0.500000  1
