# generated using pymatgen
data_DyCd(CuO2)4
_symmetry_space_group_name_H-M   'P 1'
_cell_length_a   6.26600662
_cell_length_b   6.26600718
_cell_length_c   6.26600640
_cell_angle_alpha   125.58069354
_cell_angle_beta   125.58070443
_cell_angle_gamma   80.57838298
_symmetry_Int_Tables_number   1
_chemical_formula_structural   DyCd(CuO2)4
_chemical_formula_sum   'Dy1 Cd1 Cu4 O8'
_cell_volume   156.94260363
_cell_formula_units_Z   1
loop_
 _symmetry_equiv_pos_site_id
 _symmetry_equiv_pos_as_xyz
  1  'x, y, z'
loop_
 _atom_site_type_symbol
 _atom_site_label
 _atom_site_symmetry_multiplicity
 _atom_site_fract_x
 _atom_site_fract_y
 _atom_site_fract_z
 _atom_site_occupancy
  Dy  Dy0  1  0.750000  0.250000  0.500000  1
  Cd  Cd1  1  0.000000  0.000000  0.000000  1
  Cu  Cu2  1  0.370658  0.625166  0.244608  1
  Cu  Cu3  1  0.374834  0.619442  0.745491  1
  Cu  Cu4  1  0.873951  0.629342  0.254509  1
  Cu  Cu5  1  0.380558  0.126049  0.755392  1
  O  O6  1  0.161293  0.587744  0.852599  1
  O  O7  1  0.735146  0.308695  0.147401  1
  O  O8  1  0.353076  0.981390  0.934084  1
  O  O9  1  0.691305  0.838707  0.426451  1
  O  O10  1  0.047305  0.418991  0.065916  1
  O  O11  1  0.412256  0.264854  0.573549  1
  O  O12  1  0.018610  0.952695  0.371687  1
  O  O13  1  0.581009  0.646924  0.628313  1
