# generated using pymatgen
data_Y2Th3Ge3C
_symmetry_space_group_name_H-M   'P 1'
_cell_length_a   8.81786938
_cell_length_b   8.81786991
_cell_length_c   6.42621100
_cell_angle_alpha   89.99984617
_cell_angle_beta   89.99984193
_cell_angle_gamma   119.99819264
_symmetry_Int_Tables_number   1
_chemical_formula_structural   Y2Th3Ge3C
_chemical_formula_sum   'Y4 Th6 Ge6 C2'
_cell_volume   432.73385207
_cell_formula_units_Z   2
loop_
 _symmetry_equiv_pos_site_id
 _symmetry_equiv_pos_as_xyz
  1  'x, y, z'
loop_
 _atom_site_type_symbol
 _atom_site_label
 _atom_site_symmetry_multiplicity
 _atom_site_fract_x
 _atom_site_fract_y
 _atom_site_fract_z
 _atom_site_occupancy
  Y  Y0  1  0.666621  0.333383  0.499999  1
  Y  Y1  1  0.333383  0.666621  0.499999  1
  Y  Y2  1  0.333383  0.666620  0.000003  1
  Y  Y3  1  0.666620  0.333383  0.000003  1
  Th  Th4  1  0.768975  0.768975  0.249999  1
  Th  Th5  1  0.230986  0.999916  0.249998  1
  Th  Th6  1  0.999916  0.230986  0.249998  1
  Th  Th7  1  0.231020  0.231020  0.749998  1
  Th  Th8  1  0.769017  0.000083  0.749999  1
  Th  Th9  1  0.000083  0.769017  0.749999  1
  Ge  Ge10  1  0.402605  0.402605  0.250000  1
  Ge  Ge11  1  0.597055  0.999991  0.250004  1
  Ge  Ge12  1  0.999991  0.597055  0.250004  1
  Ge  Ge13  1  0.597359  0.597359  0.749997  1
  Ge  Ge14  1  0.402973  0.000008  0.750004  1
  Ge  Ge15  1  0.000008  0.402973  0.750004  1
  C  C16  1  0.000002  0.000002  0.499996  1
  C  C17  1  0.000002  0.000002  0.999995  1
