# generated using pymatgen
data_Tm16MgZn(InRh2)2
_symmetry_space_group_name_H-M   'P 1'
_cell_length_a   9.52524633
_cell_length_b   9.50216231
_cell_length_c   9.50216091
_cell_angle_alpha   59.75073709
_cell_angle_beta   59.99729285
_cell_angle_gamma   59.99729294
_symmetry_Int_Tables_number   1
_chemical_formula_structural   Tm16MgZn(InRh2)2
_chemical_formula_sum   'Tm16 Mg1 Zn1 In2 Rh4'
_cell_volume   606.96483201
_cell_formula_units_Z   1
loop_
 _symmetry_equiv_pos_site_id
 _symmetry_equiv_pos_as_xyz
  1  'x, y, z'
loop_
 _atom_site_type_symbol
 _atom_site_label
 _atom_site_symmetry_multiplicity
 _atom_site_fract_x
 _atom_site_fract_y
 _atom_site_fract_z
 _atom_site_occupancy
  Tm  Tm0  1  0.062855  0.062512  0.437386  1
  Tm  Tm1  1  0.434878  0.069700  0.436030  1
  Tm  Tm2  1  0.062855  0.437386  0.062512  1
  Tm  Tm3  1  0.055393  0.646729  0.646729  1
  Tm  Tm4  1  0.434878  0.436030  0.069700  1
  Tm  Tm5  1  0.646777  0.050914  0.649096  1
  Tm  Tm6  1  0.190747  0.809787  0.189981  1
  Tm  Tm7  1  0.190747  0.189981  0.809787  1
  Tm  Tm8  1  0.811106  0.811322  0.189755  1
  Tm  Tm9  1  0.437814  0.062894  0.062894  1
  Tm  Tm10  1  0.814507  0.187247  0.187247  1
  Tm  Tm11  1  0.068530  0.435194  0.435194  1
  Tm  Tm12  1  0.811106  0.189755  0.811322  1
  Tm  Tm13  1  0.191936  0.808954  0.808954  1
  Tm  Tm14  1  0.646777  0.649096  0.050914  1
  Tm  Tm15  1  0.651305  0.652565  0.652565  1
  Mg  Mg16  1  0.730130  0.422334  0.422334  1
  Zn  Zn17  1  0.416420  0.416148  0.416148  1
  In  In18  1  0.418674  0.745141  0.416863  1
  In  In19  1  0.418674  0.416863  0.745141  1
  Rh  Rh20  1  0.859614  0.857192  0.427780  1
  Rh  Rh21  1  0.858366  0.855801  0.855801  1
  Rh  Rh22  1  0.426297  0.858675  0.858675  1
  Rh  Rh23  1  0.859614  0.427780  0.857192  1
