# generated using pymatgen
data_CeF10
_symmetry_space_group_name_H-M   'P 1'
_cell_length_a   4.55897424
_cell_length_b   4.55703938
_cell_length_c   11.18999049
_cell_angle_alpha   91.55603599
_cell_angle_beta   80.83629464
_cell_angle_gamma   89.94916283
_symmetry_Int_Tables_number   1
_chemical_formula_structural   CeF10
_chemical_formula_sum   'Ce1 F10'
_cell_volume   229.42195669
_cell_formula_units_Z   1
loop_
 _symmetry_equiv_pos_site_id
 _symmetry_equiv_pos_as_xyz
  1  'x, y, z'
loop_
 _atom_site_type_symbol
 _atom_site_label
 _atom_site_symmetry_multiplicity
 _atom_site_fract_x
 _atom_site_fract_y
 _atom_site_fract_z
 _atom_site_occupancy
  Ce  Ce0  1  0.644715  0.693974  0.282852  1
  F  F1  1  0.316520  0.123810  0.987468  1
  F  F2  1  0.078372  0.170954  0.921517  1
  F  F3  1  0.691422  0.625358  0.823669  1
  F  F4  1  0.070693  0.196971  0.620171  1
  F  F5  1  0.547548  0.682549  0.722320  1
  F  F6  1  0.056639  0.208792  0.494250  1
  F  F7  1  0.568942  0.708018  0.466621  1
  F  F8  1  0.650871  0.193869  0.281082  1
  F  F9  1  0.145329  0.691488  0.281657  1
  F  F10  1  0.715519  0.683117  0.098919  1
