# generated using pymatgen
data_Hf18VRe6P2W
_symmetry_space_group_name_H-M   'P 1'
_cell_length_a   8.59590700
_cell_length_b   8.59590603
_cell_length_c   8.54067200
_cell_angle_alpha   90.00000000
_cell_angle_beta   90.00000000
_cell_angle_gamma   119.99999988
_symmetry_Int_Tables_number   1
_chemical_formula_structural   Hf18VRe6P2W
_chemical_formula_sum   'Hf18 V1 Re6 P2 W1'
_cell_volume   546.51997892
_cell_formula_units_Z   1
loop_
 _symmetry_equiv_pos_site_id
 _symmetry_equiv_pos_as_xyz
  1  'x, y, z'
loop_
 _atom_site_type_symbol
 _atom_site_label
 _atom_site_symmetry_multiplicity
 _atom_site_fract_x
 _atom_site_fract_y
 _atom_site_fract_z
 _atom_site_occupancy
  Hf  Hf0  1  0.194944  0.805056  0.450890  1
  Hf  Hf1  1  0.194944  0.389888  0.450890  1
  Hf  Hf2  1  0.610112  0.805056  0.450890  1
  Hf  Hf3  1  0.805056  0.194944  0.549110  1
  Hf  Hf4  1  0.805056  0.610112  0.549110  1
  Hf  Hf5  1  0.389888  0.194944  0.549110  1
  Hf  Hf6  1  0.803794  0.196206  0.950573  1
  Hf  Hf7  1  0.803794  0.607589  0.950573  1
  Hf  Hf8  1  0.392411  0.196206  0.950573  1
  Hf  Hf9  1  0.196206  0.803794  0.049427  1
  Hf  Hf10  1  0.196206  0.392411  0.049427  1
  Hf  Hf11  1  0.607589  0.803794  0.049427  1
  Hf  Hf12  1  0.539912  0.460088  0.249908  1
  Hf  Hf13  1  0.539912  0.079823  0.249908  1
  Hf  Hf14  1  0.920177  0.460088  0.249908  1
  Hf  Hf15  1  0.460088  0.539912  0.750092  1
  Hf  Hf16  1  0.460088  0.920177  0.750092  1
  Hf  Hf17  1  0.079823  0.539912  0.750092  1
  V  V18  1  0.000000  0.000000  0.500000  1
  Re  Re19  1  0.890730  0.109270  0.253175  1
  Re  Re20  1  0.890730  0.781459  0.253175  1
  Re  Re21  1  0.218541  0.109270  0.253175  1
  Re  Re22  1  0.109270  0.890730  0.746825  1
  Re  Re23  1  0.109270  0.218541  0.746825  1
  Re  Re24  1  0.781459  0.890730  0.746825  1
  P  P25  1  0.333333  0.666667  0.251089  1
  P  P26  1  0.666667  0.333333  0.748911  1
  W  W27  1  0.000000  0.000000  0.000000  1
