# generated using pymatgen
data_Sm2TmMg3PtPb2
_symmetry_space_group_name_H-M   'P 1'
_cell_length_a   7.53659783
_cell_length_b   7.53659928
_cell_length_c   4.56220100
_cell_angle_alpha   90.00000000
_cell_angle_beta   90.00000000
_cell_angle_gamma   119.62280281
_symmetry_Int_Tables_number   1
_chemical_formula_structural   Sm2TmMg3PtPb2
_chemical_formula_sum   'Sm2 Tm1 Mg3 Pt1 Pb2'
_cell_volume   225.26514602
_cell_formula_units_Z   1
loop_
 _symmetry_equiv_pos_site_id
 _symmetry_equiv_pos_as_xyz
  1  'x, y, z'
loop_
 _atom_site_type_symbol
 _atom_site_label
 _atom_site_symmetry_multiplicity
 _atom_site_fract_x
 _atom_site_fract_y
 _atom_site_fract_z
 _atom_site_occupancy
  Sm  Sm0  1  0.397040  0.000163  0.000000  1
  Sm  Sm1  1  0.000163  0.397040  0.000000  1
  Tm  Tm2  1  0.606881  0.606881  0.000000  1
  Mg  Mg3  1  0.998055  0.771961  0.500000  1
  Mg  Mg4  1  0.227829  0.227829  0.500000  1
  Mg  Mg5  1  0.771961  0.998055  0.500000  1
  Pt  Pt6  1  0.996098  0.996098  0.000000  1
  Pb  Pb7  1  0.336117  0.665856  0.500000  1
  Pb  Pb8  1  0.665856  0.336117  0.500000  1
