# generated using pymatgen
data_Y2Ho15Er3Sn16
_symmetry_space_group_name_H-M   'P 1'
_cell_length_a   8.02193500
_cell_length_b   8.15408014
_cell_length_c   15.40757300
_cell_angle_alpha   89.99089348
_cell_angle_beta   90.00088566
_cell_angle_gamma   90.00571280
_symmetry_Int_Tables_number   1
_chemical_formula_structural   Y2Ho15Er3Sn16
_chemical_formula_sum   'Y2 Ho15 Er3 Sn16'
_cell_volume   1007.83245736
_cell_formula_units_Z   1
loop_
 _symmetry_equiv_pos_site_id
 _symmetry_equiv_pos_as_xyz
  1  'x, y, z'
loop_
 _atom_site_type_symbol
 _atom_site_label
 _atom_site_symmetry_multiplicity
 _atom_site_fract_x
 _atom_site_fract_y
 _atom_site_fract_z
 _atom_site_occupancy
  Y  Y0  1  0.521137  0.320613  0.597032  1
  Y  Y1  1  0.020995  0.179456  0.902966  1
  Ho  Ho2  1  0.367885  0.837245  0.877706  1
  Ho  Ho3  1  0.867780  0.662832  0.622295  1
  Ho  Ho4  1  0.632247  0.162309  0.377093  1
  Ho  Ho5  1  0.132210  0.337682  0.122983  1
  Ho  Ho6  1  0.632275  0.162527  0.122862  1
  Ho  Ho7  1  0.132290  0.337451  0.377098  1
  Ho  Ho8  1  0.368094  0.837382  0.622291  1
  Ho  Ho9  1  0.868015  0.662690  0.877698  1
  Ho  Ho10  1  0.521582  0.321127  0.903001  1
  Ho  Ho11  1  0.021571  0.178771  0.597015  1
  Ho  Ho12  1  0.478533  0.678754  0.402339  1
  Ho  Ho13  1  0.978528  0.821204  0.097648  1
  Ho  Ho14  1  0.478494  0.678568  0.097489  1
  Ho  Ho15  1  0.978461  0.821389  0.402498  1
  Ho  Ho16  1  0.198939  0.503235  0.750011  1
  Er  Er17  1  0.699036  0.996671  0.749957  1
  Er  Er18  1  0.800893  0.496895  0.250029  1
  Er  Er19  1  0.300931  0.003107  0.250041  1
  Sn  Sn20  1  0.293007  0.036709  0.042332  1
  Sn  Sn21  1  0.793069  0.463296  0.457721  1
  Sn  Sn22  1  0.707720  0.962691  0.541293  1
  Sn  Sn23  1  0.207693  0.537240  0.958942  1
  Sn  Sn24  1  0.706463  0.961978  0.958736  1
  Sn  Sn25  1  0.206527  0.538108  0.541057  1
  Sn  Sn26  1  0.292532  0.036966  0.457918  1
  Sn  Sn27  1  0.792599  0.463046  0.042092  1
  Sn  Sn28  1  0.565330  0.618776  0.750248  1
  Sn  Sn29  1  0.064913  0.881450  0.749744  1
  Sn  Sn30  1  0.435608  0.381800  0.250047  1
  Sn  Sn31  1  0.935342  0.118495  0.249855  1
  Sn  Sn32  1  0.331026  0.148135  0.750383  1
  Sn  Sn33  1  0.830723  0.351360  0.749576  1
  Sn  Sn34  1  0.668861  0.850685  0.249994  1
  Sn  Sn35  1  0.168686  0.649356  0.250009  1
