# generated using pymatgen
data_HfGaNi3Pd
_symmetry_space_group_name_H-M   'P 1'
_cell_length_a   4.82609780
_cell_length_b   4.82609814
_cell_length_c   4.82609835
_cell_angle_alpha   60.97067159
_cell_angle_beta   60.97066794
_cell_angle_gamma   60.97066228
_symmetry_Int_Tables_number   1
_chemical_formula_structural   HfGaNi3Pd
_chemical_formula_sum   'Hf1 Ga1 Ni3 Pd1'
_cell_volume   81.22102165
_cell_formula_units_Z   1
loop_
 _symmetry_equiv_pos_site_id
 _symmetry_equiv_pos_as_xyz
  1  'x, y, z'
loop_
 _atom_site_type_symbol
 _atom_site_label
 _atom_site_symmetry_multiplicity
 _atom_site_fract_x
 _atom_site_fract_y
 _atom_site_fract_z
 _atom_site_occupancy
  Hf  Hf0  1  0.243003  0.243003  0.243003  1
  Ga  Ga1  1  0.629005  0.629005  0.629005  1
  Ni  Ni2  1  0.126752  0.626367  0.626367  1
  Ni  Ni3  1  0.626367  0.126752  0.626367  1
  Ni  Ni4  1  0.626367  0.626367  0.126752  1
  Pd  Pd5  1  0.998504  0.998504  0.998504  1
