# generated using pymatgen
data_Sc10SiGe5C
_symmetry_space_group_name_H-M   'P 1'
_cell_length_a   7.96788839
_cell_length_b   7.96393947
_cell_length_c   5.91534620
_cell_angle_alpha   89.96989576
_cell_angle_beta   90.01504608
_cell_angle_gamma   119.98360799
_symmetry_Int_Tables_number   1
_chemical_formula_structural   Sc10SiGe5C
_chemical_formula_sum   'Sc10 Si1 Ge5 C1'
_cell_volume   325.12745431
_cell_formula_units_Z   1
loop_
 _symmetry_equiv_pos_site_id
 _symmetry_equiv_pos_as_xyz
  1  'x, y, z'
loop_
 _atom_site_type_symbol
 _atom_site_label
 _atom_site_symmetry_multiplicity
 _atom_site_fract_x
 _atom_site_fract_y
 _atom_site_fract_z
 _atom_site_occupancy
  Sc  Sc0  1  0.000000  0.766692  0.271458  1
  Sc  Sc1  1  0.231131  0.233043  0.271221  1
  Sc  Sc2  1  0.768869  0.001912  0.271221  1
  Sc  Sc3  1  0.000000  0.232837  0.727620  1
  Sc  Sc4  1  0.767666  0.767815  0.728297  1
  Sc  Sc5  1  0.232334  0.000149  0.728297  1
  Sc  Sc6  1  0.331379  0.665010  0.000688  1
  Sc  Sc7  1  0.668621  0.333630  0.000688  1
  Sc  Sc8  1  0.668111  0.333466  0.499226  1
  Sc  Sc9  1  0.331889  0.665355  0.499226  1
  Si  Si10  1  0.000000  0.399943  0.253331  1
  Ge  Ge11  1  0.601027  0.601229  0.250896  1
  Ge  Ge12  1  0.398973  0.000202  0.250896  1
  Ge  Ge13  1  0.000000  0.600156  0.749108  1
  Ge  Ge14  1  0.399521  0.399160  0.748873  1
  Ge  Ge15  1  0.600479  0.999639  0.748873  1
  C  C16  1  0.000000  0.999762  0.500084  1
