# generated using pymatgen
data_Lu3Th7(In2Co)4
_symmetry_space_group_name_H-M   'P 1'
_cell_length_a   3.65162800
_cell_length_b   8.20061117
_cell_length_c   18.07865010
_cell_angle_alpha   90.22471067
_cell_angle_beta   90.00000000
_cell_angle_gamma   90.00000000
_symmetry_Int_Tables_number   1
_chemical_formula_structural   Lu3Th7(In2Co)4
_chemical_formula_sum   'Lu3 Th7 In8 Co4'
_cell_volume   541.37152400
_cell_formula_units_Z   1
loop_
 _symmetry_equiv_pos_site_id
 _symmetry_equiv_pos_as_xyz
  1  'x, y, z'
loop_
 _atom_site_type_symbol
 _atom_site_label
 _atom_site_symmetry_multiplicity
 _atom_site_fract_x
 _atom_site_fract_y
 _atom_site_fract_z
 _atom_site_occupancy
  Lu  Lu0  1  0.000000  0.498004  0.999471  1
  Lu  Lu1  1  0.000000  0.614490  0.587930  1
  Lu  Lu2  1  0.000000  0.009966  0.500836  1
  Th  Th3  1  0.000000  0.882834  0.088463  1
  Th  Th4  1  0.000000  0.748249  0.275221  1
  Th  Th5  1  0.000000  0.745206  0.771546  1
  Th  Th6  1  0.000000  0.387862  0.410047  1
  Th  Th7  1  0.000000  0.110308  0.909683  1
  Th  Th8  1  0.000000  0.252384  0.722332  1
  Th  Th9  1  0.000000  0.245937  0.226088  1
  In  In10  1  0.500000  0.216168  0.066814  1
  In  In11  1  0.500000  0.440905  0.852602  1
  In  In12  1  0.500000  0.552280  0.147088  1
  In  In13  1  0.500000  0.055755  0.355005  1
  In  In14  1  0.500000  0.933262  0.643143  1
  In  In15  1  0.500000  0.778785  0.931854  1
  In  In16  1  0.500000  0.719120  0.438473  1
  In  In17  1  0.500000  0.301335  0.566628  1
  Co  Co18  1  0.500000  0.991868  0.195532  1
  Co  Co19  1  0.500000  0.001047  0.803943  1
  Co  Co20  1  0.500000  0.513509  0.699595  1
  Co  Co21  1  0.500000  0.500722  0.307704  1
