# generated using pymatgen
data_Dy4HoPb3O
_symmetry_space_group_name_H-M   'P 1'
_cell_length_a   9.11275360
_cell_length_b   9.09283897
_cell_length_c   9.10344992
_cell_angle_alpha   125.68418036
_cell_angle_beta   125.74842318
_cell_angle_gamma   80.35005786
_symmetry_Int_Tables_number   1
_chemical_formula_structural   Dy4HoPb3O
_chemical_formula_sum   'Dy8 Ho2 Pb6 O2'
_cell_volume   479.79230695
_cell_formula_units_Z   2
loop_
 _symmetry_equiv_pos_site_id
 _symmetry_equiv_pos_as_xyz
  1  'x, y, z'
loop_
 _atom_site_type_symbol
 _atom_site_label
 _atom_site_symmetry_multiplicity
 _atom_site_fract_x
 _atom_site_fract_y
 _atom_site_fract_z
 _atom_site_occupancy
  Dy  Dy0  1  0.998405  0.199602  0.500000  1
  Dy  Dy1  1  0.800264  0.300480  0.798673  1
  Dy  Dy2  1  0.498409  0.998194  0.798673  1
  Dy  Dy3  1  0.501591  0.001806  0.201327  1
  Dy  Dy4  1  0.001595  0.800398  0.500000  1
  Dy  Dy5  1  0.500000  0.500000  0.000000  1
  Dy  Dy6  1  0.199736  0.699520  0.201327  1
  Dy  Dy7  1  0.000000  0.000000  0.000000  1
  Ho  Ho8  1  0.700147  0.498061  0.500000  1
  Ho  Ho9  1  0.299853  0.501939  0.500000  1
  Pb  Pb10  1  0.851693  0.351693  0.203386  1
  Pb  Pb11  1  0.148307  0.648307  0.796614  1
  Pb  Pb12  1  0.351726  0.148983  0.500000  1
  Pb  Pb13  1  0.749283  0.749283  0.998565  1
  Pb  Pb14  1  0.648274  0.851017  0.500000  1
  Pb  Pb15  1  0.250717  0.250717  0.001435  1
  O  O16  1  0.749561  0.251461  0.500000  1
  O  O17  1  0.250439  0.748539  0.500000  1
