# generated using pymatgen
data_HoSc3(CrB4)4
_symmetry_space_group_name_H-M   'P 1'
_cell_length_a   3.34634700
_cell_length_b   5.84807787
_cell_length_c   11.27928247
_cell_angle_alpha   90.14818113
_cell_angle_beta   90.00000000
_cell_angle_gamma   90.00000000
_symmetry_Int_Tables_number   1
_chemical_formula_structural   HoSc3(CrB4)4
_chemical_formula_sum   'Ho1 Sc3 Cr4 B16'
_cell_volume   220.73141151
_cell_formula_units_Z   1
loop_
 _symmetry_equiv_pos_site_id
 _symmetry_equiv_pos_as_xyz
  1  'x, y, z'
loop_
 _atom_site_type_symbol
 _atom_site_label
 _atom_site_symmetry_multiplicity
 _atom_site_fract_x
 _atom_site_fract_y
 _atom_site_fract_z
 _atom_site_occupancy
  Ho  Ho0  1  0.000000  0.873363  0.849080  1
  Sc  Sc1  1  0.000000  0.625874  0.349929  1
  Sc  Sc2  1  0.000000  0.373744  0.648875  1
  Sc  Sc3  1  0.000000  0.126018  0.150896  1
  Cr  Cr4  1  0.000000  0.625592  0.084564  1
  Cr  Cr5  1  0.000000  0.372235  0.919370  1
  Cr  Cr6  1  0.000000  0.127725  0.416972  1
  Cr  Cr7  1  0.000000  0.873521  0.579786  1
  B  B8  1  0.500000  0.787160  0.187017  1
  B  B9  1  0.500000  0.216639  0.813845  1
  B  B10  1  0.500000  0.287319  0.314108  1
  B  B11  1  0.500000  0.711983  0.683050  1
  B  B12  1  0.500000  0.865190  0.034643  1
  B  B13  1  0.500000  0.134660  0.970010  1
  B  B14  1  0.500000  0.366726  0.466984  1
  B  B15  1  0.500000  0.633533  0.530531  1
  B  B16  1  0.500000  0.884639  0.450351  1
  B  B17  1  0.500000  0.116677  0.547077  1
  B  B18  1  0.500000  0.383127  0.050526  1
  B  B19  1  0.500000  0.611195  0.954152  1
  B  B20  1  0.500000  0.978649  0.305280  1
  B  B21  1  0.500000  0.025511  0.691259  1
  B  B22  1  0.500000  0.478061  0.195804  1
  B  B23  1  0.500000  0.520859  0.805891  1
