# generated using pymatgen
data_Sm3DyCo11(Si4Ni3)3
_symmetry_space_group_name_H-M   'P 1'
_cell_length_a   3.74967000
_cell_length_b   6.73877327
_cell_length_c   18.66039672
_cell_angle_alpha   89.91091354
_cell_angle_beta   90.00000000
_cell_angle_gamma   90.00000000
_symmetry_Int_Tables_number   1
_chemical_formula_structural   Sm3DyCo11(Si4Ni3)3
_chemical_formula_sum   'Sm3 Dy1 Co11 Si12 Ni9'
_cell_volume   471.51361778
_cell_formula_units_Z   1
loop_
 _symmetry_equiv_pos_site_id
 _symmetry_equiv_pos_as_xyz
  1  'x, y, z'
loop_
 _atom_site_type_symbol
 _atom_site_label
 _atom_site_symmetry_multiplicity
 _atom_site_fract_x
 _atom_site_fract_y
 _atom_site_fract_z
 _atom_site_occupancy
  Sm  Sm0  1  0.250000  0.877264  0.356386  1
  Sm  Sm1  1  0.750000  0.128087  0.642592  1
  Sm  Sm2  1  0.750000  0.372351  0.140515  1
  Dy  Dy3  1  0.250000  0.620769  0.857152  1
  Co  Co4  1  0.250000  0.059343  0.203876  1
  Co  Co5  1  0.750000  0.940127  0.794787  1
  Co  Co6  1  0.750000  0.559185  0.293068  1
  Co  Co7  1  0.250000  0.441948  0.706445  1
  Co  Co8  1  0.750000  0.388302  0.512644  1
  Co  Co9  1  0.750000  0.112996  0.009030  1
  Co  Co10  1  0.750000  0.318667  0.800733  1
  Co  Co11  1  0.750000  0.182116  0.299246  1
  Co  Co12  1  0.750000  0.639882  0.618871  1
  Co  Co13  1  0.750000  0.862381  0.115926  1
  Co  Co14  1  0.750000  0.635512  0.994949  1
  Si  Si15  1  0.250000  0.075331  0.081664  1
  Si  Si16  1  0.750000  0.909413  0.914107  1
  Si  Si17  1  0.750000  0.577248  0.413544  1
  Si  Si18  1  0.250000  0.426842  0.584522  1
  Si  Si19  1  0.250000  0.661699  0.073416  1
  Si  Si20  1  0.750000  0.353454  0.926461  1
  Si  Si21  1  0.750000  0.155475  0.426805  1
  Si  Si22  1  0.250000  0.835294  0.576802  1
  Si  Si23  1  0.250000  0.366242  0.262254  1
  Si  Si24  1  0.750000  0.624973  0.740286  1
  Si  Si25  1  0.750000  0.875741  0.236940  1
  Si  Si26  1  0.250000  0.134503  0.764610  1
  Ni  Ni27  1  0.250000  0.620743  0.484060  1
  Ni  Ni28  1  0.250000  0.879572  0.983240  1
  Ni  Ni29  1  0.250000  0.680804  0.200851  1
  Ni  Ni30  1  0.250000  0.819771  0.703808  1
  Ni  Ni31  1  0.250000  0.355244  0.384631  1
  Ni  Ni32  1  0.250000  0.146385  0.886926  1
  Ni  Ni33  1  0.250000  0.369507  0.005765  1
  Ni  Ni34  1  0.750000  0.863920  0.496223  1
  Ni  Ni35  1  0.250000  0.128914  0.506866  1
