# generated using pymatgen
data_TbHo3Sb6Ru2Rh5
_symmetry_space_group_name_H-M   'P 1'
_cell_length_a   7.59137487
_cell_length_b   7.59149492
_cell_length_c   7.59149353
_cell_angle_alpha   109.29532203
_cell_angle_beta   109.59290371
_cell_angle_gamma   109.59291440
_symmetry_Int_Tables_number   1
_chemical_formula_structural   TbHo3Sb6Ru2Rh5
_chemical_formula_sum   'Tb1 Ho3 Sb6 Ru2 Rh5'
_cell_volume   336.50223844
_cell_formula_units_Z   1
loop_
 _symmetry_equiv_pos_site_id
 _symmetry_equiv_pos_as_xyz
  1  'x, y, z'
loop_
 _atom_site_type_symbol
 _atom_site_label
 _atom_site_symmetry_multiplicity
 _atom_site_fract_x
 _atom_site_fract_y
 _atom_site_fract_z
 _atom_site_occupancy
  Tb  Tb0  1  0.500000  0.500857  0.499143  1
  Ho  Ho1  1  0.500000  0.999065  0.000935  1
  Ho  Ho2  1  0.001860  0.500925  0.000924  1
  Ho  Ho3  1  0.998140  0.999076  0.499075  1
  Sb  Sb4  1  0.999548  0.314634  0.314632  1
  Sb  Sb5  1  0.684839  0.999405  0.683789  1
  Sb  Sb6  1  0.684823  0.685918  0.001496  1
  Sb  Sb7  1  0.000452  0.685368  0.685366  1
  Sb  Sb8  1  0.315177  0.998504  0.314082  1
  Sb  Sb9  1  0.315161  0.316211  0.000595  1
  Ru  Ru10  1  0.000000  0.000009  0.999991  1
  Ru  Ru11  1  0.500000  0.750271  0.249729  1
  Rh  Rh12  1  0.750917  0.499954  0.250369  1
  Rh  Rh13  1  0.249083  0.749631  0.500046  1
  Rh  Rh14  1  0.249075  0.499963  0.749539  1
  Rh  Rh15  1  0.500000  0.249750  0.750250  1
  Rh  Rh16  1  0.750925  0.250461  0.500037  1
