# generated using pymatgen
data_Al2V13Sn
_symmetry_space_group_name_H-M   'P 1'
_cell_length_a   4.85487800
_cell_length_b   4.82706400
_cell_length_c   9.69054300
_cell_angle_alpha   90.00000000
_cell_angle_beta   90.00000000
_cell_angle_gamma   90.00000000
_symmetry_Int_Tables_number   1
_chemical_formula_structural   Al2V13Sn
_chemical_formula_sum   'Al2 V13 Sn1'
_cell_volume   227.09600317
_cell_formula_units_Z   1
loop_
 _symmetry_equiv_pos_site_id
 _symmetry_equiv_pos_as_xyz
  1  'x, y, z'
loop_
 _atom_site_type_symbol
 _atom_site_label
 _atom_site_symmetry_multiplicity
 _atom_site_fract_x
 _atom_site_fract_y
 _atom_site_fract_z
 _atom_site_occupancy
  Al  Al0  1  0.000000  0.000000  0.251320  1
  Al  Al1  1  0.000000  0.000000  0.748680  1
  V  V2  1  0.500000  0.500000  0.500000  1
  V  V3  1  0.500000  0.000000  0.621841  1
  V  V4  1  0.500000  0.000000  0.132438  1
  V  V5  1  0.748269  0.500000  0.264253  1
  V  V6  1  0.748269  0.500000  0.735747  1
  V  V7  1  0.000000  0.743441  0.500000  1
  V  V8  1  0.000000  0.768367  0.000000  1
  V  V9  1  0.500000  0.000000  0.378159  1
  V  V10  1  0.500000  0.000000  0.867562  1
  V  V11  1  0.251731  0.500000  0.264253  1
  V  V12  1  0.251731  0.500000  0.735747  1
  V  V13  1  0.000000  0.256559  0.500000  1
  V  V14  1  0.000000  0.231633  0.000000  1
  Sn  Sn15  1  0.500000  0.500000  0.000000  1
