# generated using pymatgen
data_Ac2BeGe3
_symmetry_space_group_name_H-M   'P 1'
_cell_length_a   8.66006544
_cell_length_b   8.41575073
_cell_length_c   6.30497993
_cell_angle_alpha   70.41030105
_cell_angle_beta   66.28241859
_cell_angle_gamma   43.30728479
_symmetry_Int_Tables_number   1
_chemical_formula_structural   Ac2BeGe3
_chemical_formula_sum   'Ac4 Be2 Ge6'
_cell_volume   287.89986339
_cell_formula_units_Z   2
loop_
 _symmetry_equiv_pos_site_id
 _symmetry_equiv_pos_as_xyz
  1  'x, y, z'
loop_
 _atom_site_type_symbol
 _atom_site_label
 _atom_site_symmetry_multiplicity
 _atom_site_fract_x
 _atom_site_fract_y
 _atom_site_fract_z
 _atom_site_occupancy
  Ac  Ac0  1  0.243932  0.756068  0.243932  1
  Ac  Ac1  1  0.756068  0.243932  0.756068  1
  Ac  Ac2  1  0.250000  0.250000  0.250000  1
  Ac  Ac3  1  0.750000  0.750000  0.750000  1
  Be  Be4  1  0.334219  0.334219  0.665781  1
  Be  Be5  1  0.665781  0.665781  0.334219  1
  Ge  Ge6  1  0.176206  0.176206  0.823794  1
  Ge  Ge7  1  0.823794  0.823794  0.176206  1
  Ge  Ge8  1  0.818998  0.356223  0.181002  1
  Ge  Ge9  1  0.643777  0.181002  0.356223  1
  Ge  Ge10  1  0.356223  0.818998  0.643777  1
  Ge  Ge11  1  0.181002  0.643777  0.818998  1
