# generated using pymatgen
data_Ta6TiNb(Co4Si7)2
_symmetry_space_group_name_H-M   'P 1'
_cell_length_a   9.20212812
_cell_length_b   9.20217155
_cell_length_c   9.20212805
_cell_angle_alpha   94.22120216
_cell_angle_beta   94.18729551
_cell_angle_gamma   148.58027344
_symmetry_Int_Tables_number   1
_chemical_formula_structural   Ta6TiNb(Co4Si7)2
_chemical_formula_sum   'Ta6 Ti1 Nb1 Co8 Si14'
_cell_volume   391.04317559
_cell_formula_units_Z   1
loop_
 _symmetry_equiv_pos_site_id
 _symmetry_equiv_pos_as_xyz
  1  'x, y, z'
loop_
 _atom_site_type_symbol
 _atom_site_label
 _atom_site_symmetry_multiplicity
 _atom_site_fract_x
 _atom_site_fract_y
 _atom_site_fract_z
 _atom_site_occupancy
  Ta  Ta0  1  0.133252  0.132790  0.266028  1
  Ta  Ta1  1  0.866989  0.866140  0.733183  1
  Ta  Ta2  1  0.867042  0.133860  0.000848  1
  Ta  Ta3  1  0.133238  0.867210  0.000462  1
  Ta  Ta4  1  0.500741  0.690638  0.191342  1
  Ta  Ta5  1  0.500703  0.309362  0.810102  1
  Ti  Ti6  1  0.690947  0.500000  0.190947  1
  Nb  Nb7  1  0.309312  0.500000  0.809312  1
  Co  Co8  1  0.399034  0.899804  0.798373  1
  Co  Co9  1  0.101470  0.601008  0.201614  1
  Co  Co10  1  0.101481  0.899884  0.500454  1
  Co  Co11  1  0.399006  0.600650  0.499212  1
  Co  Co12  1  0.600606  0.398992  0.500461  1
  Co  Co13  1  0.898569  0.100196  0.499229  1
  Co  Co14  1  0.898562  0.399350  0.798356  1
  Co  Co15  1  0.600570  0.100116  0.201597  1
  Si  Si16  1  0.291756  0.291878  0.583723  1
  Si  Si17  1  0.707917  0.706203  0.414013  1
  Si  Si18  1  0.707811  0.293797  0.001715  1
  Si  Si19  1  0.291845  0.708122  0.999878  1
  Si  Si20  1  0.000030  0.297094  0.297199  1
  Si  Si21  1  0.000106  0.702906  0.702936  1
  Si  Si22  1  0.702957  0.000000  0.702957  1
  Si  Si23  1  0.295932  0.000000  0.295932  1
  Si  Si24  1  0.500115  0.906174  0.406270  1
  Si  Si25  1  0.500097  0.093826  0.593943  1
  Si  Si26  1  0.093383  0.500000  0.593383  1
  Si  Si27  1  0.904820  0.500000  0.404820  1
  Si  Si28  1  0.751055  0.750200  0.000857  1
  Si  Si29  1  0.250656  0.249800  0.000854  1
