# generated using pymatgen
data_Y3Lu5B24(RuW)2
_symmetry_space_group_name_H-M   'P 1'
_cell_length_a   3.58972100
_cell_length_b   9.15204760
_cell_length_c   11.55153513
_cell_angle_alpha   89.78723715
_cell_angle_beta   90.00000000
_cell_angle_gamma   90.00000000
_symmetry_Int_Tables_number   1
_chemical_formula_structural   Y3Lu5B24(RuW)2
_chemical_formula_sum   'Y3 Lu5 B24 Ru2 W2'
_cell_volume   379.50340331
_cell_formula_units_Z   1
loop_
 _symmetry_equiv_pos_site_id
 _symmetry_equiv_pos_as_xyz
  1  'x, y, z'
loop_
 _atom_site_type_symbol
 _atom_site_label
 _atom_site_symmetry_multiplicity
 _atom_site_fract_x
 _atom_site_fract_y
 _atom_site_fract_z
 _atom_site_occupancy
  Y  Y0  1  0.000000  0.320898  0.414204  1
  Y  Y1  1  0.000000  0.678922  0.586116  1
  Y  Y2  1  0.000000  0.821516  0.085843  1
  Lu  Lu3  1  0.000000  0.178858  0.913817  1
  Lu  Lu4  1  0.000000  0.945591  0.371163  1
  Lu  Lu5  1  0.000000  0.054602  0.628959  1
  Lu  Lu6  1  0.000000  0.441531  0.127321  1
  Lu  Lu7  1  0.000000  0.557853  0.872515  1
  B  B8  1  0.500000  0.551268  0.434552  1
  B  B9  1  0.500000  0.448230  0.565963  1
  B  B10  1  0.500000  0.054895  0.066033  1
  B  B11  1  0.500000  0.947020  0.932763  1
  B  B12  1  0.500000  0.753709  0.420937  1
  B  B13  1  0.500000  0.246307  0.579551  1
  B  B14  1  0.500000  0.249388  0.080414  1
  B  B15  1  0.500000  0.750751  0.917985  1
  B  B16  1  0.500000  0.796789  0.263168  1
  B  B17  1  0.500000  0.202803  0.738102  1
  B  B18  1  0.500000  0.290357  0.232949  1
  B  B19  1  0.500000  0.709702  0.766595  1
  B  B20  1  0.500000  0.630897  0.180676  1
  B  B21  1  0.500000  0.367752  0.820177  1
  B  B22  1  0.500000  0.130073  0.313651  1
  B  B23  1  0.500000  0.870472  0.686290  1
  B  B24  1  0.500000  0.984301  0.211779  1
  B  B25  1  0.500000  0.017064  0.788507  1
  B  B26  1  0.500000  0.477021  0.285069  1
  B  B27  1  0.500000  0.522475  0.715074  1
  B  B28  1  0.500000  0.601125  0.026996  1
  B  B29  1  0.500000  0.397261  0.972571  1
  B  B30  1  0.500000  0.100487  0.471489  1
  B  B31  1  0.500000  0.899736  0.528659  1
  Ru  Ru32  1  0.000000  0.138819  0.177981  1
  Ru  Ru33  1  0.000000  0.862170  0.821372  1
  W  W34  1  0.000000  0.639446  0.318911  1
  W  W35  1  0.000000  0.359907  0.681846  1
