# generated using pymatgen
data_HoEr3Tc4F28
_symmetry_space_group_name_H-M   'P 1'
_cell_length_a   5.54854107
_cell_length_b   8.84355953
_cell_length_c   11.94996765
_cell_angle_alpha   62.66487534
_cell_angle_beta   89.99001494
_cell_angle_gamma   89.99285749
_symmetry_Int_Tables_number   1
_chemical_formula_structural   HoEr3Tc4F28
_chemical_formula_sum   'Ho1 Er3 Tc4 F28'
_cell_volume   520.89458336
_cell_formula_units_Z   1
loop_
 _symmetry_equiv_pos_site_id
 _symmetry_equiv_pos_as_xyz
  1  'x, y, z'
loop_
 _atom_site_type_symbol
 _atom_site_label
 _atom_site_symmetry_multiplicity
 _atom_site_fract_x
 _atom_site_fract_y
 _atom_site_fract_z
 _atom_site_occupancy
  Ho  Ho0  1  0.758593  0.813992  0.764594  1
  Er  Er1  1  0.258693  0.186505  0.735422  1
  Er  Er2  1  0.241402  0.186018  0.235479  1
  Er  Er3  1  0.741526  0.814069  0.264581  1
  Tc  Tc4  1  0.757982  0.272511  0.957062  1
  Tc  Tc5  1  0.257980  0.726908  0.542720  1
  Tc  Tc6  1  0.242084  0.726825  0.043632  1
  Tc  Tc7  1  0.741696  0.273454  0.456612  1
  F  F8  1  0.442382  0.706087  0.916799  1
  F  F9  1  0.942755  0.293954  0.583322  1
  F  F10  1  0.557004  0.293621  0.083549  1
  F  F11  1  0.057598  0.706112  0.415984  1
  F  F12  1  0.443291  0.276169  0.545878  1
  F  F13  1  0.943661  0.723703  0.954807  1
  F  F14  1  0.557124  0.724251  0.453972  1
  F  F15  1  0.056440  0.275575  0.046134  1
  F  F16  1  0.775470  0.521387  0.858903  1
  F  F17  1  0.275135  0.477784  0.641032  1
  F  F18  1  0.225135  0.477663  0.141453  1
  F  F19  1  0.724542  0.522510  0.358686  1
  F  F20  1  0.755418  0.024751  0.053477  1
  F  F21  1  0.255381  0.974779  0.446518  1
  F  F22  1  0.244515  0.974623  0.946961  1
  F  F23  1  0.744360  0.025674  0.552844  1
  F  F24  1  0.970426  0.727802  0.638101  1
  F  F25  1  0.470776  0.271902  0.861159  1
  F  F26  1  0.028526  0.272052  0.360711  1
  F  F27  1  0.529294  0.728050  0.139264  1
  F  F28  1  0.047100  0.747096  0.174117  1
  F  F29  1  0.546388  0.253098  0.326196  1
  F  F30  1  0.953105  0.252289  0.826484  1
  F  F31  1  0.451663  0.746987  0.673554  1
  F  F32  1  0.419992  0.971262  0.232582  1
  F  F33  1  0.919941  0.028809  0.267501  1
  F  F34  1  0.580550  0.030196  0.767635  1
  F  F35  1  0.082069  0.971530  0.732271  1
