# generated using pymatgen
data_Dy7Er3(PPb3)2
_symmetry_space_group_name_H-M   'P 1'
_cell_length_a   9.12530200
_cell_length_b   9.12530120
_cell_length_c   6.80781500
_cell_angle_alpha   90.00000000
_cell_angle_beta   90.00000000
_cell_angle_gamma   119.99999566
_symmetry_Int_Tables_number   1
_chemical_formula_structural   Dy7Er3(PPb3)2
_chemical_formula_sum   'Dy7 Er3 P2 Pb6'
_cell_volume   490.94501030
_cell_formula_units_Z   1
loop_
 _symmetry_equiv_pos_site_id
 _symmetry_equiv_pos_as_xyz
  1  'x, y, z'
loop_
 _atom_site_type_symbol
 _atom_site_label
 _atom_site_symmetry_multiplicity
 _atom_site_fract_x
 _atom_site_fract_y
 _atom_site_fract_z
 _atom_site_occupancy
  Dy  Dy0  1  0.762471  0.762528  0.249970  1
  Dy  Dy1  1  0.237472  0.999943  0.249970  1
  Dy  Dy2  1  0.000057  0.237529  0.249970  1
  Dy  Dy3  1  0.237472  0.237529  0.750030  1
  Dy  Dy4  1  0.762471  0.999943  0.750030  1
  Dy  Dy5  1  0.000057  0.762528  0.750030  1
  Dy  Dy6  1  0.666667  0.333333  0.500000  1
  Er  Er7  1  0.333333  0.666667  0.500000  1
  Er  Er8  1  0.333333  0.666667  0.000000  1
  Er  Er9  1  0.666667  0.333333  0.000000  1
  P  P10  1  0.000000  0.000000  0.500000  1
  P  P11  1  0.000000  0.000000  0.000000  1
  Pb  Pb12  1  0.401419  0.401536  0.249923  1
  Pb  Pb13  1  0.598464  0.999883  0.249923  1
  Pb  Pb14  1  0.000117  0.598581  0.249923  1
  Pb  Pb15  1  0.598464  0.598581  0.750077  1
  Pb  Pb16  1  0.401419  0.999883  0.750077  1
  Pb  Pb17  1  0.000117  0.401536  0.750077  1
