# generated using pymatgen
data_MgFe2(P2O7)2
_symmetry_space_group_name_H-M   'P 1'
_cell_length_a   9.05586100
_cell_length_b   10.29986500
_cell_length_c   12.40989100
_cell_angle_alpha   90.00000000
_cell_angle_beta   90.00000000
_cell_angle_gamma   90.00000000
_symmetry_Int_Tables_number   1
_chemical_formula_structural   MgFe2(P2O7)2
_chemical_formula_sum   'Mg4 Fe8 P16 O56'
_cell_volume   1157.52198198
_cell_formula_units_Z   4
loop_
 _symmetry_equiv_pos_site_id
 _symmetry_equiv_pos_as_xyz
  1  'x, y, z'
loop_
 _atom_site_type_symbol
 _atom_site_label
 _atom_site_symmetry_multiplicity
 _atom_site_fract_x
 _atom_site_fract_y
 _atom_site_fract_z
 _atom_site_occupancy
  Mg  Mg0  1  0.246032  0.618547  0.750000  1
  Mg  Mg1  1  0.746032  0.881453  0.750000  1
  Mg  Mg2  1  0.753968  0.381453  0.250000  1
  Mg  Mg3  1  0.253968  0.118547  0.250000  1
  Fe  Fe4  1  0.251169  0.620770  0.989809  1
  Fe  Fe5  1  0.751169  0.879230  0.510191  1
  Fe  Fe6  1  0.748831  0.379230  0.489809  1
  Fe  Fe7  1  0.248831  0.120770  0.010191  1
  Fe  Fe8  1  0.748831  0.379230  0.010191  1
  Fe  Fe9  1  0.248831  0.120770  0.489809  1
  Fe  Fe10  1  0.251169  0.620770  0.510191  1
  Fe  Fe11  1  0.751169  0.879230  0.989809  1
  P  P12  1  0.585458  0.620623  0.866631  1
  P  P13  1  0.085458  0.879377  0.633369  1
  P  P14  1  0.414542  0.379377  0.366631  1
  P  P15  1  0.914542  0.120623  0.133369  1
  P  P16  1  0.414542  0.379377  0.133369  1
  P  P17  1  0.914542  0.120623  0.366631  1
  P  P18  1  0.585458  0.620623  0.633369  1
  P  P19  1  0.085458  0.879377  0.866631  1
  P  P20  1  0.573629  0.133280  0.872514  1
  P  P21  1  0.073629  0.366720  0.627486  1
  P  P22  1  0.426371  0.866720  0.372514  1
  P  P23  1  0.926371  0.633280  0.127486  1
  P  P24  1  0.426371  0.866720  0.127486  1
  P  P25  1  0.926371  0.633280  0.372514  1
  P  P26  1  0.573629  0.133280  0.627486  1
  P  P27  1  0.073629  0.366720  0.872514  1
  O  O28  1  0.129841  0.937861  0.750000  1
  O  O29  1  0.629841  0.562139  0.750000  1
  O  O30  1  0.870159  0.062139  0.250000  1
  O  O31  1  0.370159  0.437861  0.250000  1
  O  O32  1  0.047621  0.319897  0.750000  1
  O  O33  1  0.547621  0.180103  0.750000  1
  O  O34  1  0.952379  0.680103  0.250000  1
  O  O35  1  0.452379  0.819897  0.250000  1
  O  O36  1  0.921514  0.392095  0.580169  1
  O  O37  1  0.421514  0.107905  0.919831  1
  O  O38  1  0.078486  0.607905  0.080169  1
  O  O39  1  0.578486  0.892095  0.419831  1
  O  O40  1  0.078486  0.607905  0.419831  1
  O  O41  1  0.578486  0.892095  0.080169  1
  O  O42  1  0.921514  0.392095  0.919831  1
  O  O43  1  0.421514  0.107905  0.580169  1
  O  O44  1  0.153013  0.255501  0.927759  1
  O  O45  1  0.653013  0.244499  0.572241  1
  O  O46  1  0.846987  0.744499  0.427759  1
  O  O47  1  0.346987  0.755501  0.072241  1
  O  O48  1  0.846987  0.744499  0.072241  1
  O  O49  1  0.346987  0.755501  0.427759  1
  O  O50  1  0.153013  0.255501  0.572241  1
  O  O51  1  0.653013  0.244499  0.927759  1
  O  O52  1  0.415666  0.628621  0.866697  1
  O  O53  1  0.915666  0.871379  0.633303  1
  O  O54  1  0.584334  0.371379  0.366697  1
  O  O55  1  0.084334  0.128621  0.133303  1
  O  O56  1  0.584334  0.371379  0.133303  1
  O  O57  1  0.084334  0.128621  0.366697  1
  O  O58  1  0.415666  0.628621  0.633303  1
  O  O59  1  0.915666  0.871379  0.866697  1
  O  O60  1  0.666705  0.008175  0.866534  1
  O  O61  1  0.166705  0.491825  0.633466  1
  O  O62  1  0.333295  0.991825  0.366534  1
  O  O63  1  0.833295  0.508175  0.133466  1
  O  O64  1  0.333295  0.991825  0.133466  1
  O  O65  1  0.833295  0.508175  0.366534  1
  O  O66  1  0.666705  0.008175  0.633466  1
  O  O67  1  0.166705  0.491825  0.866534  1
  O  O68  1  0.157693  0.743837  0.871066  1
  O  O69  1  0.657693  0.756163  0.628934  1
  O  O70  1  0.842307  0.256163  0.371066  1
  O  O71  1  0.342307  0.243837  0.128934  1
  O  O72  1  0.842307  0.256163  0.128934  1
  O  O73  1  0.342307  0.243837  0.371066  1
  O  O74  1  0.157693  0.743837  0.628934  1
  O  O75  1  0.657693  0.756163  0.871066  1
  O  O76  1  0.147298  0.971609  0.948849  1
  O  O77  1  0.647298  0.528391  0.551151  1
  O  O78  1  0.852702  0.028391  0.448849  1
  O  O79  1  0.352702  0.471609  0.051151  1
  O  O80  1  0.852702  0.028391  0.051151  1
  O  O81  1  0.352702  0.471609  0.448849  1
  O  O82  1  0.147298  0.971609  0.551151  1
  O  O83  1  0.647298  0.528391  0.948849  1
