# generated using pymatgen
data_Yb2Ga2CuNi
_symmetry_space_group_name_H-M   'P 1'
_cell_length_a   4.19142800
_cell_length_b   6.87801600
_cell_length_c   7.51745400
_cell_angle_alpha   90.00000000
_cell_angle_beta   90.00000000
_cell_angle_gamma   90.00000000
_symmetry_Int_Tables_number   1
_chemical_formula_structural   Yb2Ga2CuNi
_chemical_formula_sum   'Yb4 Ga4 Cu2 Ni2'
_cell_volume   216.71849264
_cell_formula_units_Z   2
loop_
 _symmetry_equiv_pos_site_id
 _symmetry_equiv_pos_as_xyz
  1  'x, y, z'
loop_
 _atom_site_type_symbol
 _atom_site_label
 _atom_site_symmetry_multiplicity
 _atom_site_fract_x
 _atom_site_fract_y
 _atom_site_fract_z
 _atom_site_occupancy
  Yb  Yb0  1  0.250000  0.023896  0.313993  1
  Yb  Yb1  1  0.250000  0.523896  0.186007  1
  Yb  Yb2  1  0.750000  0.971731  0.682335  1
  Yb  Yb3  1  0.750000  0.471731  0.817665  1
  Ga  Ga4  1  0.250000  0.158023  0.937559  1
  Ga  Ga5  1  0.250000  0.658023  0.562441  1
  Ga  Ga6  1  0.750000  0.848443  0.073468  1
  Ga  Ga7  1  0.750000  0.348443  0.426532  1
  Cu  Cu8  1  0.250000  0.285528  0.616952  1
  Cu  Cu9  1  0.250000  0.785528  0.883048  1
  Ni  Ni10  1  0.750000  0.712379  0.383989  1
  Ni  Ni11  1  0.750000  0.212379  0.116011  1
