# generated using pymatgen
data_VReNi4(Mo3C)2
_symmetry_space_group_name_H-M   'P 1'
_cell_length_a   7.94880329
_cell_length_b   7.91999549
_cell_length_c   7.94880274
_cell_angle_alpha   60.11980283
_cell_angle_beta   60.16315938
_cell_angle_gamma   60.11980468
_symmetry_Int_Tables_number   1
_chemical_formula_structural   VReNi4(Mo3C)2
_chemical_formula_sum   'V2 Re2 Ni8 Mo12 C4'
_cell_volume   354.92130230
_cell_formula_units_Z   2
loop_
 _symmetry_equiv_pos_site_id
 _symmetry_equiv_pos_as_xyz
  1  'x, y, z'
loop_
 _atom_site_type_symbol
 _atom_site_label
 _atom_site_symmetry_multiplicity
 _atom_site_fract_x
 _atom_site_fract_y
 _atom_site_fract_z
 _atom_site_occupancy
  V  V0  1  0.125000  0.125000  0.125000  1
  V  V1  1  0.125000  0.625000  0.125000  1
  Re  Re2  1  0.625000  0.125000  0.125000  1
  Re  Re3  1  0.125000  0.125000  0.625000  1
  Ni  Ni4  1  0.921659  0.914965  0.248412  1
  Ni  Ni5  1  0.329004  0.337034  0.329004  1
  Ni  Ni6  1  0.248412  0.914965  0.921659  1
  Ni  Ni7  1  0.329004  0.004957  0.329004  1
  Ni  Ni8  1  0.001588  0.335035  0.328341  1
  Ni  Ni9  1  0.328341  0.335035  0.001588  1
  Ni  Ni10  1  0.920996  0.912966  0.920996  1
  Ni  Ni11  1  0.920996  0.245043  0.920996  1
  Mo  Mo12  1  0.691323  0.307090  0.307109  1
  Mo  Mo13  1  0.942891  0.942910  0.558677  1
  Mo  Mo14  1  0.691323  0.694478  0.307109  1
  Mo  Mo15  1  0.695369  0.304631  0.695369  1
  Mo  Mo16  1  0.309778  0.690222  0.309778  1
  Mo  Mo17  1  0.554631  0.945369  0.554631  1
  Mo  Mo18  1  0.558677  0.942910  0.942891  1
  Mo  Mo19  1  0.942891  0.555522  0.558677  1
  Mo  Mo20  1  0.940222  0.559778  0.940222  1
  Mo  Mo21  1  0.307109  0.307090  0.691323  1
  Mo  Mo22  1  0.558677  0.555522  0.942891  1
  Mo  Mo23  1  0.307109  0.694478  0.691323  1
  C  C24  1  0.625000  0.625000  0.625000  1
  C  C25  1  0.625000  0.625000  0.125000  1
  C  C26  1  0.125000  0.625000  0.625000  1
  C  C27  1  0.625000  0.125000  0.625000  1
