# generated using pymatgen
data_Cs2La5Y(CBr6)2
_symmetry_space_group_name_H-M   'P 1'
_cell_length_a   9.13456985
_cell_length_b   9.17280978
_cell_length_c   9.86329748
_cell_angle_alpha   69.30385753
_cell_angle_beta   85.89393198
_cell_angle_gamma   89.28031692
_symmetry_Int_Tables_number   1
_chemical_formula_structural   Cs2La5Y(CBr6)2
_chemical_formula_sum   'Cs2 La5 Y1 C2 Br12'
_cell_volume   771.05397544
_cell_formula_units_Z   1
loop_
 _symmetry_equiv_pos_site_id
 _symmetry_equiv_pos_as_xyz
  1  'x, y, z'
loop_
 _atom_site_type_symbol
 _atom_site_label
 _atom_site_symmetry_multiplicity
 _atom_site_fract_x
 _atom_site_fract_y
 _atom_site_fract_z
 _atom_site_occupancy
  Cs  Cs0  1  0.474488  0.357811  0.330695  1
  Cs  Cs1  1  0.527664  0.640955  0.672025  1
  La  La2  1  0.082534  0.265239  0.994147  1
  La  La3  1  0.731943  0.089067  0.002112  1
  La  La4  1  0.268343  0.913433  0.998633  1
  La  La5  1  0.978409  0.870894  0.330478  1
  La  La6  1  0.020813  0.120664  0.670056  1
  Y  Y7  1  0.916081  0.748427  0.003949  1
  C  C8  1  0.003849  0.026065  0.923499  1
  C  C9  1  0.994421  0.969265  0.077660  1
  Br  Br10  1  0.084201  0.190440  0.325853  1
  Br  Br11  1  0.915731  0.798346  0.686995  1
  Br  Br12  1  0.192863  0.594024  0.002740  1
  Br  Br13  1  0.788119  0.417491  0.999408  1
  Br  Br14  1  0.406437  0.211760  0.004222  1
  Br  Br15  1  0.603416  0.789668  0.995259  1
  Br  Br16  1  0.669233  0.995022  0.331408  1
  Br  Br17  1  0.332622  0.000504  0.671599  1
  Br  Br18  1  0.292316  0.763798  0.324466  1
  Br  Br19  1  0.710406  0.238543  0.674221  1
  Br  Br20  1  0.850644  0.580792  0.311640  1
  Br  Br21  1  0.155463  0.417792  0.668933  1
