# generated using pymatgen
data_CsLa2CuS4
_symmetry_space_group_name_H-M   'P 1'
_cell_length_a   4.20336200
_cell_length_b   7.65392012
_cell_length_c   14.25672600
_cell_angle_alpha   90.00000000
_cell_angle_beta   90.00000000
_cell_angle_gamma   74.06249493
_symmetry_Int_Tables_number   1
_chemical_formula_structural   CsLa2CuS4
_chemical_formula_sum   'Cs2 La4 Cu2 S8'
_cell_volume   441.03972799
_cell_formula_units_Z   2
loop_
 _symmetry_equiv_pos_site_id
 _symmetry_equiv_pos_as_xyz
  1  'x, y, z'
loop_
 _atom_site_type_symbol
 _atom_site_label
 _atom_site_symmetry_multiplicity
 _atom_site_fract_x
 _atom_site_fract_y
 _atom_site_fract_z
 _atom_site_occupancy
  Cs  Cs0  1  0.895997  0.208007  0.250000  1
  Cs  Cs1  1  0.104003  0.791993  0.750000  1
  La  La2  1  0.634027  0.731945  0.059412  1
  La  La3  1  0.634027  0.731945  0.440588  1
  La  La4  1  0.365972  0.268056  0.559412  1
  La  La5  1  0.365972  0.268056  0.940588  1
  Cu  Cu6  1  0.167551  0.664895  0.250000  1
  Cu  Cu7  1  0.832449  0.335104  0.750000  1
  S  S8  1  0.000000  0.000000  0.000000  1
  S  S9  1  0.254731  0.490535  0.110404  1
  S  S10  1  0.584972  0.830059  0.250000  1
  S  S11  1  0.254731  0.490535  0.389596  1
  S  S12  1  0.000000  0.000000  0.500000  1
  S  S13  1  0.745269  0.509464  0.610403  1
  S  S14  1  0.415028  0.169942  0.750000  1
  S  S15  1  0.745269  0.509464  0.889596  1
