# generated using pymatgen
data_La3Nd3Y2(CdNi)2
_symmetry_space_group_name_H-M   'P 1'
_cell_length_a   9.80841141
_cell_length_b   9.87384889
_cell_length_c   9.87384979
_cell_angle_alpha   59.56201248
_cell_angle_beta   60.21898787
_cell_angle_gamma   60.21898948
_symmetry_Int_Tables_number   1
_chemical_formula_structural   La3Nd3Y2(CdNi)2
_chemical_formula_sum   'La6 Nd6 Y4 Cd4 Ni4'
_cell_volume   676.11213971
_cell_formula_units_Z   2
loop_
 _symmetry_equiv_pos_site_id
 _symmetry_equiv_pos_as_xyz
  1  'x, y, z'
loop_
 _atom_site_type_symbol
 _atom_site_label
 _atom_site_symmetry_multiplicity
 _atom_site_fract_x
 _atom_site_fract_y
 _atom_site_fract_z
 _atom_site_occupancy
  La  La0  1  0.593523  0.601118  0.601118  1
  La  La1  1  0.601118  0.593523  0.204239  1
  La  La2  1  0.601118  0.204239  0.593523  1
  La  La3  1  0.204239  0.601118  0.601118  1
  La  La4  1  0.064905  0.435095  0.435095  1
  La  La5  1  0.435095  0.064905  0.064905  1
  Nd  Nd6  1  0.184269  0.815731  0.815731  1
  Nd  Nd7  1  0.815731  0.184269  0.184269  1
  Nd  Nd8  1  0.812860  0.187140  0.812860  1
  Nd  Nd9  1  0.187140  0.812860  0.187140  1
  Nd  Nd10  1  0.812860  0.812860  0.187140  1
  Nd  Nd11  1  0.187140  0.187140  0.812860  1
  Y  Y12  1  0.439291  0.060709  0.439291  1
  Y  Y13  1  0.060709  0.439291  0.060709  1
  Y  Y14  1  0.439291  0.439291  0.060709  1
  Y  Y15  1  0.060709  0.060709  0.439291  1
  Cd  Cd16  1  0.832799  0.829116  0.829116  1
  Cd  Cd17  1  0.829116  0.832799  0.508971  1
  Cd  Cd18  1  0.829116  0.508971  0.832799  1
  Cd  Cd19  1  0.508971  0.829116  0.829116  1
  Ni  Ni20  1  0.388968  0.391564  0.391564  1
  Ni  Ni21  1  0.391564  0.388968  0.827903  1
  Ni  Ni22  1  0.391564  0.827903  0.388968  1
  Ni  Ni23  1  0.827903  0.391564  0.391564  1
