# generated using pymatgen
data_Er7LuInPb3Au8
_symmetry_space_group_name_H-M   'P 1'
_cell_length_a   8.08672327
_cell_length_b   8.08590828
_cell_length_c   7.27196802
_cell_angle_alpha   90.00743739
_cell_angle_beta   89.99863150
_cell_angle_gamma   89.86921543
_symmetry_Int_Tables_number   1
_chemical_formula_structural   Er7LuInPb3Au8
_chemical_formula_sum   'Er7 Lu1 In1 Pb3 Au8'
_cell_volume   475.50185698
_cell_formula_units_Z   1
loop_
 _symmetry_equiv_pos_site_id
 _symmetry_equiv_pos_as_xyz
  1  'x, y, z'
loop_
 _atom_site_type_symbol
 _atom_site_label
 _atom_site_symmetry_multiplicity
 _atom_site_fract_x
 _atom_site_fract_y
 _atom_site_fract_z
 _atom_site_occupancy
  Er  Er0  1  0.847359  0.156932  0.497683  1
  Er  Er1  1  0.152645  0.843035  0.497664  1
  Er  Er2  1  0.343066  0.347200  0.002289  1
  Er  Er3  1  0.657080  0.652636  0.002303  1
  Er  Er4  1  0.681825  0.678960  0.498521  1
  Er  Er5  1  0.318121  0.321073  0.498530  1
  Er  Er6  1  0.178827  0.818268  0.001484  1
  Lu  Lu7  1  0.821594  0.181558  0.001561  1
  In  In8  1  0.999894  0.499857  0.249902  1
  Pb  Pb9  1  0.500112  0.000067  0.249893  1
  Pb  Pb10  1  0.999919  0.499910  0.750095  1
  Pb  Pb11  1  0.500085  0.000080  0.750102  1
  Au  Au12  1  0.631943  0.374789  0.275976  1
  Au  Au13  1  0.368562  0.624658  0.276712  1
  Au  Au14  1  0.127122  0.126480  0.777891  1
  Au  Au15  1  0.872104  0.874296  0.777896  1
  Au  Au16  1  0.373797  0.627634  0.722538  1
  Au  Au17  1  0.626751  0.371860  0.723209  1
  Au  Au18  1  0.875092  0.869016  0.222911  1
  Au  Au19  1  0.124104  0.131694  0.222840  1
