# generated using pymatgen
data_TiHg3(OF3)2
_symmetry_space_group_name_H-M   'P 1'
_cell_length_a   6.90756200
_cell_length_b   6.90756272
_cell_length_c   5.26847000
_cell_angle_alpha   90.00000000
_cell_angle_beta   90.00000000
_cell_angle_gamma   119.99999656
_symmetry_Int_Tables_number   1
_chemical_formula_structural   TiHg3(OF3)2
_chemical_formula_sum   'Ti1 Hg3 O2 F6'
_cell_volume   217.70318696
_cell_formula_units_Z   1
loop_
 _symmetry_equiv_pos_site_id
 _symmetry_equiv_pos_as_xyz
  1  'x, y, z'
loop_
 _atom_site_type_symbol
 _atom_site_label
 _atom_site_symmetry_multiplicity
 _atom_site_fract_x
 _atom_site_fract_y
 _atom_site_fract_z
 _atom_site_occupancy
  Ti  Ti0  1  0.000000  0.000000  0.499999  1
  Hg  Hg1  1  0.500001  0.000000  0.000000  1
  Hg  Hg2  1  0.000000  0.500000  0.000000  1
  Hg  Hg3  1  0.500000  0.500000  0.000000  1
  O  O4  1  0.333333  0.666667  0.884199  1
  O  O5  1  0.666668  0.333334  0.115799  1
  F  F6  1  0.130681  0.261364  0.294593  1
  F  F7  1  0.130682  0.869319  0.294593  1
  F  F8  1  0.738636  0.869319  0.294593  1
  F  F9  1  0.261363  0.130681  0.705405  1
  F  F10  1  0.869319  0.130681  0.705405  1
  F  F11  1  0.869320  0.738637  0.705405  1
