# generated using pymatgen
data_TlCdAg2(Ru2O7)2
_symmetry_space_group_name_H-M   'P 1'
_cell_length_a   7.28309614
_cell_length_b   7.25864299
_cell_length_c   7.25864293
_cell_angle_alpha   59.72732205
_cell_angle_beta   59.88283486
_cell_angle_gamma   59.88284519
_symmetry_Int_Tables_number   1
_chemical_formula_structural   TlCdAg2(Ru2O7)2
_chemical_formula_sum   'Tl1 Cd1 Ag2 Ru4 O14'
_cell_volume   270.29670474
_cell_formula_units_Z   1
loop_
 _symmetry_equiv_pos_site_id
 _symmetry_equiv_pos_as_xyz
  1  'x, y, z'
loop_
 _atom_site_type_symbol
 _atom_site_label
 _atom_site_symmetry_multiplicity
 _atom_site_fract_x
 _atom_site_fract_y
 _atom_site_fract_z
 _atom_site_occupancy
  Tl  Tl0  1  0.625000  0.125000  0.125000  1
  Cd  Cd1  1  0.125000  0.125000  0.125000  1
  Ag  Ag2  1  0.125000  0.625000  0.125000  1
  Ag  Ag3  1  0.125000  0.125000  0.625000  1
  Ru  Ru4  1  0.625000  0.125000  0.625000  1
  Ru  Ru5  1  0.625000  0.625000  0.125000  1
  Ru  Ru6  1  0.125000  0.625000  0.625000  1
  Ru  Ru7  1  0.625000  0.625000  0.625000  1
  O  O8  1  0.692646  0.696805  0.305118  1
  O  O9  1  0.940499  0.558639  0.558639  1
  O  O10  1  0.553549  0.945089  0.945089  1
  O  O11  1  0.941067  0.942065  0.556277  1
  O  O12  1  0.941067  0.556277  0.942065  1
  O  O13  1  0.557354  0.944882  0.553195  1
  O  O14  1  0.308933  0.693723  0.307935  1
  O  O15  1  0.309501  0.691361  0.691361  1
  O  O16  1  0.696451  0.304911  0.304911  1
  O  O17  1  0.692646  0.305118  0.696805  1
  O  O18  1  0.557354  0.553195  0.944882  1
  O  O19  1  0.308933  0.307935  0.693723  1
  O  O20  1  0.233703  0.257585  0.257585  1
  O  O21  1  0.016297  0.992415  0.992415  1
