# generated using pymatgen
data_Ho16Lu4Ru5Rh7
_symmetry_space_group_name_H-M   'P 1'
_cell_length_a   10.76299682
_cell_length_b   10.76299758
_cell_length_c   6.36144000
_cell_angle_alpha   89.97768429
_cell_angle_beta   89.97768429
_cell_angle_gamma   90.04790727
_symmetry_Int_Tables_number   1
_chemical_formula_structural   Ho16Lu4Ru5Rh7
_chemical_formula_sum   'Ho16 Lu4 Ru5 Rh7'
_cell_volume   736.92225441
_cell_formula_units_Z   1
loop_
 _symmetry_equiv_pos_site_id
 _symmetry_equiv_pos_as_xyz
  1  'x, y, z'
loop_
 _atom_site_type_symbol
 _atom_site_label
 _atom_site_symmetry_multiplicity
 _atom_site_fract_x
 _atom_site_fract_y
 _atom_site_fract_z
 _atom_site_occupancy
  Ho  Ho0  1  0.293776  0.086449  0.376753  1
  Ho  Ho1  1  0.292854  0.913463  0.877080  1
  Ho  Ho2  1  0.708088  0.087167  0.877881  1
  Ho  Ho3  1  0.707830  0.915114  0.375767  1
  Ho  Ho4  1  0.586380  0.793690  0.876695  1
  Ho  Ho5  1  0.588243  0.206804  0.376605  1
  Ho  Ho6  1  0.413591  0.793460  0.376642  1
  Ho  Ho7  1  0.413503  0.206562  0.876442  1
  Ho  Ho8  1  0.206310  0.413620  0.623305  1
  Ho  Ho9  1  0.206540  0.586409  0.123358  1
  Ho  Ho10  1  0.793196  0.411757  0.123395  1
  Ho  Ho11  1  0.793438  0.586497  0.623558  1
  Ho  Ho12  1  0.913551  0.706224  0.123247  1
  Ho  Ho13  1  0.912833  0.291912  0.622119  1
  Ho  Ho14  1  0.086537  0.707146  0.622920  1
  Ho  Ho15  1  0.084886  0.292170  0.124233  1
  Lu  Lu16  1  0.999504  0.001066  0.499037  1
  Lu  Lu17  1  0.998934  0.000496  0.000963  1
  Lu  Lu18  1  0.500037  0.500223  0.000022  1
  Lu  Lu19  1  0.499777  0.499963  0.499978  1
  Ru  Ru20  1  0.849697  0.150303  0.250000  1
  Ru  Ru21  1  0.499639  0.999929  0.122858  1
  Ru  Ru22  1  0.499242  0.999656  0.623307  1
  Ru  Ru23  1  0.000344  0.500758  0.876693  1
  Ru  Ru24  1  0.000071  0.500361  0.377142  1
  Rh  Rh25  1  0.849224  0.848346  0.750330  1
  Rh  Rh26  1  0.151654  0.150776  0.749670  1
  Rh  Rh27  1  0.150953  0.849047  0.250000  1
  Rh  Rh28  1  0.649190  0.350810  0.750000  1
  Rh  Rh29  1  0.650541  0.649892  0.249242  1
  Rh  Rh30  1  0.350108  0.349459  0.250758  1
  Rh  Rh31  1  0.349529  0.650471  0.750000  1
