# generated using pymatgen
data_YbHo2Ga9Pd2
_symmetry_space_group_name_H-M   'P 1'
_cell_length_a   8.13053247
_cell_length_b   8.13053166
_cell_length_c   8.13053259
_cell_angle_alpha   149.09290195
_cell_angle_beta   108.96986655
_cell_angle_gamma   79.45124591
_symmetry_Int_Tables_number   1
_chemical_formula_structural   YbHo2Ga9Pd2
_chemical_formula_sum   'Yb1 Ho2 Ga9 Pd2'
_cell_volume   255.94629795
_cell_formula_units_Z   1
loop_
 _symmetry_equiv_pos_site_id
 _symmetry_equiv_pos_as_xyz
  1  'x, y, z'
loop_
 _atom_site_type_symbol
 _atom_site_label
 _atom_site_symmetry_multiplicity
 _atom_site_fract_x
 _atom_site_fract_y
 _atom_site_fract_z
 _atom_site_occupancy
  Yb  Yb0  1  0.200242  0.200242  0.000000  1
  Ho  Ho1  1  0.500136  0.500136  0.000000  1
  Ho  Ho2  1  0.799111  0.799111  0.000000  1
  Ga  Ga3  1  0.644119  0.362236  0.281883  1
  Ga  Ga4  1  0.356201  0.639220  0.716980  1
  Ga  Ga5  1  0.080354  0.362236  0.718117  1
  Ga  Ga6  1  0.922240  0.639220  0.283020  1
  Ga  Ga7  1  0.522283  0.155239  0.367044  1
  Ga  Ga8  1  0.477236  0.842991  0.634246  1
  Ga  Ga9  1  0.788195  0.155239  0.632956  1
  Ga  Ga10  1  0.208745  0.842991  0.365754  1
  Ga  Ga11  1  0.000118  0.500118  0.500000  1
  Pd  Pd12  1  0.182613  0.000510  0.182103  1
  Pd  Pd13  1  0.818408  0.000510  0.817897  1
