# generated using pymatgen
data_Cs5(PtN)3
_symmetry_space_group_name_H-M   'P 1'
_cell_length_a   10.18333800
_cell_length_b   10.18333628
_cell_length_c   3.79373900
_cell_angle_alpha   90.00000000
_cell_angle_beta   90.00000000
_cell_angle_gamma   119.99999908
_symmetry_Int_Tables_number   1
_chemical_formula_structural   Cs5(PtN)3
_chemical_formula_sum   'Cs5 Pt3 N3'
_cell_volume   340.70486071
_cell_formula_units_Z   1
loop_
 _symmetry_equiv_pos_site_id
 _symmetry_equiv_pos_as_xyz
  1  'x, y, z'
loop_
 _atom_site_type_symbol
 _atom_site_label
 _atom_site_symmetry_multiplicity
 _atom_site_fract_x
 _atom_site_fract_y
 _atom_site_fract_z
 _atom_site_occupancy
  Cs  Cs0  1  0.735353  0.000000  0.500001  1
  Cs  Cs1  1  0.264646  0.264646  0.500001  1
  Cs  Cs2  1  0.666666  0.333334  0.500001  1
  Cs  Cs3  1  0.333333  0.666666  0.500001  1
  Cs  Cs4  1  0.000000  0.735353  0.500001  1
  Pt  Pt5  1  0.363318  0.000000  0.000000  1
  Pt  Pt6  1  0.000000  0.363318  0.000000  1
  Pt  Pt7  1  0.636682  0.636682  0.000000  1
  N  N8  1  0.363745  0.000000  0.500001  1
  N  N9  1  0.000000  0.363746  0.500001  1
  N  N10  1  0.636254  0.636255  0.500001  1
