# generated using pymatgen
data_Er12InPt7
_symmetry_space_group_name_H-M   'P 1'
_cell_length_a   10.91300144
_cell_length_b   10.91300149
_cell_length_c   10.91300200
_cell_angle_alpha   96.63195943
_cell_angle_beta   116.24780999
_cell_angle_gamma   116.24780412
_symmetry_Int_Tables_number   1
_chemical_formula_structural   Er12InPt7
_chemical_formula_sum   'Er24 In2 Pt14'
_cell_volume   964.12848014
_cell_formula_units_Z   2
loop_
 _symmetry_equiv_pos_site_id
 _symmetry_equiv_pos_as_xyz
  1  'x, y, z'
loop_
 _atom_site_type_symbol
 _atom_site_label
 _atom_site_symmetry_multiplicity
 _atom_site_fract_x
 _atom_site_fract_y
 _atom_site_fract_z
 _atom_site_occupancy
  Er  Er0  1  0.133178  0.852458  0.571427  1
  Er  Er1  1  0.133178  0.561752  0.280719  1
  Er  Er2  1  0.866822  0.147542  0.428573  1
  Er  Er3  1  0.718970  0.938248  0.071427  1
  Er  Er4  1  0.718970  0.280719  0.147542  1
  Er  Er5  1  0.281030  0.428573  0.561752  1
  Er  Er6  1  0.718970  0.647542  0.780720  1
  Er  Er7  1  0.133178  0.780720  0.061752  1
  Er  Er8  1  0.866822  0.928573  0.647542  1
  Er  Er9  1  0.866822  0.438248  0.719280  1
  Er  Er10  1  0.854182  0.677091  0.177091  1
  Er  Er11  1  0.281030  0.061752  0.928573  1
  Er  Er12  1  0.281030  0.719280  0.852458  1
  Er  Er13  1  0.718970  0.571427  0.438248  1
  Er  Er14  1  0.500000  0.632850  0.132850  1
  Er  Er15  1  0.500000  0.132850  0.632850  1
  Er  Er16  1  0.500000  0.867150  0.367150  1
  Er  Er17  1  0.500000  0.367150  0.867150  1
  Er  Er18  1  0.500000  0.177091  0.322909  1
  Er  Er19  1  0.866822  0.219280  0.938248  1
  Er  Er20  1  0.500000  0.822909  0.677091  1
  Er  Er21  1  0.145818  0.322909  0.822909  1
  Er  Er22  1  0.281030  0.352458  0.219280  1
  Er  Er23  1  0.133178  0.071427  0.352458  1
  In  In24  1  0.000000  0.500000  0.500000  1
  In  In25  1  0.000000  0.000000  0.000000  1
  Pt  Pt26  1  0.500000  0.020686  0.863290  1
  Pt  Pt27  1  0.500000  0.979314  0.136710  1
  Pt  Pt28  1  0.500000  0.636710  0.479314  1
  Pt  Pt29  1  0.157396  0.520686  0.020686  1
  Pt  Pt30  1  0.157396  0.136710  0.636710  1
  Pt  Pt31  1  0.842604  0.479314  0.979314  1
  Pt  Pt32  1  0.756045  0.128023  0.628023  1
  Pt  Pt33  1  0.500000  0.628023  0.871977  1
  Pt  Pt34  1  0.500000  0.371977  0.128023  1
  Pt  Pt35  1  0.243955  0.871977  0.371977  1
  Pt  Pt36  1  0.000000  0.250000  0.250000  1
  Pt  Pt37  1  0.000000  0.750000  0.750000  1
  Pt  Pt38  1  0.500000  0.363290  0.520686  1
  Pt  Pt39  1  0.842604  0.863290  0.363290  1
