# generated using pymatgen
data_Th2P4Ir3Ru
_symmetry_space_group_name_H-M   'P 1'
_cell_length_a   4.19741700
_cell_length_b   4.19741700
_cell_length_c   9.59122600
_cell_angle_alpha   90.00000000
_cell_angle_beta   90.00000000
_cell_angle_gamma   90.00000000
_symmetry_Int_Tables_number   1
_chemical_formula_structural   Th2P4Ir3Ru
_chemical_formula_sum   'Th2 P4 Ir3 Ru1'
_cell_volume   168.98118788
_cell_formula_units_Z   1
loop_
 _symmetry_equiv_pos_site_id
 _symmetry_equiv_pos_as_xyz
  1  'x, y, z'
loop_
 _atom_site_type_symbol
 _atom_site_label
 _atom_site_symmetry_multiplicity
 _atom_site_fract_x
 _atom_site_fract_y
 _atom_site_fract_z
 _atom_site_occupancy
  Th  Th0  1  0.000000  0.500000  0.245253  1
  Th  Th1  1  0.500000  0.000000  0.754747  1
  P  P2  1  0.000000  0.000000  0.000000  1
  P  P3  1  0.500000  0.500000  0.000000  1
  P  P4  1  0.000000  0.500000  0.635850  1
  P  P5  1  0.500000  0.000000  0.364150  1
  Ir  Ir6  1  0.500000  0.500000  0.500000  1
  Ir  Ir7  1  0.000000  0.500000  0.888031  1
  Ir  Ir8  1  0.500000  0.000000  0.111969  1
  Ru  Ru9  1  0.000000  0.000000  0.500000  1
