# generated using pymatgen
data_La4ErP12Ru19
_symmetry_space_group_name_H-M   'P 1'
_cell_length_a   12.67303400
_cell_length_b   12.67303453
_cell_length_c   4.03154600
_cell_angle_alpha   90.00000000
_cell_angle_beta   90.00000000
_cell_angle_gamma   120.00000314
_symmetry_Int_Tables_number   1
_chemical_formula_structural   La4ErP12Ru19
_chemical_formula_sum   'La4 Er1 P12 Ru19'
_cell_volume   560.74247693
_cell_formula_units_Z   1
loop_
 _symmetry_equiv_pos_site_id
 _symmetry_equiv_pos_as_xyz
  1  'x, y, z'
loop_
 _atom_site_type_symbol
 _atom_site_label
 _atom_site_symmetry_multiplicity
 _atom_site_fract_x
 _atom_site_fract_y
 _atom_site_fract_z
 _atom_site_occupancy
  La  La0  1  0.182610  0.184082  0.500000  1
  La  La1  1  0.815918  0.998529  0.500000  1
  La  La2  1  0.001471  0.817390  0.500000  1
  La  La3  1  0.333333  0.666667  0.000000  1
  Er  Er4  1  0.666667  0.333333  0.000000  1
  P  P5  1  0.811652  0.808587  0.000000  1
  P  P6  1  0.191413  0.003065  0.000000  1
  P  P7  1  0.996935  0.188348  0.000000  1
  P  P8  1  0.169065  0.474379  0.500000  1
  P  P9  1  0.525621  0.694686  0.500000  1
  P  P10  1  0.305314  0.830935  0.500000  1
  P  P11  1  0.697123  0.519971  0.500000  1
  P  P12  1  0.822848  0.302877  0.500000  1
  P  P13  1  0.480029  0.177152  0.500000  1
  P  P14  1  0.375319  0.376568  0.000000  1
  P  P15  1  0.623432  0.998751  0.000000  1
  P  P16  1  0.001249  0.624681  0.000000  1
  Ru  Ru17  1  0.554917  0.554483  0.000000  1
  Ru  Ru18  1  0.445517  0.000434  0.000000  1
  Ru  Ru19  1  0.999566  0.445083  0.000000  1
  Ru  Ru20  1  0.714342  0.710679  0.500000  1
  Ru  Ru21  1  0.289321  0.003663  0.500000  1
  Ru  Ru22  1  0.996337  0.285658  0.500000  1
  Ru  Ru23  1  0.182879  0.378385  0.000000  1
  Ru  Ru24  1  0.621615  0.804493  0.000000  1
  Ru  Ru25  1  0.195507  0.817121  0.000000  1
  Ru  Ru26  1  0.804893  0.616588  0.000000  1
  Ru  Ru27  1  0.811695  0.195107  0.000000  1
  Ru  Ru28  1  0.383412  0.188305  0.000000  1
  Ru  Ru29  1  0.367001  0.490152  0.500000  1
  Ru  Ru30  1  0.509848  0.876849  0.500000  1
  Ru  Ru31  1  0.123151  0.632999  0.500000  1
  Ru  Ru32  1  0.873532  0.503693  0.500000  1
  Ru  Ru33  1  0.630160  0.126468  0.500000  1
  Ru  Ru34  1  0.496307  0.369840  0.500000  1
  Ru  Ru35  1  0.000000  0.000000  0.000000  1
