# generated using pymatgen
data_Hf3ScAl7Re
_symmetry_space_group_name_H-M   'P 1'
_cell_length_a   5.29568200
_cell_length_b   5.29568224
_cell_length_c   8.61258000
_cell_angle_alpha   90.00000000
_cell_angle_beta   90.00000000
_cell_angle_gamma   119.99998599
_symmetry_Int_Tables_number   1
_chemical_formula_structural   Hf3ScAl7Re
_chemical_formula_sum   'Hf3 Sc1 Al7 Re1'
_cell_volume   209.17403712
_cell_formula_units_Z   1
loop_
 _symmetry_equiv_pos_site_id
 _symmetry_equiv_pos_as_xyz
  1  'x, y, z'
loop_
 _atom_site_type_symbol
 _atom_site_label
 _atom_site_symmetry_multiplicity
 _atom_site_fract_x
 _atom_site_fract_y
 _atom_site_fract_z
 _atom_site_occupancy
  Hf  Hf0  1  0.666667  0.333333  0.565933  1
  Hf  Hf1  1  0.666667  0.333333  0.945145  1
  Hf  Hf2  1  0.333333  0.666667  0.437277  1
  Sc  Sc3  1  0.333333  0.666667  0.054480  1
  Al  Al4  1  0.000000  0.000000  0.999470  1
  Al  Al5  1  0.829760  0.659520  0.256771  1
  Al  Al6  1  0.169474  0.830526  0.742725  1
  Al  Al7  1  0.661051  0.830526  0.742725  1
  Al  Al8  1  0.340480  0.170240  0.256771  1
  Al  Al9  1  0.829760  0.170240  0.256771  1
  Al  Al10  1  0.169474  0.338949  0.742725  1
  Re  Re11  1  0.000000  0.000000  0.499207  1
