# generated using pymatgen
data_Pr3NdScPt3O14
_symmetry_space_group_name_H-M   'P 1'
_cell_length_a   7.44526061
_cell_length_b   7.52225119
_cell_length_c   7.44526100
_cell_angle_alpha   60.33800163
_cell_angle_beta   60.00000270
_cell_angle_gamma   60.33800580
_symmetry_Int_Tables_number   1
_chemical_formula_structural   Pr3NdScPt3O14
_chemical_formula_sum   'Pr3 Nd1 Sc1 Pt3 O14'
_cell_volume   296.34162714
_cell_formula_units_Z   1
loop_
 _symmetry_equiv_pos_site_id
 _symmetry_equiv_pos_as_xyz
  1  'x, y, z'
loop_
 _atom_site_type_symbol
 _atom_site_label
 _atom_site_symmetry_multiplicity
 _atom_site_fract_x
 _atom_site_fract_y
 _atom_site_fract_z
 _atom_site_occupancy
  Pr  Pr0  1  0.625000  0.625000  0.125000  1
  Pr  Pr1  1  0.125000  0.625000  0.625000  1
  Pr  Pr2  1  0.625000  0.625000  0.625000  1
  Nd  Nd3  1  0.625000  0.125000  0.625000  1
  Sc  Sc4  1  0.125000  0.625000  0.125000  1
  Pt  Pt5  1  0.125000  0.125000  0.625000  1
  Pt  Pt6  1  0.625000  0.125000  0.125000  1
  Pt  Pt7  1  0.125000  0.125000  0.125000  1
  O  O8  1  0.503125  0.490626  0.503125  1
  O  O9  1  0.746875  0.759374  0.746875  1
  O  O10  1  0.455727  0.050846  0.455727  1
  O  O11  1  0.211478  0.796717  0.211478  1
  O  O12  1  0.469675  0.453283  0.038522  1
  O  O13  1  0.038522  0.453283  0.469675  1
  O  O14  1  0.455727  0.050846  0.037701  1
  O  O15  1  0.037701  0.050846  0.455727  1
  O  O16  1  0.038522  0.453283  0.038522  1
  O  O17  1  0.794273  0.199154  0.212299  1
  O  O18  1  0.211478  0.796717  0.780325  1
  O  O19  1  0.794273  0.199154  0.794273  1
  O  O20  1  0.212299  0.199154  0.794273  1
  O  O21  1  0.780325  0.796717  0.211478  1
