# generated using pymatgen
data_Sm6CdHg7
_symmetry_space_group_name_H-M   'P 1'
_cell_length_a   8.48212877
_cell_length_b   8.48212835
_cell_length_c   8.48212800
_cell_angle_alpha   113.77576535
_cell_angle_beta   113.77577167
_cell_angle_gamma   113.77577515
_symmetry_Int_Tables_number   1
_chemical_formula_structural   Sm6CdHg7
_chemical_formula_sum   'Sm6 Cd1 Hg7'
_cell_volume   376.84895237
_cell_formula_units_Z   1
loop_
 _symmetry_equiv_pos_site_id
 _symmetry_equiv_pos_as_xyz
  1  'x, y, z'
loop_
 _atom_site_type_symbol
 _atom_site_label
 _atom_site_symmetry_multiplicity
 _atom_site_fract_x
 _atom_site_fract_y
 _atom_site_fract_z
 _atom_site_occupancy
  Sm  Sm0  1  0.002382  0.605984  0.739208  1
  Sm  Sm1  1  0.739208  0.002382  0.605984  1
  Sm  Sm2  1  0.605984  0.739208  0.002382  1
  Sm  Sm3  1  0.997618  0.394016  0.260792  1
  Sm  Sm4  1  0.260792  0.997618  0.394016  1
  Sm  Sm5  1  0.394016  0.260792  0.997618  1
  Cd  Cd6  1  0.500000  0.500000  0.500000  1
  Hg  Hg7  1  0.000000  0.000000  0.000000  1
  Hg  Hg8  1  0.910219  0.753813  0.443431  1
  Hg  Hg9  1  0.443431  0.910219  0.753813  1
  Hg  Hg10  1  0.753813  0.443431  0.910219  1
  Hg  Hg11  1  0.089781  0.246187  0.556569  1
  Hg  Hg12  1  0.556569  0.089781  0.246187  1
  Hg  Hg13  1  0.246187  0.556569  0.089781  1
