# generated using pymatgen
data_Tb4LuIrRu
_symmetry_space_group_name_H-M   'P 1'
_cell_length_a   6.42130861
_cell_length_b   7.24352693
_cell_length_c   8.53868830
_cell_angle_alpha   96.77641990
_cell_angle_beta   112.74291702
_cell_angle_gamma   89.96029233
_symmetry_Int_Tables_number   1
_chemical_formula_structural   Tb4LuIrRu
_chemical_formula_sum   'Tb8 Lu2 Ir2 Ru2'
_cell_volume   363.28307379
_cell_formula_units_Z   2
loop_
 _symmetry_equiv_pos_site_id
 _symmetry_equiv_pos_as_xyz
  1  'x, y, z'
loop_
 _atom_site_type_symbol
 _atom_site_label
 _atom_site_symmetry_multiplicity
 _atom_site_fract_x
 _atom_site_fract_y
 _atom_site_fract_z
 _atom_site_occupancy
  Tb  Tb0  1  0.523750  0.080284  0.816500  1
  Tb  Tb1  1  0.476250  0.919716  0.183500  1
  Tb  Tb2  1  0.710887  0.415785  0.184820  1
  Tb  Tb3  1  0.289113  0.584215  0.815180  1
  Tb  Tb4  1  0.291987  0.312195  0.434570  1
  Tb  Tb5  1  0.708013  0.687805  0.565430  1
  Tb  Tb6  1  0.861239  0.186418  0.566730  1
  Tb  Tb7  1  0.138761  0.813582  0.433270  1
  Lu  Lu8  1  0.071477  0.249668  0.998902  1
  Lu  Lu9  1  0.928523  0.750332  0.001098  1
  Ir  Ir10  1  0.318152  0.573245  0.217079  1
  Ir  Ir11  1  0.681848  0.426755  0.782921  1
  Ru  Ru12  1  0.103588  0.925525  0.785359  1
  Ru  Ru13  1  0.896412  0.074475  0.214641  1
