# generated using pymatgen
data_LiU8O18
_symmetry_space_group_name_H-M   'P 1'
_cell_length_a   6.58928524
_cell_length_b   6.58744014
_cell_length_c   8.49197948
_cell_angle_alpha   82.57581459
_cell_angle_beta   75.02932553
_cell_angle_gamma   80.37168656
_symmetry_Int_Tables_number   1
_chemical_formula_structural   LiU8O18
_chemical_formula_sum   'Li1 U8 O18'
_cell_volume   349.64559021
_cell_formula_units_Z   1
loop_
 _symmetry_equiv_pos_site_id
 _symmetry_equiv_pos_as_xyz
  1  'x, y, z'
loop_
 _atom_site_type_symbol
 _atom_site_label
 _atom_site_symmetry_multiplicity
 _atom_site_fract_x
 _atom_site_fract_y
 _atom_site_fract_z
 _atom_site_occupancy
  Li  Li0  1  0.000000  0.000000  0.500000  1
  U  U1  1  0.331743  0.671537  0.170121  1
  U  U2  1  0.783205  0.554145  0.390900  1
  U  U3  1  0.110127  0.220234  0.062725  1
  U  U4  1  0.668257  0.328463  0.829879  1
  U  U5  1  0.216795  0.445855  0.609100  1
  U  U6  1  0.555989  0.109349  0.283292  1
  U  U7  1  0.889873  0.779766  0.937275  1
  U  U8  1  0.444011  0.890651  0.716708  1
  O  O9  1  0.581042  0.663956  0.913875  1
  O  O10  1  0.032664  0.558637  0.133873  1
  O  O11  1  0.418958  0.336044  0.086125  1
  O  O12  1  0.088615  0.652963  0.409796  1
  O  O13  1  0.806362  0.108177  0.028698  1
  O  O14  1  0.474280  0.450670  0.360990  1
  O  O15  1  0.856364  0.232904  0.298698  1
  O  O16  1  0.525720  0.549330  0.639010  1
  O  O17  1  0.265008  0.000024  0.240547  1
  O  O18  1  0.911385  0.347037  0.590204  1
  O  O19  1  0.193638  0.891823  0.971302  1
  O  O20  1  0.734992  0.999976  0.759453  1
  O  O21  1  0.681036  0.877656  0.469811  1
  O  O22  1  0.354037  0.225960  0.811215  1
  O  O23  1  0.645963  0.774040  0.188785  1
  O  O24  1  0.318964  0.122344  0.530189  1
  O  O25  1  0.967336  0.441363  0.866127  1
  O  O26  1  0.143636  0.767096  0.701302  1
