# generated using pymatgen
data_Dy2Th2B3C4
_symmetry_space_group_name_H-M   'P 1'
_cell_length_a   3.62154859
_cell_length_b   3.75272190
_cell_length_c   11.92340192
_cell_angle_alpha   93.86084962
_cell_angle_beta   96.41959186
_cell_angle_gamma   90.25737069
_symmetry_Int_Tables_number   1
_chemical_formula_structural   Dy2Th2B3C4
_chemical_formula_sum   'Dy2 Th2 B3 C4'
_cell_volume   160.65361755
_cell_formula_units_Z   1
loop_
 _symmetry_equiv_pos_site_id
 _symmetry_equiv_pos_as_xyz
  1  'x, y, z'
loop_
 _atom_site_type_symbol
 _atom_site_label
 _atom_site_symmetry_multiplicity
 _atom_site_fract_x
 _atom_site_fract_y
 _atom_site_fract_z
 _atom_site_occupancy
  Dy  Dy0  1  0.386191  0.574064  0.864418  1
  Dy  Dy1  1  0.613809  0.425936  0.135582  1
  Th  Th2  1  0.802679  0.031137  0.647621  1
  Th  Th3  1  0.197321  0.968863  0.352379  1
  B  B4  1  0.000000  0.000000  0.000000  1
  B  B5  1  0.261196  0.508164  0.539310  1
  B  B6  1  0.738804  0.491836  0.460690  1
  C  C7  1  0.884157  0.085231  0.882757  1
  C  C8  1  0.115843  0.914769  0.117243  1
  C  C9  1  0.312237  0.535127  0.671538  1
  C  C10  1  0.687763  0.464873  0.328462  1
