# generated using pymatgen
data_Tb11Dy(Si2Ni)4
_symmetry_space_group_name_H-M   'P 1'
_cell_length_a   4.14699800
_cell_length_b   11.29205011
_cell_length_c   11.36661412
_cell_angle_alpha   90.01651103
_cell_angle_beta   90.00000000
_cell_angle_gamma   90.00000000
_symmetry_Int_Tables_number   1
_chemical_formula_structural   Tb11Dy(Si2Ni)4
_chemical_formula_sum   'Tb11 Dy1 Si8 Ni4'
_cell_volume   532.27702565
_cell_formula_units_Z   1
loop_
 _symmetry_equiv_pos_site_id
 _symmetry_equiv_pos_as_xyz
  1  'x, y, z'
loop_
 _atom_site_type_symbol
 _atom_site_label
 _atom_site_symmetry_multiplicity
 _atom_site_fract_x
 _atom_site_fract_y
 _atom_site_fract_z
 _atom_site_occupancy
  Tb  Tb0  1  0.250000  0.059486  0.882349  1
  Tb  Tb1  1  0.250000  0.440790  0.383098  1
  Tb  Tb2  1  0.750000  0.940850  0.117019  1
  Tb  Tb3  1  0.750000  0.559221  0.617471  1
  Tb  Tb4  1  0.250000  0.124721  0.558942  1
  Tb  Tb5  1  0.250000  0.375260  0.058560  1
  Tb  Tb6  1  0.750000  0.875333  0.441177  1
  Tb  Tb7  1  0.750000  0.624564  0.941184  1
  Tb  Tb8  1  0.250000  0.804384  0.713704  1
  Tb  Tb9  1  0.250000  0.695488  0.213731  1
  Tb  Tb10  1  0.750000  0.195924  0.286134  1
  Dy  Dy11  1  0.750000  0.304701  0.786161  1
  Si  Si12  1  0.250000  0.813154  0.974022  1
  Si  Si13  1  0.250000  0.686921  0.474247  1
  Si  Si14  1  0.750000  0.186962  0.025269  1
  Si  Si15  1  0.750000  0.313251  0.526381  1
  Si  Si16  1  0.250000  0.494008  0.803126  1
  Si  Si17  1  0.250000  0.005467  0.302941  1
  Si  Si18  1  0.750000  0.505245  0.197194  1
  Si  Si19  1  0.750000  0.994573  0.696943  1
  Ni  Ni20  1  0.250000  0.365600  0.630659  1
  Ni  Ni21  1  0.250000  0.134166  0.129844  1
  Ni  Ni22  1  0.750000  0.634070  0.370219  1
  Ni  Ni23  1  0.750000  0.865862  0.869627  1
