# generated using pymatgen
data_Sc5Si7Ni16Pt
_symmetry_space_group_name_H-M   'P 1'
_cell_length_a   8.04293484
_cell_length_b   8.04293437
_cell_length_c   8.02675800
_cell_angle_alpha   60.06650941
_cell_angle_beta   60.06651136
_cell_angle_gamma   59.86697664
_symmetry_Int_Tables_number   1
_chemical_formula_structural   Sc5Si7Ni16Pt
_chemical_formula_sum   'Sc5 Si7 Ni16 Pt1'
_cell_volume   367.15608617
_cell_formula_units_Z   1
loop_
 _symmetry_equiv_pos_site_id
 _symmetry_equiv_pos_as_xyz
  1  'x, y, z'
loop_
 _atom_site_type_symbol
 _atom_site_label
 _atom_site_symmetry_multiplicity
 _atom_site_fract_x
 _atom_site_fract_y
 _atom_site_fract_z
 _atom_site_occupancy
  Sc  Sc0  1  0.300659  0.708323  0.291677  1
  Sc  Sc1  1  0.708323  0.300659  0.291677  1
  Sc  Sc2  1  0.288078  0.288078  0.711922  1
  Sc  Sc3  1  0.708323  0.300659  0.699341  1
  Sc  Sc4  1  0.300659  0.708323  0.699341  1
  Si  Si5  1  0.004138  0.004138  0.995862  1
  Si  Si6  1  0.000359  0.000359  0.499641  1
  Si  Si7  1  0.506233  0.999747  0.493767  1
  Si  Si8  1  0.999747  0.506233  0.493767  1
  Si  Si9  1  0.500359  0.500359  0.999641  1
  Si  Si10  1  0.999747  0.506233  0.000253  1
  Si  Si11  1  0.506233  0.999747  0.000253  1
  Ni  Ni12  1  0.880281  0.880281  0.352242  1
  Ni  Ni13  1  0.881745  0.357657  0.880299  1
  Ni  Ni14  1  0.357657  0.881745  0.880299  1
  Ni  Ni15  1  0.880281  0.880281  0.887195  1
  Ni  Ni16  1  0.119701  0.119701  0.642343  1
  Ni  Ni17  1  0.112805  0.647758  0.119719  1
  Ni  Ni18  1  0.647758  0.112805  0.119719  1
  Ni  Ni19  1  0.119701  0.119701  0.118255  1
  Ni  Ni20  1  0.670508  0.670508  0.990974  1
  Ni  Ni21  1  0.670354  0.996690  0.666477  1
  Ni  Ni22  1  0.996690  0.670354  0.666477  1
  Ni  Ni23  1  0.670508  0.670508  0.668009  1
  Ni  Ni24  1  0.333523  0.333523  0.003310  1
  Ni  Ni25  1  0.331991  0.009026  0.329492  1
  Ni  Ni26  1  0.009026  0.331991  0.329492  1
  Ni  Ni27  1  0.333523  0.333523  0.329646  1
  Pt  Pt28  1  0.661091  0.661091  0.338909  1
