# generated using pymatgen
data_Ba6Zn2B10AsPO28
_symmetry_space_group_name_H-M   'P 1'
_cell_length_a   7.18345300
_cell_length_b   8.32283300
_cell_length_c   10.49121600
_cell_angle_alpha   90.00000000
_cell_angle_beta   90.00000000
_cell_angle_gamma   90.00000000
_symmetry_Int_Tables_number   1
_chemical_formula_structural   Ba6Zn2B10AsPO28
_chemical_formula_sum   'Ba6 Zn2 B10 As1 P1 O28'
_cell_volume   627.23497047
_cell_formula_units_Z   1
loop_
 _symmetry_equiv_pos_site_id
 _symmetry_equiv_pos_as_xyz
  1  'x, y, z'
loop_
 _atom_site_type_symbol
 _atom_site_label
 _atom_site_symmetry_multiplicity
 _atom_site_fract_x
 _atom_site_fract_y
 _atom_site_fract_z
 _atom_site_occupancy
  Ba  Ba0  1  0.564735  0.442023  0.732587  1
  Ba  Ba1  1  0.564735  0.442023  0.267413  1
  Ba  Ba2  1  0.436418  0.936439  0.773183  1
  Ba  Ba3  1  0.436418  0.936439  0.226817  1
  Ba  Ba4  1  0.973698  0.226563  0.500000  1
  Ba  Ba5  1  0.026911  0.725367  0.000000  1
  Zn  Zn6  1  0.239166  0.330326  0.000000  1
  Zn  Zn7  1  0.760473  0.828615  0.500000  1
  B  B8  1  0.052297  0.425267  0.763842  1
  B  B9  1  0.052297  0.425267  0.236158  1
  B  B10  1  0.948033  0.925560  0.736345  1
  B  B11  1  0.948033  0.925560  0.263655  1
  B  B12  1  0.898882  0.174587  0.877491  1
  B  B13  1  0.898882  0.174587  0.122509  1
  B  B14  1  0.101658  0.674311  0.622649  1
  B  B15  1  0.101658  0.674311  0.377351  1
  B  B16  1  0.594884  0.160865  0.000000  1
  B  B17  1  0.405680  0.660515  0.500000  1
  As  As18  1  0.436119  0.160366  0.500000  1
  P  P19  1  0.565026  0.661389  0.000000  1
  O  O20  1  0.312105  0.203444  0.636692  1
  O  O21  1  0.312105  0.203444  0.363308  1
  O  O22  1  0.679475  0.702017  0.877540  1
  O  O23  1  0.679475  0.702017  0.122460  1
  O  O24  1  0.971326  0.231228  0.000000  1
  O  O25  1  0.029037  0.730964  0.500000  1
  O  O26  1  0.309884  0.657943  0.615547  1
  O  O27  1  0.309884  0.657943  0.384453  1
  O  O28  1  0.690115  0.158934  0.884607  1
  O  O29  1  0.690115  0.158934  0.115393  1
  O  O30  1  0.624592  0.287114  0.500000  1
  O  O31  1  0.388292  0.769910  0.000000  1
  O  O32  1  0.405870  0.142532  0.000000  1
  O  O33  1  0.594336  0.640657  0.500000  1
  O  O34  1  0.478819  0.958217  0.500000  1
  O  O35  1  0.520667  0.479620  0.000000  1
  O  O36  1  0.188208  0.463521  0.847739  1
  O  O37  1  0.188208  0.463521  0.152261  1
  O  O38  1  0.811269  0.962917  0.652762  1
  O  O39  1  0.811269  0.962917  0.347238  1
  O  O40  1  0.929875  0.294672  0.773882  1
  O  O41  1  0.929875  0.294672  0.226118  1
  O  O42  1  0.070044  0.794541  0.726545  1
  O  O43  1  0.070044  0.794541  0.273455  1
  O  O44  1  0.013437  0.517836  0.655854  1
  O  O45  1  0.013437  0.517836  0.344146  1
  O  O46  1  0.986118  0.017596  0.844776  1
  O  O47  1  0.986118  0.017596  0.155224  1
