# generated using pymatgen
data_Ca2Si7Ir11Pd
_symmetry_space_group_name_H-M   'P 1'
_cell_length_a   9.75461730
_cell_length_b   9.68467416
_cell_length_c   3.91270902
_cell_angle_alpha   90.00185559
_cell_angle_beta   90.00850664
_cell_angle_gamma   119.44750625
_symmetry_Int_Tables_number   1
_chemical_formula_structural   Ca2Si7Ir11Pd
_chemical_formula_sum   'Ca2 Si7 Ir11 Pd1'
_cell_volume   321.88033655
_cell_formula_units_Z   1
loop_
 _symmetry_equiv_pos_site_id
 _symmetry_equiv_pos_as_xyz
  1  'x, y, z'
loop_
 _atom_site_type_symbol
 _atom_site_label
 _atom_site_symmetry_multiplicity
 _atom_site_fract_x
 _atom_site_fract_y
 _atom_site_fract_z
 _atom_site_occupancy
  Ca  Ca0  1  0.332487  0.665129  0.739003  1
  Ca  Ca1  1  0.670619  0.337162  0.239143  1
  Si  Si2  1  0.995092  0.998406  0.721113  1
  Si  Si3  1  0.288103  0.880415  0.238757  1
  Si  Si4  1  0.596298  0.710328  0.239134  1
  Si  Si5  1  0.113795  0.399830  0.239011  1
  Si  Si6  1  0.707975  0.119763  0.739026  1
  Si  Si7  1  0.413450  0.297090  0.738996  1
  Si  Si8  1  0.883748  0.594033  0.739134  1
  Ir  Ir9  1  0.864934  0.762182  0.239233  1
  Ir  Ir10  1  0.895928  0.130918  0.239628  1
  Ir  Ir11  1  0.726018  0.883831  0.739000  1
  Ir  Ir12  1  0.155453  0.271775  0.738476  1
  Ir  Ir13  1  0.117839  0.845898  0.738410  1
  Ir  Ir14  1  0.054634  0.611619  0.238898  1
  Ir  Ir15  1  0.558291  0.945384  0.238802  1
  Ir  Ir16  1  0.387324  0.439985  0.238820  1
  Ir  Ir17  1  0.936779  0.375625  0.739127  1
  Ir  Ir18  1  0.438842  0.063439  0.738836  1
  Ir  Ir19  1  0.624769  0.564741  0.739204  1
  Pd  Pd20  1  0.237622  0.102449  0.238249  1
