# generated using pymatgen
data_Y5Sc3Ni16(AsP3)3
_symmetry_space_group_name_H-M   'P 1'
_cell_length_a   12.44678700
_cell_length_b   12.44678575
_cell_length_c   3.82903100
_cell_angle_alpha   90.00000000
_cell_angle_beta   90.00000000
_cell_angle_gamma   120.00000599
_symmetry_Int_Tables_number   1
_chemical_formula_structural   Y5Sc3Ni16(AsP3)3
_chemical_formula_sum   'Y5 Sc3 Ni16 As3 P9'
_cell_volume   513.72885447
_cell_formula_units_Z   1
loop_
 _symmetry_equiv_pos_site_id
 _symmetry_equiv_pos_as_xyz
  1  'x, y, z'
loop_
 _atom_site_type_symbol
 _atom_site_label
 _atom_site_symmetry_multiplicity
 _atom_site_fract_x
 _atom_site_fract_y
 _atom_site_fract_z
 _atom_site_occupancy
  Y  Y0  1  0.180562  0.180562  0.500000  1
  Y  Y1  1  0.819438  0.000000  0.500000  1
  Y  Y2  1  0.000000  0.819438  0.500000  1
  Y  Y3  1  0.333333  0.666667  0.000000  1
  Y  Y4  1  0.666667  0.333333  0.000000  1
  Sc  Sc5  1  0.566279  0.566279  0.000000  1
  Sc  Sc6  1  0.433721  0.000000  0.000000  1
  Sc  Sc7  1  0.000000  0.433721  0.000000  1
  Ni  Ni8  1  0.723978  0.723978  0.500000  1
  Ni  Ni9  1  0.276022  0.000000  0.500000  1
  Ni  Ni10  1  0.000000  0.276022  0.500000  1
  Ni  Ni11  1  0.180056  0.378030  0.000000  1
  Ni  Ni12  1  0.621970  0.802026  0.000000  1
  Ni  Ni13  1  0.197974  0.819944  0.000000  1
  Ni  Ni14  1  0.802026  0.621970  0.000000  1
  Ni  Ni15  1  0.819944  0.197974  0.000000  1
  Ni  Ni16  1  0.378030  0.180056  0.000000  1
  Ni  Ni17  1  0.362038  0.490323  0.500000  1
  Ni  Ni18  1  0.509677  0.871716  0.500000  1
  Ni  Ni19  1  0.128284  0.637962  0.500000  1
  Ni  Ni20  1  0.871716  0.509677  0.500000  1
  Ni  Ni21  1  0.637962  0.128284  0.500000  1
  Ni  Ni22  1  0.490323  0.362038  0.500000  1
  Ni  Ni23  1  0.000000  0.000000  0.000000  1
  As  As24  1  0.356195  0.356195  0.000000  1
  As  As25  1  0.643805  0.000000  0.000000  1
  As  As26  1  0.000000  0.643805  0.000000  1
  P  P27  1  0.821686  0.821686  0.000000  1
  P  P28  1  0.178314  0.000000  0.000000  1
  P  P29  1  0.000000  0.178314  0.000000  1
  P  P30  1  0.170321  0.475708  0.500000  1
  P  P31  1  0.524292  0.694613  0.500000  1
  P  P32  1  0.305387  0.829679  0.500000  1
  P  P33  1  0.694613  0.524292  0.500000  1
  P  P34  1  0.829679  0.305387  0.500000  1
  P  P35  1  0.475708  0.170321  0.500000  1
