# generated using pymatgen
data_La4Y2Sn7Hg3
_symmetry_space_group_name_H-M   'P 1'
_cell_length_a   6.62393458
_cell_length_b   6.62393444
_cell_length_c   10.45489417
_cell_angle_alpha   90.45936830
_cell_angle_beta   90.45937629
_cell_angle_gamma   102.51775432
_symmetry_Int_Tables_number   1
_chemical_formula_structural   La4Y2Sn7Hg3
_chemical_formula_sum   'La4 Y2 Sn7 Hg3'
_cell_volume   447.78311527
_cell_formula_units_Z   1
loop_
 _symmetry_equiv_pos_site_id
 _symmetry_equiv_pos_as_xyz
  1  'x, y, z'
loop_
 _atom_site_type_symbol
 _atom_site_label
 _atom_site_symmetry_multiplicity
 _atom_site_fract_x
 _atom_site_fract_y
 _atom_site_fract_z
 _atom_site_occupancy
  La  La0  1  0.206058  0.796909  0.500100  1
  La  La1  1  0.206614  0.791680  0.000145  1
  La  La2  1  0.796909  0.206058  0.500100  1
  La  La3  1  0.791680  0.206614  0.000145  1
  Y  Y4  1  0.630474  0.630474  0.251263  1
  Y  Y5  1  0.369637  0.369637  0.745083  1
  Sn  Sn6  1  0.015972  0.015972  0.246509  1
  Sn  Sn7  1  0.984142  0.984142  0.752243  1
  Sn  Sn8  1  0.687860  0.687860  0.545628  1
  Sn  Sn9  1  0.490506  0.070940  0.248556  1
  Sn  Sn10  1  0.931292  0.509220  0.752440  1
  Sn  Sn11  1  0.509220  0.931292  0.752440  1
  Sn  Sn12  1  0.070940  0.490506  0.248556  1
  Hg  Hg13  1  0.313367  0.313367  0.038181  1
  Hg  Hg14  1  0.685842  0.685842  0.961688  1
  Hg  Hg15  1  0.309487  0.309487  0.456923  1
