# generated using pymatgen
data_HoNp2TeF15
_symmetry_space_group_name_H-M   'P 1'
_cell_length_a   8.51474650
_cell_length_b   8.51474658
_cell_length_c   8.46483600
_cell_angle_alpha   79.17116830
_cell_angle_beta   79.17116821
_cell_angle_gamma   99.44085278
_symmetry_Int_Tables_number   1
_chemical_formula_structural   HoNp2TeF15
_chemical_formula_sum   'Ho2 Np4 Te2 F30'
_cell_volume   579.27052715
_cell_formula_units_Z   2
loop_
 _symmetry_equiv_pos_site_id
 _symmetry_equiv_pos_as_xyz
  1  'x, y, z'
loop_
 _atom_site_type_symbol
 _atom_site_label
 _atom_site_symmetry_multiplicity
 _atom_site_fract_x
 _atom_site_fract_y
 _atom_site_fract_z
 _atom_site_occupancy
  Ho  Ho0  1  0.677142  0.322858  0.750000  1
  Ho  Ho1  1  0.322858  0.677142  0.250000  1
  Np  Np2  1  0.826805  0.741710  0.319823  1
  Np  Np3  1  0.258290  0.173195  0.180177  1
  Np  Np4  1  0.173195  0.258290  0.680177  1
  Np  Np5  1  0.741710  0.826805  0.819823  1
  Te  Te6  1  0.255119  0.744881  0.750000  1
  Te  Te7  1  0.744881  0.255119  0.250000  1
  F  F8  1  0.162312  0.158339  0.951286  1
  F  F9  1  0.702784  0.558019  0.834855  1
  F  F10  1  0.055079  0.651437  0.324011  1
  F  F11  1  0.651437  0.055079  0.824011  1
  F  F12  1  0.558019  0.702784  0.334855  1
  F  F13  1  0.158339  0.162312  0.451286  1
  F  F14  1  0.837688  0.841661  0.048714  1
  F  F15  1  0.297216  0.441981  0.165145  1
  F  F16  1  0.944921  0.348563  0.675989  1
  F  F17  1  0.348563  0.944921  0.175989  1
  F  F18  1  0.441981  0.297216  0.665145  1
  F  F19  1  0.841661  0.837688  0.548714  1
  F  F20  1  0.964371  0.035629  0.750000  1
  F  F21  1  0.525545  0.734504  0.025658  1
  F  F22  1  0.265496  0.474455  0.474342  1
  F  F23  1  0.474455  0.265496  0.974342  1
  F  F24  1  0.734504  0.525545  0.525658  1
  F  F25  1  0.035629  0.964371  0.250000  1
  F  F26  1  0.212719  0.734650  0.999834  1
  F  F27  1  0.199040  0.468520  0.806926  1
  F  F28  1  0.017199  0.723328  0.779931  1
  F  F29  1  0.723328  0.017199  0.279931  1
  F  F30  1  0.468520  0.199040  0.306926  1
  F  F31  1  0.734650  0.212719  0.499834  1
  F  F32  1  0.787281  0.265350  0.000166  1
  F  F33  1  0.800960  0.531480  0.193074  1
  F  F34  1  0.982801  0.276672  0.220069  1
  F  F35  1  0.276672  0.982801  0.720069  1
  F  F36  1  0.531480  0.800960  0.693074  1
  F  F37  1  0.265350  0.787281  0.500166  1
