# generated using pymatgen
data_Ca6Zn12Ag4N
_symmetry_space_group_name_H-M   'P 1'
_cell_length_a   8.21476715
_cell_length_b   8.21476779
_cell_length_c   8.21476700
_cell_angle_alpha   109.47121376
_cell_angle_beta   109.47121533
_cell_angle_gamma   109.47122787
_symmetry_Int_Tables_number   1
_chemical_formula_structural   Ca6Zn12Ag4N
_chemical_formula_sum   'Ca6 Zn12 Ag4 N1'
_cell_volume   426.74057182
_cell_formula_units_Z   1
loop_
 _symmetry_equiv_pos_site_id
 _symmetry_equiv_pos_as_xyz
  1  'x, y, z'
loop_
 _atom_site_type_symbol
 _atom_site_label
 _atom_site_symmetry_multiplicity
 _atom_site_fract_x
 _atom_site_fract_y
 _atom_site_fract_z
 _atom_site_occupancy
  Ca  Ca0  1  0.000000  0.257013  0.257013  1
  Ca  Ca1  1  0.257013  0.000000  0.257013  1
  Ca  Ca2  1  0.742987  0.000000  0.742987  1
  Ca  Ca3  1  0.742987  0.742987  0.000000  1
  Ca  Ca4  1  0.257013  0.257013  0.000000  1
  Ca  Ca5  1  0.000000  0.742987  0.742987  1
  Zn  Zn6  1  0.689926  0.344964  0.344964  1
  Zn  Zn7  1  0.344964  0.000000  0.655036  1
  Zn  Zn8  1  0.344964  0.689926  0.344964  1
  Zn  Zn9  1  0.344964  0.344964  0.689926  1
  Zn  Zn10  1  0.344964  0.655036  0.000000  1
  Zn  Zn11  1  0.000000  0.344964  0.655036  1
  Zn  Zn12  1  0.000000  0.655036  0.344964  1
  Zn  Zn13  1  0.655036  0.655036  0.310074  1
  Zn  Zn14  1  0.655036  0.000000  0.344964  1
  Zn  Zn15  1  0.655036  0.344964  0.000000  1
  Zn  Zn16  1  0.655036  0.310074  0.655036  1
  Zn  Zn17  1  0.310074  0.655036  0.655036  1
  Ag  Ag18  1  0.500000  0.500000  0.500000  1
  Ag  Ag19  1  0.500000  0.000000  0.000000  1
  Ag  Ag20  1  0.000000  0.500000  0.000000  1
  Ag  Ag21  1  0.000000  0.000000  0.500000  1
  N  N22  1  0.000000  0.000000  0.000000  1
