# generated using pymatgen
data_Ta4FeCo5Os2
_symmetry_space_group_name_H-M   'P 1'
_cell_length_a   4.81223323
_cell_length_b   4.82451874
_cell_length_c   8.08136700
_cell_angle_alpha   90.00000000
_cell_angle_beta   90.00000000
_cell_angle_gamma   120.08448192
_symmetry_Int_Tables_number   1
_chemical_formula_structural   Ta4FeCo5Os2
_chemical_formula_sum   'Ta4 Fe1 Co5 Os2'
_cell_volume   162.34756680
_cell_formula_units_Z   1
loop_
 _symmetry_equiv_pos_site_id
 _symmetry_equiv_pos_as_xyz
  1  'x, y, z'
loop_
 _atom_site_type_symbol
 _atom_site_label
 _atom_site_symmetry_multiplicity
 _atom_site_fract_x
 _atom_site_fract_y
 _atom_site_fract_z
 _atom_site_occupancy
  Ta  Ta0  1  0.334981  0.667491  0.429563  1
  Ta  Ta1  1  0.666918  0.333458  0.572521  1
  Ta  Ta2  1  0.666918  0.333458  0.927479  1
  Ta  Ta3  1  0.334981  0.667491  0.070437  1
  Fe  Fe4  1  0.342523  0.171262  0.250000  1
  Co  Co5  1  0.171421  0.829079  0.750000  1
  Co  Co6  1  0.171421  0.342341  0.750000  1
  Co  Co7  1  0.658259  0.829129  0.750000  1
  Co  Co8  1  0.824700  0.169234  0.250000  1
  Co  Co9  1  0.824700  0.655467  0.250000  1
  Os  Os10  1  0.001591  0.000795  0.500025  1
  Os  Os11  1  0.001591  0.000795  0.999975  1
