# generated using pymatgen
data_Hf4Mn5Ga2Re
_symmetry_space_group_name_H-M   'P 1'
_cell_length_a   5.00360400
_cell_length_b   5.01963297
_cell_length_c   8.31411900
_cell_angle_alpha   90.00000000
_cell_angle_beta   90.00000000
_cell_angle_gamma   119.89442403
_symmetry_Int_Tables_number   1
_chemical_formula_structural   Hf4Mn5Ga2Re
_chemical_formula_sum   'Hf4 Mn5 Ga2 Re1'
_cell_volume   181.03510820
_cell_formula_units_Z   1
loop_
 _symmetry_equiv_pos_site_id
 _symmetry_equiv_pos_as_xyz
  1  'x, y, z'
loop_
 _atom_site_type_symbol
 _atom_site_label
 _atom_site_symmetry_multiplicity
 _atom_site_fract_x
 _atom_site_fract_y
 _atom_site_fract_z
 _atom_site_occupancy
  Hf  Hf0  1  0.333297  0.666595  0.069721  1
  Hf  Hf1  1  0.666157  0.332314  0.565240  1
  Hf  Hf2  1  0.666157  0.332314  0.934760  1
  Hf  Hf3  1  0.333297  0.666595  0.430279  1
  Mn  Mn4  1  0.820157  0.640315  0.250000  1
  Mn  Mn5  1  0.174315  0.832824  0.750000  1
  Mn  Mn6  1  0.658509  0.832824  0.750000  1
  Mn  Mn7  1  0.356754  0.179020  0.250000  1
  Mn  Mn8  1  0.822267  0.179020  0.250000  1
  Ga  Ga9  1  0.996057  0.992114  0.007811  1
  Ga  Ga10  1  0.996057  0.992114  0.492189  1
  Re  Re11  1  0.176976  0.353951  0.750000  1
