# generated using pymatgen
data_LiMg(Nb2B5)4
_symmetry_space_group_name_H-M   'P 1'
_cell_length_a   6.17937383
_cell_length_b   7.03260401
_cell_length_c   7.40198888
_cell_angle_alpha   94.05920649
_cell_angle_beta   102.09341016
_cell_angle_gamma   116.03848179
_symmetry_Int_Tables_number   1
_chemical_formula_structural   LiMg(Nb2B5)4
_chemical_formula_sum   'Li1 Mg1 Nb8 B20'
_cell_volume   277.71358727
_cell_formula_units_Z   1
loop_
 _symmetry_equiv_pos_site_id
 _symmetry_equiv_pos_as_xyz
  1  'x, y, z'
loop_
 _atom_site_type_symbol
 _atom_site_label
 _atom_site_symmetry_multiplicity
 _atom_site_fract_x
 _atom_site_fract_y
 _atom_site_fract_z
 _atom_site_occupancy
  Li  Li0  1  0.999709  0.997853  0.998404  1
  Mg  Mg1  1  0.000720  0.605659  0.803846  1
  Nb  Nb2  1  0.499686  0.999802  0.000640  1
  Nb  Nb3  1  0.500244  0.799927  0.399724  1
  Nb  Nb4  1  0.999420  0.394601  0.201906  1
  Nb  Nb5  1  0.502512  0.200924  0.600440  1
  Nb  Nb6  1  0.999828  0.800328  0.398977  1
  Nb  Nb7  1  0.501227  0.600944  0.799716  1
  Nb  Nb8  1  0.496189  0.397844  0.198830  1
  Nb  Nb9  1  0.000629  0.203942  0.598447  1
  B  B10  1  0.329842  0.230055  0.869327  1
  B  B11  1  0.331379  0.632364  0.065789  1
  B  B12  1  0.165377  0.364459  0.934858  1
  B  B13  1  0.329707  0.032475  0.261768  1
  B  B14  1  0.164057  0.767253  0.130941  1
  B  B15  1  0.834627  0.232311  0.867614  1
  B  B16  1  0.165467  0.164447  0.328855  1
  B  B17  1  0.835729  0.635392  0.065249  1
  B  B18  1  0.333938  0.433439  0.465674  1
  B  B19  1  0.668157  0.367892  0.932399  1
  B  B20  1  0.834013  0.031317  0.262535  1
  B  B21  1  0.669033  0.768794  0.130181  1
  B  B22  1  0.333000  0.833181  0.667987  1
  B  B23  1  0.166714  0.568737  0.535387  1
  B  B24  1  0.665441  0.165268  0.334070  1
  B  B25  1  0.833570  0.434754  0.468540  1
  B  B26  1  0.164326  0.966370  0.735503  1
  B  B27  1  0.836114  0.834550  0.670034  1
  B  B28  1  0.668526  0.567803  0.535522  1
  B  B29  1  0.670820  0.967317  0.736839  1
