# generated using pymatgen
data_Tm4Al4PdRh3
_symmetry_space_group_name_H-M   'P 1'
_cell_length_a   4.22933000
_cell_length_b   6.80493328
_cell_length_c   7.90386733
_cell_angle_alpha   90.03284280
_cell_angle_beta   90.00000000
_cell_angle_gamma   90.00000000
_symmetry_Int_Tables_number   1
_chemical_formula_structural   Tm4Al4PdRh3
_chemical_formula_sum   'Tm4 Al4 Pd1 Rh3'
_cell_volume   227.47570231
_cell_formula_units_Z   1
loop_
 _symmetry_equiv_pos_site_id
 _symmetry_equiv_pos_as_xyz
  1  'x, y, z'
loop_
 _atom_site_type_symbol
 _atom_site_label
 _atom_site_symmetry_multiplicity
 _atom_site_fract_x
 _atom_site_fract_y
 _atom_site_fract_z
 _atom_site_occupancy
  Tm  Tm0  1  0.250000  0.968133  0.325565  1
  Tm  Tm1  1  0.750000  0.533163  0.818405  1
  Tm  Tm2  1  0.250000  0.457006  0.179347  1
  Tm  Tm3  1  0.750000  0.035799  0.677564  1
  Al  Al4  1  0.750000  0.634834  0.442595  1
  Al  Al5  1  0.750000  0.140089  0.058693  1
  Al  Al6  1  0.250000  0.363870  0.559884  1
  Al  Al7  1  0.250000  0.865740  0.937478  1
  Pd  Pd8  1  0.750000  0.765442  0.124634  1
  Rh  Rh9  1  0.750000  0.262122  0.376086  1
  Rh  Rh10  1  0.250000  0.237329  0.877262  1
  Rh  Rh11  1  0.250000  0.736474  0.622487  1
