# generated using pymatgen
data_Ba20Si11Sb
_symmetry_space_group_name_H-M   'P 1'
_cell_length_a   8.47851300
_cell_length_b   8.47851300
_cell_length_c   16.94068900
_cell_angle_alpha   90.00000000
_cell_angle_beta   90.00000000
_cell_angle_gamma   90.00000000
_symmetry_Int_Tables_number   1
_chemical_formula_structural   Ba20Si11Sb
_chemical_formula_sum   'Ba20 Si11 Sb1'
_cell_volume   1217.78452368
_cell_formula_units_Z   1
loop_
 _symmetry_equiv_pos_site_id
 _symmetry_equiv_pos_as_xyz
  1  'x, y, z'
loop_
 _atom_site_type_symbol
 _atom_site_label
 _atom_site_symmetry_multiplicity
 _atom_site_fract_x
 _atom_site_fract_y
 _atom_site_fract_z
 _atom_site_occupancy
  Ba  Ba0  1  0.314505  0.675190  0.108641  1
  Ba  Ba1  1  0.175190  0.185495  0.108641  1
  Ba  Ba2  1  0.500000  0.000000  0.725773  1
  Ba  Ba3  1  0.327716  0.691607  0.393153  1
  Ba  Ba4  1  0.666290  0.695028  0.891852  1
  Ba  Ba5  1  0.191607  0.172284  0.393153  1
  Ba  Ba6  1  0.672284  0.308393  0.393153  1
  Ba  Ba7  1  0.172303  0.808725  0.606403  1
  Ba  Ba8  1  0.333710  0.304972  0.891852  1
  Ba  Ba9  1  0.195028  0.833710  0.891852  1
  Ba  Ba10  1  0.500000  0.000000  0.230631  1
  Ba  Ba11  1  0.827697  0.191275  0.606403  1
  Ba  Ba12  1  0.308725  0.327697  0.606403  1
  Ba  Ba13  1  0.808393  0.827716  0.393153  1
  Ba  Ba14  1  0.804972  0.166290  0.891852  1
  Ba  Ba15  1  0.824810  0.814505  0.108641  1
  Ba  Ba16  1  0.000000  0.500000  0.272053  1
  Ba  Ba17  1  0.000000  0.500000  0.766402  1
  Ba  Ba18  1  0.685495  0.324810  0.108641  1
  Ba  Ba19  1  0.691275  0.672303  0.606403  1
  Si  Si20  1  0.101173  0.101389  0.750512  1
  Si  Si21  1  0.398611  0.601173  0.750512  1
  Si  Si22  1  0.601187  0.601495  0.249859  1
  Si  Si23  1  0.500000  0.000000  0.015790  1
  Si  Si24  1  0.101495  0.898813  0.249859  1
  Si  Si25  1  0.601389  0.398827  0.750512  1
  Si  Si26  1  0.898827  0.898611  0.750512  1
  Si  Si27  1  0.398813  0.398505  0.249859  1
  Si  Si28  1  0.898505  0.101187  0.249859  1
  Si  Si29  1  0.500000  0.000000  0.514886  1
  Si  Si30  1  0.000000  0.500000  0.486049  1
  Sb  Sb31  1  0.000000  0.500000  0.986735  1
