# generated using pymatgen
data_Tb11ErCo5Sn
_symmetry_space_group_name_H-M   'P 1'
_cell_length_a   8.29253092
_cell_length_b   8.29253045
_cell_length_c   8.29307761
_cell_angle_alpha   107.02907079
_cell_angle_beta   110.63922874
_cell_angle_gamma   110.77004757
_symmetry_Int_Tables_number   1
_chemical_formula_structural   Tb11ErCo5Sn
_chemical_formula_sum   'Tb11 Er1 Co5 Sn1'
_cell_volume   438.42234688
_cell_formula_units_Z   1
loop_
 _symmetry_equiv_pos_site_id
 _symmetry_equiv_pos_as_xyz
  1  'x, y, z'
loop_
 _atom_site_type_symbol
 _atom_site_label
 _atom_site_symmetry_multiplicity
 _atom_site_fract_x
 _atom_site_fract_y
 _atom_site_fract_z
 _atom_site_occupancy
  Tb  Tb0  1  0.479952  0.292989  0.186286  1
  Tb  Tb1  1  0.105904  0.292156  0.814378  1
  Tb  Tb2  1  0.893298  0.706335  0.186286  1
  Tb  Tb3  1  0.522221  0.708473  0.814378  1
  Tb  Tb4  1  0.304690  0.618580  0.312779  1
  Tb  Tb5  1  0.306595  0.992274  0.686913  1
  Tb  Tb6  1  0.694640  0.380318  0.686913  1
  Tb  Tb7  1  0.694199  0.008088  0.312779  1
  Tb  Tb8  1  0.191589  0.207265  0.398853  1
  Tb  Tb9  1  0.807200  0.792704  0.599904  1
  Tb  Tb10  1  0.192359  0.792578  0.984936  1
  Er  Er11  1  0.806976  0.207903  0.014880  1
  Co  Co12  1  0.499737  0.612139  0.111876  1
  Co  Co13  1  0.501284  0.387491  0.888775  1
  Co  Co14  1  0.378401  0.999600  0.378001  1
  Co  Co15  1  0.623101  0.000604  0.623704  1
  Co  Co16  1  0.998107  0.001155  0.999263  1
  Sn  Sn17  1  0.999748  0.499349  0.499098  1
