# generated using pymatgen
data_TbDy5(BO3)6
_symmetry_space_group_name_H-M   'P 1'
_cell_length_a   6.59744305
_cell_length_b   6.59353551
_cell_length_c   9.64361992
_cell_angle_alpha   70.37954858
_cell_angle_beta   70.36668161
_cell_angle_gamma   60.09046258
_symmetry_Int_Tables_number   1
_chemical_formula_structural   TbDy5(BO3)6
_chemical_formula_sum   'Tb1 Dy5 B6 O18'
_cell_volume   335.13800033
_cell_formula_units_Z   1
loop_
 _symmetry_equiv_pos_site_id
 _symmetry_equiv_pos_as_xyz
  1  'x, y, z'
loop_
 _atom_site_type_symbol
 _atom_site_label
 _atom_site_symmetry_multiplicity
 _atom_site_fract_x
 _atom_site_fract_y
 _atom_site_fract_z
 _atom_site_occupancy
  Tb  Tb0  1  0.657868  0.170673  0.499332  1
  Dy  Dy1  1  0.000239  0.499883  0.499990  1
  Dy  Dy2  1  0.500012  0.000000  0.000155  1
  Dy  Dy3  1  0.170736  0.657491  0.999350  1
  Dy  Dy4  1  0.342582  0.829088  0.500644  1
  Dy  Dy5  1  0.829248  0.342563  0.000475  1
  B  B6  1  0.918122  0.842628  0.746912  1
  B  B7  1  0.156676  0.082058  0.753278  1
  B  B8  1  0.082435  0.157141  0.253086  1
  B  B9  1  0.842941  0.917741  0.246681  1
  B  B10  1  0.676552  0.323434  0.750158  1
  B  B11  1  0.322891  0.677152  0.249884  1
  O  O12  1  0.966706  0.781674  0.603534  1
  O  O13  1  0.217351  0.033915  0.896701  1
  O  O14  1  0.034863  0.217523  0.396492  1
  O  O15  1  0.782082  0.966034  0.103464  1
  O  O16  1  0.870234  0.685604  0.888513  1
  O  O17  1  0.313245  0.129947  0.611584  1
  O  O18  1  0.129931  0.314399  0.111525  1
  O  O19  1  0.686035  0.869489  0.388457  1
  O  O20  1  0.518412  0.384905  0.891744  1
  O  O21  1  0.615389  0.481624  0.608392  1
  O  O22  1  0.481037  0.615626  0.108093  1
  O  O23  1  0.383885  0.519697  0.391571  1
  O  O24  1  0.916474  0.299357  0.752166  1
  O  O25  1  0.700863  0.083074  0.748542  1
  O  O26  1  0.083286  0.700747  0.247799  1
  O  O27  1  0.299305  0.916749  0.252055  1
  O  O28  1  0.134414  0.865481  0.750029  1
  O  O29  1  0.866186  0.134303  0.249392  1
