# generated using pymatgen
data_DyHo3TcB12Rh
_symmetry_space_group_name_H-M   'P 1'
_cell_length_a   3.67360000
_cell_length_b   9.13103181
_cell_length_c   11.52046802
_cell_angle_alpha   90.37750793
_cell_angle_beta   90.00000000
_cell_angle_gamma   90.00000000
_symmetry_Int_Tables_number   1
_chemical_formula_structural   DyHo3TcB12Rh
_chemical_formula_sum   'Dy2 Ho6 Tc2 B24 Rh2'
_cell_volume   386.43140842
_cell_formula_units_Z   2
loop_
 _symmetry_equiv_pos_site_id
 _symmetry_equiv_pos_as_xyz
  1  'x, y, z'
loop_
 _atom_site_type_symbol
 _atom_site_label
 _atom_site_symmetry_multiplicity
 _atom_site_fract_x
 _atom_site_fract_y
 _atom_site_fract_z
 _atom_site_occupancy
  Dy  Dy0  1  0.500000  0.318813  0.410894  1
  Dy  Dy1  1  0.500000  0.681187  0.589106  1
  Ho  Ho2  1  0.500000  0.173354  0.917392  1
  Ho  Ho3  1  0.500000  0.826646  0.082608  1
  Ho  Ho4  1  0.500000  0.441596  0.126644  1
  Ho  Ho5  1  0.500000  0.558404  0.873356  1
  Ho  Ho6  1  0.500000  0.054188  0.628684  1
  Ho  Ho7  1  0.500000  0.945812  0.371316  1
  Tc  Tc8  1  0.500000  0.138757  0.179807  1
  Tc  Tc9  1  0.500000  0.861243  0.820193  1
  B  B10  1  0.000000  0.107399  0.471088  1
  B  B11  1  0.000000  0.892601  0.528912  1
  B  B12  1  0.000000  0.393126  0.970253  1
  B  B13  1  0.000000  0.606874  0.029747  1
  B  B14  1  0.000000  0.131999  0.314737  1
  B  B15  1  0.000000  0.868001  0.685263  1
  B  B16  1  0.000000  0.367644  0.816693  1
  B  B17  1  0.000000  0.632356  0.183307  1
  B  B18  1  0.000000  0.053138  0.067278  1
  B  B19  1  0.000000  0.946862  0.932722  1
  B  B20  1  0.000000  0.445481  0.566211  1
  B  B21  1  0.000000  0.554519  0.433789  1
  B  B22  1  0.000000  0.483496  0.287489  1
  B  B23  1  0.000000  0.516504  0.712511  1
  B  B24  1  0.000000  0.016811  0.787269  1
  B  B25  1  0.000000  0.983189  0.212731  1
  B  B26  1  0.000000  0.247878  0.081000  1
  B  B27  1  0.000000  0.752122  0.919000  1
  B  B28  1  0.000000  0.250799  0.579060  1
  B  B29  1  0.000000  0.749201  0.420940  1
  B  B30  1  0.000000  0.292407  0.234493  1
  B  B31  1  0.000000  0.707593  0.765507  1
  B  B32  1  0.000000  0.208692  0.734951  1
  B  B33  1  0.000000  0.791308  0.265049  1
  Rh  Rh34  1  0.500000  0.362072  0.678796  1
  Rh  Rh35  1  0.500000  0.637928  0.321204  1
