# generated using pymatgen
data_La16Cd4Pd3Rh
_symmetry_space_group_name_H-M   'P 1'
_cell_length_a   10.20943758
_cell_length_b   10.20943809
_cell_length_c   10.20943833
_cell_angle_alpha   59.69184118
_cell_angle_beta   59.69183665
_cell_angle_gamma   59.69184262
_symmetry_Int_Tables_number   1
_chemical_formula_structural   La16Cd4Pd3Rh
_chemical_formula_sum   'La16 Cd4 Pd3 Rh1'
_cell_volume   747.20485428
_cell_formula_units_Z   1
loop_
 _symmetry_equiv_pos_site_id
 _symmetry_equiv_pos_as_xyz
  1  'x, y, z'
loop_
 _atom_site_type_symbol
 _atom_site_label
 _atom_site_symmetry_multiplicity
 _atom_site_fract_x
 _atom_site_fract_y
 _atom_site_fract_z
 _atom_site_occupancy
  La  La0  1  0.350774  0.350774  0.350774  1
  La  La1  1  0.347025  0.347025  0.952859  1
  La  La2  1  0.347025  0.952859  0.347025  1
  La  La3  1  0.952859  0.347025  0.347025  1
  La  La4  1  0.814318  0.190911  0.190911  1
  La  La5  1  0.192406  0.806249  0.806249  1
  La  La6  1  0.190911  0.814318  0.190911  1
  La  La7  1  0.806249  0.192406  0.806249  1
  La  La8  1  0.190911  0.190911  0.814318  1
  La  La9  1  0.806249  0.806249  0.192406  1
  La  La10  1  0.935291  0.564188  0.564188  1
  La  La11  1  0.560592  0.936541  0.936541  1
  La  La12  1  0.564188  0.935291  0.564188  1
  La  La13  1  0.936541  0.560592  0.936541  1
  La  La14  1  0.564188  0.564188  0.935291  1
  La  La15  1  0.936541  0.936541  0.560592  1
  Cd  Cd16  1  0.579255  0.579255  0.579255  1
  Cd  Cd17  1  0.579828  0.579828  0.261210  1
  Cd  Cd18  1  0.579828  0.261210  0.579828  1
  Cd  Cd19  1  0.261210  0.579828  0.579828  1
  Pd  Pd20  1  0.144083  0.144083  0.572789  1
  Pd  Pd21  1  0.144083  0.572789  0.144083  1
  Pd  Pd22  1  0.572789  0.144083  0.144083  1
  Rh  Rh23  1  0.142857  0.142857  0.142857  1
