# generated using pymatgen
data_Li3Th4Si8Rh
_symmetry_space_group_name_H-M   'P 1'
_cell_length_a   3.95922700
_cell_length_b   7.45863193
_cell_length_c   10.38061727
_cell_angle_alpha   89.67685191
_cell_angle_beta   90.00000000
_cell_angle_gamma   90.00000000
_symmetry_Int_Tables_number   1
_chemical_formula_structural   Li3Th4Si8Rh
_chemical_formula_sum   'Li3 Th4 Si8 Rh1'
_cell_volume   306.53908010
_cell_formula_units_Z   1
loop_
 _symmetry_equiv_pos_site_id
 _symmetry_equiv_pos_as_xyz
  1  'x, y, z'
loop_
 _atom_site_type_symbol
 _atom_site_label
 _atom_site_symmetry_multiplicity
 _atom_site_fract_x
 _atom_site_fract_y
 _atom_site_fract_z
 _atom_site_occupancy
  Li  Li0  1  0.250000  0.491033  0.109032  1
  Li  Li1  1  0.750000  0.008827  0.603313  1
  Li  Li2  1  0.750000  0.505598  0.892447  1
  Th  Th3  1  0.250000  0.140939  0.866688  1
  Th  Th4  1  0.250000  0.646467  0.629490  1
  Th  Th5  1  0.750000  0.859212  0.132391  1
  Th  Th6  1  0.750000  0.362843  0.367236  1
  Si  Si7  1  0.250000  0.216060  0.567469  1
  Si  Si8  1  0.250000  0.724534  0.924980  1
  Si  Si9  1  0.750000  0.790213  0.427982  1
  Si  Si10  1  0.750000  0.267234  0.077056  1
  Si  Si11  1  0.250000  0.670661  0.321087  1
  Si  Si12  1  0.250000  0.156434  0.191827  1
  Si  Si13  1  0.750000  0.334123  0.677375  1
  Si  Si14  1  0.750000  0.837057  0.816451  1
  Rh  Rh15  1  0.250000  0.988765  0.395175  1
