# generated using pymatgen
data_La8Cd2OsAu
_symmetry_space_group_name_H-M   'P 1'
_cell_length_a   10.22016996
_cell_length_b   10.22016954
_cell_length_c   10.17190700
_cell_angle_alpha   60.15608609
_cell_angle_beta   60.15608743
_cell_angle_gamma   60.65047630
_symmetry_Int_Tables_number   1
_chemical_formula_structural   La8Cd2OsAu
_chemical_formula_sum   'La16 Cd4 Os2 Au2'
_cell_volume   756.70033106
_cell_formula_units_Z   2
loop_
 _symmetry_equiv_pos_site_id
 _symmetry_equiv_pos_as_xyz
  1  'x, y, z'
loop_
 _atom_site_type_symbol
 _atom_site_label
 _atom_site_symmetry_multiplicity
 _atom_site_fract_x
 _atom_site_fract_y
 _atom_site_fract_z
 _atom_site_occupancy
  La  La0  1  0.899694  0.899694  0.911131  1
  La  La1  1  0.437877  0.437877  0.062123  1
  La  La2  1  0.053383  0.053383  0.446617  1
  La  La3  1  0.453757  0.057206  0.059487  1
  La  La4  1  0.307526  0.684024  0.314655  1
  La  La5  1  0.687219  0.687219  0.312781  1
  La  La6  1  0.684024  0.307526  0.314655  1
  La  La7  1  0.308762  0.883444  0.903898  1
  La  La8  1  0.883444  0.308762  0.903898  1
  La  La9  1  0.307526  0.684024  0.693795  1
  La  La10  1  0.899694  0.899694  0.289483  1
  La  La11  1  0.057206  0.453757  0.059487  1
  La  La12  1  0.310132  0.310132  0.689868  1
  La  La13  1  0.057206  0.453757  0.429551  1
  La  La14  1  0.453757  0.057206  0.429551  1
  La  La15  1  0.684024  0.307526  0.693795  1
  Cd  Cd16  1  0.670705  0.670705  0.989809  1
  Cd  Cd17  1  0.987992  0.671338  0.670335  1
  Cd  Cd18  1  0.671338  0.987992  0.670335  1
  Cd  Cd19  1  0.670705  0.670705  0.668781  1
  Os  Os20  1  0.113885  0.675533  0.105291  1
  Os  Os21  1  0.675533  0.113885  0.105291  1
  Au  Au22  1  0.112310  0.112310  0.677433  1
  Au  Au23  1  0.112310  0.112310  0.097947  1
