# generated using pymatgen
data_Li4Dy4AgAu3
_symmetry_space_group_name_H-M   'P 1'
_cell_length_a   4.05809000
_cell_length_b   7.17012073
_cell_length_c   8.69753100
_cell_angle_alpha   89.35755744
_cell_angle_beta   90.00000000
_cell_angle_gamma   90.00000000
_symmetry_Int_Tables_number   1
_chemical_formula_structural   Li4Dy4AgAu3
_chemical_formula_sum   'Li4 Dy4 Ag1 Au3'
_cell_volume   253.05610937
_cell_formula_units_Z   1
loop_
 _symmetry_equiv_pos_site_id
 _symmetry_equiv_pos_as_xyz
  1  'x, y, z'
loop_
 _atom_site_type_symbol
 _atom_site_label
 _atom_site_symmetry_multiplicity
 _atom_site_fract_x
 _atom_site_fract_y
 _atom_site_fract_z
 _atom_site_occupancy
  Li  Li0  1  0.250000  0.377133  0.561240  1
  Li  Li1  1  0.250000  0.873905  0.940620  1
  Li  Li2  1  0.750000  0.626998  0.441638  1
  Li  Li3  1  0.750000  0.123871  0.058734  1
  Dy  Dy4  1  0.250000  0.943353  0.317324  1
  Dy  Dy5  1  0.250000  0.454215  0.174959  1
  Dy  Dy6  1  0.750000  0.046671  0.687849  1
  Dy  Dy7  1  0.750000  0.548583  0.816738  1
  Ag  Ag8  1  0.750000  0.248876  0.380186  1
  Au  Au9  1  0.250000  0.253219  0.878873  1
  Au  Au10  1  0.250000  0.754372  0.621664  1
  Au  Au11  1  0.750000  0.748805  0.120175  1
