# generated using pymatgen
data_HgBi6(AsO5)4
_symmetry_space_group_name_H-M   'P 1'
_cell_length_a   7.17998132
_cell_length_b   7.87931881
_cell_length_c   9.45428529
_cell_angle_alpha   105.24229616
_cell_angle_beta   95.49485759
_cell_angle_gamma   111.56200474
_symmetry_Int_Tables_number   1
_chemical_formula_structural   HgBi6(AsO5)4
_chemical_formula_sum   'Hg1 Bi6 As4 O20'
_cell_volume   468.77353714
_cell_formula_units_Z   1
loop_
 _symmetry_equiv_pos_site_id
 _symmetry_equiv_pos_as_xyz
  1  'x, y, z'
loop_
 _atom_site_type_symbol
 _atom_site_label
 _atom_site_symmetry_multiplicity
 _atom_site_fract_x
 _atom_site_fract_y
 _atom_site_fract_z
 _atom_site_occupancy
  Hg  Hg0  1  0.000000  0.000000  0.000000  1
  Bi  Bi1  1  0.344732  0.131475  0.511303  1
  Bi  Bi2  1  0.655268  0.868525  0.488697  1
  Bi  Bi3  1  0.442038  0.798209  0.083917  1
  Bi  Bi4  1  0.557962  0.201791  0.916083  1
  Bi  Bi5  1  0.805673  0.288725  0.325067  1
  Bi  Bi6  1  0.194327  0.711275  0.674933  1
  As  As7  1  0.054552  0.266160  0.763040  1
  As  As8  1  0.945448  0.733840  0.236960  1
  As  As9  1  0.345054  0.394047  0.252632  1
  As  As10  1  0.654946  0.605953  0.747368  1
  O  O11  1  0.115829  0.238994  0.276102  1
  O  O12  1  0.884171  0.761006  0.723898  1
  O  O13  1  0.152518  0.513652  0.833341  1
  O  O14  1  0.847482  0.486348  0.166659  1
  O  O15  1  0.667022  0.093027  0.103269  1
  O  O16  1  0.332978  0.906973  0.896731  1
  O  O17  1  0.546909  0.027688  0.364110  1
  O  O18  1  0.453091  0.972312  0.635890  1
  O  O19  1  0.361172  0.626350  0.303533  1
  O  O20  1  0.638828  0.373650  0.696467  1
  O  O21  1  0.242410  0.177587  0.753228  1
  O  O22  1  0.757590  0.822413  0.246772  1
  O  O23  1  0.542990  0.387248  0.367569  1
  O  O24  1  0.457010  0.612752  0.632431  1
  O  O25  1  0.072544  0.812433  0.422485  1
  O  O26  1  0.927456  0.187567  0.577515  1
  O  O27  1  0.110747  0.838302  0.131082  1
  O  O28  1  0.889253  0.161698  0.868918  1
  O  O29  1  0.347591  0.310423  0.065083  1
  O  O30  1  0.652409  0.689577  0.934917  1
