# generated using pymatgen
data_NaLiNi12P7
_symmetry_space_group_name_H-M   'P 1'
_cell_length_a   9.02798700
_cell_length_b   9.02798631
_cell_length_c   3.56473800
_cell_angle_alpha   90.00000000
_cell_angle_beta   90.00000000
_cell_angle_gamma   120.00000620
_symmetry_Int_Tables_number   1
_chemical_formula_structural   NaLiNi12P7
_chemical_formula_sum   'Na1 Li1 Ni12 P7'
_cell_volume   251.61703308
_cell_formula_units_Z   1
loop_
 _symmetry_equiv_pos_site_id
 _symmetry_equiv_pos_as_xyz
  1  'x, y, z'
loop_
 _atom_site_type_symbol
 _atom_site_label
 _atom_site_symmetry_multiplicity
 _atom_site_fract_x
 _atom_site_fract_y
 _atom_site_fract_z
 _atom_site_occupancy
  Na  Na0  1  0.000000  0.000000  0.000000  1
  Li  Li1  1  0.333333  0.666667  0.500000  1
  Ni  Ni2  1  0.100836  0.395580  0.000000  1
  Ni  Ni3  1  0.294745  0.899164  0.000000  1
  Ni  Ni4  1  0.604420  0.705255  0.000000  1
  Ni  Ni5  1  0.826203  0.610213  0.000000  1
  Ni  Ni6  1  0.784011  0.173797  0.000000  1
  Ni  Ni7  1  0.389787  0.215989  0.000000  1
  Ni  Ni8  1  0.052262  0.765348  0.500000  1
  Ni  Ni9  1  0.713086  0.947738  0.500000  1
  Ni  Ni10  1  0.234652  0.286914  0.500000  1
  Ni  Ni11  1  0.880014  0.424492  0.500000  1
  Ni  Ni12  1  0.544478  0.119986  0.500000  1
  Ni  Ni13  1  0.575508  0.455522  0.500000  1
  P  P14  1  0.666667  0.333333  0.000000  1
  P  P15  1  0.085391  0.629262  0.000000  1
  P  P16  1  0.543871  0.914609  0.000000  1
  P  P17  1  0.370738  0.456129  0.000000  1
  P  P18  1  0.780431  0.739394  0.500000  1
  P  P19  1  0.958963  0.219569  0.500000  1
  P  P20  1  0.260606  0.041037  0.500000  1
