# generated using pymatgen
data_Li8Er4Tm4Sn7Sb
_symmetry_space_group_name_H-M   'P 1'
_cell_length_a   9.34080543
_cell_length_b   9.33687116
_cell_length_c   7.15846100
_cell_angle_alpha   90.06607358
_cell_angle_beta   89.93332685
_cell_angle_gamma   120.00170350
_symmetry_Int_Tables_number   1
_chemical_formula_structural   Li8Er4Tm4Sn7Sb
_chemical_formula_sum   'Li8 Er4 Tm4 Sn7 Sb1'
_cell_volume   540.66485854
_cell_formula_units_Z   1
loop_
 _symmetry_equiv_pos_site_id
 _symmetry_equiv_pos_as_xyz
  1  'x, y, z'
loop_
 _atom_site_type_symbol
 _atom_site_label
 _atom_site_symmetry_multiplicity
 _atom_site_fract_x
 _atom_site_fract_y
 _atom_site_fract_z
 _atom_site_occupancy
  Li  Li0  1  0.832302  0.666020  0.712311  1
  Li  Li1  1  0.832976  0.166631  0.713001  1
  Li  Li2  1  0.333681  0.666359  0.821397  1
  Li  Li3  1  0.666593  0.333185  0.321081  1
  Li  Li4  1  0.666257  0.833325  0.212728  1
  Li  Li5  1  0.166575  0.333556  0.212641  1
  Li  Li6  1  0.167001  0.833282  0.212891  1
  Li  Li7  1  0.334045  0.167564  0.712382  1
  Er  Er8  1  0.998925  0.001088  0.002371  1
  Er  Er9  1  0.999152  0.000670  0.499294  1
  Er  Er10  1  0.511221  0.488547  0.006123  1
  Er  Er11  1  0.021051  0.509499  0.504659  1
  Tm  Tm12  1  0.490487  0.978794  0.504731  1
  Tm  Tm13  1  0.513667  0.023295  0.008233  1
  Tm  Tm14  1  0.976552  0.486133  0.008273  1
  Tm  Tm15  1  0.488839  0.511362  0.505812  1
  Sn  Sn16  1  0.666382  0.332758  0.740757  1
  Sn  Sn17  1  0.333258  0.667447  0.240858  1
  Sn  Sn18  1  0.833384  0.167193  0.268680  1
  Sn  Sn19  1  0.166827  0.333648  0.770666  1
  Sn  Sn20  1  0.333468  0.166132  0.270075  1
  Sn  Sn21  1  0.833767  0.666561  0.270591  1
  Sn  Sn22  1  0.666648  0.833633  0.769907  1
  Sb  Sb23  1  0.166939  0.833321  0.768536  1
