# generated using pymatgen
data_Ho4Si10Ir5Ru
_symmetry_space_group_name_H-M   'P 1'
_cell_length_a   8.13325380
_cell_length_b   8.13325491
_cell_length_c   8.13325411
_cell_angle_alpha   138.09880160
_cell_angle_beta   104.85708037
_cell_angle_gamma   89.95953034
_symmetry_Int_Tables_number   1
_chemical_formula_structural   Ho4Si10Ir5Ru
_chemical_formula_sum   'Ho4 Si10 Ir5 Ru1'
_cell_volume   331.89132978
_cell_formula_units_Z   1
loop_
 _symmetry_equiv_pos_site_id
 _symmetry_equiv_pos_as_xyz
  1  'x, y, z'
loop_
 _atom_site_type_symbol
 _atom_site_label
 _atom_site_symmetry_multiplicity
 _atom_site_fract_x
 _atom_site_fract_y
 _atom_site_fract_z
 _atom_site_occupancy
  Ho  Ho0  1  0.903411  0.131218  0.770663  1
  Ho  Ho1  1  0.096589  0.867251  0.227807  1
  Ho  Ho2  1  0.639445  0.368782  0.272193  1
  Ho  Ho3  1  0.360555  0.632749  0.729337  1
  Si  Si4  1  0.000000  0.750000  0.750000  1
  Si  Si5  1  0.000000  0.250000  0.250000  1
  Si  Si6  1  0.723259  0.473259  0.750000  1
  Si  Si7  1  0.276741  0.026741  0.750000  1
  Si  Si8  1  0.278322  0.528322  0.250000  1
  Si  Si9  1  0.721678  0.971678  0.250000  1
  Si  Si10  1  0.241206  0.399638  0.847687  1
  Si  Si11  1  0.551949  0.893519  0.652313  1
  Si  Si12  1  0.448051  0.100362  0.341568  1
  Si  Si13  1  0.758794  0.606481  0.158432  1
  Ir  Ir14  1  0.745862  0.860635  0.888329  1
  Ir  Ir15  1  0.500000  0.250000  0.750000  1
  Ir  Ir16  1  0.972305  0.357533  0.611671  1
  Ir  Ir17  1  0.027695  0.639365  0.385228  1
  Ir  Ir18  1  0.254138  0.142467  0.114772  1
  Ru  Ru19  1  0.500000  0.750000  0.250000  1
