# generated using pymatgen
data_Dy2CuBRh5
_symmetry_space_group_name_H-M   'P 1'
_cell_length_a   5.84792286
_cell_length_b   5.78097354
_cell_length_c   5.78097422
_cell_angle_alpha   60.76767165
_cell_angle_beta   59.61617062
_cell_angle_gamma   59.61616582
_symmetry_Int_Tables_number   1
_chemical_formula_structural   Dy2CuBRh5
_chemical_formula_sum   'Dy2 Cu1 B1 Rh5'
_cell_volume   138.15633455
_cell_formula_units_Z   1
loop_
 _symmetry_equiv_pos_site_id
 _symmetry_equiv_pos_as_xyz
  1  'x, y, z'
loop_
 _atom_site_type_symbol
 _atom_site_label
 _atom_site_symmetry_multiplicity
 _atom_site_fract_x
 _atom_site_fract_y
 _atom_site_fract_z
 _atom_site_occupancy
  Dy  Dy0  1  0.250078  0.249922  0.249922  1
  Dy  Dy1  1  0.750078  0.749922  0.749922  1
  Cu  Cu2  1  0.735915  0.264086  0.264086  1
  B  B3  1  0.000638  0.999362  0.999362  1
  Rh  Rh4  1  0.255864  0.744137  0.254488  1
  Rh  Rh5  1  0.745512  0.744136  0.254489  1
  Rh  Rh6  1  0.255864  0.254488  0.744137  1
  Rh  Rh7  1  0.745512  0.254489  0.744136  1
  Rh  Rh8  1  0.260543  0.739458  0.739458  1
