# generated using pymatgen
data_LaNd3Zn4PdRh3
_symmetry_space_group_name_H-M   'P 1'
_cell_length_a   4.00447200
_cell_length_b   7.48136797
_cell_length_c   16.70683313
_cell_angle_alpha   90.02197717
_cell_angle_beta   90.00000000
_cell_angle_gamma   90.00000000
_symmetry_Int_Tables_number   1
_chemical_formula_structural   LaNd3Zn4PdRh3
_chemical_formula_sum   'La2 Nd6 Zn8 Pd2 Rh6'
_cell_volume   500.51878380
_cell_formula_units_Z   2
loop_
 _symmetry_equiv_pos_site_id
 _symmetry_equiv_pos_as_xyz
  1  'x, y, z'
loop_
 _atom_site_type_symbol
 _atom_site_label
 _atom_site_symmetry_multiplicity
 _atom_site_fract_x
 _atom_site_fract_y
 _atom_site_fract_z
 _atom_site_occupancy
  La  La0  1  0.250000  0.172121  0.938983  1
  La  La1  1  0.750000  0.328256  0.445519  1
  Nd  Nd2  1  0.250000  0.672731  0.567776  1
  Nd  Nd3  1  0.750000  0.944022  0.279202  1
  Nd  Nd4  1  0.750000  0.827573  0.059404  1
  Nd  Nd5  1  0.750000  0.450636  0.211543  1
  Nd  Nd6  1  0.250000  0.053388  0.716682  1
  Nd  Nd7  1  0.250000  0.549730  0.785832  1
  Zn  Zn8  1  0.750000  0.002249  0.564870  1
  Zn  Zn9  1  0.250000  0.624018  0.343899  1
  Zn  Zn10  1  0.750000  0.382299  0.653657  1
  Zn  Zn11  1  0.250000  0.500404  0.058651  1
  Zn  Zn12  1  0.750000  0.504965  0.940140  1
  Zn  Zn13  1  0.250000  0.994909  0.440708  1
  Zn  Zn14  1  0.250000  0.117858  0.148049  1
  Zn  Zn15  1  0.750000  0.877226  0.847617  1
  Pd  Pd16  1  0.750000  0.756270  0.434054  1
  Pd  Pd17  1  0.250000  0.243467  0.313312  1
  Rh  Rh18  1  0.750000  0.252256  0.815056  1
  Rh  Rh19  1  0.750000  0.756610  0.687059  1
  Rh  Rh20  1  0.250000  0.247328  0.563835  1
  Rh  Rh21  1  0.250000  0.743382  0.186237  1
  Rh  Rh22  1  0.750000  0.254526  0.064111  1
  Rh  Rh23  1  0.250000  0.743777  0.933800  1
