# generated using pymatgen
data_TbNd2Y(Ir2O7)2
_symmetry_space_group_name_H-M   'P 1'
_cell_length_a   7.29386400
_cell_length_b   7.34044293
_cell_length_c   7.34044213
_cell_angle_alpha   60.27875465
_cell_angle_beta   60.08119736
_cell_angle_gamma   60.08120306
_symmetry_Int_Tables_number   1
_chemical_formula_structural   TbNd2Y(Ir2O7)2
_chemical_formula_sum   'Tb1 Nd2 Y1 Ir4 O14'
_cell_volume   278.82256414
_cell_formula_units_Z   1
loop_
 _symmetry_equiv_pos_site_id
 _symmetry_equiv_pos_as_xyz
  1  'x, y, z'
loop_
 _atom_site_type_symbol
 _atom_site_label
 _atom_site_symmetry_multiplicity
 _atom_site_fract_x
 _atom_site_fract_y
 _atom_site_fract_z
 _atom_site_occupancy
  Tb  Tb0  1  0.125000  0.125000  0.125000  1
  Nd  Nd1  1  0.125000  0.625000  0.125000  1
  Nd  Nd2  1  0.125000  0.125000  0.625000  1
  Y  Y3  1  0.625000  0.125000  0.125000  1
  Ir  Ir4  1  0.125000  0.625000  0.625000  1
  Ir  Ir5  1  0.625000  0.125000  0.625000  1
  Ir  Ir6  1  0.625000  0.625000  0.125000  1
  Ir  Ir7  1  0.625000  0.625000  0.625000  1
  O  O8  1  0.702147  0.716190  0.290342  1
  O  O9  1  0.290528  0.289739  0.716102  1
  O  O10  1  0.702147  0.290342  0.716190  1
  O  O11  1  0.290528  0.716102  0.289739  1
  O  O12  1  0.290729  0.709178  0.709178  1
  O  O13  1  0.708440  0.290523  0.290523  1
  O  O14  1  0.547853  0.533810  0.959658  1
  O  O15  1  0.959472  0.960261  0.533898  1
  O  O16  1  0.547853  0.959658  0.533810  1
  O  O17  1  0.959472  0.533898  0.960261  1
  O  O18  1  0.959271  0.540822  0.540822  1
  O  O19  1  0.541560  0.959477  0.959477  1
  O  O20  1  0.256691  0.243981  0.243981  1
  O  O21  1  0.993309  0.006019  0.006019  1
