# generated using pymatgen
data_Pr20Ir6(RuPt)3
_symmetry_space_group_name_H-M   'P 1'
_cell_length_a   11.35487661
_cell_length_b   11.36295662
_cell_length_c   6.67539185
_cell_angle_alpha   90.04074271
_cell_angle_beta   90.04105120
_cell_angle_gamma   90.19762153
_symmetry_Int_Tables_number   1
_chemical_formula_structural   Pr20Ir6(RuPt)3
_chemical_formula_sum   'Pr20 Ir6 Ru3 Pt3'
_cell_volume   861.28667252
_cell_formula_units_Z   1
loop_
 _symmetry_equiv_pos_site_id
 _symmetry_equiv_pos_as_xyz
  1  'x, y, z'
loop_
 _atom_site_type_symbol
 _atom_site_label
 _atom_site_symmetry_multiplicity
 _atom_site_fract_x
 _atom_site_fract_y
 _atom_site_fract_z
 _atom_site_occupancy
  Pr  Pr0  1  0.295789  0.087320  0.375307  1
  Pr  Pr1  1  0.295067  0.909256  0.881438  1
  Pr  Pr2  1  0.703250  0.089453  0.877327  1
  Pr  Pr3  1  0.702584  0.909652  0.376350  1
  Pr  Pr4  1  0.585230  0.792881  0.882849  1
  Pr  Pr5  1  0.585821  0.207359  0.382999  1
  Pr  Pr6  1  0.410486  0.792956  0.382726  1
  Pr  Pr7  1  0.414390  0.206892  0.882775  1
  Pr  Pr8  1  0.208429  0.413714  0.618983  1
  Pr  Pr9  1  0.207737  0.589922  0.116767  1
  Pr  Pr10  1  0.791736  0.413769  0.116489  1
  Pr  Pr11  1  0.791501  0.586758  0.619135  1
  Pr  Pr12  1  0.911730  0.705296  0.124218  1
  Pr  Pr13  1  0.909288  0.295440  0.624958  1
  Pr  Pr14  1  0.092151  0.706359  0.620278  1
  Pr  Pr15  1  0.091230  0.296386  0.123028  1
  Pr  Pr16  1  0.001761  0.998000  0.498440  1
  Pr  Pr17  1  0.001972  0.998242  0.999800  1
  Pr  Pr18  1  0.499666  0.500062  0.999017  1
  Pr  Pr19  1  0.499905  0.500294  0.498326  1
  Ir  Ir20  1  0.151291  0.848394  0.249797  1
  Ir  Ir21  1  0.654141  0.346229  0.749545  1
  Ir  Ir22  1  0.654037  0.653701  0.249841  1
  Ir  Ir23  1  0.345970  0.346420  0.249474  1
  Ir  Ir24  1  0.346483  0.653116  0.749411  1
  Ir  Ir25  1  0.999774  0.499034  0.383731  1
  Ru  Ru26  1  0.500974  0.000227  0.116852  1
  Ru  Ru27  1  0.500805  0.000445  0.617297  1
  Ru  Ru28  1  0.999618  0.499279  0.884238  1
  Pt  Pt29  1  0.847335  0.153004  0.249740  1
  Pt  Pt30  1  0.846060  0.846133  0.749420  1
  Pt  Pt31  1  0.153789  0.154007  0.749447  1
