# generated using pymatgen
data_TbNd5Ho10(CdIr)4
_symmetry_space_group_name_H-M   'P 1'
_cell_length_a   9.70512766
_cell_length_b   9.70880578
_cell_length_c   9.70880534
_cell_angle_alpha   59.99223823
_cell_angle_beta   60.01252793
_cell_angle_gamma   60.01253485
_symmetry_Int_Tables_number   1
_chemical_formula_structural   TbNd5Ho10(CdIr)4
_chemical_formula_sum   'Tb1 Nd5 Ho10 Cd4 Ir4'
_cell_volume   646.95579054
_cell_formula_units_Z   1
loop_
 _symmetry_equiv_pos_site_id
 _symmetry_equiv_pos_as_xyz
  1  'x, y, z'
loop_
 _atom_site_type_symbol
 _atom_site_label
 _atom_site_symmetry_multiplicity
 _atom_site_fract_x
 _atom_site_fract_y
 _atom_site_fract_z
 _atom_site_occupancy
  Tb  Tb0  1  0.941427  0.558573  0.558573  1
  Nd  Nd1  1  0.559035  0.940965  0.940965  1
  Nd  Nd2  1  0.560377  0.939786  0.559084  1
  Nd  Nd3  1  0.940752  0.559084  0.939786  1
  Nd  Nd4  1  0.560377  0.559084  0.939786  1
  Nd  Nd5  1  0.940752  0.939786  0.559084  1
  Ho  Ho6  1  0.346544  0.348005  0.348005  1
  Ho  Ho7  1  0.347187  0.348428  0.957198  1
  Ho  Ho8  1  0.347187  0.957198  0.348428  1
  Ho  Ho9  1  0.957444  0.348005  0.348005  1
  Ho  Ho10  1  0.812495  0.187505  0.187505  1
  Ho  Ho11  1  0.187349  0.812651  0.812651  1
  Ho  Ho12  1  0.187480  0.811690  0.187752  1
  Ho  Ho13  1  0.813078  0.187752  0.811690  1
  Ho  Ho14  1  0.187480  0.187752  0.811690  1
  Ho  Ho15  1  0.813078  0.811690  0.187752  1
  Cd  Cd16  1  0.580734  0.579330  0.579330  1
  Cd  Cd17  1  0.579531  0.579624  0.261313  1
  Cd  Cd18  1  0.579531  0.261313  0.579624  1
  Cd  Cd19  1  0.260607  0.579330  0.579330  1
  Ir  Ir20  1  0.140913  0.141581  0.141581  1
  Ir  Ir21  1  0.140357  0.143338  0.575947  1
  Ir  Ir22  1  0.140357  0.575947  0.143338  1
  Ir  Ir23  1  0.575924  0.141581  0.141581  1
