# generated using pymatgen
data_PrHo5V2(P3Rh4)4
_symmetry_space_group_name_H-M   'P 1'
_cell_length_a   3.91749300
_cell_length_b   11.17637000
_cell_length_c   12.80499100
_cell_angle_alpha   90.00000000
_cell_angle_beta   90.00000000
_cell_angle_gamma   90.00000000
_symmetry_Int_Tables_number   1
_chemical_formula_structural   PrHo5V2(P3Rh4)4
_chemical_formula_sum   'Pr1 Ho5 V2 P12 Rh16'
_cell_volume   560.64541858
_cell_formula_units_Z   1
loop_
 _symmetry_equiv_pos_site_id
 _symmetry_equiv_pos_as_xyz
  1  'x, y, z'
loop_
 _atom_site_type_symbol
 _atom_site_label
 _atom_site_symmetry_multiplicity
 _atom_site_fract_x
 _atom_site_fract_y
 _atom_site_fract_z
 _atom_site_occupancy
  Pr  Pr0  1  0.000000  0.500000  0.520871  1
  Ho  Ho1  1  0.500000  0.000000  0.479882  1
  Ho  Ho2  1  0.500000  0.817084  0.201933  1
  Ho  Ho3  1  0.500000  0.182916  0.201933  1
  Ho  Ho4  1  0.000000  0.683926  0.798423  1
  Ho  Ho5  1  0.000000  0.316074  0.798423  1
  V  V6  1  0.500000  0.500000  0.155973  1
  V  V7  1  0.000000  0.000000  0.842542  1
  P  P8  1  0.500000  0.311411  0.619022  1
  P  P9  1  0.500000  0.688589  0.619022  1
  P  P10  1  0.000000  0.185174  0.382138  1
  P  P11  1  0.000000  0.814826  0.382138  1
  P  P12  1  0.500000  0.500000  0.879033  1
  P  P13  1  0.000000  0.000000  0.122132  1
  P  P14  1  0.500000  0.847391  0.888923  1
  P  P15  1  0.500000  0.152609  0.888923  1
  P  P16  1  0.000000  0.653202  0.110791  1
  P  P17  1  0.000000  0.346798  0.110791  1
  P  P18  1  0.500000  0.500000  0.340176  1
  P  P19  1  0.000000  0.000000  0.655078  1
  Rh  Rh20  1  0.000000  0.500000  0.987029  1
  Rh  Rh21  1  0.500000  0.000000  0.013179  1
  Rh  Rh22  1  0.500000  0.288722  0.429940  1
  Rh  Rh23  1  0.500000  0.711278  0.429940  1
  Rh  Rh24  1  0.000000  0.203520  0.569522  1
  Rh  Rh25  1  0.000000  0.796480  0.569522  1
  Rh  Rh26  1  0.500000  0.875621  0.710558  1
  Rh  Rh27  1  0.500000  0.124379  0.710558  1
  Rh  Rh28  1  0.000000  0.625564  0.289276  1
  Rh  Rh29  1  0.000000  0.374436  0.289276  1
  Rh  Rh30  1  0.500000  0.331994  0.990003  1
  Rh  Rh31  1  0.500000  0.668006  0.990003  1
  Rh  Rh32  1  0.000000  0.167556  0.010064  1
  Rh  Rh33  1  0.000000  0.832444  0.010064  1
  Rh  Rh34  1  0.500000  0.500000  0.703012  1
  Rh  Rh35  1  0.000000  0.000000  0.299907  1
