# generated using pymatgen
data_Nd3Dy3Y2(CdPt)2
_symmetry_space_group_name_H-M   'P 1'
_cell_length_a   9.79907175
_cell_length_b   9.80555925
_cell_length_c   9.80555914
_cell_angle_alpha   59.95623517
_cell_angle_beta   60.02188090
_cell_angle_gamma   60.02188431
_symmetry_Int_Tables_number   1
_chemical_formula_structural   Nd3Dy3Y2(CdPt)2
_chemical_formula_sum   'Nd6 Dy6 Y4 Cd4 Pt4'
_cell_volume   666.21482547
_cell_formula_units_Z   2
loop_
 _symmetry_equiv_pos_site_id
 _symmetry_equiv_pos_as_xyz
  1  'x, y, z'
loop_
 _atom_site_type_symbol
 _atom_site_label
 _atom_site_symmetry_multiplicity
 _atom_site_fract_x
 _atom_site_fract_y
 _atom_site_fract_z
 _atom_site_occupancy
  Nd  Nd0  1  0.937685  0.562315  0.562315  1
  Nd  Nd1  1  0.562315  0.937685  0.937685  1
  Nd  Nd2  1  0.562293  0.937707  0.562293  1
  Nd  Nd3  1  0.937707  0.562293  0.937707  1
  Nd  Nd4  1  0.562293  0.562293  0.937707  1
  Nd  Nd5  1  0.937707  0.937707  0.562293  1
  Dy  Dy6  1  0.350622  0.350675  0.350675  1
  Dy  Dy7  1  0.350675  0.350622  0.948026  1
  Dy  Dy8  1  0.350675  0.948026  0.350622  1
  Dy  Dy9  1  0.948026  0.350675  0.350675  1
  Dy  Dy10  1  0.811304  0.188696  0.188696  1
  Dy  Dy11  1  0.188696  0.811304  0.811304  1
  Y  Y12  1  0.188976  0.811024  0.188976  1
  Y  Y13  1  0.811024  0.188976  0.811024  1
  Y  Y14  1  0.188976  0.188976  0.811024  1
  Y  Y15  1  0.811024  0.811024  0.188976  1
  Cd  Cd16  1  0.580054  0.579828  0.579828  1
  Cd  Cd17  1  0.579828  0.580054  0.260291  1
  Cd  Cd18  1  0.579828  0.260291  0.580054  1
  Cd  Cd19  1  0.260291  0.579828  0.579828  1
  Pt  Pt20  1  0.142448  0.143344  0.143344  1
  Pt  Pt21  1  0.143344  0.142448  0.570865  1
  Pt  Pt22  1  0.143344  0.570865  0.142448  1
  Pt  Pt23  1  0.570865  0.143344  0.143344  1
