# generated using pymatgen
data_Lu2Fe11NiP7
_symmetry_space_group_name_H-M   'P 1'
_cell_length_a   8.95861000
_cell_length_b   8.94897078
_cell_length_c   3.62156000
_cell_angle_alpha   90.00000000
_cell_angle_beta   90.00000000
_cell_angle_gamma   119.78187754
_symmetry_Int_Tables_number   1
_chemical_formula_structural   Lu2Fe11NiP7
_chemical_formula_sum   'Lu2 Fe11 Ni1 P7'
_cell_volume   251.99411780
_cell_formula_units_Z   1
loop_
 _symmetry_equiv_pos_site_id
 _symmetry_equiv_pos_as_xyz
  1  'x, y, z'
loop_
 _atom_site_type_symbol
 _atom_site_label
 _atom_site_symmetry_multiplicity
 _atom_site_fract_x
 _atom_site_fract_y
 _atom_site_fract_z
 _atom_site_occupancy
  Lu  Lu0  1  0.999082  0.999338  0.000000  1
  Lu  Lu1  1  0.335071  0.668778  0.500000  1
  Fe  Fe2  1  0.297395  0.905920  0.000000  1
  Fe  Fe3  1  0.607616  0.702612  0.000000  1
  Fe  Fe4  1  0.820049  0.605906  0.000000  1
  Fe  Fe5  1  0.784969  0.176946  0.000000  1
  Fe  Fe6  1  0.391001  0.212869  0.000000  1
  Fe  Fe7  1  0.051352  0.768904  0.500000  1
  Fe  Fe8  1  0.714189  0.945198  0.500000  1
  Fe  Fe9  1  0.230852  0.285134  0.500000  1
  Fe  Fe10  1  0.891329  0.432766  0.500000  1
  Fe  Fe11  1  0.545606  0.116416  0.500000  1
  Fe  Fe12  1  0.569525  0.451915  0.500000  1
  Ni  Ni13  1  0.098114  0.396073  0.000000  1
  P  P14  1  0.078022  0.637685  0.000000  1
  P  P15  1  0.553842  0.922455  0.000000  1
  P  P16  1  0.373494  0.447683  0.000000  1
  P  P17  1  0.780204  0.735013  0.500000  1
  P  P18  1  0.949627  0.211512  0.500000  1
  P  P19  1  0.262778  0.044802  0.500000  1
  P  P20  1  0.665882  0.332074  0.000000  1
