# generated using pymatgen
data_Nd2YTm5(CdIr)2
_symmetry_space_group_name_H-M   'P 1'
_cell_length_a   9.62999362
_cell_length_b   9.63076793
_cell_length_c   9.63076803
_cell_angle_alpha   59.99468253
_cell_angle_beta   60.00265807
_cell_angle_gamma   60.00265749
_symmetry_Int_Tables_number   1
_chemical_formula_structural   Nd2YTm5(CdIr)2
_chemical_formula_sum   'Nd4 Y2 Tm10 Cd4 Ir4'
_cell_volume   631.58648747
_cell_formula_units_Z   2
loop_
 _symmetry_equiv_pos_site_id
 _symmetry_equiv_pos_as_xyz
  1  'x, y, z'
loop_
 _atom_site_type_symbol
 _atom_site_label
 _atom_site_symmetry_multiplicity
 _atom_site_fract_x
 _atom_site_fract_y
 _atom_site_fract_z
 _atom_site_occupancy
  Nd  Nd0  1  0.560285  0.939715  0.560285  1
  Nd  Nd1  1  0.939715  0.560285  0.939715  1
  Nd  Nd2  1  0.560285  0.560285  0.939715  1
  Nd  Nd3  1  0.939715  0.939715  0.560285  1
  Y  Y4  1  0.943597  0.556403  0.556403  1
  Y  Y5  1  0.556403  0.943597  0.943597  1
  Tm  Tm6  1  0.348246  0.347093  0.347093  1
  Tm  Tm7  1  0.347093  0.348246  0.957568  1
  Tm  Tm8  1  0.347093  0.957568  0.348246  1
  Tm  Tm9  1  0.957568  0.347093  0.347093  1
  Tm  Tm10  1  0.813533  0.186467  0.186467  1
  Tm  Tm11  1  0.186467  0.813533  0.813533  1
  Tm  Tm12  1  0.187762  0.812238  0.187762  1
  Tm  Tm13  1  0.812238  0.187762  0.812238  1
  Tm  Tm14  1  0.187762  0.187762  0.812238  1
  Tm  Tm15  1  0.812238  0.812238  0.187762  1
  Cd  Cd16  1  0.582011  0.578669  0.578669  1
  Cd  Cd17  1  0.578669  0.582011  0.260648  1
  Cd  Cd18  1  0.578669  0.260648  0.582011  1
  Cd  Cd19  1  0.260648  0.578669  0.578669  1
  Ir  Ir20  1  0.143389  0.140390  0.140390  1
  Ir  Ir21  1  0.140390  0.143389  0.575831  1
  Ir  Ir22  1  0.140390  0.575831  0.143389  1
  Ir  Ir23  1  0.575831  0.140390  0.140390  1
