# generated using pymatgen
data_Pa4Al18Ni5
_symmetry_space_group_name_H-M   'P 1'
_cell_length_a   8.05015176
_cell_length_b   8.05015210
_cell_length_c   16.05087098
_cell_angle_alpha   63.80485767
_cell_angle_beta   63.80485627
_cell_angle_gamma   29.38153401
_symmetry_Int_Tables_number   1
_chemical_formula_structural   Pa4Al18Ni5
_chemical_formula_sum   'Pa4 Al18 Ni5'
_cell_volume   454.09589502
_cell_formula_units_Z   1
loop_
 _symmetry_equiv_pos_site_id
 _symmetry_equiv_pos_as_xyz
  1  'x, y, z'
loop_
 _atom_site_type_symbol
 _atom_site_label
 _atom_site_symmetry_multiplicity
 _atom_site_fract_x
 _atom_site_fract_y
 _atom_site_fract_z
 _atom_site_occupancy
  Pa  Pa0  1  0.769642  0.769642  0.658031  1
  Pa  Pa1  1  0.562862  0.562862  0.109315  1
  Pa  Pa2  1  0.230113  0.230113  0.334832  1
  Pa  Pa3  1  0.441757  0.441757  0.887676  1
  Al  Al4  1  0.370182  0.370182  0.110688  1
  Al  Al5  1  0.105499  0.105499  0.774759  1
  Al  Al6  1  0.897099  0.897099  0.221465  1
  Al  Al7  1  0.429963  0.429963  0.323084  1
  Al  Al8  1  0.565032  0.565032  0.668849  1
  Al  Al9  1  0.295381  0.295381  0.786652  1
  Al  Al10  1  0.976588  0.976588  0.452459  1
  Al  Al11  1  0.713495  0.713495  0.203477  1
  Al  Al12  1  0.204145  0.204145  0.969850  1
  Al  Al13  1  0.428244  0.428244  0.600653  1
  Al  Al14  1  0.803294  0.803294  0.438886  1
  Al  Al15  1  0.937417  0.937417  0.737980  1
  Al  Al16  1  0.069296  0.069296  0.257803  1
  Al  Al17  1  0.003475  0.003475  0.996930  1
  Al  Al18  1  0.635378  0.635378  0.882877  1
  Al  Al19  1  0.611320  0.611320  0.480716  1
  Al  Al20  1  0.184642  0.184642  0.566038  1
  Al  Al21  1  0.800200  0.800200  0.021592  1
  Ni  Ni22  1  0.355705  0.355705  0.491052  1
  Ni  Ni23  1  0.217078  0.217078  0.113279  1
  Ni  Ni24  1  0.789619  0.789619  0.876461  1
  Ni  Ni25  1  0.029022  0.029022  0.571998  1
  Ni  Ni26  1  0.569113  0.569113  0.349397  1
