# generated using pymatgen
data_ZrSc2(AlCu2)3
_symmetry_space_group_name_H-M   'P 1'
_cell_length_a   4.41514101
_cell_length_b   6.13100800
_cell_length_c   13.28833504
_cell_angle_alpha   90.00000000
_cell_angle_beta   89.99115096
_cell_angle_gamma   90.00000000
_symmetry_Int_Tables_number   1
_chemical_formula_structural   ZrSc2(AlCu2)3
_chemical_formula_sum   'Zr2 Sc4 Al6 Cu12'
_cell_volume   359.70545662
_cell_formula_units_Z   2
loop_
 _symmetry_equiv_pos_site_id
 _symmetry_equiv_pos_as_xyz
  1  'x, y, z'
loop_
 _atom_site_type_symbol
 _atom_site_label
 _atom_site_symmetry_multiplicity
 _atom_site_fract_x
 _atom_site_fract_y
 _atom_site_fract_z
 _atom_site_occupancy
  Zr  Zr0  1  0.999985  0.500000  0.999966  1
  Zr  Zr1  1  0.500383  0.000000  0.166667  1
  Sc  Sc2  1  0.000393  0.500000  0.333916  1
  Sc  Sc3  1  0.499996  0.000000  0.499809  1
  Sc  Sc4  1  0.999580  0.500000  0.666800  1
  Sc  Sc5  1  0.499647  0.000000  0.832796  1
  Al  Al6  1  0.999981  0.000000  0.999008  1
  Al  Al7  1  0.500369  0.500000  0.167563  1
  Al  Al8  1  0.000398  0.000000  0.334190  1
  Al  Al9  1  0.499985  0.500000  0.499937  1
  Al  Al10  1  0.999607  0.000000  0.666696  1
  Al  Al11  1  0.499605  0.500000  0.832523  1
  Cu  Cu12  1  0.499976  0.246791  0.997382  1
  Cu  Cu13  1  0.499976  0.753209  0.997382  1
  Cu  Cu14  1  0.000433  0.253289  0.169424  1
  Cu  Cu15  1  0.000433  0.746711  0.169424  1
  Cu  Cu16  1  0.500509  0.254033  0.335255  1
  Cu  Cu17  1  0.500509  0.745967  0.335255  1
  Cu  Cu18  1  0.999999  0.247467  0.500163  1
  Cu  Cu19  1  0.999999  0.752533  0.500163  1
  Cu  Cu20  1  0.499509  0.252363  0.666485  1
  Cu  Cu21  1  0.499509  0.747637  0.666485  1
  Cu  Cu22  1  0.999609  0.245927  0.831356  1
  Cu  Cu23  1  0.999609  0.754073  0.831356  1
