# generated using pymatgen
data_Lu10In8RuPt2Rh
_symmetry_space_group_name_H-M   'P 1'
_cell_length_a   3.54977600
_cell_length_b   7.98820485
_cell_length_c   18.03141131
_cell_angle_alpha   90.08091546
_cell_angle_beta   90.00000000
_cell_angle_gamma   90.00000000
_symmetry_Int_Tables_number   1
_chemical_formula_structural   Lu10In8RuPt2Rh
_chemical_formula_sum   'Lu10 In8 Ru1 Pt2 Rh1'
_cell_volume   511.30428120
_cell_formula_units_Z   1
loop_
 _symmetry_equiv_pos_site_id
 _symmetry_equiv_pos_as_xyz
  1  'x, y, z'
loop_
 _atom_site_type_symbol
 _atom_site_label
 _atom_site_symmetry_multiplicity
 _atom_site_fract_x
 _atom_site_fract_y
 _atom_site_fract_z
 _atom_site_occupancy
  Lu  Lu0  1  0.000000  0.116734  0.412499  1
  Lu  Lu1  1  0.000000  0.883252  0.586920  1
  Lu  Lu2  1  0.000000  0.381514  0.913460  1
  Lu  Lu3  1  0.000000  0.619101  0.086364  1
  Lu  Lu4  1  0.000000  0.237902  0.222903  1
  Lu  Lu5  1  0.000000  0.759074  0.777875  1
  Lu  Lu6  1  0.000000  0.250933  0.721242  1
  Lu  Lu7  1  0.000000  0.752073  0.279241  1
  Lu  Lu8  1  0.000000  0.000040  0.999918  1
  Lu  Lu9  1  0.000000  0.499903  0.500047  1
  In  In10  1  0.500000  0.424941  0.352475  1
  In  In11  1  0.500000  0.574693  0.647431  1
  In  In12  1  0.500000  0.069558  0.850931  1
  In  In13  1  0.500000  0.931169  0.149417  1
  In  In14  1  0.500000  0.292960  0.065348  1
  In  In15  1  0.500000  0.706907  0.934408  1
  In  In16  1  0.500000  0.205908  0.567104  1
  In  In17  1  0.500000  0.795038  0.432826  1
  Ru  Ru18  1  0.500000  0.022844  0.304230  1
  Pt  Pt19  1  0.500000  0.476703  0.803660  1
  Pt  Pt20  1  0.500000  0.522926  0.196259  1
  Rh  Rh21  1  0.500000  0.975826  0.695444  1
