# generated using pymatgen
data_Tb2Sc3Ga3Sn
_symmetry_space_group_name_H-M   'P 1'
_cell_length_a   7.34528162
_cell_length_b   7.71515189
_cell_length_c   14.64461033
_cell_angle_alpha   90.00654027
_cell_angle_beta   89.66972054
_cell_angle_gamma   89.90012196
_symmetry_Int_Tables_number   1
_chemical_formula_structural   Tb2Sc3Ga3Sn
_chemical_formula_sum   'Tb8 Sc12 Ga12 Sn4'
_cell_volume   829.89447484
_cell_formula_units_Z   4
loop_
 _symmetry_equiv_pos_site_id
 _symmetry_equiv_pos_as_xyz
  1  'x, y, z'
loop_
 _atom_site_type_symbol
 _atom_site_label
 _atom_site_symmetry_multiplicity
 _atom_site_fract_x
 _atom_site_fract_y
 _atom_site_fract_z
 _atom_site_occupancy
  Tb  Tb0  1  0.013464  0.174493  0.093693  1
  Tb  Tb1  1  0.993184  0.824940  0.903465  1
  Tb  Tb2  1  0.486939  0.681394  0.905192  1
  Tb  Tb3  1  0.989866  0.826056  0.599609  1
  Tb  Tb4  1  0.501644  0.314565  0.095102  1
  Tb  Tb5  1  0.998788  0.176983  0.400057  1
  Tb  Tb6  1  0.503826  0.317760  0.400374  1
  Tb  Tb7  1  0.501012  0.684135  0.601506  1
  Sc  Sc8  1  0.164621  0.503201  0.754432  1
  Sc  Sc9  1  0.834077  0.497773  0.247964  1
  Sc  Sc10  1  0.331874  0.002788  0.246250  1
  Sc  Sc11  1  0.666841  0.995398  0.752710  1
  Sc  Sc12  1  0.340521  0.165665  0.632691  1
  Sc  Sc13  1  0.670646  0.838790  0.370102  1
  Sc  Sc14  1  0.168036  0.668607  0.367493  1
  Sc  Sc15  1  0.664372  0.839293  0.125600  1
  Sc  Sc16  1  0.825818  0.321911  0.629935  1
  Sc  Sc17  1  0.330314  0.171331  0.876204  1
  Sc  Sc18  1  0.830422  0.320511  0.873027  1
  Sc  Sc19  1  0.178987  0.674342  0.124040  1
  Ga  Ga20  1  0.032812  0.115301  0.749581  1
  Ga  Ga21  1  0.968346  0.882781  0.247309  1
  Ga  Ga22  1  0.470975  0.617561  0.250078  1
  Ga  Ga23  1  0.530400  0.385272  0.753312  1
  Ga  Ga24  1  0.285744  0.871740  0.750683  1
  Ga  Ga25  1  0.714075  0.130938  0.248989  1
  Ga  Ga26  1  0.212435  0.371642  0.249528  1
  Ga  Ga27  1  0.787314  0.625322  0.750779  1
  Ga  Ga28  1  0.669786  0.040327  0.541948  1
  Ga  Ga29  1  0.167287  0.461783  0.957456  1
  Ga  Ga30  1  0.660965  0.035667  0.958661  1
  Ga  Ga31  1  0.340312  0.961765  0.040056  1
  Sn  Sn32  1  0.177153  0.459228  0.542182  1
  Sn  Sn33  1  0.824205  0.542349  0.459423  1
  Sn  Sn34  1  0.330437  0.959476  0.460998  1
  Sn  Sn35  1  0.832501  0.538913  0.039571  1
