# generated using pymatgen
data_AcTa3O9
_symmetry_space_group_name_H-M   'P 1'
_cell_length_a   7.74833300
_cell_length_b   5.64728094
_cell_length_c   8.29056831
_cell_angle_alpha   87.68260145
_cell_angle_beta   90.00000000
_cell_angle_gamma   90.00000000
_symmetry_Int_Tables_number   1
_chemical_formula_structural   AcTa3O9
_chemical_formula_sum   'Ac2 Ta6 O18'
_cell_volume   362.47382036
_cell_formula_units_Z   2
loop_
 _symmetry_equiv_pos_site_id
 _symmetry_equiv_pos_as_xyz
  1  'x, y, z'
loop_
 _atom_site_type_symbol
 _atom_site_label
 _atom_site_symmetry_multiplicity
 _atom_site_fract_x
 _atom_site_fract_y
 _atom_site_fract_z
 _atom_site_occupancy
  Ac  Ac0  1  0.250000  0.967814  0.430301  1
  Ac  Ac1  1  0.750000  0.032186  0.569699  1
  Ta  Ta2  1  0.493290  0.523912  0.699477  1
  Ta  Ta3  1  0.006710  0.523912  0.699477  1
  Ta  Ta4  1  0.993290  0.476088  0.300523  1
  Ta  Ta5  1  0.000000  0.000000  0.000000  1
  Ta  Ta6  1  0.506710  0.476088  0.300523  1
  Ta  Ta7  1  0.500000  0.000000  0.000000  1
  O  O8  1  0.962935  0.694787  0.127731  1
  O  O9  1  0.037065  0.305213  0.872269  1
  O  O10  1  0.042359  0.165914  0.208400  1
  O  O11  1  0.750000  0.376749  0.331818  1
  O  O12  1  0.032061  0.274459  0.530461  1
  O  O13  1  0.457641  0.165914  0.208400  1
  O  O14  1  0.537065  0.694787  0.127731  1
  O  O15  1  0.532061  0.725541  0.469539  1
  O  O16  1  0.750000  0.064360  0.007377  1
  O  O17  1  0.957641  0.834086  0.791600  1
  O  O18  1  0.750000  0.462022  0.687717  1
  O  O19  1  0.542359  0.834086  0.791600  1
  O  O20  1  0.250000  0.537978  0.312283  1
  O  O21  1  0.462935  0.305213  0.872269  1
  O  O22  1  0.967939  0.725541  0.469539  1
  O  O23  1  0.467939  0.274459  0.530461  1
  O  O24  1  0.250000  0.623251  0.668182  1
  O  O25  1  0.250000  0.935640  0.992623  1
