# generated using pymatgen
data_DyY7(Si4Tc3)4
_symmetry_space_group_name_H-M   'P 1'
_cell_length_a   6.79927706
_cell_length_b   6.79887502
_cell_length_c   12.74947005
_cell_angle_alpha   90.00298916
_cell_angle_beta   89.98894947
_cell_angle_gamma   90.00828402
_symmetry_Int_Tables_number   1
_chemical_formula_structural   DyY7(Si4Tc3)4
_chemical_formula_sum   'Dy1 Y7 Si16 Tc12'
_cell_volume   589.37527969
_cell_formula_units_Z   1
loop_
 _symmetry_equiv_pos_site_id
 _symmetry_equiv_pos_as_xyz
  1  'x, y, z'
loop_
 _atom_site_type_symbol
 _atom_site_label
 _atom_site_symmetry_multiplicity
 _atom_site_fract_x
 _atom_site_fract_y
 _atom_site_fract_z
 _atom_site_occupancy
  Dy  Dy0  1  0.337101  0.994661  0.469668  1
  Y  Y1  1  0.005272  0.662830  0.030660  1
  Y  Y2  1  0.994679  0.337170  0.530593  1
  Y  Y3  1  0.662662  0.005415  0.969289  1
  Y  Y4  1  0.162582  0.494625  0.780687  1
  Y  Y5  1  0.837169  0.505280  0.280727  1
  Y  Y6  1  0.494632  0.162700  0.219302  1
  Y  Y7  1  0.505170  0.837168  0.719284  1
  Si  Si8  1  0.021522  0.724815  0.437133  1
  Si  Si9  1  0.978843  0.275153  0.937392  1
  Si  Si10  1  0.724583  0.021298  0.562671  1
  Si  Si11  1  0.224437  0.478630  0.187282  1
  Si  Si12  1  0.774999  0.520977  0.687214  1
  Si  Si13  1  0.478967  0.224914  0.812563  1
  Si  Si14  1  0.521238  0.775833  0.313048  1
  Si  Si15  1  0.275168  0.978820  0.062758  1
  Si  Si16  1  0.807335  0.885904  0.187001  1
  Si  Si17  1  0.307586  0.613849  0.562913  1
  Si  Si18  1  0.692516  0.385955  0.063121  1
  Si  Si19  1  0.613894  0.307203  0.436843  1
  Si  Si20  1  0.386059  0.692481  0.937007  1
  Si  Si21  1  0.114381  0.192489  0.313264  1
  Si  Si22  1  0.192673  0.114035  0.686838  1
  Si  Si23  1  0.886035  0.807437  0.812976  1
  Tc  Tc24  1  0.317467  0.481566  0.378284  1
  Tc  Tc25  1  0.817389  0.018648  0.371512  1
  Tc  Tc26  1  0.981489  0.182891  0.128683  1
  Tc  Tc27  1  0.018677  0.817365  0.628238  1
  Tc  Tc28  1  0.481476  0.316543  0.621212  1
  Tc  Tc29  1  0.183010  0.981696  0.871432  1
  Tc  Tc30  1  0.665176  0.665916  0.499976  1
  Tc  Tc31  1  0.834528  0.165434  0.749942  1
  Tc  Tc32  1  0.165533  0.834753  0.250116  1
  Tc  Tc33  1  0.334393  0.334446  0.000037  1
  Tc  Tc34  1  0.518210  0.682684  0.121756  1
  Tc  Tc35  1  0.683146  0.518414  0.878579  1
