# generated using pymatgen
data_Y5Tm5(SiSb)4
_symmetry_space_group_name_H-M   'P 1'
_cell_length_a   8.47750070
_cell_length_b   8.49117036
_cell_length_c   7.81498287
_cell_angle_alpha   89.91871600
_cell_angle_beta   89.90595470
_cell_angle_gamma   125.35049172
_symmetry_Int_Tables_number   1
_chemical_formula_structural   Y5Tm5(SiSb)4
_chemical_formula_sum   'Y5 Tm5 Si4 Sb4'
_cell_volume   458.83141987
_cell_formula_units_Z   1
loop_
 _symmetry_equiv_pos_site_id
 _symmetry_equiv_pos_as_xyz
  1  'x, y, z'
loop_
 _atom_site_type_symbol
 _atom_site_label
 _atom_site_symmetry_multiplicity
 _atom_site_fract_x
 _atom_site_fract_y
 _atom_site_fract_z
 _atom_site_occupancy
  Y  Y0  1  0.540034  0.792334  0.165798  1
  Y  Y1  1  0.293560  0.040152  0.334091  1
  Y  Y2  1  0.207425  0.459848  0.834284  1
  Y  Y3  1  0.960189  0.707397  0.665583  1
  Y  Y4  1  0.707095  0.959596  0.666096  1
  Tm  Tm5  1  0.459272  0.210206  0.835023  1
  Tm  Tm6  1  0.790665  0.541390  0.165315  1
  Tm  Tm7  1  0.041206  0.290103  0.334612  1
  Tm  Tm8  1  0.499757  0.498851  0.499662  1
  Tm  Tm9  1  0.000179  0.000399  0.000682  1
  Si  Si10  1  0.632515  0.630627  0.869458  1
  Si  Si11  1  0.134371  0.133517  0.631867  1
  Si  Si12  1  0.867733  0.867023  0.366740  1
  Si  Si13  1  0.367572  0.367320  0.131571  1
  Sb  Sb14  1  0.292657  0.701718  0.498185  1
  Sb  Sb15  1  0.204922  0.795917  0.999510  1
  Sb  Sb16  1  0.706672  0.295693  0.499141  1
  Sb  Sb17  1  0.794176  0.207911  0.002382  1
