# generated using pymatgen
data_La13Nd3Cd4Co3Cu
_symmetry_space_group_name_H-M   'P 1'
_cell_length_a   9.97343234
_cell_length_b   10.02405080
_cell_length_c   9.99707200
_cell_angle_alpha   60.08899776
_cell_angle_beta   59.92156794
_cell_angle_gamma   59.91730777
_symmetry_Int_Tables_number   1
_chemical_formula_structural   La13Nd3Cd4Co3Cu
_chemical_formula_sum   'La13 Nd3 Cd4 Co3 Cu1'
_cell_volume   706.32788610
_cell_formula_units_Z   1
loop_
 _symmetry_equiv_pos_site_id
 _symmetry_equiv_pos_as_xyz
  1  'x, y, z'
loop_
 _atom_site_type_symbol
 _atom_site_label
 _atom_site_symmetry_multiplicity
 _atom_site_fract_x
 _atom_site_fract_y
 _atom_site_fract_z
 _atom_site_occupancy
  La  La0  1  0.678646  0.706726  0.307314  1
  La  La1  1  0.162490  0.147245  0.540190  1
  La  La2  1  0.310724  0.690967  0.688443  1
  La  La3  1  0.162490  0.147245  0.150074  1
  La  La4  1  0.532889  0.154282  0.156414  1
  La  La5  1  0.310724  0.690967  0.309866  1
  La  La6  1  0.311773  0.310730  0.688749  1
  La  La7  1  0.678771  0.307416  0.704682  1
  La  La8  1  0.941160  0.561709  0.561293  1
  La  La9  1  0.565341  0.561911  0.936374  1
  La  La10  1  0.162535  0.539816  0.148823  1
  La  La11  1  0.678771  0.307416  0.309132  1
  La  La12  1  0.941160  0.561709  0.935838  1
  Nd  Nd13  1  0.936928  0.937761  0.562656  1
  Nd  Nd14  1  0.565456  0.937933  0.563595  1
  Nd  Nd15  1  0.565456  0.937933  0.933016  1
  Cd  Cd16  1  0.239302  0.921181  0.919758  1
  Cd  Cd17  1  0.919606  0.921822  0.920455  1
  Cd  Cd18  1  0.919606  0.921822  0.238116  1
  Cd  Cd19  1  0.920705  0.236084  0.921605  1
  Co  Co20  1  0.358811  0.358683  0.921438  1
  Co  Co21  1  0.357433  0.921233  0.360666  1
  Co  Co22  1  0.358811  0.358683  0.361068  1
  Cu  Cu23  1  0.920408  0.358726  0.360432  1
