# generated using pymatgen
data_Pr3Cd2HgPtAu2
_symmetry_space_group_name_H-M   'P 1'
_cell_length_a   8.07080615
_cell_length_b   8.02676305
_cell_length_c   3.95657400
_cell_angle_alpha   90.00000000
_cell_angle_beta   90.00000000
_cell_angle_gamma   119.91442563
_symmetry_Int_Tables_number   1
_chemical_formula_structural   Pr3Cd2HgPtAu2
_chemical_formula_sum   'Pr3 Cd2 Hg1 Pt1 Au2'
_cell_volume   222.16780915
_cell_formula_units_Z   1
loop_
 _symmetry_equiv_pos_site_id
 _symmetry_equiv_pos_as_xyz
  1  'x, y, z'
loop_
 _atom_site_type_symbol
 _atom_site_label
 _atom_site_symmetry_multiplicity
 _atom_site_fract_x
 _atom_site_fract_y
 _atom_site_fract_z
 _atom_site_occupancy
  Pr  Pr0  1  0.582482  0.985310  0.000000  1
  Pr  Pr1  1  0.018352  0.606400  0.000000  1
  Pr  Pr2  1  0.396817  0.407432  0.000000  1
  Cd  Cd3  1  0.996460  0.260461  0.500000  1
  Cd  Cd4  1  0.737987  0.737540  0.500000  1
  Hg  Hg5  1  0.266611  0.002675  0.500000  1
  Pt  Pt6  1  0.334574  0.660477  0.500000  1
  Au  Au7  1  0.674289  0.340056  0.500000  1
  Au  Au8  1  0.992427  0.999650  0.000000  1
