# generated using pymatgen
data_Ca2Ho3Lu(GaNi2)6
_symmetry_space_group_name_H-M   'P 1'
_cell_length_a   5.20071500
_cell_length_b   5.20071398
_cell_length_c   15.81087000
_cell_angle_alpha   90.00000000
_cell_angle_beta   90.00000000
_cell_angle_gamma   119.99998738
_symmetry_Int_Tables_number   1
_chemical_formula_structural   Ca2Ho3Lu(GaNi2)6
_chemical_formula_sum   'Ca2 Ho3 Lu1 Ga6 Ni12'
_cell_volume   370.35011163
_cell_formula_units_Z   1
loop_
 _symmetry_equiv_pos_site_id
 _symmetry_equiv_pos_as_xyz
  1  'x, y, z'
loop_
 _atom_site_type_symbol
 _atom_site_label
 _atom_site_symmetry_multiplicity
 _atom_site_fract_x
 _atom_site_fract_y
 _atom_site_fract_z
 _atom_site_occupancy
  Ca  Ca0  1  0.333333  0.666667  0.751686  1
  Ca  Ca1  1  0.666667  0.333333  0.248874  1
  Ho  Ho2  1  0.333333  0.666667  0.544856  1
  Ho  Ho3  1  0.666667  0.333333  0.455140  1
  Ho  Ho4  1  0.666667  0.333333  0.042917  1
  Lu  Lu5  1  0.333333  0.666667  0.956307  1
  Ga  Ga6  1  0.000000  0.000000  0.249655  1
  Ga  Ga7  1  0.000000  0.000000  0.750340  1
  Ga  Ga8  1  0.333333  0.666667  0.249697  1
  Ga  Ga9  1  0.666667  0.333333  0.750434  1
  Ga  Ga10  1  0.000000  0.000000  0.999718  1
  Ga  Ga11  1  0.000000  0.000000  0.500041  1
  Ni  Ni12  1  0.169196  0.338389  0.123956  1
  Ni  Ni13  1  0.831078  0.662158  0.876074  1
  Ni  Ni14  1  0.661611  0.830804  0.123956  1
  Ni  Ni15  1  0.831083  0.662168  0.624892  1
  Ni  Ni16  1  0.337842  0.168922  0.876074  1
  Ni  Ni17  1  0.168907  0.337811  0.375190  1
  Ni  Ni18  1  0.169196  0.830804  0.123956  1
  Ni  Ni19  1  0.337832  0.168917  0.624892  1
  Ni  Ni20  1  0.831078  0.168922  0.876074  1
  Ni  Ni21  1  0.662189  0.831093  0.375190  1
  Ni  Ni22  1  0.831083  0.168917  0.624892  1
  Ni  Ni23  1  0.168907  0.831093  0.375190  1
