# generated using pymatgen
data_Yb4HoLu(Si3Ru)8
_symmetry_space_group_name_H-M   'P 1'
_cell_length_a   10.16020258
_cell_length_b   10.16020198
_cell_length_c   8.12015467
_cell_angle_alpha   89.95205976
_cell_angle_beta   90.04794001
_cell_angle_gamma   132.88191077
_symmetry_Int_Tables_number   1
_chemical_formula_structural   Yb4HoLu(Si3Ru)8
_chemical_formula_sum   'Yb4 Ho1 Lu1 Si24 Ru8'
_cell_volume   614.22751391
_cell_formula_units_Z   1
loop_
 _symmetry_equiv_pos_site_id
 _symmetry_equiv_pos_as_xyz
  1  'x, y, z'
loop_
 _atom_site_type_symbol
 _atom_site_label
 _atom_site_symmetry_multiplicity
 _atom_site_fract_x
 _atom_site_fract_y
 _atom_site_fract_z
 _atom_site_occupancy
  Yb  Yb0  1  0.500091  0.500022  0.499738  1
  Yb  Yb1  1  0.000022  0.000091  0.000262  1
  Yb  Yb2  1  0.501004  0.001004  0.750000  1
  Yb  Yb3  1  0.999417  0.499417  0.250000  1
  Ho  Ho4  1  0.000283  0.500283  0.750000  1
  Lu  Lu5  1  0.499931  0.999931  0.250000  1
  Si  Si6  1  0.794566  0.204000  0.499197  1
  Si  Si7  1  0.295864  0.705914  0.000904  1
  Si  Si8  1  0.205914  0.795864  0.499096  1
  Si  Si9  1  0.704000  0.294566  0.000803  1
  Si  Si10  1  0.331725  0.335954  0.832039  1
  Si  Si11  1  0.664485  0.667475  0.167664  1
  Si  Si12  1  0.167475  0.164485  0.332336  1
  Si  Si13  1  0.835954  0.831725  0.667961  1
  Si  Si14  1  0.123530  0.890419  0.730491  1
  Si  Si15  1  0.109706  0.877074  0.270091  1
  Si  Si16  1  0.608207  0.375297  0.229783  1
  Si  Si17  1  0.624758  0.391393  0.769381  1
  Si  Si18  1  0.875297  0.108207  0.270217  1
  Si  Si19  1  0.891393  0.124758  0.730619  1
  Si  Si20  1  0.390419  0.623530  0.769509  1
  Si  Si21  1  0.377074  0.609706  0.229909  1
  Si  Si22  1  0.346148  0.113004  0.505752  1
  Si  Si23  1  0.886700  0.652713  0.493326  1
  Si  Si24  1  0.386797  0.153479  0.008394  1
  Si  Si25  1  0.847431  0.613655  0.991224  1
  Si  Si26  1  0.653479  0.886797  0.491606  1
  Si  Si27  1  0.113655  0.347431  0.508776  1
  Si  Si28  1  0.613004  0.846148  0.994248  1
  Si  Si29  1  0.152713  0.386700  0.006674  1
  Ru  Ru30  1  0.670115  0.327605  0.498988  1
  Ru  Ru31  1  0.171714  0.830422  0.001015  1
  Ru  Ru32  1  0.330422  0.671714  0.498985  1
  Ru  Ru33  1  0.827605  0.170115  0.001012  1
  Ru  Ru34  1  0.126338  0.127196  0.625314  1
  Ru  Ru35  1  0.872582  0.872983  0.375142  1
  Ru  Ru36  1  0.372983  0.372582  0.124858  1
  Ru  Ru37  1  0.627196  0.626338  0.874686  1
