# generated using pymatgen
data_Gd(S8F)3
_symmetry_space_group_name_H-M   'P 1'
_cell_length_a   14.62828195
_cell_length_b   14.62828191
_cell_length_c   14.62828087
_cell_angle_alpha   118.64672064
_cell_angle_beta   118.64672741
_cell_angle_gamma   118.64672668
_symmetry_Int_Tables_number   1
_chemical_formula_structural   Gd(S8F)3
_chemical_formula_sum   'Gd1 S24 F3'
_cell_volume   939.79962449
_cell_formula_units_Z   1
loop_
 _symmetry_equiv_pos_site_id
 _symmetry_equiv_pos_as_xyz
  1  'x, y, z'
loop_
 _atom_site_type_symbol
 _atom_site_label
 _atom_site_symmetry_multiplicity
 _atom_site_fract_x
 _atom_site_fract_y
 _atom_site_fract_z
 _atom_site_occupancy
  Gd  Gd0  1  0.797813  0.797813  0.797813  1
  S  S1  1  0.805148  0.529978  0.529978  1
  S  S2  1  0.529978  0.529978  0.805148  1
  S  S3  1  0.529978  0.805148  0.529978  1
  S  S4  1  0.249269  0.383081  0.634528  1
  S  S5  1  0.344754  0.948549  0.344754  1
  S  S6  1  0.344754  0.344754  0.948549  1
  S  S7  1  0.948549  0.344754  0.344754  1
  S  S8  1  0.120736  0.736222  0.253450  1
  S  S9  1  0.253450  0.120736  0.736222  1
  S  S10  1  0.736222  0.253450  0.120736  1
  S  S11  1  0.736222  0.120736  0.253450  1
  S  S12  1  0.253450  0.736222  0.120736  1
  S  S13  1  0.120736  0.253450  0.736222  1
  S  S14  1  0.346860  0.879735  0.534130  1
  S  S15  1  0.534130  0.346860  0.879735  1
  S  S16  1  0.879735  0.534130  0.346860  1
  S  S17  1  0.879735  0.346860  0.534130  1
  S  S18  1  0.534130  0.879735  0.346860  1
  S  S19  1  0.346860  0.534130  0.879735  1
  S  S20  1  0.249269  0.634528  0.383081  1
  S  S21  1  0.383081  0.249269  0.634528  1
  S  S22  1  0.634528  0.383081  0.249269  1
  S  S23  1  0.634528  0.249269  0.383081  1
  S  S24  1  0.383081  0.634528  0.249269  1
  F  F25  1  0.899902  0.024201  0.024201  1
  F  F26  1  0.024201  0.024201  0.899902  1
  F  F27  1  0.024201  0.899902  0.024201  1
