# generated using pymatgen
data_Tb3Dy5Ho12(CoBi2)4
_symmetry_space_group_name_H-M   'P 1'
_cell_length_a   7.97765012
_cell_length_b   8.86778500
_cell_length_c   12.36337419
_cell_angle_alpha   90.00000000
_cell_angle_beta   89.97992367
_cell_angle_gamma   90.00000000
_symmetry_Int_Tables_number   1
_chemical_formula_structural   Tb3Dy5Ho12(CoBi2)4
_chemical_formula_sum   'Tb3 Dy5 Ho12 Co4 Bi8'
_cell_volume   874.63555436
_cell_formula_units_Z   1
loop_
 _symmetry_equiv_pos_site_id
 _symmetry_equiv_pos_as_xyz
  1  'x, y, z'
loop_
 _atom_site_type_symbol
 _atom_site_label
 _atom_site_symmetry_multiplicity
 _atom_site_fract_x
 _atom_site_fract_y
 _atom_site_fract_z
 _atom_site_occupancy
  Tb  Tb0  1  0.115557  0.250000  0.189575  1
  Tb  Tb1  1  0.384462  0.250000  0.689542  1
  Tb  Tb2  1  0.615571  0.750000  0.310396  1
  Dy  Dy3  1  0.346680  0.750000  0.699523  1
  Dy  Dy4  1  0.653185  0.250000  0.300506  1
  Dy  Dy5  1  0.846813  0.250000  0.800518  1
  Dy  Dy6  1  0.153236  0.750000  0.199535  1
  Dy  Dy7  1  0.884854  0.750000  0.810751  1
  Ho  Ho8  1  0.675394  0.537895  0.562861  1
  Ho  Ho9  1  0.324659  0.462121  0.437187  1
  Ho  Ho10  1  0.175187  0.462386  0.937124  1
  Ho  Ho11  1  0.324659  0.037879  0.437187  1
  Ho  Ho12  1  0.824642  0.537988  0.062668  1
  Ho  Ho13  1  0.675394  0.962105  0.562861  1
  Ho  Ho14  1  0.824642  0.962012  0.062668  1
  Ho  Ho15  1  0.175187  0.037614  0.937124  1
  Ho  Ho16  1  0.052552  0.750000  0.497862  1
  Ho  Ho17  1  0.947374  0.250000  0.502217  1
  Ho  Ho18  1  0.552709  0.250000  0.002157  1
  Ho  Ho19  1  0.447411  0.750000  0.997787  1
  Co  Co20  1  0.065747  0.750000  0.991598  1
  Co  Co21  1  0.934030  0.250000  0.008117  1
  Co  Co22  1  0.565996  0.250000  0.508165  1
  Co  Co23  1  0.434009  0.750000  0.491855  1
  Bi  Bi24  1  0.571908  0.509655  0.827240  1
  Bi  Bi25  1  0.428361  0.490520  0.172750  1
  Bi  Bi26  1  0.071393  0.490778  0.672860  1
  Bi  Bi27  1  0.428361  0.009480  0.172750  1
  Bi  Bi28  1  0.928363  0.509452  0.327259  1
  Bi  Bi29  1  0.571908  0.990345  0.827240  1
  Bi  Bi30  1  0.928363  0.990548  0.327259  1
  Bi  Bi31  1  0.071393  0.009222  0.672860  1
