# generated using pymatgen
data_SrPr2Dy(Ir2O7)2
_symmetry_space_group_name_H-M   'P 1'
_cell_length_a   7.40051699
_cell_length_b   7.38910569
_cell_length_c   7.43404700
_cell_angle_alpha   59.79859634
_cell_angle_beta   59.85000546
_cell_angle_gamma   59.80104250
_symmetry_Int_Tables_number   1
_chemical_formula_structural   SrPr2Dy(Ir2O7)2
_chemical_formula_sum   'Sr1 Pr2 Dy1 Ir4 O14'
_cell_volume   286.25415751
_cell_formula_units_Z   1
loop_
 _symmetry_equiv_pos_site_id
 _symmetry_equiv_pos_as_xyz
  1  'x, y, z'
loop_
 _atom_site_type_symbol
 _atom_site_label
 _atom_site_symmetry_multiplicity
 _atom_site_fract_x
 _atom_site_fract_y
 _atom_site_fract_z
 _atom_site_occupancy
  Sr  Sr0  1  0.125000  0.625000  0.125000  1
  Pr  Pr1  1  0.125000  0.125000  0.625000  1
  Pr  Pr2  1  0.125000  0.125000  0.125000  1
  Dy  Dy3  1  0.625000  0.125000  0.125000  1
  Ir  Ir4  1  0.625000  0.625000  0.625000  1
  Ir  Ir5  1  0.125000  0.625000  0.625000  1
  Ir  Ir6  1  0.625000  0.125000  0.625000  1
  Ir  Ir7  1  0.625000  0.625000  0.125000  1
  O  O8  1  0.951468  0.542675  0.553654  1
  O  O9  1  0.295862  0.293334  0.705402  1
  O  O10  1  0.951468  0.542675  0.952203  1
  O  O11  1  0.697520  0.293424  0.295335  1
  O  O12  1  0.561788  0.532345  0.952934  1
  O  O13  1  0.552480  0.956576  0.536279  1
  O  O14  1  0.552480  0.956576  0.954665  1
  O  O15  1  0.266281  0.235671  0.249024  1
  O  O16  1  0.298532  0.707325  0.696346  1
  O  O17  1  0.697520  0.293424  0.713721  1
  O  O18  1  0.983719  0.014329  0.000976  1
  O  O19  1  0.954138  0.956666  0.544598  1
  O  O20  1  0.298532  0.707325  0.297797  1
  O  O21  1  0.688212  0.717655  0.297066  1
