# generated using pymatgen
data_Tm2Th(ZnPt)4
_symmetry_space_group_name_H-M   'P 1'
_cell_length_a   8.21827437
_cell_length_b   8.21827298
_cell_length_c   8.21827275
_cell_angle_alpha   151.66995953
_cell_angle_beta   125.83458584
_cell_angle_gamma   62.24603665
_symmetry_Int_Tables_number   1
_chemical_formula_structural   Tm2Th(ZnPt)4
_chemical_formula_sum   'Tm2 Th1 Zn4 Pt4'
_cell_volume   211.75910365
_cell_formula_units_Z   1
loop_
 _symmetry_equiv_pos_site_id
 _symmetry_equiv_pos_as_xyz
  1  'x, y, z'
loop_
 _atom_site_type_symbol
 _atom_site_label
 _atom_site_symmetry_multiplicity
 _atom_site_fract_x
 _atom_site_fract_y
 _atom_site_fract_z
 _atom_site_occupancy
  Tm  Tm0  1  0.874546  0.874546  0.000000  1
  Tm  Tm1  1  0.125454  0.125454  0.000000  1
  Th  Th2  1  0.500000  0.000000  0.500000  1
  Zn  Zn3  1  0.475870  0.675403  0.800467  1
  Zn  Zn4  1  0.874937  0.675403  0.199533  1
  Zn  Zn5  1  0.125063  0.324597  0.800467  1
  Zn  Zn6  1  0.524130  0.324597  0.199533  1
  Pt  Pt7  1  0.278542  0.778542  0.500000  1
  Pt  Pt8  1  0.721458  0.221458  0.500000  1
  Pt  Pt9  1  0.804033  0.500000  0.304033  1
  Pt  Pt10  1  0.195967  0.500000  0.695967  1
