# generated using pymatgen
data_YbSc4Pa3(ReB6)4
_symmetry_space_group_name_H-M   'P 1'
_cell_length_a   3.62808400
_cell_length_b   9.00008702
_cell_length_c   11.36809605
_cell_angle_alpha   90.06076378
_cell_angle_beta   90.00000000
_cell_angle_gamma   90.00000000
_symmetry_Int_Tables_number   1
_chemical_formula_structural   YbSc4Pa3(ReB6)4
_chemical_formula_sum   'Yb1 Sc4 Pa3 Re4 B24'
_cell_volume   371.20304679
_cell_formula_units_Z   1
loop_
 _symmetry_equiv_pos_site_id
 _symmetry_equiv_pos_as_xyz
  1  'x, y, z'
loop_
 _atom_site_type_symbol
 _atom_site_label
 _atom_site_symmetry_multiplicity
 _atom_site_fract_x
 _atom_site_fract_y
 _atom_site_fract_z
 _atom_site_occupancy
  Yb  Yb0  1  0.000000  0.180292  0.913448  1
  Sc  Sc1  1  0.000000  0.946698  0.374486  1
  Sc  Sc2  1  0.000000  0.055514  0.628116  1
  Sc  Sc3  1  0.000000  0.443347  0.123943  1
  Sc  Sc4  1  0.000000  0.552582  0.874208  1
  Pa  Pa5  1  0.000000  0.319278  0.414024  1
  Pa  Pa6  1  0.000000  0.679373  0.587270  1
  Pa  Pa7  1  0.000000  0.823131  0.084776  1
  Re  Re8  1  0.000000  0.640655  0.319576  1
  Re  Re9  1  0.000000  0.362045  0.677971  1
  Re  Re10  1  0.000000  0.140255  0.183297  1
  Re  Re11  1  0.000000  0.856633  0.818613  1
  B  B12  1  0.500000  0.554709  0.432294  1
  B  B13  1  0.500000  0.445604  0.567204  1
  B  B14  1  0.500000  0.054800  0.067840  1
  B  B15  1  0.500000  0.944881  0.932136  1
  B  B16  1  0.500000  0.753891  0.419250  1
  B  B17  1  0.500000  0.246665  0.581936  1
  B  B18  1  0.500000  0.252959  0.079923  1
  B  B19  1  0.500000  0.747034  0.919247  1
  B  B20  1  0.500000  0.794172  0.264502  1
  B  B21  1  0.500000  0.205907  0.735710  1
  B  B22  1  0.500000  0.294272  0.234224  1
  B  B23  1  0.500000  0.705326  0.765375  1
  B  B24  1  0.500000  0.629771  0.182214  1
  B  B25  1  0.500000  0.369907  0.817195  1
  B  B26  1  0.500000  0.129675  0.317046  1
  B  B27  1  0.500000  0.870474  0.683942  1
  B  B28  1  0.500000  0.981837  0.213533  1
  B  B29  1  0.500000  0.019012  0.786276  1
  B  B30  1  0.500000  0.481750  0.284736  1
  B  B31  1  0.500000  0.517701  0.714866  1
  B  B32  1  0.500000  0.598766  0.027030  1
  B  B33  1  0.500000  0.400810  0.972720  1
  B  B34  1  0.500000  0.100545  0.473160  1
  B  B35  1  0.500000  0.899725  0.527911  1
