# generated using pymatgen
data_Tb3Sc5Pt3Au
_symmetry_space_group_name_H-M   'P 1'
_cell_length_a   4.65158100
_cell_length_b   6.91874413
_cell_length_c   8.42900598
_cell_angle_alpha   90.73650449
_cell_angle_beta   90.00000000
_cell_angle_gamma   90.00000000
_symmetry_Int_Tables_number   1
_chemical_formula_structural   Tb3Sc5Pt3Au
_chemical_formula_sum   'Tb3 Sc5 Pt3 Au1'
_cell_volume   271.24912034
_cell_formula_units_Z   1
loop_
 _symmetry_equiv_pos_site_id
 _symmetry_equiv_pos_as_xyz
  1  'x, y, z'
loop_
 _atom_site_type_symbol
 _atom_site_label
 _atom_site_symmetry_multiplicity
 _atom_site_fract_x
 _atom_site_fract_y
 _atom_site_fract_z
 _atom_site_occupancy
  Tb  Tb0  1  0.250000  0.985198  0.323082  1
  Tb  Tb1  1  0.750000  0.014855  0.677399  1
  Tb  Tb2  1  0.250000  0.488330  0.179884  1
  Sc  Sc3  1  0.750000  0.521743  0.826081  1
  Sc  Sc4  1  0.750000  0.640249  0.430936  1
  Sc  Sc5  1  0.250000  0.364110  0.577835  1
  Sc  Sc6  1  0.750000  0.140631  0.075789  1
  Sc  Sc7  1  0.250000  0.844320  0.923845  1
  Pt  Pt8  1  0.750000  0.750805  0.090212  1
  Pt  Pt9  1  0.250000  0.746772  0.596250  1
  Pt  Pt10  1  0.750000  0.254617  0.402620  1
  Au  Au11  1  0.250000  0.248371  0.896067  1
