# generated using pymatgen
data_CsBa2(H6Pt)2
_symmetry_space_group_name_H-M   'P 1'
_cell_length_a   5.52552600
_cell_length_b   5.52552697
_cell_length_c   9.52728200
_cell_angle_alpha   90.00000000
_cell_angle_beta   90.00000000
_cell_angle_gamma   119.99999422
_symmetry_Int_Tables_number   1
_chemical_formula_structural   CsBa2(H6Pt)2
_chemical_formula_sum   'Cs1 Ba2 H12 Pt2'
_cell_volume   251.91092734
_cell_formula_units_Z   1
loop_
 _symmetry_equiv_pos_site_id
 _symmetry_equiv_pos_as_xyz
  1  'x, y, z'
loop_
 _atom_site_type_symbol
 _atom_site_label
 _atom_site_symmetry_multiplicity
 _atom_site_fract_x
 _atom_site_fract_y
 _atom_site_fract_z
 _atom_site_occupancy
  Cs  Cs0  1  0.666667  0.333333  0.382466  1
  Ba  Ba1  1  0.000000  0.000000  0.002801  1
  Ba  Ba2  1  0.333333  0.666667  0.630876  1
  H  H3  1  0.190621  0.809379  0.317130  1
  H  H4  1  0.618757  0.809379  0.317130  1
  H  H5  1  0.190621  0.381243  0.317130  1
  H  H6  1  0.814439  0.185561  0.681866  1
  H  H7  1  0.371120  0.185561  0.681866  1
  H  H8  1  0.814439  0.628880  0.681866  1
  H  H9  1  0.522226  0.044453  0.879484  1
  H  H10  1  0.522226  0.477774  0.879484  1
  H  H11  1  0.955547  0.477774  0.879484  1
  H  H12  1  0.473891  0.947782  0.116826  1
  H  H13  1  0.473891  0.526109  0.116826  1
  H  H14  1  0.052218  0.526109  0.116826  1
  Pt  Pt15  1  0.666667  0.333333  0.779930  1
  Pt  Pt16  1  0.333333  0.666667  0.218008  1
