# generated using pymatgen
data_Pr10Co2AgAu3
_symmetry_space_group_name_H-M   'P 1'
_cell_length_a   8.88237230
_cell_length_b   8.29168780
_cell_length_c   12.23663996
_cell_angle_alpha   90.03120130
_cell_angle_beta   90.41022649
_cell_angle_gamma   89.88542264
_symmetry_Int_Tables_number   1
_chemical_formula_structural   Pr10Co2AgAu3
_chemical_formula_sum   'Pr20 Co4 Ag2 Au6'
_cell_volume   901.20176759
_cell_formula_units_Z   2
loop_
 _symmetry_equiv_pos_site_id
 _symmetry_equiv_pos_as_xyz
  1  'x, y, z'
loop_
 _atom_site_type_symbol
 _atom_site_label
 _atom_site_symmetry_multiplicity
 _atom_site_fract_x
 _atom_site_fract_y
 _atom_site_fract_z
 _atom_site_occupancy
  Pr  Pr0  1  0.840803  0.753003  0.787111  1
  Pr  Pr1  1  0.159197  0.246997  0.212889  1
  Pr  Pr2  1  0.337885  0.247302  0.709164  1
  Pr  Pr3  1  0.662115  0.752698  0.290836  1
  Pr  Pr4  1  0.385608  0.752715  0.697795  1
  Pr  Pr5  1  0.614392  0.247285  0.302205  1
  Pr  Pr6  1  0.891091  0.246963  0.800579  1
  Pr  Pr7  1  0.108909  0.753037  0.199421  1
  Pr  Pr8  1  0.955781  0.751117  0.490829  1
  Pr  Pr9  1  0.044219  0.248883  0.509171  1
  Pr  Pr10  1  0.449679  0.240796  0.011809  1
  Pr  Pr11  1  0.550321  0.759204  0.988191  1
  Pr  Pr12  1  0.672729  0.037634  0.573978  1
  Pr  Pr13  1  0.327271  0.962366  0.426022  1
  Pr  Pr14  1  0.172647  0.959256  0.926482  1
  Pr  Pr15  1  0.327173  0.536475  0.427820  1
  Pr  Pr16  1  0.827353  0.040744  0.073518  1
  Pr  Pr17  1  0.672827  0.463525  0.572180  1
  Pr  Pr18  1  0.828548  0.463614  0.075079  1
  Pr  Pr19  1  0.171452  0.536386  0.924921  1
  Co  Co20  1  0.563838  0.750065  0.507297  1
  Co  Co21  1  0.436162  0.249935  0.492703  1
  Co  Co22  1  0.065659  0.249239  0.994224  1
  Co  Co23  1  0.934341  0.750761  0.005776  1
  Ag  Ag24  1  0.583833  0.463459  0.829231  1
  Ag  Ag25  1  0.416167  0.536541  0.170769  1
  Au  Au26  1  0.080953  0.529827  0.674155  1
  Au  Au27  1  0.416986  0.963747  0.175057  1
  Au  Au28  1  0.919047  0.470173  0.325845  1
  Au  Au29  1  0.583014  0.036253  0.824943  1
  Au  Au30  1  0.917343  0.031180  0.325626  1
  Au  Au31  1  0.082657  0.968820  0.674374  1
