# generated using pymatgen
data_Th2Ta3Si4
_symmetry_space_group_name_H-M   'P 1'
_cell_length_a   7.16509300
_cell_length_b   7.16509300
_cell_length_c   13.37137600
_cell_angle_alpha   90.00000000
_cell_angle_beta   90.00000000
_cell_angle_gamma   90.00000000
_symmetry_Int_Tables_number   1
_chemical_formula_structural   Th2Ta3Si4
_chemical_formula_sum   'Th8 Ta12 Si16'
_cell_volume   686.46715829
_cell_formula_units_Z   4
loop_
 _symmetry_equiv_pos_site_id
 _symmetry_equiv_pos_as_xyz
  1  'x, y, z'
loop_
 _atom_site_type_symbol
 _atom_site_label
 _atom_site_symmetry_multiplicity
 _atom_site_fract_x
 _atom_site_fract_y
 _atom_site_fract_z
 _atom_site_occupancy
  Th  Th0  1  0.998831  0.337172  0.218272  1
  Th  Th1  1  0.001169  0.662828  0.718272  1
  Th  Th2  1  0.162828  0.498831  0.468272  1
  Th  Th3  1  0.501169  0.837172  0.031728  1
  Th  Th4  1  0.837172  0.501169  0.968272  1
  Th  Th5  1  0.498831  0.162828  0.531728  1
  Th  Th6  1  0.337172  0.998831  0.781728  1
  Th  Th7  1  0.662828  0.001169  0.281728  1
  Ta  Ta8  1  0.168079  0.168079  0.000000  1
  Ta  Ta9  1  0.831921  0.831921  0.500000  1
  Ta  Ta10  1  0.331921  0.668079  0.250000  1
  Ta  Ta11  1  0.668079  0.331921  0.750000  1
  Ta  Ta12  1  0.160514  0.995265  0.374200  1
  Ta  Ta13  1  0.839486  0.004735  0.874200  1
  Ta  Ta14  1  0.504735  0.660514  0.624200  1
  Ta  Ta15  1  0.339486  0.495265  0.875800  1
  Ta  Ta16  1  0.495265  0.339486  0.124200  1
  Ta  Ta17  1  0.660514  0.504735  0.375800  1
  Ta  Ta18  1  0.995265  0.160514  0.625800  1
  Ta  Ta19  1  0.004735  0.839486  0.125800  1
  Si  Si20  1  0.288928  0.039106  0.186257  1
  Si  Si21  1  0.711072  0.960894  0.686257  1
  Si  Si22  1  0.460894  0.788928  0.436257  1
  Si  Si23  1  0.211072  0.539106  0.063743  1
  Si  Si24  1  0.539106  0.211072  0.936257  1
  Si  Si25  1  0.788928  0.460894  0.563743  1
  Si  Si26  1  0.039106  0.288928  0.813743  1
  Si  Si27  1  0.960894  0.711072  0.313743  1
  Si  Si28  1  0.375827  0.298690  0.313932  1
  Si  Si29  1  0.624173  0.701310  0.813932  1
  Si  Si30  1  0.201310  0.875827  0.563932  1
  Si  Si31  1  0.124173  0.798690  0.936068  1
  Si  Si32  1  0.798690  0.124173  0.063932  1
  Si  Si33  1  0.875827  0.201310  0.436068  1
  Si  Si34  1  0.298690  0.375827  0.686068  1
  Si  Si35  1  0.701310  0.624173  0.186068  1
