# generated using pymatgen
data_LiLa16Hg3Ir4
_symmetry_space_group_name_H-M   'P 1'
_cell_length_a   10.13826786
_cell_length_b   10.13826727
_cell_length_c   10.13826718
_cell_angle_alpha   59.79840091
_cell_angle_beta   59.79840627
_cell_angle_gamma   59.79839938
_symmetry_Int_Tables_number   1
_chemical_formula_structural   LiLa16Hg3Ir4
_chemical_formula_sum   'Li1 La16 Hg3 Ir4'
_cell_volume   733.47299107
_cell_formula_units_Z   1
loop_
 _symmetry_equiv_pos_site_id
 _symmetry_equiv_pos_as_xyz
  1  'x, y, z'
loop_
 _atom_site_type_symbol
 _atom_site_label
 _atom_site_symmetry_multiplicity
 _atom_site_fract_x
 _atom_site_fract_y
 _atom_site_fract_z
 _atom_site_occupancy
  Li  Li0  1  0.568304  0.568304  0.568304  1
  La  La1  1  0.347980  0.347980  0.347980  1
  La  La2  1  0.347234  0.347234  0.958374  1
  La  La3  1  0.347234  0.958374  0.347234  1
  La  La4  1  0.958374  0.347234  0.347234  1
  La  La5  1  0.808756  0.192040  0.192040  1
  La  La6  1  0.187672  0.811784  0.811784  1
  La  La7  1  0.192040  0.808756  0.192040  1
  La  La8  1  0.811784  0.187672  0.811784  1
  La  La9  1  0.192040  0.192040  0.808756  1
  La  La10  1  0.811784  0.811784  0.187672  1
  La  La11  1  0.940655  0.561098  0.561098  1
  La  La12  1  0.559728  0.939853  0.939853  1
  La  La13  1  0.561098  0.940655  0.561098  1
  La  La14  1  0.939853  0.559728  0.939853  1
  La  La15  1  0.561098  0.561098  0.940655  1
  La  La16  1  0.939853  0.939853  0.559728  1
  Hg  Hg17  1  0.585446  0.585446  0.250953  1
  Hg  Hg18  1  0.585446  0.250953  0.585446  1
  Hg  Hg19  1  0.250953  0.585446  0.585446  1
  Ir  Ir20  1  0.141460  0.141460  0.141460  1
  Ir  Ir21  1  0.141731  0.141731  0.577744  1
  Ir  Ir22  1  0.141731  0.577744  0.141731  1
  Ir  Ir23  1  0.577744  0.141731  0.141731  1
