# generated using pymatgen
data_Pa4Pd3RhPb2
_symmetry_space_group_name_H-M   'P 1'
_cell_length_a   7.84743118
_cell_length_b   7.84743100
_cell_length_c   3.68428000
_cell_angle_alpha   90.00000000
_cell_angle_beta   90.00000000
_cell_angle_gamma   90.17813532
_symmetry_Int_Tables_number   1
_chemical_formula_structural   Pa4Pd3RhPb2
_chemical_formula_sum   'Pa4 Pd3 Rh1 Pb2'
_cell_volume   226.88487800
_cell_formula_units_Z   1
loop_
 _symmetry_equiv_pos_site_id
 _symmetry_equiv_pos_as_xyz
  1  'x, y, z'
loop_
 _atom_site_type_symbol
 _atom_site_label
 _atom_site_symmetry_multiplicity
 _atom_site_fract_x
 _atom_site_fract_y
 _atom_site_fract_z
 _atom_site_occupancy
  Pa  Pa0  1  0.663898  0.174715  0.500000  1
  Pa  Pa1  1  0.181054  0.318946  0.500000  1
  Pa  Pa2  1  0.829448  0.670552  0.500000  1
  Pa  Pa3  1  0.325285  0.836102  0.500000  1
  Pd  Pd4  1  0.128505  0.625689  0.000000  1
  Pd  Pd5  1  0.629749  0.870251  0.000000  1
  Pd  Pd6  1  0.874311  0.371495  0.000000  1
  Rh  Rh7  1  0.372312  0.127688  0.000000  1
  Pb  Pb8  1  0.996850  0.001415  0.000000  1
  Pb  Pb9  1  0.498585  0.503150  0.000000  1
