# generated using pymatgen
data_Zn7(BRh3)3
_symmetry_space_group_name_H-M   'P 1'
_cell_length_a   2.89294100
_cell_length_b   11.35360200
_cell_length_c   14.83424500
_cell_angle_alpha   90.00000000
_cell_angle_beta   90.00000000
_cell_angle_gamma   90.00000000
_symmetry_Int_Tables_number   1
_chemical_formula_structural   Zn7(BRh3)3
_chemical_formula_sum   'Zn14 B6 Rh18'
_cell_volume   487.23523803
_cell_formula_units_Z   2
loop_
 _symmetry_equiv_pos_site_id
 _symmetry_equiv_pos_as_xyz
  1  'x, y, z'
loop_
 _atom_site_type_symbol
 _atom_site_label
 _atom_site_symmetry_multiplicity
 _atom_site_fract_x
 _atom_site_fract_y
 _atom_site_fract_z
 _atom_site_occupancy
  Zn  Zn0  1  0.500000  0.500000  0.347635  1
  Zn  Zn1  1  0.500000  0.000000  0.652044  1
  Zn  Zn2  1  0.500000  0.387296  0.000696  1
  Zn  Zn3  1  0.500000  0.112049  0.999480  1
  Zn  Zn4  1  0.500000  0.612704  0.000696  1
  Zn  Zn5  1  0.500000  0.887951  0.999480  1
  Zn  Zn6  1  0.500000  0.371454  0.771569  1
  Zn  Zn7  1  0.500000  0.128871  0.229221  1
  Zn  Zn8  1  0.500000  0.628546  0.771569  1
  Zn  Zn9  1  0.500000  0.871129  0.229221  1
  Zn  Zn10  1  0.500000  0.297504  0.602519  1
  Zn  Zn11  1  0.500000  0.202871  0.397551  1
  Zn  Zn12  1  0.500000  0.702496  0.602519  1
  Zn  Zn13  1  0.500000  0.797129  0.397551  1
  B  B14  1  0.500000  0.500000  0.530911  1
  B  B15  1  0.500000  0.000000  0.468921  1
  B  B16  1  0.500000  0.142445  0.822093  1
  B  B17  1  0.500000  0.357354  0.177431  1
  B  B18  1  0.500000  0.857555  0.822093  1
  B  B19  1  0.500000  0.642646  0.177431  1
  Rh  Rh20  1  0.000000  0.000000  0.120681  1
  Rh  Rh21  1  0.000000  0.246117  0.895088  1
  Rh  Rh22  1  0.000000  0.253244  0.104918  1
  Rh  Rh23  1  0.000000  0.753883  0.895088  1
  Rh  Rh24  1  0.000000  0.746756  0.104918  1
  Rh  Rh25  1  0.000000  0.500000  0.643336  1
  Rh  Rh26  1  0.000000  0.000000  0.356606  1
  Rh  Rh27  1  0.000000  0.174023  0.717356  1
  Rh  Rh28  1  0.000000  0.326212  0.282336  1
  Rh  Rh29  1  0.000000  0.825977  0.717356  1
  Rh  Rh30  1  0.000000  0.673788  0.282336  1
  Rh  Rh31  1  0.000000  0.500000  0.138755  1
  Rh  Rh32  1  0.000000  0.000000  0.860599  1
  Rh  Rh33  1  0.000000  0.121480  0.529131  1
  Rh  Rh34  1  0.000000  0.378612  0.470685  1
  Rh  Rh35  1  0.000000  0.878520  0.529131  1
  Rh  Rh36  1  0.000000  0.621388  0.470685  1
  Rh  Rh37  1  0.000000  0.500000  0.880359  1
