# generated using pymatgen
data_Dy5Tm2P12Ir17
_symmetry_space_group_name_H-M   'P 1'
_cell_length_a   12.70538600
_cell_length_b   12.99698694
_cell_length_c   3.98301100
_cell_angle_alpha   90.00000000
_cell_angle_beta   90.00000000
_cell_angle_gamma   119.26055600
_symmetry_Int_Tables_number   1
_chemical_formula_structural   Dy5Tm2P12Ir17
_chemical_formula_sum   'Dy5 Tm2 P12 Ir17'
_cell_volume   573.80018123
_cell_formula_units_Z   1
loop_
 _symmetry_equiv_pos_site_id
 _symmetry_equiv_pos_as_xyz
  1  'x, y, z'
loop_
 _atom_site_type_symbol
 _atom_site_label
 _atom_site_symmetry_multiplicity
 _atom_site_fract_x
 _atom_site_fract_y
 _atom_site_fract_z
 _atom_site_occupancy
  Dy  Dy0  1  0.329840  0.661946  0.500000  1
  Dy  Dy1  1  0.667895  0.338054  0.500000  1
  Dy  Dy2  1  0.002504  0.816540  0.000000  1
  Dy  Dy3  1  0.185964  0.183460  0.000000  1
  Dy  Dy4  1  0.810737  0.000000  0.000000  1
  Tm  Tm5  1  0.996081  0.443828  0.500000  1
  Tm  Tm6  1  0.552253  0.556172  0.500000  1
  P  P7  1  0.009675  0.657870  0.500000  1
  P  P8  1  0.351805  0.342130  0.500000  1
  P  P9  1  0.644082  0.000000  0.500000  1
  P  P10  1  0.516361  0.690492  0.000000  1
  P  P11  1  0.309127  0.824414  0.000000  1
  P  P12  1  0.166774  0.480489  0.000000  1
  P  P13  1  0.484712  0.175586  0.000000  1
  P  P14  1  0.686286  0.519511  0.000000  1
  P  P15  1  0.825869  0.309508  0.000000  1
  P  P16  1  0.999376  0.174668  0.500000  1
  P  P17  1  0.824708  0.825332  0.500000  1
  P  P18  1  0.181645  0.000000  0.500000  1
  Ir  Ir19  1  0.504184  0.865868  0.000000  1
  Ir  Ir20  1  0.122046  0.645215  0.000000  1
  Ir  Ir21  1  0.357802  0.501322  0.000000  1
  Ir  Ir22  1  0.476832  0.354785  0.000000  1
  Ir  Ir23  1  0.856481  0.498678  0.000000  1
  Ir  Ir24  1  0.638316  0.134132  0.000000  1
  Ir  Ir25  1  0.464981  0.000000  0.500000  1
  Ir  Ir26  1  0.996363  0.272303  0.000000  1
  Ir  Ir27  1  0.724060  0.727697  0.000000  1
  Ir  Ir28  1  0.287106  0.000000  0.000000  1
  Ir  Ir29  1  0.623868  0.810548  0.500000  1
  Ir  Ir30  1  0.208667  0.828565  0.500000  1
  Ir  Ir31  1  0.180567  0.364391  0.500000  1
  Ir  Ir32  1  0.380102  0.171435  0.500000  1
  Ir  Ir33  1  0.816176  0.635609  0.500000  1
  Ir  Ir34  1  0.813320  0.189452  0.500000  1
  Ir  Ir35  1  0.003433  0.000000  0.500000  1
