# generated using pymatgen
data_RbHfPaBr9
_symmetry_space_group_name_H-M   'P 1'
_cell_length_a   7.64390507
_cell_length_b   10.93347871
_cell_length_c   13.50531147
_cell_angle_alpha   65.11936239
_cell_angle_beta   89.34336615
_cell_angle_gamma   88.49504436
_symmetry_Int_Tables_number   1
_chemical_formula_structural   RbHfPaBr9
_chemical_formula_sum   'Rb2 Hf2 Pa2 Br18'
_cell_volume   1023.58716827
_cell_formula_units_Z   2
loop_
 _symmetry_equiv_pos_site_id
 _symmetry_equiv_pos_as_xyz
  1  'x, y, z'
loop_
 _atom_site_type_symbol
 _atom_site_label
 _atom_site_symmetry_multiplicity
 _atom_site_fract_x
 _atom_site_fract_y
 _atom_site_fract_z
 _atom_site_occupancy
  Rb  Rb0  1  0.558300  0.505643  0.734711  1
  Rb  Rb1  1  0.441700  0.494357  0.265289  1
  Hf  Hf2  1  0.277102  0.810108  0.870183  1
  Hf  Hf3  1  0.722898  0.189892  0.129817  1
  Pa  Pa4  1  0.269410  0.167979  0.642971  1
  Pa  Pa5  1  0.730590  0.832021  0.357029  1
  Br  Br6  1  0.145076  0.763151  0.053473  1
  Br  Br7  1  0.854924  0.236849  0.946527  1
  Br  Br8  1  0.140027  0.239988  0.437898  1
  Br  Br9  1  0.859973  0.760012  0.562102  1
  Br  Br10  1  0.144063  0.621564  0.838831  1
  Br  Br11  1  0.855937  0.378436  0.161169  1
  Br  Br12  1  0.132041  0.380216  0.677299  1
  Br  Br13  1  0.867959  0.619784  0.322701  1
  Br  Br14  1  0.998990  0.981420  0.763492  1
  Br  Br15  1  0.001010  0.018580  0.236508  1
  Br  Br16  1  0.409398  0.048998  0.861557  1
  Br  Br17  1  0.590602  0.951002  0.138443  1
  Br  Br18  1  0.410603  0.912225  0.657753  1
  Br  Br19  1  0.589397  0.087775  0.342247  1
  Br  Br20  1  0.572701  0.697049  0.935784  1
  Br  Br21  1  0.427299  0.302951  0.064216  1
  Br  Br22  1  0.580504  0.297575  0.569228  1
  Br  Br23  1  0.419496  0.702425  0.430772  1
