# generated using pymatgen
data_Ho8Ti9Si16Mo3
_symmetry_space_group_name_H-M   'P 1'
_cell_length_a   6.99534203
_cell_length_b   6.99534203
_cell_length_c   12.85999503
_cell_angle_alpha   90.00548811
_cell_angle_beta   89.99451189
_cell_angle_gamma   89.99058099
_symmetry_Int_Tables_number   1
_chemical_formula_structural   Ho8Ti9Si16Mo3
_chemical_formula_sum   'Ho8 Ti9 Si16 Mo3'
_cell_volume   629.30140089
_cell_formula_units_Z   1
loop_
 _symmetry_equiv_pos_site_id
 _symmetry_equiv_pos_as_xyz
  1  'x, y, z'
loop_
 _atom_site_type_symbol
 _atom_site_label
 _atom_site_symmetry_multiplicity
 _atom_site_fract_x
 _atom_site_fract_y
 _atom_site_fract_z
 _atom_site_occupancy
  Ho  Ho0  1  0.340653  0.002297  0.466449  1
  Ho  Ho1  1  0.498546  0.842254  0.717722  1
  Ho  Ho2  1  0.500618  0.158499  0.216597  1
  Ho  Ho3  1  0.842254  0.498546  0.282278  1
  Ho  Ho4  1  0.158499  0.500618  0.783403  1
  Ho  Ho5  1  0.658917  0.999228  0.966784  1
  Ho  Ho6  1  0.002297  0.340653  0.533551  1
  Ho  Ho7  1  0.999228  0.658917  0.033216  1
  Ti  Ti8  1  0.672822  0.672822  0.500000  1
  Ti  Ti9  1  0.151952  0.008365  0.875862  1
  Ti  Ti10  1  0.491652  0.652080  0.125150  1
  Ti  Ti11  1  0.507503  0.347207  0.626698  1
  Ti  Ti12  1  0.652080  0.491652  0.874850  1
  Ti  Ti13  1  0.347207  0.507503  0.373302  1
  Ti  Ti14  1  0.848864  0.992162  0.374781  1
  Ti  Ti15  1  0.008365  0.151952  0.124138  1
  Ti  Ti16  1  0.992162  0.848864  0.625219  1
  Si  Si17  1  0.202406  0.130727  0.684064  1
  Si  Si18  1  0.368913  0.701633  0.934206  1
  Si  Si19  1  0.631102  0.297258  0.434222  1
  Si  Si20  1  0.701633  0.368913  0.065794  1
  Si  Si21  1  0.297258  0.631102  0.565778  1
  Si  Si22  1  0.797979  0.869076  0.184529  1
  Si  Si23  1  0.130727  0.202406  0.315936  1
  Si  Si24  1  0.869076  0.797979  0.815471  1
  Si  Si25  1  0.291576  0.952652  0.065115  1
  Si  Si26  1  0.546623  0.790978  0.315095  1
  Si  Si27  1  0.452515  0.208635  0.815107  1
  Si  Si28  1  0.790978  0.546623  0.684905  1
  Si  Si29  1  0.208635  0.452515  0.184893  1
  Si  Si30  1  0.708085  0.048215  0.565701  1
  Si  Si31  1  0.952652  0.291576  0.934885  1
  Si  Si32  1  0.048215  0.708085  0.434299  1
  Mo  Mo33  1  0.327113  0.327113  0.000000  1
  Mo  Mo34  1  0.173661  0.827233  0.249460  1
  Mo  Mo35  1  0.827233  0.173661  0.750540  1
