# generated using pymatgen
data_DyY3Co4(SnH)4
_symmetry_space_group_name_H-M   'P 1'
_cell_length_a   4.27743000
_cell_length_b   7.12531700
_cell_length_c   8.18825200
_cell_angle_alpha   90.00396641
_cell_angle_beta   90.00000000
_cell_angle_gamma   90.00000000
_symmetry_Int_Tables_number   1
_chemical_formula_structural   DyY3Co4(SnH)4
_chemical_formula_sum   'Dy1 Y3 Co4 Sn4 H4'
_cell_volume   249.56191013
_cell_formula_units_Z   1
loop_
 _symmetry_equiv_pos_site_id
 _symmetry_equiv_pos_as_xyz
  1  'x, y, z'
loop_
 _atom_site_type_symbol
 _atom_site_label
 _atom_site_symmetry_multiplicity
 _atom_site_fract_x
 _atom_site_fract_y
 _atom_site_fract_z
 _atom_site_occupancy
  Dy  Dy0  1  0.750000  0.012381  0.686749  1
  Y  Y1  1  0.250000  0.987546  0.312969  1
  Y  Y2  1  0.250000  0.487643  0.186922  1
  Y  Y3  1  0.750000  0.512431  0.812984  1
  Co  Co4  1  0.750000  0.776850  0.102283  1
  Co  Co5  1  0.250000  0.222929  0.897376  1
  Co  Co6  1  0.250000  0.723628  0.602414  1
  Co  Co7  1  0.750000  0.276620  0.398060  1
  Sn  Sn8  1  0.750000  0.656854  0.426096  1
  Sn  Sn9  1  0.250000  0.342975  0.574068  1
  Sn  Sn10  1  0.250000  0.843301  0.925788  1
  Sn  Sn11  1  0.750000  0.156719  0.073918  1
  H  H12  1  0.250000  0.443803  0.919373  1
  H  H13  1  0.750000  0.556084  0.080570  1
  H  H14  1  0.750000  0.055880  0.419674  1
  H  H15  1  0.250000  0.944355  0.580757  1
