# generated using pymatgen
data_Tm19ThPt16
_symmetry_space_group_name_H-M   'P 1'
_cell_length_a   7.39365468
_cell_length_b   7.44700634
_cell_length_c   14.71793902
_cell_angle_alpha   90.15175523
_cell_angle_beta   89.90172892
_cell_angle_gamma   89.97980950
_symmetry_Int_Tables_number   1
_chemical_formula_structural   Tm19ThPt16
_chemical_formula_sum   'Tm19 Th1 Pt16'
_cell_volume   810.37436871
_cell_formula_units_Z   1
loop_
 _symmetry_equiv_pos_site_id
 _symmetry_equiv_pos_as_xyz
  1  'x, y, z'
loop_
 _atom_site_type_symbol
 _atom_site_label
 _atom_site_symmetry_multiplicity
 _atom_site_fract_x
 _atom_site_fract_y
 _atom_site_fract_z
 _atom_site_occupancy
  Tm  Tm0  1  0.636216  0.170803  0.623187  1
  Tm  Tm1  1  0.140295  0.333156  0.879483  1
  Tm  Tm2  1  0.359301  0.833161  0.121972  1
  Tm  Tm3  1  0.855203  0.665229  0.374745  1
  Tm  Tm4  1  0.361185  0.831683  0.377757  1
  Tm  Tm5  1  0.861231  0.668078  0.121567  1
  Tm  Tm6  1  0.640371  0.166270  0.879757  1
  Tm  Tm7  1  0.141432  0.330671  0.621600  1
  Tm  Tm8  1  0.486545  0.674297  0.594907  1
  Tm  Tm9  1  0.984956  0.824767  0.906540  1
  Tm  Tm10  1  0.514945  0.324196  0.093691  1
  Tm  Tm11  1  0.015003  0.179306  0.403851  1
  Tm  Tm12  1  0.512846  0.324186  0.406210  1
  Tm  Tm13  1  0.015728  0.175051  0.094449  1
  Tm  Tm14  1  0.484437  0.675013  0.907229  1
  Tm  Tm15  1  0.800951  0.507368  0.752825  1
  Tm  Tm16  1  0.304959  0.990849  0.753564  1
  Tm  Tm17  1  0.198365  0.490711  0.249527  1
  Tm  Tm18  1  0.697981  0.009596  0.249084  1
  Th  Th19  1  0.983189  0.823467  0.592259  1
  Pt  Pt20  1  0.700231  0.974405  0.458079  1
  Pt  Pt21  1  0.196002  0.528588  0.042189  1
  Pt  Pt22  1  0.302702  0.028458  0.958786  1
  Pt  Pt23  1  0.805573  0.468436  0.539557  1
  Pt  Pt24  1  0.306256  0.030363  0.539796  1
  Pt  Pt25  1  0.802439  0.471405  0.958473  1
  Pt  Pt26  1  0.696866  0.971474  0.042148  1
  Pt  Pt27  1  0.193012  0.530880  0.458745  1
  Pt  Pt28  1  0.434302  0.385086  0.751316  1
  Pt  Pt29  1  0.935571  0.114900  0.750004  1
  Pt  Pt30  1  0.564521  0.612587  0.248983  1
  Pt  Pt31  1  0.065105  0.887169  0.249989  1
  Pt  Pt32  1  0.661819  0.854010  0.750912  1
  Pt  Pt33  1  0.162282  0.644173  0.749113  1
  Pt  Pt34  1  0.339213  0.144841  0.249270  1
  Pt  Pt35  1  0.838970  0.355366  0.248441  1
