# generated using pymatgen
data_Sr13Pr7Sn16
_symmetry_space_group_name_H-M   'P 1'
_cell_length_a   8.35877384
_cell_length_b   8.80180073
_cell_length_c   17.00905306
_cell_angle_alpha   90.00601786
_cell_angle_beta   90.00532401
_cell_angle_gamma   90.01385504
_symmetry_Int_Tables_number   1
_chemical_formula_structural   Sr13Pr7Sn16
_chemical_formula_sum   'Sr13 Pr7 Sn16'
_cell_volume   1251.39445351
_cell_formula_units_Z   1
loop_
 _symmetry_equiv_pos_site_id
 _symmetry_equiv_pos_as_xyz
  1  'x, y, z'
loop_
 _atom_site_type_symbol
 _atom_site_label
 _atom_site_symmetry_multiplicity
 _atom_site_fract_x
 _atom_site_fract_y
 _atom_site_fract_z
 _atom_site_occupancy
  Sr  Sr0  1  0.829210  0.671606  0.878868  1
  Sr  Sr1  1  0.496855  0.321412  0.904441  1
  Sr  Sr2  1  0.995106  0.179854  0.594006  1
  Sr  Sr3  1  0.504346  0.678737  0.406546  1
  Sr  Sr4  1  0.004445  0.818977  0.094263  1
  Sr  Sr5  1  0.504844  0.679352  0.093657  1
  Sr  Sr6  1  0.004885  0.820002  0.406599  1
  Sr  Sr7  1  0.494219  0.320275  0.594516  1
  Sr  Sr8  1  0.995140  0.181970  0.906501  1
  Sr  Sr9  1  0.164093  0.485616  0.750504  1
  Sr  Sr10  1  0.667896  0.013374  0.750453  1
  Sr  Sr11  1  0.832774  0.515514  0.250764  1
  Sr  Sr12  1  0.332346  0.984611  0.249986  1
  Pr  Pr13  1  0.329916  0.829532  0.875518  1
  Pr  Pr14  1  0.830096  0.671497  0.622391  1
  Pr  Pr15  1  0.670772  0.171126  0.377940  1
  Pr  Pr16  1  0.170444  0.329202  0.123599  1
  Pr  Pr17  1  0.669923  0.170933  0.123325  1
  Pr  Pr18  1  0.170534  0.328083  0.377974  1
  Pr  Pr19  1  0.330742  0.828032  0.622143  1
  Sn  Sn20  1  0.336839  0.041715  0.037094  1
  Sn  Sn21  1  0.839804  0.459869  0.462464  1
  Sn  Sn22  1  0.660234  0.959317  0.536551  1
  Sn  Sn23  1  0.167847  0.539375  0.965396  1
  Sn  Sn24  1  0.653026  0.966833  0.963392  1
  Sn  Sn25  1  0.160864  0.539173  0.537030  1
  Sn  Sn26  1  0.340343  0.039924  0.462233  1
  Sn  Sn27  1  0.843127  0.456135  0.041147  1
  Sn  Sn28  1  0.533627  0.622862  0.746201  1
  Sn  Sn29  1  0.039505  0.878041  0.746529  1
  Sn  Sn30  1  0.463172  0.373123  0.251063  1
  Sn  Sn31  1  0.962606  0.126503  0.250991  1
  Sn  Sn32  1  0.283342  0.117412  0.748304  1
  Sn  Sn33  1  0.778177  0.380389  0.745776  1
  Sn  Sn34  1  0.718929  0.884940  0.250683  1
  Sn  Sn35  1  0.219978  0.614684  0.251152  1
