# generated using pymatgen
data_DyBi3Ir2(RhO7)2
_symmetry_space_group_name_H-M   'P 1'
_cell_length_a   7.34314515
_cell_length_b   7.30714669
_cell_length_c   7.35103580
_cell_angle_alpha   59.96717230
_cell_angle_beta   60.03549654
_cell_angle_gamma   59.83689691
_symmetry_Int_Tables_number   1
_chemical_formula_structural   DyBi3Ir2(RhO7)2
_chemical_formula_sum   'Dy1 Bi3 Ir2 Rh2 O14'
_cell_volume   278.56959419
_cell_formula_units_Z   1
loop_
 _symmetry_equiv_pos_site_id
 _symmetry_equiv_pos_as_xyz
  1  'x, y, z'
loop_
 _atom_site_type_symbol
 _atom_site_label
 _atom_site_symmetry_multiplicity
 _atom_site_fract_x
 _atom_site_fract_y
 _atom_site_fract_z
 _atom_site_occupancy
  Dy  Dy0  1  0.125000  0.625000  0.125000  1
  Bi  Bi1  1  0.125000  0.125000  0.125000  1
  Bi  Bi2  1  0.625000  0.125000  0.125000  1
  Bi  Bi3  1  0.125000  0.125000  0.625000  1
  Ir  Ir4  1  0.625000  0.625000  0.625000  1
  Ir  Ir5  1  0.125000  0.625000  0.625000  1
  Rh  Rh6  1  0.625000  0.625000  0.125000  1
  Rh  Rh7  1  0.625000  0.125000  0.625000  1
  O  O8  1  0.246661  0.257601  0.249078  1
  O  O9  1  0.286838  0.703560  0.292261  1
  O  O10  1  0.959458  0.953552  0.544820  1
  O  O11  1  0.542171  0.953552  0.544820  1
  O  O12  1  0.717341  0.703560  0.292261  1
  O  O13  1  0.958754  0.546800  0.535691  1
  O  O14  1  0.707829  0.296448  0.705180  1
  O  O15  1  0.290542  0.296448  0.705180  1
  O  O16  1  0.708623  0.291165  0.291588  1
  O  O17  1  0.291246  0.703200  0.714309  1
  O  O18  1  0.963162  0.546440  0.957739  1
  O  O19  1  0.532659  0.546440  0.957739  1
  O  O20  1  0.003339  0.992399  0.000922  1
  O  O21  1  0.541377  0.958835  0.958412  1
