# generated using pymatgen
data_Lu16Ag3Rh4Pb
_symmetry_space_group_name_H-M   'P 1'
_cell_length_a   9.39279189
_cell_length_b   9.39411252
_cell_length_c   9.39411200
_cell_angle_alpha   60.00000184
_cell_angle_beta   59.99535071
_cell_angle_gamma   59.99534973
_symmetry_Int_Tables_number   1
_chemical_formula_structural   Lu16Ag3Rh4Pb
_chemical_formula_sum   'Lu16 Ag3 Rh4 Pb1'
_cell_volume   586.08509080
_cell_formula_units_Z   1
loop_
 _symmetry_equiv_pos_site_id
 _symmetry_equiv_pos_as_xyz
  1  'x, y, z'
loop_
 _atom_site_type_symbol
 _atom_site_label
 _atom_site_symmetry_multiplicity
 _atom_site_fract_x
 _atom_site_fract_y
 _atom_site_fract_z
 _atom_site_occupancy
  Lu  Lu0  1  0.601020  0.601347  0.601347  1
  Lu  Lu1  1  0.601020  0.601347  0.196286  1
  Lu  Lu2  1  0.601020  0.196286  0.601347  1
  Lu  Lu3  1  0.196191  0.601270  0.601270  1
  Lu  Lu4  1  0.061893  0.438647  0.438647  1
  Lu  Lu5  1  0.439458  0.060978  0.060978  1
  Lu  Lu6  1  0.439458  0.060978  0.438588  1
  Lu  Lu7  1  0.061893  0.438647  0.060812  1
  Lu  Lu8  1  0.439458  0.438588  0.060978  1
  Lu  Lu9  1  0.061893  0.060812  0.438647  1
  Lu  Lu10  1  0.178529  0.814161  0.814161  1
  Lu  Lu11  1  0.812026  0.186801  0.186801  1
  Lu  Lu12  1  0.812026  0.186801  0.814372  1
  Lu  Lu13  1  0.178529  0.814161  0.193147  1
  Lu  Lu14  1  0.812026  0.814372  0.186801  1
  Lu  Lu15  1  0.178529  0.193147  0.814161  1
  Ag  Ag16  1  0.839271  0.832514  0.832514  1
  Ag  Ag17  1  0.839271  0.832514  0.495702  1
  Ag  Ag18  1  0.839271  0.495702  0.832514  1
  Rh  Rh19  1  0.393717  0.392669  0.392669  1
  Rh  Rh20  1  0.393717  0.392669  0.820943  1
  Rh  Rh21  1  0.393717  0.820943  0.392669  1
  Rh  Rh22  1  0.820671  0.393110  0.393110  1
  Pb  Pb23  1  0.505401  0.831533  0.831533  1
