# generated using pymatgen
data_Tb3HoAl15(SiIr2)3
_symmetry_space_group_name_H-M   'P 1'
_cell_length_a   7.54272904
_cell_length_b   7.52631421
_cell_length_c   9.33402902
_cell_angle_alpha   89.99717231
_cell_angle_beta   89.92050958
_cell_angle_gamma   119.73986475
_symmetry_Int_Tables_number   1
_chemical_formula_structural   Tb3HoAl15(SiIr2)3
_chemical_formula_sum   'Tb3 Ho1 Al15 Si3 Ir6'
_cell_volume   460.08970135
_cell_formula_units_Z   1
loop_
 _symmetry_equiv_pos_site_id
 _symmetry_equiv_pos_as_xyz
  1  'x, y, z'
loop_
 _atom_site_type_symbol
 _atom_site_label
 _atom_site_symmetry_multiplicity
 _atom_site_fract_x
 _atom_site_fract_y
 _atom_site_fract_z
 _atom_site_occupancy
  Tb  Tb0  1  0.993832  0.668729  0.248416  1
  Tb  Tb1  1  0.005034  0.325651  0.753134  1
  Tb  Tb2  1  0.678997  0.000205  0.248082  1
  Ho  Ho3  1  0.325917  0.005558  0.749468  1
  Al  Al4  1  0.998069  0.668730  0.921939  1
  Al  Al5  1  0.999115  0.664386  0.575462  1
  Al  Al6  1  0.336063  0.000324  0.424737  1
  Al  Al7  1  0.001987  0.336315  0.428738  1
  Al  Al8  1  0.663171  0.998822  0.575529  1
  Al  Al9  1  0.658940  0.993934  0.922207  1
  Al  Al10  1  0.335679  0.000404  0.075628  1
  Al  Al11  1  0.336001  0.335307  0.558403  1
  Al  Al12  1  0.664779  0.665345  0.441874  1
  Al  Al13  1  0.664161  0.664932  0.059302  1
  Al  Al14  1  0.338926  0.335361  0.941525  1
  Al  Al15  1  0.334420  0.546381  0.250349  1
  Al  Al16  1  0.665439  0.451309  0.750129  1
  Al  Al17  1  0.545723  0.335337  0.250273  1
  Al  Al18  1  0.450667  0.663490  0.749386  1
  Si  Si19  1  0.132313  0.127857  0.250904  1
  Si  Si20  1  0.871059  0.872330  0.749738  1
  Si  Si21  1  0.001466  0.337976  0.072938  1
  Ir  Ir22  1  0.678924  0.328565  0.001512  1
  Ir  Ir23  1  0.320247  0.664053  0.000031  1
  Ir  Ir24  1  0.328007  0.671303  0.499537  1
  Ir  Ir25  1  0.671845  0.328525  0.499335  1
  Ir  Ir26  1  0.999354  0.008258  0.001788  1
  Ir  Ir27  1  0.999862  0.000617  0.499638  1
