# generated using pymatgen
data_Li2CaYb2AgPb3
_symmetry_space_group_name_H-M   'P 1'
_cell_length_a   4.95816500
_cell_length_b   4.95816488
_cell_length_c   10.90884100
_cell_angle_alpha   90.00000000
_cell_angle_beta   90.00000000
_cell_angle_gamma   119.99999411
_symmetry_Int_Tables_number   1
_chemical_formula_structural   Li2CaYb2AgPb3
_chemical_formula_sum   'Li2 Ca1 Yb2 Ag1 Pb3'
_cell_volume   232.24758659
_cell_formula_units_Z   1
loop_
 _symmetry_equiv_pos_site_id
 _symmetry_equiv_pos_as_xyz
  1  'x, y, z'
loop_
 _atom_site_type_symbol
 _atom_site_label
 _atom_site_symmetry_multiplicity
 _atom_site_fract_x
 _atom_site_fract_y
 _atom_site_fract_z
 _atom_site_occupancy
  Li  Li0  1  0.333333  0.666667  0.496413  1
  Li  Li1  1  0.000000  0.000000  0.190707  1
  Ca  Ca2  1  0.666667  0.333333  0.333165  1
  Yb  Yb3  1  0.666667  0.333333  0.668760  1
  Yb  Yb4  1  0.666667  0.333333  0.000631  1
  Ag  Ag5  1  0.000000  0.000000  0.795785  1
  Pb  Pb6  1  0.333333  0.666667  0.161194  1
  Pb  Pb7  1  0.333333  0.666667  0.851338  1
  Pb  Pb8  1  0.000000  0.000000  0.502006  1
