# generated using pymatgen
data_Y2Tm2MnB12Rh
_symmetry_space_group_name_H-M   'P 1'
_cell_length_a   3.60126500
_cell_length_b   9.07832802
_cell_length_c   11.46842352
_cell_angle_alpha   90.21966663
_cell_angle_beta   90.00000000
_cell_angle_gamma   90.00000000
_symmetry_Int_Tables_number   1
_chemical_formula_structural   Y2Tm2MnB12Rh
_chemical_formula_sum   'Y4 Tm4 Mn2 B24 Rh2'
_cell_volume   374.93974661
_cell_formula_units_Z   2
loop_
 _symmetry_equiv_pos_site_id
 _symmetry_equiv_pos_as_xyz
  1  'x, y, z'
loop_
 _atom_site_type_symbol
 _atom_site_label
 _atom_site_symmetry_multiplicity
 _atom_site_fract_x
 _atom_site_fract_y
 _atom_site_fract_z
 _atom_site_occupancy
  Y  Y0  1  0.500000  0.318008  0.410888  1
  Y  Y1  1  0.500000  0.681992  0.589112  1
  Y  Y2  1  0.500000  0.172535  0.917479  1
  Y  Y3  1  0.500000  0.827465  0.082521  1
  Tm  Tm4  1  0.500000  0.439072  0.126851  1
  Tm  Tm5  1  0.500000  0.560928  0.873149  1
  Tm  Tm6  1  0.500000  0.052187  0.630223  1
  Tm  Tm7  1  0.500000  0.947813  0.369777  1
  Mn  Mn8  1  0.500000  0.139515  0.180390  1
  Mn  Mn9  1  0.500000  0.860485  0.819610  1
  B  B10  1  0.000000  0.104874  0.471790  1
  B  B11  1  0.000000  0.895126  0.528210  1
  B  B12  1  0.000000  0.395394  0.971188  1
  B  B13  1  0.000000  0.604606  0.028812  1
  B  B14  1  0.000000  0.131805  0.313716  1
  B  B15  1  0.000000  0.868195  0.686284  1
  B  B16  1  0.000000  0.368072  0.817405  1
  B  B17  1  0.000000  0.631928  0.182595  1
  B  B18  1  0.000000  0.054190  0.068522  1
  B  B19  1  0.000000  0.945810  0.931478  1
  B  B20  1  0.000000  0.445503  0.566510  1
  B  B21  1  0.000000  0.554497  0.433490  1
  B  B22  1  0.000000  0.482679  0.286740  1
  B  B23  1  0.000000  0.517321  0.713260  1
  B  B24  1  0.000000  0.013920  0.787784  1
  B  B25  1  0.000000  0.986080  0.212216  1
  B  B26  1  0.000000  0.246863  0.082735  1
  B  B27  1  0.000000  0.753137  0.917265  1
  B  B28  1  0.000000  0.249187  0.579699  1
  B  B29  1  0.000000  0.750813  0.420301  1
  B  B30  1  0.000000  0.290713  0.233846  1
  B  B31  1  0.000000  0.709287  0.766154  1
  B  B32  1  0.000000  0.207265  0.735650  1
  B  B33  1  0.000000  0.792735  0.264350  1
  Rh  Rh34  1  0.500000  0.360921  0.679856  1
  Rh  Rh35  1  0.500000  0.639079  0.320144  1
