# generated using pymatgen
data_CeLu5Tc2
_symmetry_space_group_name_H-M   'P 1'
_cell_length_a   6.17336800
_cell_length_b   7.09300600
_cell_length_c   9.11151700
_cell_angle_alpha   90.00000000
_cell_angle_beta   90.00000000
_cell_angle_gamma   90.00000000
_symmetry_Int_Tables_number   1
_chemical_formula_structural   CeLu5Tc2
_chemical_formula_sum   'Ce2 Lu10 Tc4'
_cell_volume   398.97270336
_cell_formula_units_Z   2
loop_
 _symmetry_equiv_pos_site_id
 _symmetry_equiv_pos_as_xyz
  1  'x, y, z'
loop_
 _atom_site_type_symbol
 _atom_site_label
 _atom_site_symmetry_multiplicity
 _atom_site_fract_x
 _atom_site_fract_y
 _atom_site_fract_z
 _atom_site_occupancy
  Ce  Ce0  1  0.873678  0.555243  0.250000  1
  Ce  Ce1  1  0.626322  0.055243  0.250000  1
  Lu  Lu2  1  0.338983  0.679708  0.056887  1
  Lu  Lu3  1  0.161017  0.179708  0.443113  1
  Lu  Lu4  1  0.665798  0.321473  0.568319  1
  Lu  Lu5  1  0.834202  0.821473  0.931681  1
  Lu  Lu6  1  0.665798  0.321473  0.931681  1
  Lu  Lu7  1  0.834202  0.821473  0.568319  1
  Lu  Lu8  1  0.338983  0.679708  0.443113  1
  Lu  Lu9  1  0.161017  0.179708  0.056887  1
  Lu  Lu10  1  0.124433  0.463706  0.750000  1
  Lu  Lu11  1  0.375567  0.963706  0.750000  1
  Tc  Tc12  1  0.007935  0.865237  0.250000  1
  Tc  Tc13  1  0.492065  0.365237  0.250000  1
  Tc  Tc14  1  0.965037  0.113449  0.750000  1
  Tc  Tc15  1  0.534963  0.613449  0.750000  1
