# generated using pymatgen
data_Yb4Ga18IrPd5
_symmetry_space_group_name_H-M   'P 1'
_cell_length_a   7.66644192
_cell_length_b   7.66644282
_cell_length_c   9.56220896
_cell_angle_alpha   90.02537653
_cell_angle_beta   90.02537692
_cell_angle_gamma   119.74842480
_symmetry_Int_Tables_number   1
_chemical_formula_structural   Yb4Ga18IrPd5
_chemical_formula_sum   'Yb4 Ga18 Ir1 Pd5'
_cell_volume   487.94606978
_cell_formula_units_Z   1
loop_
 _symmetry_equiv_pos_site_id
 _symmetry_equiv_pos_as_xyz
  1  'x, y, z'
loop_
 _atom_site_type_symbol
 _atom_site_label
 _atom_site_symmetry_multiplicity
 _atom_site_fract_x
 _atom_site_fract_y
 _atom_site_fract_z
 _atom_site_occupancy
  Yb  Yb0  1  0.998662  0.669010  0.251304  1
  Yb  Yb1  1  0.001338  0.330990  0.748696  1
  Yb  Yb2  1  0.669010  0.998662  0.251304  1
  Yb  Yb3  1  0.330990  0.001338  0.748696  1
  Ga  Ga4  1  0.125562  0.125562  0.251164  1
  Ga  Ga5  1  0.874438  0.874438  0.748836  1
  Ga  Ga6  1  0.998108  0.334175  0.083655  1
  Ga  Ga7  1  0.001892  0.665825  0.916345  1
  Ga  Ga8  1  0.002516  0.667996  0.580944  1
  Ga  Ga9  1  0.332004  0.997484  0.419056  1
  Ga  Ga10  1  0.997484  0.332004  0.419056  1
  Ga  Ga11  1  0.667996  0.002516  0.580944  1
  Ga  Ga12  1  0.665825  0.001892  0.916345  1
  Ga  Ga13  1  0.334175  0.998108  0.083655  1
  Ga  Ga14  1  0.327248  0.327248  0.566360  1
  Ga  Ga15  1  0.672752  0.672752  0.433640  1
  Ga  Ga16  1  0.668781  0.668781  0.068691  1
  Ga  Ga17  1  0.331219  0.331219  0.931309  1
  Ga  Ga18  1  0.339038  0.544381  0.250769  1
  Ga  Ga19  1  0.660962  0.455619  0.749231  1
  Ga  Ga20  1  0.544381  0.339038  0.250769  1
  Ga  Ga21  1  0.455619  0.660962  0.749231  1
  Ir  Ir22  1  0.000000  0.000000  0.500000  1
  Pd  Pd23  1  0.670187  0.329813  0.000000  1
  Pd  Pd24  1  0.329813  0.670187  0.000000  1
  Pd  Pd25  1  0.330035  0.669965  0.500000  1
  Pd  Pd26  1  0.669965  0.330035  0.500000  1
  Pd  Pd27  1  0.000000  0.000000  0.000000  1
