# generated using pymatgen
data_Ba6Tm2(TeO6)3
_symmetry_space_group_name_H-M   'P 1'
_cell_length_a   10.36217540
_cell_length_b   10.36217335
_cell_length_c   10.36217122
_cell_angle_alpha   146.51609702
_cell_angle_beta   131.95228695
_cell_angle_gamma   59.83098728
_symmetry_Int_Tables_number   1
_chemical_formula_structural   Ba6Tm2(TeO6)3
_chemical_formula_sum   'Ba6 Tm2 Te3 O18'
_cell_volume   452.39436925
_cell_formula_units_Z   1
loop_
 _symmetry_equiv_pos_site_id
 _symmetry_equiv_pos_as_xyz
  1  'x, y, z'
loop_
 _atom_site_type_symbol
 _atom_site_label
 _atom_site_symmetry_multiplicity
 _atom_site_fract_x
 _atom_site_fract_y
 _atom_site_fract_z
 _atom_site_occupancy
  Ba  Ba0  1  0.774956  0.500001  0.274956  1
  Ba  Ba1  1  0.392824  0.156272  0.236554  1
  Ba  Ba2  1  0.080282  0.843730  0.236553  1
  Ba  Ba3  1  0.225041  0.500000  0.725042  1
  Ba  Ba4  1  0.919721  0.156267  0.763446  1
  Ba  Ba5  1  0.607176  0.843728  0.763447  1
  Tm  Tm6  1  0.665797  0.665796  0.000000  1
  Tm  Tm7  1  0.334204  0.334203  0.000000  1
  Te  Te8  1  0.500000  0.000000  0.499999  1
  Te  Te9  1  0.171758  0.671758  0.500000  1
  Te  Te10  1  0.828243  0.328242  0.500000  1
  O  O11  1  0.725215  0.999999  0.725214  1
  O  O12  1  0.408465  0.671594  0.736871  1
  O  O13  1  0.065277  0.328406  0.736871  1
  O  O14  1  0.578755  0.841384  0.262627  1
  O  O15  1  0.249092  0.516979  0.267886  1
  O  O16  1  0.903733  0.176643  0.272913  1
  O  O17  1  0.421243  0.683872  0.262626  1
  O  O18  1  0.096269  0.369180  0.272913  1
  O  O19  1  0.750908  0.018796  0.267890  1
  O  O20  1  0.274784  0.000001  0.274784  1
  O  O21  1  0.934724  0.671595  0.263130  1
  O  O22  1  0.591537  0.328404  0.263128  1
  O  O23  1  0.421244  0.158617  0.737371  1
  O  O24  1  0.096268  0.823355  0.727088  1
  O  O25  1  0.750909  0.483023  0.732116  1
  O  O26  1  0.578755  0.316129  0.737373  1
  O  O27  1  0.249092  0.981207  0.732115  1
  O  O28  1  0.903730  0.630820  0.727087  1
