# generated using pymatgen
data_Tb5Y11MgNi4Ag3
_symmetry_space_group_name_H-M   'P 1'
_cell_length_a   9.54419754
_cell_length_b   9.54934835
_cell_length_c   9.53991400
_cell_angle_alpha   60.03268290
_cell_angle_beta   60.01485235
_cell_angle_gamma   59.63514041
_symmetry_Int_Tables_number   1
_chemical_formula_structural   Tb5Y11MgNi4Ag3
_chemical_formula_sum   'Tb5 Y11 Mg1 Ni4 Ag3'
_cell_volume   613.31813767
_cell_formula_units_Z   1
loop_
 _symmetry_equiv_pos_site_id
 _symmetry_equiv_pos_as_xyz
  1  'x, y, z'
loop_
 _atom_site_type_symbol
 _atom_site_label
 _atom_site_symmetry_multiplicity
 _atom_site_fract_x
 _atom_site_fract_y
 _atom_site_fract_z
 _atom_site_occupancy
  Tb  Tb0  1  0.059592  0.060904  0.439753  1
  Tb  Tb1  1  0.597769  0.597872  0.596315  1
  Tb  Tb2  1  0.597769  0.597872  0.208043  1
  Tb  Tb3  1  0.598864  0.204336  0.598400  1
  Tb  Tb4  1  0.192118  0.602853  0.602513  1
  Y  Y5  1  0.184094  0.815446  0.813969  1
  Y  Y6  1  0.813734  0.186356  0.185669  1
  Y  Y7  1  0.813734  0.186356  0.814241  1
  Y  Y8  1  0.184094  0.815446  0.186490  1
  Y  Y9  1  0.814311  0.815690  0.185000  1
  Y  Y10  1  0.184171  0.187238  0.814295  1
  Y  Y11  1  0.059587  0.440000  0.440255  1
  Y  Y12  1  0.437528  0.062780  0.062134  1
  Y  Y13  1  0.437528  0.062780  0.437559  1
  Y  Y14  1  0.059587  0.440000  0.060159  1
  Y  Y15  1  0.438279  0.438198  0.061761  1
  Mg  Mg16  1  0.537856  0.819771  0.821187  1
  Ni  Ni17  1  0.391401  0.394666  0.394251  1
  Ni  Ni18  1  0.391401  0.394666  0.819684  1
  Ni  Ni19  1  0.387075  0.820828  0.396050  1
  Ni  Ni20  1  0.820880  0.389628  0.394747  1
  Ag  Ag21  1  0.832683  0.833644  0.834155  1
  Ag  Ag22  1  0.832683  0.833644  0.499519  1
  Ag  Ag23  1  0.833263  0.499030  0.833854  1
