# generated using pymatgen
data_Pr4Tm5LuPb6
_symmetry_space_group_name_H-M   'P 1'
_cell_length_a   9.11627537
_cell_length_b   9.11627530
_cell_length_c   6.69414100
_cell_angle_alpha   90.00000000
_cell_angle_beta   90.00000000
_cell_angle_gamma   119.32834410
_symmetry_Int_Tables_number   1
_chemical_formula_structural   Pr4Tm5LuPb6
_chemical_formula_sum   'Pr4 Tm5 Lu1 Pb6'
_cell_volume   485.02047423
_cell_formula_units_Z   1
loop_
 _symmetry_equiv_pos_site_id
 _symmetry_equiv_pos_as_xyz
  1  'x, y, z'
loop_
 _atom_site_type_symbol
 _atom_site_label
 _atom_site_symmetry_multiplicity
 _atom_site_fract_x
 _atom_site_fract_y
 _atom_site_fract_z
 _atom_site_occupancy
  Pr  Pr0  1  0.237655  0.001844  0.750000  1
  Pr  Pr1  1  0.001844  0.237655  0.750000  1
  Pr  Pr2  1  0.763254  0.998726  0.250000  1
  Pr  Pr3  1  0.998726  0.763254  0.250000  1
  Tm  Tm4  1  0.666347  0.332777  0.000059  1
  Tm  Tm5  1  0.332777  0.666347  0.000059  1
  Tm  Tm6  1  0.332777  0.666347  0.499941  1
  Tm  Tm7  1  0.666347  0.332777  0.499941  1
  Tm  Tm8  1  0.756352  0.756352  0.750000  1
  Lu  Lu9  1  0.243826  0.243826  0.250000  1
  Pb  Pb10  1  0.404586  0.404586  0.750000  1
  Pb  Pb11  1  0.602803  0.995917  0.750000  1
  Pb  Pb12  1  0.995917  0.602803  0.750000  1
  Pb  Pb13  1  0.595585  0.595585  0.250000  1
  Pb  Pb14  1  0.397406  0.003800  0.250000  1
  Pb  Pb15  1  0.003800  0.397406  0.250000  1
