# generated using pymatgen
data_Ce2Sm2HfZr3O14
_symmetry_space_group_name_H-M   'P 1'
_cell_length_a   7.59705478
_cell_length_b   7.58810209
_cell_length_c   7.59705545
_cell_angle_alpha   60.05711900
_cell_angle_beta   60.10083864
_cell_angle_gamma   60.05712399
_symmetry_Int_Tables_number   1
_chemical_formula_structural   Ce2Sm2HfZr3O14
_chemical_formula_sum   'Ce2 Sm2 Hf1 Zr3 O14'
_cell_volume   310.17986169
_cell_formula_units_Z   1
loop_
 _symmetry_equiv_pos_site_id
 _symmetry_equiv_pos_as_xyz
  1  'x, y, z'
loop_
 _atom_site_type_symbol
 _atom_site_label
 _atom_site_symmetry_multiplicity
 _atom_site_fract_x
 _atom_site_fract_y
 _atom_site_fract_z
 _atom_site_occupancy
  Ce  Ce0  1  0.125000  0.625000  0.125000  1
  Ce  Ce1  1  0.125000  0.125000  0.125000  1
  Sm  Sm2  1  0.625000  0.125000  0.125000  1
  Sm  Sm3  1  0.125000  0.125000  0.625000  1
  Hf  Hf4  1  0.625000  0.625000  0.625000  1
  Zr  Zr5  1  0.125000  0.625000  0.625000  1
  Zr  Zr6  1  0.625000  0.125000  0.625000  1
  Zr  Zr7  1  0.625000  0.625000  0.125000  1
  O  O8  1  0.707198  0.710261  0.293486  1
  O  O9  1  0.287740  0.287179  0.709486  1
  O  O10  1  0.709739  0.292142  0.709739  1
  O  O11  1  0.288587  0.709792  0.288587  1
  O  O12  1  0.293486  0.710261  0.707198  1
  O  O13  1  0.709486  0.287179  0.287740  1
  O  O14  1  0.542802  0.539739  0.956514  1
  O  O15  1  0.962260  0.962821  0.540514  1
  O  O16  1  0.540261  0.957858  0.540261  1
  O  O17  1  0.961413  0.540208  0.961413  1
  O  O18  1  0.956514  0.539739  0.542802  1
  O  O19  1  0.540514  0.962821  0.962260  1
  O  O20  1  0.252313  0.248099  0.252313  1
  O  O21  1  0.997687  0.001901  0.997687  1
