# generated using pymatgen
data_BaAc(PIr)2
_symmetry_space_group_name_H-M   'P 1'
_cell_length_a   6.48429700
_cell_length_b   6.48529453
_cell_length_c   6.49524917
_cell_angle_alpha   90.33272119
_cell_angle_beta   90.00000000
_cell_angle_gamma   90.00000000
_symmetry_Int_Tables_number   1
_chemical_formula_structural   BaAc(PIr)2
_chemical_formula_sum   'Ba2 Ac2 P4 Ir4'
_cell_volume   273.13735313
_cell_formula_units_Z   2
loop_
 _symmetry_equiv_pos_site_id
 _symmetry_equiv_pos_as_xyz
  1  'x, y, z'
loop_
 _atom_site_type_symbol
 _atom_site_label
 _atom_site_symmetry_multiplicity
 _atom_site_fract_x
 _atom_site_fract_y
 _atom_site_fract_z
 _atom_site_occupancy
  Ba  Ba0  1  0.619588  0.378171  0.885029  1
  Ba  Ba1  1  0.119588  0.121829  0.114971  1
  Ac  Ac2  1  0.382787  0.882033  0.620166  1
  Ac  Ac3  1  0.882787  0.617967  0.379834  1
  P  P4  1  0.657948  0.159718  0.342659  1
  P  P5  1  0.157948  0.340282  0.657341  1
  P  P6  1  0.337330  0.660952  0.161746  1
  P  P7  1  0.837330  0.839048  0.838254  1
  Ir  Ir8  1  0.093206  0.597612  0.903949  1
  Ir  Ir9  1  0.593206  0.902388  0.096051  1
  Ir  Ir10  1  0.909140  0.085045  0.588806  1
  Ir  Ir11  1  0.409140  0.414955  0.411194  1
