# generated using pymatgen
data_Pr3Ho5Cd2IrPt
_symmetry_space_group_name_H-M   'P 1'
_cell_length_a   9.77645013
_cell_length_b   9.77645023
_cell_length_c   9.76239700
_cell_angle_alpha   60.04753594
_cell_angle_beta   60.04753559
_cell_angle_gamma   60.18102551
_symmetry_Int_Tables_number   1
_chemical_formula_structural   Pr3Ho5Cd2IrPt
_chemical_formula_sum   'Pr6 Ho10 Cd4 Ir2 Pt2'
_cell_volume   661.16067032
_cell_formula_units_Z   2
loop_
 _symmetry_equiv_pos_site_id
 _symmetry_equiv_pos_as_xyz
  1  'x, y, z'
loop_
 _atom_site_type_symbol
 _atom_site_label
 _atom_site_symmetry_multiplicity
 _atom_site_fract_x
 _atom_site_fract_y
 _atom_site_fract_z
 _atom_site_occupancy
  Pr  Pr0  1  0.940885  0.560643  0.558454  1
  Pr  Pr1  1  0.560643  0.940885  0.940018  1
  Pr  Pr2  1  0.560643  0.940885  0.558454  1
  Pr  Pr3  1  0.940885  0.560643  0.940018  1
  Pr  Pr4  1  0.559480  0.559480  0.940520  1
  Pr  Pr5  1  0.940553  0.940553  0.559447  1
  Ho  Ho6  1  0.349131  0.349131  0.344871  1
  Ho  Ho7  1  0.349131  0.349131  0.956866  1
  Ho  Ho8  1  0.352557  0.952376  0.347533  1
  Ho  Ho9  1  0.952376  0.352557  0.347533  1
  Ho  Ho10  1  0.808936  0.186567  0.188655  1
  Ho  Ho11  1  0.186567  0.808936  0.815841  1
  Ho  Ho12  1  0.186567  0.808936  0.188655  1
  Ho  Ho13  1  0.808936  0.186567  0.815841  1
  Ho  Ho14  1  0.188307  0.188307  0.811693  1
  Ho  Ho15  1  0.813160  0.813160  0.186840  1
  Cd  Cd16  1  0.579522  0.579522  0.579094  1
  Cd  Cd17  1  0.579522  0.579522  0.261859  1
  Cd  Cd18  1  0.579374  0.262025  0.579299  1
  Cd  Cd19  1  0.262025  0.579374  0.579299  1
  Ir  Ir20  1  0.141949  0.574760  0.141646  1
  Ir  Ir21  1  0.574760  0.141949  0.141646  1
  Pt  Pt22  1  0.142044  0.142044  0.142449  1
  Pt  Pt23  1  0.142044  0.142044  0.573465  1
