# generated using pymatgen
data_AcAl3Ir2
_symmetry_space_group_name_H-M   'P 1'
_cell_length_a   6.53066637
_cell_length_b   6.53066744
_cell_length_c   5.65155200
_cell_angle_alpha   90.00000000
_cell_angle_beta   90.00000000
_cell_angle_gamma   104.80545586
_symmetry_Int_Tables_number   1
_chemical_formula_structural   AcAl3Ir2
_chemical_formula_sum   'Ac2 Al6 Ir4'
_cell_volume   233.03385182
_cell_formula_units_Z   2
loop_
 _symmetry_equiv_pos_site_id
 _symmetry_equiv_pos_as_xyz
  1  'x, y, z'
loop_
 _atom_site_type_symbol
 _atom_site_label
 _atom_site_symmetry_multiplicity
 _atom_site_fract_x
 _atom_site_fract_y
 _atom_site_fract_z
 _atom_site_occupancy
  Ac  Ac0  1  0.656956  0.656956  0.250000  1
  Ac  Ac1  1  0.343044  0.343044  0.750000  1
  Al  Al2  1  0.066124  0.066124  0.250000  1
  Al  Al3  1  0.933876  0.933876  0.750000  1
  Al  Al4  1  0.084319  0.473262  0.250000  1
  Al  Al5  1  0.915681  0.526738  0.750000  1
  Al  Al6  1  0.473262  0.084319  0.250000  1
  Al  Al7  1  0.526738  0.915681  0.750000  1
  Ir  Ir8  1  0.800645  0.199355  0.000000  1
  Ir  Ir9  1  0.199355  0.800645  0.000000  1
  Ir  Ir10  1  0.199355  0.800645  0.500000  1
  Ir  Ir11  1  0.800645  0.199355  0.500000  1
