# generated using pymatgen
data_Y5Ho5(RuRh)2
_symmetry_space_group_name_H-M   'P 1'
_cell_length_a   6.40025512
_cell_length_b   7.27129689
_cell_length_c   8.51624067
_cell_angle_alpha   96.77631781
_cell_angle_beta   112.14241756
_cell_angle_gamma   90.20822670
_symmetry_Int_Tables_number   1
_chemical_formula_structural   Y5Ho5(RuRh)2
_chemical_formula_sum   'Y5 Ho5 Ru2 Rh2'
_cell_volume   364.03733576
_cell_formula_units_Z   1
loop_
 _symmetry_equiv_pos_site_id
 _symmetry_equiv_pos_as_xyz
  1  'x, y, z'
loop_
 _atom_site_type_symbol
 _atom_site_label
 _atom_site_symmetry_multiplicity
 _atom_site_fract_x
 _atom_site_fract_y
 _atom_site_fract_z
 _atom_site_occupancy
  Y  Y0  1  0.980455  0.918409  0.188857  1
  Y  Y1  1  0.791429  0.581418  0.811430  1
  Y  Y2  1  0.024604  0.084816  0.813787  1
  Y  Y3  1  0.210974  0.415126  0.186449  1
  Y  Y4  1  0.641764  0.815635  0.434334  1
  Ho  Ho5  1  0.207458  0.683790  0.566378  1
  Ho  Ho6  1  0.355843  0.187302  0.563953  1
  Ho  Ho7  1  0.792908  0.312940  0.436430  1
  Ho  Ho8  1  0.420354  0.749915  0.999573  1
  Ho  Ho9  1  0.576517  0.250016  0.999987  1
  Ru  Ru10  1  0.179961  0.426147  0.778054  1
  Ru  Ru11  1  0.399904  0.075554  0.220030  1
  Rh  Rh12  1  0.820294  0.574134  0.221307  1
  Rh  Rh13  1  0.597534  0.924798  0.779431  1
