# generated using pymatgen
data_Ti6V6CuSn9
_symmetry_space_group_name_H-M   'P 1'
_cell_length_a   9.09912800
_cell_length_b   9.09912937
_cell_length_c   5.47995500
_cell_angle_alpha   90.00000000
_cell_angle_beta   90.00000000
_cell_angle_gamma   120.00000231
_symmetry_Int_Tables_number   1
_chemical_formula_structural   Ti6V6CuSn9
_chemical_formula_sum   'Ti6 V6 Cu1 Sn9'
_cell_volume   392.92279783
_cell_formula_units_Z   1
loop_
 _symmetry_equiv_pos_site_id
 _symmetry_equiv_pos_as_xyz
  1  'x, y, z'
loop_
 _atom_site_type_symbol
 _atom_site_label
 _atom_site_symmetry_multiplicity
 _atom_site_fract_x
 _atom_site_fract_y
 _atom_site_fract_z
 _atom_site_occupancy
  Ti  Ti0  1  0.845221  0.690440  0.745226  1
  Ti  Ti1  1  0.154779  0.845221  0.254774  1
  Ti  Ti2  1  0.690440  0.845221  0.254774  1
  Ti  Ti3  1  0.309560  0.154779  0.745226  1
  Ti  Ti4  1  0.845221  0.154779  0.745226  1
  Ti  Ti5  1  0.154779  0.309560  0.254774  1
  V  V6  1  0.500000  0.000000  0.500000  1
  V  V7  1  0.500000  0.500000  0.000000  1
  V  V8  1  0.000000  0.500000  0.000000  1
  V  V9  1  0.000000  0.500000  0.500000  1
  V  V10  1  0.500000  0.000000  0.000000  1
  V  V11  1  0.500000  0.500000  0.500000  1
  Cu  Cu12  1  0.000000  0.000000  0.500000  1
  Sn  Sn13  1  0.204253  0.408507  0.750706  1
  Sn  Sn14  1  0.795747  0.204253  0.249294  1
  Sn  Sn15  1  0.408507  0.204253  0.249294  1
  Sn  Sn16  1  0.591493  0.795747  0.750706  1
  Sn  Sn17  1  0.204253  0.795747  0.750706  1
  Sn  Sn18  1  0.795747  0.591493  0.249294  1
  Sn  Sn19  1  0.666667  0.333333  0.749920  1
  Sn  Sn20  1  0.333333  0.666667  0.250080  1
  Sn  Sn21  1  0.000000  0.000000  0.000000  1
