# generated using pymatgen
data_La2Y4Pt7Rh11
_symmetry_space_group_name_H-M   'P 1'
_cell_length_a   5.38676530
_cell_length_b   5.38674094
_cell_length_c   17.57562300
_cell_angle_alpha   90.00187994
_cell_angle_beta   89.99858951
_cell_angle_gamma   120.03572349
_symmetry_Int_Tables_number   1
_chemical_formula_structural   La2Y4Pt7Rh11
_chemical_formula_sum   'La2 Y4 Pt7 Rh11'
_cell_volume   441.50848702
_cell_formula_units_Z   1
loop_
 _symmetry_equiv_pos_site_id
 _symmetry_equiv_pos_as_xyz
  1  'x, y, z'
loop_
 _atom_site_type_symbol
 _atom_site_label
 _atom_site_symmetry_multiplicity
 _atom_site_fract_x
 _atom_site_fract_y
 _atom_site_fract_z
 _atom_site_occupancy
  La  La0  1  0.333320  0.666682  0.750070  1
  La  La1  1  0.666661  0.333341  0.249608  1
  Y  Y2  1  0.333373  0.666621  0.957964  1
  Y  Y3  1  0.666626  0.333374  0.041681  1
  Y  Y4  1  0.666272  0.333727  0.458763  1
  Y  Y5  1  0.333427  0.666575  0.542114  1
  Pt  Pt6  1  0.169521  0.830483  0.377089  1
  Pt  Pt7  1  0.333983  0.666043  0.249335  1
  Pt  Pt8  1  0.666875  0.333106  0.749898  1
  Pt  Pt9  1  0.998090  0.001885  0.249124  1
  Pt  Pt10  1  0.000366  0.999660  0.750083  1
  Pt  Pt11  1  0.998624  0.001380  0.500474  1
  Pt  Pt12  1  0.999802  0.000187  0.000180  1
  Rh  Rh13  1  0.169047  0.336147  0.376185  1
  Rh  Rh14  1  0.663852  0.830949  0.376191  1
  Rh  Rh15  1  0.831522  0.168481  0.623829  1
  Rh  Rh16  1  0.831323  0.663148  0.624044  1
  Rh  Rh17  1  0.336859  0.168682  0.624039  1
  Rh  Rh18  1  0.831559  0.168442  0.876241  1
  Rh  Rh19  1  0.831624  0.663095  0.876001  1
  Rh  Rh20  1  0.336903  0.168373  0.876010  1
  Rh  Rh21  1  0.168786  0.831205  0.123566  1
  Rh  Rh22  1  0.169254  0.337667  0.123759  1
  Rh  Rh23  1  0.662331  0.830748  0.123753  1
