# generated using pymatgen
data_Dy5Er5BiPb5
_symmetry_space_group_name_H-M   'P 1'
_cell_length_a   9.05330500
_cell_length_b   9.06102249
_cell_length_c   6.53629500
_cell_angle_alpha   90.00000000
_cell_angle_beta   90.00000000
_cell_angle_gamma   119.99468380
_symmetry_Int_Tables_number   1
_chemical_formula_structural   Dy5Er5BiPb5
_chemical_formula_sum   'Dy5 Er5 Bi1 Pb5'
_cell_volume   464.37614214
_cell_formula_units_Z   1
loop_
 _symmetry_equiv_pos_site_id
 _symmetry_equiv_pos_as_xyz
  1  'x, y, z'
loop_
 _atom_site_type_symbol
 _atom_site_label
 _atom_site_symmetry_multiplicity
 _atom_site_fract_x
 _atom_site_fract_y
 _atom_site_fract_z
 _atom_site_occupancy
  Dy  Dy0  1  0.763136  0.762938  0.750000  1
  Dy  Dy1  1  0.236837  0.996335  0.750000  1
  Dy  Dy2  1  0.996490  0.237323  0.750000  1
  Dy  Dy3  1  0.238518  0.238390  0.250000  1
  Dy  Dy4  1  0.761810  0.000616  0.250000  1
  Er  Er5  1  0.668423  0.332906  0.999666  1
  Er  Er6  1  0.332994  0.668552  0.999672  1
  Er  Er7  1  0.332994  0.668552  0.500328  1
  Er  Er8  1  0.668423  0.332906  0.500334  1
  Er  Er9  1  0.000753  0.761687  0.250000  1
  Bi  Bi10  1  0.393417  0.393411  0.750000  1
  Pb  Pb11  1  0.604418  0.999654  0.750000  1
  Pb  Pb12  1  0.999732  0.604427  0.750000  1
  Pb  Pb13  1  0.606846  0.606257  0.250000  1
  Pb  Pb14  1  0.393884  0.000737  0.250000  1
  Pb  Pb15  1  0.001324  0.395307  0.250000  1
