# generated using pymatgen
data_Er3In3CuRhAu
_symmetry_space_group_name_H-M   'P 1'
_cell_length_a   7.61053900
_cell_length_b   7.61053952
_cell_length_c   3.85965500
_cell_angle_alpha   90.00000000
_cell_angle_beta   90.00000000
_cell_angle_gamma   119.99999339
_symmetry_Int_Tables_number   1
_chemical_formula_structural   Er3In3CuRhAu
_chemical_formula_sum   'Er3 In3 Cu1 Rh1 Au1'
_cell_volume   193.60207532
_cell_formula_units_Z   1
loop_
 _symmetry_equiv_pos_site_id
 _symmetry_equiv_pos_as_xyz
  1  'x, y, z'
loop_
 _atom_site_type_symbol
 _atom_site_label
 _atom_site_symmetry_multiplicity
 _atom_site_fract_x
 _atom_site_fract_y
 _atom_site_fract_z
 _atom_site_occupancy
  Er  Er0  1  0.020244  0.601298  0.500000  1
  Er  Er1  1  0.398702  0.418946  0.500000  1
  Er  Er2  1  0.581054  0.979756  0.500000  1
  In  In3  1  0.749608  0.749180  0.000000  1
  In  In4  1  0.999572  0.250392  0.000000  1
  In  In5  1  0.250820  0.000428  0.000000  1
  Cu  Cu6  1  0.000000  0.000000  0.500000  1
  Rh  Rh7  1  0.333333  0.666667  0.000000  1
  Au  Au8  1  0.666667  0.333333  0.000000  1
