# generated using pymatgen
data_YErSi2(Tc2C)2
_symmetry_space_group_name_H-M   'P 1'
_cell_length_a   5.82328938
_cell_length_b   5.82328995
_cell_length_c   7.24760400
_cell_angle_alpha   90.00000000
_cell_angle_beta   90.00000000
_cell_angle_gamma   140.81642821
_symmetry_Int_Tables_number   1
_chemical_formula_structural   YErSi2(Tc2C)2
_chemical_formula_sum   'Y1 Er1 Si2 Tc4 C2'
_cell_volume   155.28007444
_cell_formula_units_Z   1
loop_
 _symmetry_equiv_pos_site_id
 _symmetry_equiv_pos_as_xyz
  1  'x, y, z'
loop_
 _atom_site_type_symbol
 _atom_site_label
 _atom_site_symmetry_multiplicity
 _atom_site_fract_x
 _atom_site_fract_y
 _atom_site_fract_z
 _atom_site_occupancy
  Y  Y0  1  0.455761  0.544239  0.750000  1
  Er  Er1  1  0.544023  0.455977  0.250000  1
  Si  Si2  1  0.267612  0.732388  0.250000  1
  Si  Si3  1  0.732253  0.267747  0.750000  1
  Tc  Tc4  1  0.828749  0.171251  0.061258  1
  Tc  Tc5  1  0.171145  0.828855  0.940766  1
  Tc  Tc6  1  0.171145  0.828855  0.559234  1
  Tc  Tc7  1  0.828749  0.171251  0.438742  1
  C  C8  1  0.000282  0.999718  0.002576  1
  C  C9  1  0.000282  0.999718  0.497424  1
