# generated using pymatgen
data_Na5Ti3(Cu4P3)4
_symmetry_space_group_name_H-M   'P 1'
_cell_length_a   12.60834500
_cell_length_b   12.60834569
_cell_length_c   3.79648500
_cell_angle_alpha   90.00000000
_cell_angle_beta   90.00000000
_cell_angle_gamma   120.00000606
_symmetry_Int_Tables_number   1
_chemical_formula_structural   Na5Ti3(Cu4P3)4
_chemical_formula_sum   'Na5 Ti3 Cu16 P12'
_cell_volume   522.67109704
_cell_formula_units_Z   1
loop_
 _symmetry_equiv_pos_site_id
 _symmetry_equiv_pos_as_xyz
  1  'x, y, z'
loop_
 _atom_site_type_symbol
 _atom_site_label
 _atom_site_symmetry_multiplicity
 _atom_site_fract_x
 _atom_site_fract_y
 _atom_site_fract_z
 _atom_site_occupancy
  Na  Na0  1  0.185069  0.185069  0.500000  1
  Na  Na1  1  0.814931  0.000000  0.500000  1
  Na  Na2  1  0.000000  0.814931  0.500000  1
  Na  Na3  1  0.333333  0.666667  0.000000  1
  Na  Na4  1  0.666667  0.333333  0.000000  1
  Ti  Ti5  1  0.564755  0.564755  0.000000  1
  Ti  Ti6  1  0.435245  0.000000  0.000000  1
  Ti  Ti7  1  0.000000  0.435245  0.000000  1
  Cu  Cu8  1  0.723357  0.723357  0.500000  1
  Cu  Cu9  1  0.276643  0.000000  0.500000  1
  Cu  Cu10  1  0.000000  0.276643  0.500000  1
  Cu  Cu11  1  0.183666  0.373321  0.000000  1
  Cu  Cu12  1  0.626679  0.810344  0.000000  1
  Cu  Cu13  1  0.189656  0.816334  0.000000  1
  Cu  Cu14  1  0.810344  0.626679  0.000000  1
  Cu  Cu15  1  0.816334  0.189656  0.000000  1
  Cu  Cu16  1  0.373321  0.183666  0.000000  1
  Cu  Cu17  1  0.357651  0.482762  0.500000  1
  Cu  Cu18  1  0.517238  0.874891  0.500000  1
  Cu  Cu19  1  0.125109  0.642349  0.500000  1
  Cu  Cu20  1  0.874891  0.517238  0.500000  1
  Cu  Cu21  1  0.642349  0.125109  0.500000  1
  Cu  Cu22  1  0.482762  0.357651  0.500000  1
  Cu  Cu23  1  0.000000  0.000000  0.000000  1
  P  P24  1  0.823376  0.823376  0.000000  1
  P  P25  1  0.176624  0.000000  0.000000  1
  P  P26  1  0.000000  0.176624  0.000000  1
  P  P27  1  0.164067  0.481960  0.500000  1
  P  P28  1  0.518040  0.682107  0.500000  1
  P  P29  1  0.317893  0.835933  0.500000  1
  P  P30  1  0.682107  0.518040  0.500000  1
  P  P31  1  0.835933  0.317893  0.500000  1
  P  P32  1  0.481960  0.164067  0.500000  1
  P  P33  1  0.368763  0.368763  0.000000  1
  P  P34  1  0.631237  0.000000  0.000000  1
  P  P35  1  0.000000  0.631237  0.000000  1
