# generated using pymatgen
data_Dy14Er2ZnIn3Rh4
_symmetry_space_group_name_H-M   'P 1'
_cell_length_a   9.60822552
_cell_length_b   9.61746281
_cell_length_c   9.60502368
_cell_angle_alpha   59.95715390
_cell_angle_beta   59.99991256
_cell_angle_gamma   59.96818534
_symmetry_Int_Tables_number   1
_chemical_formula_structural   Dy14Er2ZnIn3Rh4
_chemical_formula_sum   'Dy14 Er2 Zn1 In3 Rh4'
_cell_volume   627.25130082
_cell_formula_units_Z   1
loop_
 _symmetry_equiv_pos_site_id
 _symmetry_equiv_pos_as_xyz
  1  'x, y, z'
loop_
 _atom_site_type_symbol
 _atom_site_label
 _atom_site_symmetry_multiplicity
 _atom_site_fract_x
 _atom_site_fract_y
 _atom_site_fract_z
 _atom_site_occupancy
  Dy  Dy0  1  0.311569  0.688986  0.310459  1
  Dy  Dy1  1  0.936285  0.937364  0.557123  1
  Dy  Dy2  1  0.148461  0.150454  0.550630  1
  Dy  Dy3  1  0.567551  0.938075  0.556297  1
  Dy  Dy4  1  0.148290  0.150864  0.150201  1
  Dy  Dy5  1  0.311483  0.308846  0.690330  1
  Dy  Dy6  1  0.936285  0.569226  0.557123  1
  Dy  Dy7  1  0.563108  0.563052  0.935968  1
  Dy  Dy8  1  0.563108  0.937871  0.935968  1
  Dy  Dy9  1  0.936737  0.563990  0.935282  1
  Dy  Dy10  1  0.148290  0.550643  0.150201  1
  Dy  Dy11  1  0.311483  0.689342  0.690330  1
  Dy  Dy12  1  0.689858  0.310398  0.689347  1
  Dy  Dy13  1  0.553696  0.148678  0.148946  1
  Er  Er14  1  0.689726  0.310057  0.311789  1
  Er  Er15  1  0.689726  0.688428  0.311789  1
  Zn  Zn16  1  0.916813  0.916070  0.251047  1
  In  In17  1  0.243805  0.916765  0.922665  1
  In  In18  1  0.917195  0.244147  0.922203  1
  In  In19  1  0.917195  0.916456  0.922203  1
  Rh  Rh20  1  0.358170  0.357163  0.357137  1
  Rh  Rh21  1  0.926005  0.358478  0.357041  1
  Rh  Rh22  1  0.356987  0.357114  0.928785  1
  Rh  Rh23  1  0.358170  0.927531  0.357137  1
