# generated using pymatgen
data_HoLu(AgSb2)2
_symmetry_space_group_name_H-M   'P 1'
_cell_length_a   4.36051000
_cell_length_b   4.36051000
_cell_length_c   10.26203100
_cell_angle_alpha   90.00000000
_cell_angle_beta   90.00000000
_cell_angle_gamma   90.00000000
_symmetry_Int_Tables_number   1
_chemical_formula_structural   HoLu(AgSb2)2
_chemical_formula_sum   'Ho1 Lu1 Ag2 Sb4'
_cell_volume   195.12274447
_cell_formula_units_Z   1
loop_
 _symmetry_equiv_pos_site_id
 _symmetry_equiv_pos_as_xyz
  1  'x, y, z'
loop_
 _atom_site_type_symbol
 _atom_site_label
 _atom_site_symmetry_multiplicity
 _atom_site_fract_x
 _atom_site_fract_y
 _atom_site_fract_z
 _atom_site_occupancy
  Ho  Ho0  1  0.500000  0.000000  0.233413  1
  Lu  Lu1  1  0.000000  0.500000  0.765252  1
  Ag  Ag2  1  0.500000  0.500000  0.502390  1
  Ag  Ag3  1  0.000000  0.000000  0.502390  1
  Sb  Sb4  1  0.500000  0.500000  0.996635  1
  Sb  Sb5  1  0.000000  0.000000  0.996635  1
  Sb  Sb6  1  0.000000  0.500000  0.313080  1
  Sb  Sb7  1  0.500000  0.000000  0.690204  1
