# generated using pymatgen
data_Ho8Ga12CoAu3
_symmetry_space_group_name_H-M   'P 1'
_cell_length_a   7.14194000
_cell_length_b   8.85256323
_cell_length_c   8.85256300
_cell_angle_alpha   119.99999541
_cell_angle_beta   90.00000000
_cell_angle_gamma   90.00000000
_symmetry_Int_Tables_number   1
_chemical_formula_structural   Ho8Ga12CoAu3
_chemical_formula_sum   'Ho8 Ga12 Co1 Au3'
_cell_volume   484.71327343
_cell_formula_units_Z   1
loop_
 _symmetry_equiv_pos_site_id
 _symmetry_equiv_pos_as_xyz
  1  'x, y, z'
loop_
 _atom_site_type_symbol
 _atom_site_label
 _atom_site_symmetry_multiplicity
 _atom_site_fract_x
 _atom_site_fract_y
 _atom_site_fract_z
 _atom_site_occupancy
  Ho  Ho0  1  0.738965  0.000000  0.000000  1
  Ho  Ho1  1  0.250960  0.000000  0.000000  1
  Ho  Ho2  1  0.749531  0.486142  0.513858  1
  Ho  Ho3  1  0.258156  0.522706  0.477294  1
  Ho  Ho4  1  0.749531  0.027716  0.513858  1
  Ho  Ho5  1  0.258156  0.954589  0.477294  1
  Ho  Ho6  1  0.749531  0.486142  0.972284  1
  Ho  Ho7  1  0.258156  0.522706  0.045411  1
  Ga  Ga8  1  0.955456  0.837532  0.162468  1
  Ga  Ga9  1  0.048319  0.164932  0.835068  1
  Ga  Ga10  1  0.955456  0.324938  0.162468  1
  Ga  Ga11  1  0.459536  0.163302  0.836698  1
  Ga  Ga12  1  0.048319  0.670135  0.835068  1
  Ga  Ga13  1  0.541262  0.826055  0.173945  1
  Ga  Ga14  1  0.955456  0.837532  0.675062  1
  Ga  Ga15  1  0.459536  0.673396  0.836698  1
  Ga  Ga16  1  0.048319  0.164932  0.329865  1
  Ga  Ga17  1  0.541262  0.347891  0.173945  1
  Ga  Ga18  1  0.459536  0.163302  0.326604  1
  Ga  Ga19  1  0.541262  0.826055  0.652109  1
  Co  Co20  1  0.514894  0.666667  0.333333  1
  Au  Au21  1  0.954330  0.666667  0.333333  1
  Au  Au22  1  0.032476  0.333333  0.666667  1
  Au  Au23  1  0.471601  0.333333  0.666667  1
