# generated using pymatgen
data_Lu5ZnIn4Ru
_symmetry_space_group_name_H-M   'P 1'
_cell_length_a   3.55427900
_cell_length_b   8.03797578
_cell_length_c   18.05104626
_cell_angle_alpha   90.45172472
_cell_angle_beta   90.00000000
_cell_angle_gamma   90.00000000
_symmetry_Int_Tables_number   1
_chemical_formula_structural   Lu5ZnIn4Ru
_chemical_formula_sum   'Lu10 Zn2 In8 Ru2'
_cell_volume   515.68807720
_cell_formula_units_Z   2
loop_
 _symmetry_equiv_pos_site_id
 _symmetry_equiv_pos_as_xyz
  1  'x, y, z'
loop_
 _atom_site_type_symbol
 _atom_site_label
 _atom_site_symmetry_multiplicity
 _atom_site_fract_x
 _atom_site_fract_y
 _atom_site_fract_z
 _atom_site_occupancy
  Lu  Lu0  1  0.000000  0.117912  0.414451  1
  Lu  Lu1  1  0.000000  0.882088  0.585549  1
  Lu  Lu2  1  0.000000  0.379280  0.919133  1
  Lu  Lu3  1  0.000000  0.620720  0.080867  1
  Lu  Lu4  1  0.000000  0.219289  0.222447  1
  Lu  Lu5  1  0.000000  0.780711  0.777553  1
  Lu  Lu6  1  0.000000  0.233157  0.718302  1
  Lu  Lu7  1  0.000000  0.766843  0.281698  1
  Lu  Lu8  1  0.000000  0.000000  0.000000  1
  Lu  Lu9  1  0.000000  0.500000  0.500000  1
  Zn  Zn10  1  0.500000  0.477521  0.800083  1
  Zn  Zn11  1  0.500000  0.522479  0.199917  1
  In  In12  1  0.500000  0.421915  0.350327  1
  In  In13  1  0.500000  0.578085  0.649673  1
  In  In14  1  0.500000  0.077143  0.852104  1
  In  In15  1  0.500000  0.922857  0.147896  1
  In  In16  1  0.500000  0.291844  0.068340  1
  In  In17  1  0.500000  0.708156  0.931660  1
  In  In18  1  0.500000  0.206232  0.567789  1
  In  In19  1  0.500000  0.793768  0.432211  1
  Ru  Ru20  1  0.500000  0.028011  0.304744  1
  Ru  Ru21  1  0.500000  0.971989  0.695256  1
