# generated using pymatgen
data_YHoMn2(Co4P3)2
_symmetry_space_group_name_H-M   'P 1'
_cell_length_a   3.64882000
_cell_length_b   10.31740145
_cell_length_c   11.80803152
_cell_angle_alpha   90.03390881
_cell_angle_beta   90.00000000
_cell_angle_gamma   90.00000000
_symmetry_Int_Tables_number   1
_chemical_formula_structural   YHoMn2(Co4P3)2
_chemical_formula_sum   'Y2 Ho2 Mn4 Co16 P12'
_cell_volume   444.52910040
_cell_formula_units_Z   2
loop_
 _symmetry_equiv_pos_site_id
 _symmetry_equiv_pos_as_xyz
  1  'x, y, z'
loop_
 _atom_site_type_symbol
 _atom_site_label
 _atom_site_symmetry_multiplicity
 _atom_site_fract_x
 _atom_site_fract_y
 _atom_site_fract_z
 _atom_site_occupancy
  Y  Y0  1  0.750000  0.417839  0.296006  1
  Y  Y1  1  0.250000  0.582161  0.703994  1
  Ho  Ho2  1  0.250000  0.918372  0.204161  1
  Ho  Ho3  1  0.750000  0.081628  0.795839  1
  Mn  Mn4  1  0.250000  0.790098  0.488845  1
  Mn  Mn5  1  0.750000  0.209902  0.511155  1
  Mn  Mn6  1  0.750000  0.291460  0.010839  1
  Mn  Mn7  1  0.250000  0.708540  0.989161  1
  Co  Co8  1  0.250000  0.093451  0.987402  1
  Co  Co9  1  0.750000  0.906549  0.012598  1
  Co  Co10  1  0.750000  0.593728  0.511644  1
  Co  Co11  1  0.250000  0.406272  0.488356  1
  Co  Co12  1  0.250000  0.278252  0.676291  1
  Co  Co13  1  0.750000  0.721748  0.323709  1
  Co  Co14  1  0.750000  0.779148  0.823339  1
  Co  Co15  1  0.250000  0.220852  0.176661  1
  Co  Co16  1  0.250000  0.617561  0.198995  1
  Co  Co17  1  0.750000  0.382439  0.801005  1
  Co  Co18  1  0.750000  0.115931  0.300753  1
  Co  Co19  1  0.250000  0.884069  0.699247  1
  Co  Co20  1  0.250000  0.033952  0.432410  1
  Co  Co21  1  0.750000  0.966048  0.567590  1
  Co  Co22  1  0.750000  0.534942  0.067426  1
  Co  Co23  1  0.250000  0.465058  0.932574  1
  P  P24  1  0.250000  0.080772  0.612638  1
  P  P25  1  0.750000  0.919228  0.387362  1
  P  P26  1  0.750000  0.580433  0.887059  1
  P  P27  1  0.250000  0.419567  0.112941  1
  P  P28  1  0.250000  0.229752  0.368220  1
  P  P29  1  0.750000  0.770248  0.631780  1
  P  P30  1  0.750000  0.731056  0.132970  1
  P  P31  1  0.250000  0.268944  0.867030  1
  P  P32  1  0.250000  0.900538  0.891099  1
  P  P33  1  0.750000  0.099462  0.108901  1
  P  P34  1  0.750000  0.398747  0.608147  1
  P  P35  1  0.250000  0.601253  0.391853  1
