# generated using pymatgen
data_Nd3Er(SeO3)6
_symmetry_space_group_name_H-M   'P 1'
_cell_length_a   7.28381392
_cell_length_b   8.33379357
_cell_length_c   9.25808190
_cell_angle_alpha   70.87109160
_cell_angle_beta   70.08691134
_cell_angle_gamma   66.18613103
_symmetry_Int_Tables_number   1
_chemical_formula_structural   Nd3Er(SeO3)6
_chemical_formula_sum   'Nd3 Er1 Se6 O18'
_cell_volume   471.43367680
_cell_formula_units_Z   1
loop_
 _symmetry_equiv_pos_site_id
 _symmetry_equiv_pos_as_xyz
  1  'x, y, z'
loop_
 _atom_site_type_symbol
 _atom_site_label
 _atom_site_symmetry_multiplicity
 _atom_site_fract_x
 _atom_site_fract_y
 _atom_site_fract_z
 _atom_site_occupancy
  Nd  Nd0  1  0.331586  0.733985  0.588838  1
  Nd  Nd1  1  0.663805  0.273160  0.409451  1
  Nd  Nd2  1  0.741217  0.733059  0.801742  1
  Er  Er3  1  0.259195  0.262043  0.198775  1
  Se  Se4  1  0.424386  0.783529  0.196798  1
  Se  Se5  1  0.571373  0.227083  0.804353  1
  Se  Se6  1  0.151816  0.741030  0.970475  1
  Se  Se7  1  0.850973  0.243297  0.038952  1
  Se  Se8  1  0.888499  0.759458  0.414083  1
  Se  Se9  1  0.113222  0.244651  0.576678  1
  O  O10  1  0.644681  0.796304  0.057342  1
  O  O11  1  0.357585  0.210493  0.952418  1
  O  O12  1  0.357213  0.950443  0.298374  1
  O  O13  1  0.631919  0.063322  0.701383  1
  O  O14  1  0.509557  0.603497  0.347483  1
  O  O15  1  0.480990  0.406261  0.654627  1
  O  O16  1  0.175451  0.555332  0.119835  1
  O  O17  1  0.835148  0.421946  0.882912  1
  O  O18  1  0.402981  0.710394  0.853963  1
  O  O19  1  0.595515  0.286279  0.151396  1
  O  O20  1  0.340415  0.248425  0.430375  1
  O  O21  1  0.660867  0.749797  0.557670  1
  O  O22  1  0.975124  0.290817  0.437409  1
  O  O23  1  0.030854  0.707887  0.552174  1
  O  O24  1  0.151934  0.023351  0.655893  1
  O  O25  1  0.846092  0.981743  0.344048  1
  O  O26  1  0.940729  0.298389  0.163066  1
  O  O27  1  0.066873  0.694024  0.839486  1
