# generated using pymatgen
data_Zr3GaSiPRu3
_symmetry_space_group_name_H-M   'P 1'
_cell_length_a   6.73969000
_cell_length_b   6.73969108
_cell_length_c   3.70052200
_cell_angle_alpha   90.00000000
_cell_angle_beta   90.00000000
_cell_angle_gamma   119.99999470
_symmetry_Int_Tables_number   1
_chemical_formula_structural   Zr3GaSiPRu3
_chemical_formula_sum   'Zr3 Ga1 Si1 P1 Ru3'
_cell_volume   145.57056148
_cell_formula_units_Z   1
loop_
 _symmetry_equiv_pos_site_id
 _symmetry_equiv_pos_as_xyz
  1  'x, y, z'
loop_
 _atom_site_type_symbol
 _atom_site_label
 _atom_site_symmetry_multiplicity
 _atom_site_fract_x
 _atom_site_fract_y
 _atom_site_fract_z
 _atom_site_occupancy
  Zr  Zr0  1  0.409429  0.418031  0.500000  1
  Zr  Zr1  1  0.581969  0.991399  0.500000  1
  Zr  Zr2  1  0.008601  0.590571  0.500000  1
  Ga  Ga3  1  0.666667  0.333333  0.000000  1
  Si  Si4  1  0.000000  0.000000  0.500000  1
  P  P5  1  0.333333  0.666667  0.000000  1
  Ru  Ru6  1  0.013963  0.250657  0.000000  1
  Ru  Ru7  1  0.236693  0.986037  0.000000  1
  Ru  Ru8  1  0.749343  0.763307  0.000000  1
