# generated using pymatgen
data_PrAlGaCu
_symmetry_space_group_name_H-M   'P 1'
_cell_length_a   9.17351725
_cell_length_b   9.17351809
_cell_length_c   4.21687800
_cell_angle_alpha   90.00000000
_cell_angle_beta   90.00000000
_cell_angle_gamma   152.99853591
_symmetry_Int_Tables_number   1
_chemical_formula_structural   PrAlGaCu
_chemical_formula_sum   'Pr2 Al2 Ga2 Cu2'
_cell_volume   161.11329677
_cell_formula_units_Z   2
loop_
 _symmetry_equiv_pos_site_id
 _symmetry_equiv_pos_as_xyz
  1  'x, y, z'
loop_
 _atom_site_type_symbol
 _atom_site_label
 _atom_site_symmetry_multiplicity
 _atom_site_fract_x
 _atom_site_fract_y
 _atom_site_fract_z
 _atom_site_occupancy
  Pr  Pr0  1  0.893602  0.106398  0.750000  1
  Pr  Pr1  1  0.106398  0.893602  0.250000  1
  Al  Al2  1  0.248932  0.751068  0.750000  1
  Al  Al3  1  0.751068  0.248932  0.250000  1
  Ga  Ga4  1  0.538000  0.462000  0.750000  1
  Ga  Ga5  1  0.462000  0.538000  0.250000  1
  Cu  Cu6  1  0.674247  0.325753  0.750000  1
  Cu  Cu7  1  0.325753  0.674247  0.250000  1
