# generated using pymatgen
data_Ba3Dy2Lu2O9
_symmetry_space_group_name_H-M   'P 1'
_cell_length_a   6.09387443
_cell_length_b   6.09387400
_cell_length_c   9.10323706
_cell_angle_alpha   109.55484738
_cell_angle_beta   70.44514720
_cell_angle_gamma   119.99999830
_symmetry_Int_Tables_number   1
_chemical_formula_structural   Ba3Dy2Lu2O9
_chemical_formula_sum   'Ba3 Dy2 Lu2 O9'
_cell_volume   270.01189337
_cell_formula_units_Z   1
loop_
 _symmetry_equiv_pos_site_id
 _symmetry_equiv_pos_as_xyz
  1  'x, y, z'
loop_
 _atom_site_type_symbol
 _atom_site_label
 _atom_site_symmetry_multiplicity
 _atom_site_fract_x
 _atom_site_fract_y
 _atom_site_fract_z
 _atom_site_occupancy
  Ba  Ba0  1  0.994659  0.005341  0.016021  1
  Ba  Ba1  1  0.828585  0.171414  0.514244  1
  Ba  Ba2  1  0.411678  0.588320  0.764962  1
  Dy  Dy3  1  0.255190  0.744810  0.234429  1
  Dy  Dy4  1  0.568111  0.431888  0.295666  1
  Lu  Lu5  1  0.129247  0.870753  0.612259  1
  Lu  Lu6  1  0.694074  0.305926  0.917777  1
  O  O7  1  0.523619  0.046238  0.092083  1
  O  O8  1  0.430536  0.476382  0.092083  1
  O  O9  1  0.953761  0.569463  0.092083  1
  O  O10  1  0.397266  0.130396  0.437969  1
  O  O11  1  0.295162  0.602734  0.437969  1
  O  O12  1  0.869604  0.704837  0.437969  1
  O  O13  1  0.411316  0.039592  0.765195  1
  O  O14  1  0.960408  0.136918  0.765195  1
  O  O15  1  0.863083  0.588685  0.765195  1
