# generated using pymatgen
data_Eu2Sn3SbRh4
_symmetry_space_group_name_H-M   'P 1'
_cell_length_a   4.51553700
_cell_length_b   4.51553700
_cell_length_c   11.06808700
_cell_angle_alpha   90.00000000
_cell_angle_beta   90.00000000
_cell_angle_gamma   90.00000000
_symmetry_Int_Tables_number   1
_chemical_formula_structural   Eu2Sn3SbRh4
_chemical_formula_sum   'Eu2 Sn3 Sb1 Rh4'
_cell_volume   225.67911738
_cell_formula_units_Z   1
loop_
 _symmetry_equiv_pos_site_id
 _symmetry_equiv_pos_as_xyz
  1  'x, y, z'
loop_
 _atom_site_type_symbol
 _atom_site_label
 _atom_site_symmetry_multiplicity
 _atom_site_fract_x
 _atom_site_fract_y
 _atom_site_fract_z
 _atom_site_occupancy
  Eu  Eu0  1  0.000000  0.500001  0.248807  1
  Eu  Eu1  1  0.500001  0.000000  0.752477  1
  Sn  Sn2  1  0.500001  0.000000  0.127992  1
  Sn  Sn3  1  0.000000  0.000000  0.501204  1
  Sn  Sn4  1  0.500001  0.500001  0.501204  1
  Sb  Sb5  1  0.000000  0.500001  0.871470  1
  Rh  Rh6  1  0.000000  0.000000  0.997388  1
  Rh  Rh7  1  0.500001  0.500001  0.997388  1
  Rh  Rh8  1  0.500001  0.000000  0.368124  1
  Rh  Rh9  1  0.000000  0.500001  0.633947  1
