# generated using pymatgen
data_CaLa(Co3Si2)2
_symmetry_space_group_name_H-M   'P 1'
_cell_length_a   5.34628328
_cell_length_b   6.34000694
_cell_length_c   6.34000623
_cell_angle_alpha   65.06540155
_cell_angle_beta   65.06241985
_cell_angle_gamma   65.06241520
_symmetry_Int_Tables_number   1
_chemical_formula_structural   CaLa(Co3Si2)2
_chemical_formula_sum   'Ca1 La1 Co6 Si4'
_cell_volume   168.74783051
_cell_formula_units_Z   1
loop_
 _symmetry_equiv_pos_site_id
 _symmetry_equiv_pos_as_xyz
  1  'x, y, z'
loop_
 _atom_site_type_symbol
 _atom_site_label
 _atom_site_symmetry_multiplicity
 _atom_site_fract_x
 _atom_site_fract_y
 _atom_site_fract_z
 _atom_site_occupancy
  Ca  Ca0  1  0.533795  0.750000  0.750000  1
  La  La1  1  0.465895  0.250000  0.250000  1
  Co  Co2  1  0.500994  0.219183  0.779854  1
  Co  Co3  1  0.000032  0.720146  0.280817  1
  Co  Co4  1  0.500994  0.779854  0.219183  1
  Co  Co5  1  0.000032  0.280817  0.720146  1
  Co  Co6  1  0.000902  0.491160  0.008840  1
  Co  Co7  1  0.000902  0.008840  0.491160  1
  Si  Si8  1  0.209638  0.587210  0.587210  1
  Si  Si9  1  0.773488  0.427891  0.427891  1
  Si  Si10  1  0.129268  0.072109  0.072109  1
  Si  Si11  1  0.884060  0.912790  0.912790  1
