# generated using pymatgen
data_Zr3Pa(InCo2)2
_symmetry_space_group_name_H-M   'P 1'
_cell_length_a   7.26110555
_cell_length_b   7.26110555
_cell_length_c   3.37826100
_cell_angle_alpha   90.00000000
_cell_angle_beta   90.00000000
_cell_angle_gamma   92.61982483
_symmetry_Int_Tables_number   1
_chemical_formula_structural   Zr3Pa(InCo2)2
_chemical_formula_sum   'Zr3 Pa1 In2 Co4'
_cell_volume   177.92810088
_cell_formula_units_Z   1
loop_
 _symmetry_equiv_pos_site_id
 _symmetry_equiv_pos_as_xyz
  1  'x, y, z'
loop_
 _atom_site_type_symbol
 _atom_site_label
 _atom_site_symmetry_multiplicity
 _atom_site_fract_x
 _atom_site_fract_y
 _atom_site_fract_z
 _atom_site_occupancy
  Zr  Zr0  1  0.171602  0.337160  0.500000  1
  Zr  Zr1  1  0.837160  0.671602  0.500000  1
  Zr  Zr2  1  0.327761  0.827761  0.500000  1
  Pa  Pa3  1  0.668342  0.168342  0.500000  1
  In  In4  1  0.014055  0.995859  0.000000  1
  In  In5  1  0.495859  0.514055  0.000000  1
  Co  Co6  1  0.385414  0.132572  0.000000  1
  Co  Co7  1  0.113374  0.613374  0.000000  1
  Co  Co8  1  0.632572  0.885414  0.000000  1
  Co  Co9  1  0.853861  0.353861  0.000000  1
