# generated using pymatgen
data_La13PrIr5Pd
_symmetry_space_group_name_H-M   'P 1'
_cell_length_a   10.25805000
_cell_length_b   10.23898483
_cell_length_c   6.57607458
_cell_angle_alpha   90.05432086
_cell_angle_beta   90.00000000
_cell_angle_gamma   120.06161419
_symmetry_Int_Tables_number   1
_chemical_formula_structural   La13PrIr5Pd
_chemical_formula_sum   'La13 Pr1 Ir5 Pd1'
_cell_volume   597.79026598
_cell_formula_units_Z   1
loop_
 _symmetry_equiv_pos_site_id
 _symmetry_equiv_pos_as_xyz
  1  'x, y, z'
loop_
 _atom_site_type_symbol
 _atom_site_label
 _atom_site_symmetry_multiplicity
 _atom_site_fract_x
 _atom_site_fract_y
 _atom_site_fract_z
 _atom_site_occupancy
  La  La0  1  0.666552  0.333104  0.973548  1
  La  La1  1  0.125642  0.874408  0.245406  1
  La  La2  1  0.748766  0.874408  0.245406  1
  La  La3  1  0.124543  0.249086  0.236214  1
  La  La4  1  0.865067  0.119743  0.747080  1
  La  La5  1  0.254676  0.119743  0.747080  1
  La  La6  1  0.875237  0.750473  0.745141  1
  La  La7  1  0.539700  0.462697  0.434827  1
  La  La8  1  0.922997  0.462697  0.434827  1
  La  La9  1  0.538917  0.077832  0.431000  1
  La  La10  1  0.468965  0.542822  0.938813  1
  La  La11  1  0.073857  0.542822  0.938813  1
  La  La12  1  0.460213  0.920425  0.934161  1
  Pr  Pr13  1  0.335897  0.671796  0.464844  1
  Ir  Ir14  1  0.815043  0.189244  0.193786  1
  Ir  Ir15  1  0.374200  0.189244  0.193786  1
  Ir  Ir16  1  0.812003  0.624007  0.193303  1
  Ir  Ir17  1  0.185660  0.810366  0.696859  1
  Ir  Ir18  1  0.624705  0.810366  0.696859  1
  Pd  Pd19  1  0.187360  0.374718  0.694035  1
