# generated using pymatgen
data_DyBi(PS4)2
_symmetry_space_group_name_H-M   'P 1'
_cell_length_a   6.66089100
_cell_length_b   8.96229933
_cell_length_c   12.86492796
_cell_angle_alpha   59.40608045
_cell_angle_beta   90.00000000
_cell_angle_gamma   90.00000000
_symmetry_Int_Tables_number   1
_chemical_formula_structural   DyBi(PS4)2
_chemical_formula_sum   'Dy2 Bi2 P4 S16'
_cell_volume   661.08818074
_cell_formula_units_Z   2
loop_
 _symmetry_equiv_pos_site_id
 _symmetry_equiv_pos_as_xyz
  1  'x, y, z'
loop_
 _atom_site_type_symbol
 _atom_site_label
 _atom_site_symmetry_multiplicity
 _atom_site_fract_x
 _atom_site_fract_y
 _atom_site_fract_z
 _atom_site_occupancy
  Dy  Dy0  1  0.681402  0.448355  0.163563  1
  Dy  Dy1  1  0.181402  0.551645  0.336436  1
  Bi  Bi2  1  0.327170  0.567249  0.831834  1
  Bi  Bi3  1  0.827170  0.432751  0.668166  1
  P  P4  1  0.230642  0.684344  0.043943  1
  P  P5  1  0.730642  0.315656  0.456057  1
  P  P6  1  0.766353  0.311748  0.963479  1
  P  P7  1  0.266353  0.688252  0.536521  1
  S  S8  1  0.237098  0.428263  0.585619  1
  S  S9  1  0.737098  0.571737  0.914381  1
  S  S10  1  0.773103  0.572199  0.408771  1
  S  S11  1  0.273103  0.427801  0.091229  1
  S  S12  1  0.253293  0.837510  0.356026  1
  S  S13  1  0.753293  0.162490  0.143974  1
  S  S14  1  0.742093  0.154879  0.636951  1
  S  S15  1  0.242093  0.845121  0.863049  1
  S  S16  1  0.528939  0.725761  0.606829  1
  S  S17  1  0.028939  0.274239  0.893171  1
  S  S18  1  0.465967  0.286416  0.383472  1
  S  S19  1  0.965967  0.713584  0.116528  1
  S  S20  1  0.047098  0.741350  0.626684  1
  S  S21  1  0.547098  0.258650  0.873316  1
  S  S22  1  0.946839  0.265322  0.363059  1
  S  S23  1  0.446839  0.734678  0.136941  1
