# generated using pymatgen
data_Tb10Nd6MgCd3Ir4
_symmetry_space_group_name_H-M   'P 1'
_cell_length_a   9.79577459
_cell_length_b   9.79577445
_cell_length_c   9.79577353
_cell_angle_alpha   59.93277167
_cell_angle_beta   59.93277193
_cell_angle_gamma   59.93277734
_symmetry_Int_Tables_number   1
_chemical_formula_structural   Tb10Nd6MgCd3Ir4
_chemical_formula_sum   'Tb10 Nd6 Mg1 Cd3 Ir4'
_cell_volume   663.64918628
_cell_formula_units_Z   1
loop_
 _symmetry_equiv_pos_site_id
 _symmetry_equiv_pos_as_xyz
  1  'x, y, z'
loop_
 _atom_site_type_symbol
 _atom_site_label
 _atom_site_symmetry_multiplicity
 _atom_site_fract_x
 _atom_site_fract_y
 _atom_site_fract_z
 _atom_site_occupancy
  Tb  Tb0  1  0.347544  0.347544  0.347544  1
  Tb  Tb1  1  0.347652  0.347652  0.958244  1
  Tb  Tb2  1  0.347652  0.958244  0.347652  1
  Tb  Tb3  1  0.958244  0.347652  0.347652  1
  Tb  Tb4  1  0.810730  0.188638  0.188638  1
  Tb  Tb5  1  0.185797  0.812788  0.812788  1
  Tb  Tb6  1  0.188638  0.810730  0.188638  1
  Tb  Tb7  1  0.812788  0.185797  0.812788  1
  Tb  Tb8  1  0.188638  0.188638  0.810730  1
  Tb  Tb9  1  0.812788  0.812788  0.185797  1
  Nd  Nd10  1  0.940831  0.559900  0.559900  1
  Nd  Nd11  1  0.558120  0.941423  0.941423  1
  Nd  Nd12  1  0.559900  0.940831  0.559900  1
  Nd  Nd13  1  0.941423  0.558120  0.941423  1
  Nd  Nd14  1  0.559900  0.559900  0.940831  1
  Nd  Nd15  1  0.941423  0.941423  0.558120  1
  Mg  Mg16  1  0.575594  0.575594  0.575594  1
  Cd  Cd17  1  0.580249  0.580249  0.259542  1
  Cd  Cd18  1  0.580249  0.259542  0.580249  1
  Cd  Cd19  1  0.259542  0.580249  0.580249  1
  Ir  Ir20  1  0.141413  0.141413  0.141413  1
  Ir  Ir21  1  0.142423  0.142423  0.576039  1
  Ir  Ir22  1  0.142423  0.576039  0.142423  1
  Ir  Ir23  1  0.576039  0.142423  0.142423  1
