# generated using pymatgen
data_Lu8B24MoOs2Ru
_symmetry_space_group_name_H-M   'P 1'
_cell_length_a   3.59571100
_cell_length_b   9.06268903
_cell_length_c   11.43354325
_cell_angle_alpha   90.06004182
_cell_angle_beta   90.00000000
_cell_angle_gamma   90.00000000
_symmetry_Int_Tables_number   1
_chemical_formula_structural   Lu8B24MoOs2Ru
_chemical_formula_sum   'Lu8 B24 Mo1 Os2 Ru1'
_cell_volume   372.58250411
_cell_formula_units_Z   1
loop_
 _symmetry_equiv_pos_site_id
 _symmetry_equiv_pos_as_xyz
  1  'x, y, z'
loop_
 _atom_site_type_symbol
 _atom_site_label
 _atom_site_symmetry_multiplicity
 _atom_site_fract_x
 _atom_site_fract_y
 _atom_site_fract_z
 _atom_site_occupancy
  Lu  Lu0  1  0.000000  0.319706  0.412490  1
  Lu  Lu1  1  0.000000  0.678379  0.585232  1
  Lu  Lu2  1  0.000000  0.821454  0.086911  1
  Lu  Lu3  1  0.000000  0.178182  0.915256  1
  Lu  Lu4  1  0.000000  0.943585  0.373302  1
  Lu  Lu5  1  0.000000  0.056414  0.628656  1
  Lu  Lu6  1  0.000000  0.444970  0.126929  1
  Lu  Lu7  1  0.000000  0.557988  0.871914  1
  B  B8  1  0.500000  0.553251  0.433760  1
  B  B9  1  0.500000  0.446777  0.566319  1
  B  B10  1  0.500000  0.050749  0.063754  1
  B  B11  1  0.500000  0.946241  0.932523  1
  B  B12  1  0.500000  0.749318  0.420107  1
  B  B13  1  0.500000  0.250549  0.580370  1
  B  B14  1  0.500000  0.251468  0.077613  1
  B  B15  1  0.500000  0.751428  0.919888  1
  B  B16  1  0.500000  0.791396  0.266380  1
  B  B17  1  0.500000  0.208212  0.734708  1
  B  B18  1  0.500000  0.295105  0.235792  1
  B  B19  1  0.500000  0.708055  0.765293  1
  B  B20  1  0.500000  0.630866  0.185198  1
  B  B21  1  0.500000  0.369598  0.815119  1
  B  B22  1  0.500000  0.131434  0.317562  1
  B  B23  1  0.500000  0.868390  0.684345  1
  B  B24  1  0.500000  0.977227  0.213284  1
  B  B25  1  0.500000  0.017681  0.787105  1
  B  B26  1  0.500000  0.482154  0.287276  1
  B  B27  1  0.500000  0.518670  0.712264  1
  B  B28  1  0.500000  0.605672  0.028730  1
  B  B29  1  0.500000  0.397119  0.969955  1
  B  B30  1  0.500000  0.104366  0.472569  1
  B  B31  1  0.500000  0.894931  0.529698  1
  Mo  Mo32  1  0.000000  0.137476  0.178731  1
  Os  Os33  1  0.000000  0.637512  0.322424  1
  Os  Os34  1  0.000000  0.362590  0.679005  1
  Ru  Ru35  1  0.000000  0.861086  0.819538  1
