# generated using pymatgen
data_Hf9Th8Si16W3
_symmetry_space_group_name_H-M   'P 1'
_cell_length_a   7.30631731
_cell_length_b   7.30631795
_cell_length_c   13.45984917
_cell_angle_alpha   90.12780069
_cell_angle_beta   90.12780210
_cell_angle_gamma   89.98598024
_symmetry_Int_Tables_number   1
_chemical_formula_structural   Hf9Th8Si16W3
_chemical_formula_sum   'Hf9 Th8 Si16 W3'
_cell_volume   718.51380546
_cell_formula_units_Z   1
loop_
 _symmetry_equiv_pos_site_id
 _symmetry_equiv_pos_as_xyz
  1  'x, y, z'
loop_
 _atom_site_type_symbol
 _atom_site_label
 _atom_site_symmetry_multiplicity
 _atom_site_fract_x
 _atom_site_fract_y
 _atom_site_fract_z
 _atom_site_occupancy
  Hf  Hf0  1  0.672755  0.327245  0.750000  1
  Hf  Hf1  1  0.150372  0.994771  0.372757  1
  Hf  Hf2  1  0.850691  0.002511  0.875448  1
  Hf  Hf3  1  0.503917  0.652528  0.620538  1
  Hf  Hf4  1  0.347472  0.496083  0.879462  1
  Hf  Hf5  1  0.493534  0.349065  0.124173  1
  Hf  Hf6  1  0.650935  0.506466  0.375827  1
  Hf  Hf7  1  0.997489  0.149309  0.624552  1
  Hf  Hf8  1  0.005229  0.849628  0.127243  1
  Th  Th9  1  0.999248  0.342852  0.216341  1
  Th  Th10  1  0.003087  0.658330  0.715771  1
  Th  Th11  1  0.156774  0.499992  0.465064  1
  Th  Th12  1  0.500008  0.843226  0.034936  1
  Th  Th13  1  0.844331  0.504223  0.967873  1
  Th  Th14  1  0.495777  0.155669  0.532127  1
  Th  Th15  1  0.341670  0.996913  0.784229  1
  Th  Th16  1  0.657148  0.000752  0.283659  1
  Si  Si17  1  0.367789  0.301205  0.314686  1
  Si  Si18  1  0.633725  0.701339  0.814036  1
  Si  Si19  1  0.198884  0.866369  0.563689  1
  Si  Si20  1  0.133631  0.801116  0.936311  1
  Si  Si21  1  0.799852  0.133302  0.065015  1
  Si  Si22  1  0.866698  0.200148  0.434985  1
  Si  Si23  1  0.298661  0.366275  0.685964  1
  Si  Si24  1  0.698795  0.632211  0.185314  1
  Si  Si25  1  0.290841  0.048825  0.183708  1
  Si  Si26  1  0.709056  0.949447  0.682134  1
  Si  Si27  1  0.450518  0.790108  0.432307  1
  Si  Si28  1  0.209892  0.549482  0.067693  1
  Si  Si29  1  0.545856  0.208346  0.935469  1
  Si  Si30  1  0.791654  0.454144  0.564531  1
  Si  Si31  1  0.050553  0.290944  0.817866  1
  Si  Si32  1  0.951175  0.709159  0.316292  1
  W  W33  1  0.171646  0.168842  0.001582  1
  W  W34  1  0.831158  0.828354  0.498418  1
  W  W35  1  0.329180  0.670820  0.250000  1
