# generated using pymatgen
data_EuZn9Ir2
_symmetry_space_group_name_H-M   'P 1'
_cell_length_a   8.29324830
_cell_length_b   8.29325973
_cell_length_c   8.29326008
_cell_angle_alpha   100.17217250
_cell_angle_beta   100.17248482
_cell_angle_gamma   130.29941130
_symmetry_Int_Tables_number   1
_chemical_formula_structural   EuZn9Ir2
_chemical_formula_sum   'Eu2 Zn18 Ir4'
_cell_volume   394.74585095
_cell_formula_units_Z   2
loop_
 _symmetry_equiv_pos_site_id
 _symmetry_equiv_pos_as_xyz
  1  'x, y, z'
loop_
 _atom_site_type_symbol
 _atom_site_label
 _atom_site_symmetry_multiplicity
 _atom_site_fract_x
 _atom_site_fract_y
 _atom_site_fract_z
 _atom_site_occupancy
  Eu  Eu0  1  0.000000  0.000001  0.000000  1
  Eu  Eu1  1  0.250000  0.750000  0.500001  1
  Zn  Zn2  1  0.750001  0.250002  0.499999  1
  Zn  Zn3  1  0.499999  0.499998  0.000001  1
  Zn  Zn4  1  0.186058  0.514815  0.084368  1
  Zn  Zn5  1  0.186058  0.101690  0.671243  1
  Zn  Zn6  1  0.764814  0.936057  0.584370  1
  Zn  Zn7  1  0.764814  0.180444  0.828757  1
  Zn  Zn8  1  0.430446  0.514815  0.328757  1
  Zn  Zn9  1  0.430446  0.101690  0.915632  1
  Zn  Zn10  1  0.351687  0.936058  0.171243  1
  Zn  Zn11  1  0.351687  0.180444  0.415629  1
  Zn  Zn12  1  0.063944  0.235186  0.415630  1
  Zn  Zn13  1  0.063943  0.648313  0.828758  1
  Zn  Zn14  1  0.485185  0.813942  0.915631  1
  Zn  Zn15  1  0.485185  0.569554  0.671243  1
  Zn  Zn16  1  0.819556  0.235186  0.171242  1
  Zn  Zn17  1  0.819555  0.648313  0.584370  1
  Zn  Zn18  1  0.898310  0.813940  0.328756  1
  Zn  Zn19  1  0.898310  0.569554  0.084369  1
  Ir  Ir20  1  0.124997  0.374999  0.749998  1
  Ir  Ir21  1  0.625001  0.875003  0.250001  1
  Ir  Ir22  1  0.625002  0.375000  0.749998  1
  Ir  Ir23  1  0.625000  0.374998  0.250002  1
