# generated using pymatgen
data_Mn(NbCo)6
_symmetry_space_group_name_H-M   'P 1'
_cell_length_a   9.15130413
_cell_length_b   9.15130403
_cell_length_c   9.15130318
_cell_angle_alpha   30.98863521
_cell_angle_beta   30.98863783
_cell_angle_gamma   30.98863938
_symmetry_Int_Tables_number   1
_chemical_formula_structural   Mn(NbCo)6
_chemical_formula_sum   'Mn1 Nb6 Co6'
_cell_volume   180.22455780
_cell_formula_units_Z   1
loop_
 _symmetry_equiv_pos_site_id
 _symmetry_equiv_pos_as_xyz
  1  'x, y, z'
loop_
 _atom_site_type_symbol
 _atom_site_label
 _atom_site_symmetry_multiplicity
 _atom_site_fract_x
 _atom_site_fract_y
 _atom_site_fract_z
 _atom_site_occupancy
  Mn  Mn0  1  0.000000  0.000000  0.000000  1
  Nb  Nb1  1  0.834243  0.834243  0.834243  1
  Nb  Nb2  1  0.165757  0.165757  0.165757  1
  Nb  Nb3  1  0.654826  0.654826  0.654826  1
  Nb  Nb4  1  0.345174  0.345174  0.345174  1
  Nb  Nb5  1  0.550474  0.550474  0.550474  1
  Nb  Nb6  1  0.449526  0.449526  0.449526  1
  Co  Co7  1  0.908936  0.408749  0.908936  1
  Co  Co8  1  0.908936  0.908936  0.408749  1
  Co  Co9  1  0.408749  0.908936  0.908936  1
  Co  Co10  1  0.091064  0.591251  0.091064  1
  Co  Co11  1  0.091064  0.091064  0.591251  1
  Co  Co12  1  0.591251  0.091064  0.091064  1
