# generated using pymatgen
data_Ho7Th3(In2Rh)4
_symmetry_space_group_name_H-M   'P 1'
_cell_length_a   8.04889941
_cell_length_b   18.24930880
_cell_length_c   3.71201300
_cell_angle_alpha   90.00000000
_cell_angle_beta   90.00000000
_cell_angle_gamma   90.21866643
_symmetry_Int_Tables_number   1
_chemical_formula_structural   Ho7Th3(In2Rh)4
_chemical_formula_sum   'Ho7 Th3 In8 Rh4'
_cell_volume   545.24192853
_cell_formula_units_Z   1
loop_
 _symmetry_equiv_pos_site_id
 _symmetry_equiv_pos_as_xyz
  1  'x, y, z'
loop_
 _atom_site_type_symbol
 _atom_site_label
 _atom_site_symmetry_multiplicity
 _atom_site_fract_x
 _atom_site_fract_y
 _atom_site_fract_z
 _atom_site_occupancy
  Ho  Ho0  1  0.499008  0.496936  0.000000  1
  Ho  Ho1  1  0.999779  0.999938  0.000000  1
  Ho  Ho2  1  0.251709  0.220580  0.000000  1
  Ho  Ho3  1  0.617506  0.087010  0.000000  1
  Ho  Ho4  1  0.382472  0.915840  0.000000  1
  Ho  Ho5  1  0.881476  0.585488  0.000000  1
  Ho  Ho6  1  0.115467  0.412443  0.000000  1
  Th  Th7  1  0.752024  0.277648  0.000000  1
  Th  Th8  1  0.250130  0.721185  0.000000  1
  Th  Th9  1  0.749362  0.778757  0.000000  1
  In  In10  1  0.702837  0.937186  0.500000  1
  In  In11  1  0.296685  0.067540  0.500000  1
  In  In12  1  0.796800  0.436898  0.500000  1
  In  In13  1  0.202082  0.562370  0.500000  1
  In  In14  1  0.570222  0.643275  0.500000  1
  In  In15  1  0.421447  0.350733  0.500000  1
  In  In16  1  0.938646  0.145413  0.500000  1
  In  In17  1  0.071880  0.855467  0.500000  1
  Rh  Rh18  1  0.537943  0.199924  0.500000  1
  Rh  Rh19  1  0.474266  0.802074  0.500000  1
  Rh  Rh20  1  0.973273  0.698978  0.500000  1
  Rh  Rh21  1  0.014985  0.304316  0.500000  1
