# generated using pymatgen
data_Nd2B4Ir3Ru
_symmetry_space_group_name_H-M   'P 1'
_cell_length_a   7.02376671
_cell_length_b   6.09476098
_cell_length_c   5.59485802
_cell_angle_alpha   73.72261258
_cell_angle_beta   56.40315719
_cell_angle_gamma   50.12367909
_symmetry_Int_Tables_number   1
_chemical_formula_structural   Nd2B4Ir3Ru
_chemical_formula_sum   'Nd2 B4 Ir3 Ru1'
_cell_volume   152.05700153
_cell_formula_units_Z   1
loop_
 _symmetry_equiv_pos_site_id
 _symmetry_equiv_pos_as_xyz
  1  'x, y, z'
loop_
 _atom_site_type_symbol
 _atom_site_label
 _atom_site_symmetry_multiplicity
 _atom_site_fract_x
 _atom_site_fract_y
 _atom_site_fract_z
 _atom_site_occupancy
  Nd  Nd0  1  0.997267  0.997267  0.002733  1
  Nd  Nd1  1  0.248773  0.248773  0.251227  1
  B  B2  1  0.318774  0.678744  0.318605  1
  B  B3  1  0.678744  0.318774  0.683877  1
  B  B4  1  0.575895  0.928925  0.568008  1
  B  B5  1  0.928925  0.575895  0.927171  1
  Ir  Ir6  1  0.631889  0.631889  0.368111  1
  Ir  Ir7  1  0.368680  0.368680  0.631320  1
  Ir  Ir8  1  0.618627  0.618627  0.881373  1
  Ru  Ru9  1  0.882425  0.882425  0.617575  1
