# generated using pymatgen
data_LaTb2RuO7
_symmetry_space_group_name_H-M   'P 1'
_cell_length_a   6.50692099
_cell_length_b   6.50692154
_cell_length_c   7.55125400
_cell_angle_alpha   90.00000000
_cell_angle_beta   90.00000000
_cell_angle_gamma   110.04420114
_symmetry_Int_Tables_number   1
_chemical_formula_structural   LaTb2RuO7
_chemical_formula_sum   'La2 Tb4 Ru2 O14'
_cell_volume   300.35433763
_cell_formula_units_Z   2
loop_
 _symmetry_equiv_pos_site_id
 _symmetry_equiv_pos_as_xyz
  1  'x, y, z'
loop_
 _atom_site_type_symbol
 _atom_site_label
 _atom_site_symmetry_multiplicity
 _atom_site_fract_x
 _atom_site_fract_y
 _atom_site_fract_z
 _atom_site_occupancy
  La  La0  1  0.000000  0.000000  0.500000  1
  La  La1  1  0.000000  0.000000  0.000000  1
  Tb  Tb2  1  0.519974  0.073243  0.250000  1
  Tb  Tb3  1  0.926757  0.480026  0.750000  1
  Tb  Tb4  1  0.480026  0.926757  0.750000  1
  Tb  Tb5  1  0.073243  0.519974  0.250000  1
  Ru  Ru6  1  0.500000  0.500000  0.500000  1
  Ru  Ru7  1  0.500000  0.500000  0.000000  1
  O  O8  1  0.443807  0.184676  0.537378  1
  O  O9  1  0.815324  0.556193  0.462622  1
  O  O10  1  0.443807  0.184676  0.962622  1
  O  O11  1  0.815324  0.556193  0.037378  1
  O  O12  1  0.556193  0.815324  0.462622  1
  O  O13  1  0.184676  0.443807  0.537378  1
  O  O14  1  0.556193  0.815324  0.037378  1
  O  O15  1  0.184676  0.443807  0.962622  1
  O  O16  1  0.163436  0.884219  0.250000  1
  O  O17  1  0.115781  0.836564  0.750000  1
  O  O18  1  0.836564  0.115781  0.750000  1
  O  O19  1  0.884219  0.163436  0.250000  1
  O  O20  1  0.412012  0.412012  0.250000  1
  O  O21  1  0.587988  0.587988  0.750000  1
