# generated using pymatgen
data_Nd4Cu8P7
_symmetry_space_group_name_H-M   'P 1'
_cell_length_a   3.96895700
_cell_length_b   12.70278565
_cell_length_c   12.94320541
_cell_angle_alpha   81.02614645
_cell_angle_beta   90.00000000
_cell_angle_gamma   90.00000000
_symmetry_Int_Tables_number   1
_chemical_formula_structural   Nd4Cu8P7
_chemical_formula_sum   'Nd8 Cu16 P14'
_cell_volume   644.56760902
_cell_formula_units_Z   2
loop_
 _symmetry_equiv_pos_site_id
 _symmetry_equiv_pos_as_xyz
  1  'x, y, z'
loop_
 _atom_site_type_symbol
 _atom_site_label
 _atom_site_symmetry_multiplicity
 _atom_site_fract_x
 _atom_site_fract_y
 _atom_site_fract_z
 _atom_site_occupancy
  Nd  Nd0  1  0.750000  0.789311  0.553929  1
  Nd  Nd1  1  0.250000  0.210689  0.446071  1
  Nd  Nd2  1  0.750000  0.478612  0.711212  1
  Nd  Nd3  1  0.250000  0.521388  0.288788  1
  Nd  Nd4  1  0.750000  0.728735  0.893772  1
  Nd  Nd5  1  0.250000  0.111468  0.800092  1
  Nd  Nd6  1  0.750000  0.888532  0.199908  1
  Nd  Nd7  1  0.250000  0.271265  0.106228  1
  Cu  Cu8  1  0.250000  0.982322  0.579947  1
  Cu  Cu9  1  0.750000  0.017678  0.420053  1
  Cu  Cu10  1  0.250000  0.660374  0.722165  1
  Cu  Cu11  1  0.750000  0.339626  0.277835  1
  Cu  Cu12  1  0.250000  0.552499  0.044913  1
  Cu  Cu13  1  0.750000  0.447501  0.955087  1
  Cu  Cu14  1  0.250000  0.062375  0.274698  1
  Cu  Cu15  1  0.750000  0.937625  0.725302  1
  Cu  Cu16  1  0.250000  0.433846  0.527672  1
  Cu  Cu17  1  0.750000  0.566154  0.472328  1
  Cu  Cu18  1  0.250000  0.910105  0.988216  1
  Cu  Cu19  1  0.750000  0.089895  0.011784  1
  Cu  Cu20  1  0.250000  0.734720  0.386605  1
  Cu  Cu21  1  0.750000  0.265280  0.613395  1
  Cu  Cu22  1  0.250000  0.342536  0.860905  1
  Cu  Cu23  1  0.750000  0.657464  0.139095  1
  P  P24  1  0.250000  0.915155  0.406371  1
  P  P25  1  0.750000  0.463562  0.131943  1
  P  P26  1  0.250000  0.536438  0.868057  1
  P  P27  1  0.750000  0.084845  0.593629  1
  P  P28  1  0.250000  0.737207  0.071559  1
  P  P29  1  0.750000  0.262793  0.928441  1
  P  P30  1  0.750000  0.163948  0.277284  1
  P  P31  1  0.250000  0.836052  0.722716  1
  P  P32  1  0.250000  0.040533  0.100874  1
  P  P33  1  0.750000  0.959467  0.899126  1
  P  P34  1  0.250000  0.316769  0.682728  1
  P  P35  1  0.750000  0.683231  0.317272  1
  P  P36  1  0.250000  0.612417  0.560381  1
  P  P37  1  0.750000  0.387583  0.439619  1
