# generated using pymatgen
data_Dy2YIn3HgIr2
_symmetry_space_group_name_H-M   'P 1'
_cell_length_a   7.81529603
_cell_length_b   7.80829137
_cell_length_c   3.87138100
_cell_angle_alpha   90.00000000
_cell_angle_beta   90.00000000
_cell_angle_gamma   120.01963402
_symmetry_Int_Tables_number   1
_chemical_formula_structural   Dy2YIn3HgIr2
_chemical_formula_sum   'Dy2 Y1 In3 Hg1 Ir2'
_cell_volume   204.55591047
_cell_formula_units_Z   1
loop_
 _symmetry_equiv_pos_site_id
 _symmetry_equiv_pos_as_xyz
  1  'x, y, z'
loop_
 _atom_site_type_symbol
 _atom_site_label
 _atom_site_symmetry_multiplicity
 _atom_site_fract_x
 _atom_site_fract_y
 _atom_site_fract_z
 _atom_site_occupancy
  Dy  Dy0  1  0.383871  0.968572  0.000000  1
  Dy  Dy1  1  0.031192  0.415249  0.000000  1
  Y  Y2  1  0.585346  0.615495  0.000000  1
  In  In3  1  0.001389  0.744678  0.500000  1
  In  In4  1  0.255288  0.256772  0.500000  1
  In  In5  1  0.743514  0.998621  0.500000  1
  Hg  Hg6  1  0.666787  0.332894  0.500000  1
  Ir  Ir7  1  0.000843  0.000669  0.000000  1
  Ir  Ir8  1  0.331771  0.667049  0.500000  1
