# generated using pymatgen
data_Ba5Sr(BiPb4)2
_symmetry_space_group_name_H-M   'P 1'
_cell_length_a   9.50871371
_cell_length_b   9.50871266
_cell_length_c   9.50227983
_cell_angle_alpha   120.02240899
_cell_angle_beta   120.02240317
_cell_angle_gamma   90.00000228
_symmetry_Int_Tables_number   1
_chemical_formula_structural   Ba5Sr(BiPb4)2
_chemical_formula_sum   'Ba5 Sr1 Bi2 Pb8'
_cell_volume   607.10229675
_cell_formula_units_Z   1
loop_
 _symmetry_equiv_pos_site_id
 _symmetry_equiv_pos_as_xyz
  1  'x, y, z'
loop_
 _atom_site_type_symbol
 _atom_site_label
 _atom_site_symmetry_multiplicity
 _atom_site_fract_x
 _atom_site_fract_y
 _atom_site_fract_z
 _atom_site_occupancy
  Ba  Ba0  1  0.750000  0.750000  0.500000  1
  Ba  Ba1  1  0.664237  0.164237  0.000000  1
  Ba  Ba2  1  0.335763  0.835763  0.000000  1
  Ba  Ba3  1  0.835763  0.664237  0.000000  1
  Ba  Ba4  1  0.164237  0.335763  0.000000  1
  Sr  Sr5  1  0.250000  0.250000  0.500000  1
  Bi  Bi6  1  0.006331  0.006331  0.012661  1
  Bi  Bi7  1  0.493669  0.493669  0.987339  1
  Pb  Pb8  1  0.328493  0.832596  0.375619  1
  Pb  Pb9  1  0.667404  0.171507  0.624381  1
  Pb  Pb10  1  0.047127  0.543024  0.375619  1
  Pb  Pb11  1  0.543024  0.328493  0.375619  1
  Pb  Pb12  1  0.171507  0.956976  0.624381  1
  Pb  Pb13  1  0.956976  0.452873  0.624381  1
  Pb  Pb14  1  0.452873  0.667404  0.624381  1
  Pb  Pb15  1  0.832596  0.047127  0.375619  1
