# generated using pymatgen
data_LiAc4As8Au3
_symmetry_space_group_name_H-M   'P 1'
_cell_length_a   4.18042900
_cell_length_b   4.26511521
_cell_length_c   22.14488700
_cell_angle_alpha   89.98187810
_cell_angle_beta   90.00000000
_cell_angle_gamma   90.00000000
_symmetry_Int_Tables_number   1
_chemical_formula_structural   LiAc4As8Au3
_chemical_formula_sum   'Li1 Ac4 As8 Au3'
_cell_volume   394.84356628
_cell_formula_units_Z   1
loop_
 _symmetry_equiv_pos_site_id
 _symmetry_equiv_pos_as_xyz
  1  'x, y, z'
loop_
 _atom_site_type_symbol
 _atom_site_label
 _atom_site_symmetry_multiplicity
 _atom_site_fract_x
 _atom_site_fract_y
 _atom_site_fract_z
 _atom_site_occupancy
  Li  Li0  1  0.250000  0.224036  0.249770  1
  Ac  Ac1  1  0.250000  0.776856  0.618954  1
  Ac  Ac2  1  0.750000  0.224480  0.381089  1
  Ac  Ac3  1  0.750000  0.276915  0.881120  1
  Ac  Ac4  1  0.250000  0.722789  0.119076  1
  As  As5  1  0.250000  0.777320  0.832651  1
  As  As6  1  0.750000  0.223019  0.172549  1
  As  As7  1  0.750000  0.277136  0.667350  1
  As  As8  1  0.250000  0.724499  0.327729  1
  As  As9  1  0.250000  0.309683  0.502058  1
  As  As10  1  0.250000  0.188705  0.002555  1
  As  As11  1  0.750000  0.809714  0.997998  1
  As  As12  1  0.750000  0.688846  0.497525  1
  Au  Au13  1  0.750000  0.723493  0.249533  1
  Au  Au14  1  0.750000  0.776171  0.749805  1
  Au  Au15  1  0.250000  0.276340  0.750240  1
