# generated using pymatgen
data_Ho4Sc2Si24OsRu7
_symmetry_space_group_name_H-M   'P 1'
_cell_length_a   10.06138875
_cell_length_b   10.06138952
_cell_length_c   8.09978503
_cell_angle_alpha   89.99921616
_cell_angle_beta   89.99921586
_cell_angle_gamma   132.52944983
_symmetry_Int_Tables_number   1
_chemical_formula_structural   Ho4Sc2Si24OsRu7
_chemical_formula_sum   'Ho4 Sc2 Si24 Os1 Ru7'
_cell_volume   604.24854668
_cell_formula_units_Z   1
loop_
 _symmetry_equiv_pos_site_id
 _symmetry_equiv_pos_as_xyz
  1  'x, y, z'
loop_
 _atom_site_type_symbol
 _atom_site_label
 _atom_site_symmetry_multiplicity
 _atom_site_fract_x
 _atom_site_fract_y
 _atom_site_fract_z
 _atom_site_occupancy
  Ho  Ho0  1  0.502081  0.002106  0.750201  1
  Ho  Ho1  1  0.997894  0.497919  0.249799  1
  Ho  Ho2  1  0.498059  0.997795  0.249688  1
  Ho  Ho3  1  0.002205  0.501941  0.750312  1
  Sc  Sc4  1  0.500222  0.499778  0.500000  1
  Sc  Sc5  1  0.000000  0.000000  0.000000  1
  Si  Si6  1  0.795791  0.204209  0.500000  1
  Si  Si7  1  0.295125  0.704875  0.000000  1
  Si  Si8  1  0.204853  0.795147  0.500000  1
  Si  Si9  1  0.704975  0.295025  0.000000  1
  Si  Si10  1  0.331247  0.331483  0.832999  1
  Si  Si11  1  0.668517  0.668753  0.167001  1
  Si  Si12  1  0.167651  0.167443  0.331771  1
  Si  Si13  1  0.832557  0.832349  0.668229  1
  Si  Si14  1  0.120607  0.888554  0.730105  1
  Si  Si15  1  0.111446  0.879393  0.269895  1
  Si  Si16  1  0.611649  0.379534  0.228154  1
  Si  Si17  1  0.620466  0.388351  0.771846  1
  Si  Si18  1  0.878528  0.110405  0.269388  1
  Si  Si19  1  0.889595  0.121472  0.730612  1
  Si  Si20  1  0.388337  0.620958  0.770541  1
  Si  Si21  1  0.379042  0.611663  0.229459  1
  Si  Si22  1  0.344258  0.112943  0.504805  1
  Si  Si23  1  0.887057  0.655742  0.495195  1
  Si  Si24  1  0.385435  0.153948  0.004430  1
  Si  Si25  1  0.846052  0.614565  0.995570  1
  Si  Si26  1  0.653612  0.885336  0.493960  1
  Si  Si27  1  0.114664  0.346388  0.506040  1
  Si  Si28  1  0.614297  0.845850  0.995459  1
  Si  Si29  1  0.154150  0.385703  0.004541  1
  Os  Os30  1  0.668724  0.331276  0.500000  1
  Ru  Ru31  1  0.168733  0.831267  0.000000  1
  Ru  Ru32  1  0.331233  0.668767  0.500000  1
  Ru  Ru33  1  0.831240  0.168760  0.000000  1
  Ru  Ru34  1  0.127800  0.128063  0.627204  1
  Ru  Ru35  1  0.871937  0.872200  0.372796  1
  Ru  Ru36  1  0.373713  0.373751  0.128528  1
  Ru  Ru37  1  0.626249  0.626287  0.871472  1
