# generated using pymatgen
data_Gd3TcO7
_symmetry_space_group_name_H-M   'P 1'
_cell_length_a   6.53290624
_cell_length_b   6.53290628
_cell_length_c   7.53992000
_cell_angle_alpha   90.00000000
_cell_angle_beta   90.00000000
_cell_angle_gamma   108.90405266
_symmetry_Int_Tables_number   1
_chemical_formula_structural   Gd3TcO7
_chemical_formula_sum   'Gd6 Tc2 O14'
_cell_volume   304.43837465
_cell_formula_units_Z   2
loop_
 _symmetry_equiv_pos_site_id
 _symmetry_equiv_pos_as_xyz
  1  'x, y, z'
loop_
 _atom_site_type_symbol
 _atom_site_label
 _atom_site_symmetry_multiplicity
 _atom_site_fract_x
 _atom_site_fract_y
 _atom_site_fract_z
 _atom_site_occupancy
  Gd  Gd0  1  0.464192  0.000825  0.255880  1
  Gd  Gd1  1  0.999175  0.535808  0.244120  1
  Gd  Gd2  1  0.466043  0.466043  0.000000  1
  Gd  Gd3  1  0.533957  0.533957  0.500000  1
  Gd  Gd4  1  0.535808  0.999175  0.755880  1
  Gd  Gd5  1  0.000825  0.464192  0.744120  1
  Tc  Tc6  1  0.002295  0.002295  0.500000  1
  Tc  Tc7  1  0.997705  0.997705  0.000000  1
  O  O8  1  0.934290  0.065710  0.750000  1
  O  O9  1  0.637210  0.362790  0.750000  1
  O  O10  1  0.305970  0.053383  0.537145  1
  O  O11  1  0.946617  0.694030  0.962855  1
  O  O12  1  0.629781  0.370219  0.250000  1
  O  O13  1  0.920158  0.676614  0.525310  1
  O  O14  1  0.323386  0.079842  0.974690  1
  O  O15  1  0.079842  0.323386  0.025310  1
  O  O16  1  0.676614  0.920158  0.474690  1
  O  O17  1  0.370219  0.629781  0.750000  1
  O  O18  1  0.694030  0.946617  0.037145  1
  O  O19  1  0.053383  0.305970  0.462855  1
  O  O20  1  0.362790  0.637210  0.250000  1
  O  O21  1  0.065710  0.934290  0.250000  1
