# generated using pymatgen
data_Sc3Mn2MoO8
_symmetry_space_group_name_H-M   'P 1'
_cell_length_a   6.32838462
_cell_length_b   6.32838587
_cell_length_c   6.32838466
_cell_angle_alpha   119.77902260
_cell_angle_beta   119.77902352
_cell_angle_gamma   60.22097470
_symmetry_Int_Tables_number   1
_chemical_formula_structural   Sc3Mn2MoO8
_chemical_formula_sum   'Sc3 Mn2 Mo1 O8'
_cell_volume   180.10719907
_cell_formula_units_Z   1
loop_
 _symmetry_equiv_pos_site_id
 _symmetry_equiv_pos_as_xyz
  1  'x, y, z'
loop_
 _atom_site_type_symbol
 _atom_site_label
 _atom_site_symmetry_multiplicity
 _atom_site_fract_x
 _atom_site_fract_y
 _atom_site_fract_z
 _atom_site_occupancy
  Sc  Sc0  1  0.375000  0.375000  0.125001  1
  Sc  Sc1  1  0.874999  0.375001  0.624999  1
  Sc  Sc2  1  0.375001  0.874999  0.624999  1
  Mn  Mn3  1  0.000671  0.000671  0.999329  1
  Mn  Mn4  1  0.749330  0.749330  0.250673  1
  Mo  Mo5  1  0.375000  0.375000  0.624999  1
  O  O6  1  0.617275  0.157041  0.382724  1
  O  O7  1  0.157041  0.617275  0.382724  1
  O  O8  1  0.612935  0.612935  0.387064  1
  O  O9  1  0.132724  0.132724  0.407042  1
  O  O10  1  0.617275  0.617275  0.842959  1
  O  O11  1  0.137064  0.137064  0.862935  1
  O  O12  1  0.592957  0.132724  0.867275  1
  O  O13  1  0.132724  0.592957  0.867275  1
