# generated using pymatgen
data_SrLu6Sn23Ir6
_symmetry_space_group_name_H-M   'P 1'
_cell_length_a   9.81381600
_cell_length_b   9.81381467
_cell_length_c   10.07888500
_cell_angle_alpha   90.00000000
_cell_angle_beta   90.00000000
_cell_angle_gamma   119.99999776
_symmetry_Int_Tables_number   1
_chemical_formula_structural   SrLu6Sn23Ir6
_chemical_formula_sum   'Sr1 Lu6 Sn23 Ir6'
_cell_volume   840.65711798
_cell_formula_units_Z   1
loop_
 _symmetry_equiv_pos_site_id
 _symmetry_equiv_pos_as_xyz
  1  'x, y, z'
loop_
 _atom_site_type_symbol
 _atom_site_label
 _atom_site_symmetry_multiplicity
 _atom_site_fract_x
 _atom_site_fract_y
 _atom_site_fract_z
 _atom_site_occupancy
  Sr  Sr0  1  0.000000  0.000000  0.000000  1
  Lu  Lu1  1  0.516087  0.483913  0.694481  1
  Lu  Lu2  1  0.516087  0.032173  0.694481  1
  Lu  Lu3  1  0.967827  0.483913  0.694481  1
  Lu  Lu4  1  0.032173  0.516087  0.305519  1
  Lu  Lu5  1  0.483913  0.967827  0.305519  1
  Lu  Lu6  1  0.483913  0.516087  0.305519  1
  Sn  Sn7  1  0.666667  0.333333  0.169163  1
  Sn  Sn8  1  0.666667  0.333333  0.868594  1
  Sn  Sn9  1  0.333333  0.666667  0.131406  1
  Sn  Sn10  1  0.353172  0.353172  0.000000  1
  Sn  Sn11  1  0.000000  0.646828  0.000000  1
  Sn  Sn12  1  0.646828  0.000000  0.000000  1
  Sn  Sn13  1  0.646828  0.646828  0.000000  1
  Sn  Sn14  1  0.333333  0.666667  0.830837  1
  Sn  Sn15  1  0.447401  0.223702  0.459711  1
  Sn  Sn16  1  0.223702  0.776298  0.540289  1
  Sn  Sn17  1  0.223702  0.447401  0.540289  1
  Sn  Sn18  1  0.552599  0.776298  0.540289  1
  Sn  Sn19  1  0.119648  0.880352  0.285416  1
  Sn  Sn20  1  0.776298  0.552599  0.459711  1
  Sn  Sn21  1  0.776298  0.223702  0.459711  1
  Sn  Sn22  1  0.353172  0.000000  0.000000  1
  Sn  Sn23  1  0.119648  0.239296  0.285416  1
  Sn  Sn24  1  0.760704  0.880352  0.285416  1
  Sn  Sn25  1  0.239296  0.119648  0.714584  1
  Sn  Sn26  1  0.880352  0.760704  0.714584  1
  Sn  Sn27  1  0.880352  0.119648  0.714584  1
  Sn  Sn28  1  0.000000  0.000000  0.500000  1
  Sn  Sn29  1  0.000000  0.353172  0.000000  1
  Ir  Ir30  1  0.171390  0.828610  0.797950  1
  Ir  Ir31  1  0.171390  0.342778  0.797950  1
  Ir  Ir32  1  0.657222  0.828610  0.797950  1
  Ir  Ir33  1  0.342778  0.171390  0.202050  1
  Ir  Ir34  1  0.828610  0.657222  0.202050  1
  Ir  Ir35  1  0.828610  0.171390  0.202050  1
