# generated using pymatgen
data_CeY2Th(Al3Ir)6
_symmetry_space_group_name_H-M   'P 1'
_cell_length_a   7.60555700
_cell_length_b   7.60785884
_cell_length_c   9.53037200
_cell_angle_alpha   90.00000000
_cell_angle_beta   90.00000000
_cell_angle_gamma   119.45949563
_symmetry_Int_Tables_number   1
_chemical_formula_structural   CeY2Th(Al3Ir)6
_chemical_formula_sum   'Ce1 Y2 Th1 Al18 Ir6'
_cell_volume   480.14638017
_cell_formula_units_Z   1
loop_
 _symmetry_equiv_pos_site_id
 _symmetry_equiv_pos_as_xyz
  1  'x, y, z'
loop_
 _atom_site_type_symbol
 _atom_site_label
 _atom_site_symmetry_multiplicity
 _atom_site_fract_x
 _atom_site_fract_y
 _atom_site_fract_z
 _atom_site_occupancy
  Ce  Ce0  1  0.671807  0.994892  0.250000  1
  Y  Y1  1  0.004511  0.328439  0.750000  1
  Y  Y2  1  0.328012  0.005406  0.750000  1
  Th  Th3  1  0.994445  0.670825  0.250000  1
  Al  Al4  1  0.133276  0.134461  0.250000  1
  Al  Al5  1  0.872892  0.874050  0.750000  1
  Al  Al6  1  0.002992  0.332921  0.071127  1
  Al  Al7  1  0.999638  0.664343  0.919269  1
  Al  Al8  1  0.999638  0.664343  0.580731  1
  Al  Al9  1  0.338200  0.005165  0.428799  1
  Al  Al10  1  0.002992  0.332921  0.428873  1
  Al  Al11  1  0.664516  0.000055  0.577443  1
  Al  Al12  1  0.664516  0.000055  0.922557  1
  Al  Al13  1  0.338200  0.005165  0.071201  1
  Al  Al14  1  0.332344  0.332337  0.555672  1
  Al  Al15  1  0.663112  0.664899  0.456275  1
  Al  Al16  1  0.663112  0.664899  0.043725  1
  Al  Al17  1  0.332344  0.332337  0.944328  1
  Al  Al18  1  0.342947  0.546537  0.250000  1
  Al  Al19  1  0.658583  0.448641  0.750000  1
  Al  Al20  1  0.543786  0.338527  0.250000  1
  Al  Al21  1  0.448244  0.660040  0.750000  1
  Ir  Ir22  1  0.672965  0.329477  0.000740  1
  Ir  Ir23  1  0.327199  0.671587  0.000729  1
  Ir  Ir24  1  0.327199  0.671587  0.499271  1
  Ir  Ir25  1  0.672965  0.329477  0.499260  1
  Ir  Ir26  1  0.999782  0.998305  0.001241  1
  Ir  Ir27  1  0.999782  0.998305  0.498759  1
