# generated using pymatgen
data_Ce10CdSn6I
_symmetry_space_group_name_H-M   'P 1'
_cell_length_a   6.66082642
_cell_length_b   9.59861355
_cell_length_c   9.59918320
_cell_angle_alpha   119.99803787
_cell_angle_beta   90.00958767
_cell_angle_gamma   89.98082987
_symmetry_Int_Tables_number   1
_chemical_formula_structural   Ce10CdSn6I
_chemical_formula_sum   'Ce10 Cd1 Sn6 I1'
_cell_volume   531.50835628
_cell_formula_units_Z   1
loop_
 _symmetry_equiv_pos_site_id
 _symmetry_equiv_pos_as_xyz
  1  'x, y, z'
loop_
 _atom_site_type_symbol
 _atom_site_label
 _atom_site_symmetry_multiplicity
 _atom_site_fract_x
 _atom_site_fract_y
 _atom_site_fract_z
 _atom_site_occupancy
  Ce  Ce0  1  0.750170  0.288017  0.000000  1
  Ce  Ce1  1  0.750223  0.711749  0.711861  1
  Ce  Ce2  1  0.750223  0.999887  0.288139  1
  Ce  Ce3  1  0.249682  0.712140  0.000000  1
  Ce  Ce4  1  0.249967  0.288080  0.288048  1
  Ce  Ce5  1  0.249967  0.000034  0.711952  1
  Ce  Ce6  1  0.499815  0.333303  0.666579  1
  Ce  Ce7  1  0.499815  0.666725  0.333421  1
  Ce  Ce8  1  0.000129  0.666707  0.333393  1
  Ce  Ce9  1  0.000129  0.333315  0.666607  1
  Cd  Cd10  1  0.000272  0.000129  0.000000  1
  Sn  Sn11  1  0.751086  0.626816  0.000000  1
  Sn  Sn12  1  0.751130  0.373241  0.373221  1
  Sn  Sn13  1  0.751130  0.000021  0.626779  1
  Sn  Sn14  1  0.248845  0.372852  0.000000  1
  Sn  Sn15  1  0.248903  0.626931  0.626920  1
  Sn  Sn16  1  0.248903  0.000011  0.373080  1
  I  I17  1  0.499613  0.000043  0.000000  1
