# generated using pymatgen
data_ThNp7(Si3Pt)4
_symmetry_space_group_name_H-M   'P 1'
_cell_length_a   8.13736900
_cell_length_b   8.12834187
_cell_length_c   8.18737800
_cell_angle_alpha   90.00008459
_cell_angle_beta   90.00000000
_cell_angle_gamma   120.03674025
_symmetry_Int_Tables_number   1
_chemical_formula_structural   ThNp7(Si3Pt)4
_chemical_formula_sum   'Th1 Np7 Si12 Pt4'
_cell_volume   468.81396669
_cell_formula_units_Z   1
loop_
 _symmetry_equiv_pos_site_id
 _symmetry_equiv_pos_as_xyz
  1  'x, y, z'
loop_
 _atom_site_type_symbol
 _atom_site_label
 _atom_site_symmetry_multiplicity
 _atom_site_fract_x
 _atom_site_fract_y
 _atom_site_fract_z
 _atom_site_occupancy
  Th  Th0  1  0.500119  0.000237  0.250000  1
  Np  Np1  1  0.499863  0.999726  0.750001  1
  Np  Np2  1  0.999805  0.499997  0.249999  1
  Np  Np3  1  0.000227  0.500121  0.750001  1
  Np  Np4  1  0.500192  0.499997  0.249999  1
  Np  Np5  1  0.499893  0.500121  0.750001  1
  Np  Np6  1  0.999972  0.999946  0.250001  1
  Np  Np7  1  0.999972  0.999942  0.749998  1
  Si  Si8  1  0.165569  0.331135  0.999880  1
  Si  Si9  1  0.834405  0.668809  0.999398  1
  Si  Si10  1  0.673954  0.835209  0.992820  1
  Si  Si11  1  0.834405  0.668810  0.500603  1
  Si  Si12  1  0.326059  0.164798  0.992368  1
  Si  Si13  1  0.165569  0.331136  0.500122  1
  Si  Si14  1  0.161256  0.835209  0.992820  1
  Si  Si15  1  0.326059  0.164798  0.507632  1
  Si  Si16  1  0.838739  0.164798  0.992368  1
  Si  Si17  1  0.673954  0.835209  0.507180  1
  Si  Si18  1  0.838739  0.164798  0.507632  1
  Si  Si19  1  0.161256  0.835209  0.507180  1
  Pt  Pt20  1  0.334889  0.669780  0.004851  1
  Pt  Pt21  1  0.665107  0.330215  0.004861  1
  Pt  Pt22  1  0.665108  0.330218  0.495137  1
  Pt  Pt23  1  0.334890  0.669782  0.495147  1
