# generated using pymatgen
data_Ba4Zn5Co3(PO4)8
_symmetry_space_group_name_H-M   'P 1'
_cell_length_a   9.91309333
_cell_length_b   8.71486556
_cell_length_c   9.29564347
_cell_angle_alpha   88.53532497
_cell_angle_beta   89.97614429
_cell_angle_gamma   89.98234982
_symmetry_Int_Tables_number   1
_chemical_formula_structural   Ba4Zn5Co3(PO4)8
_chemical_formula_sum   'Ba4 Zn5 Co3 P8 O32'
_cell_volume   802.80001170
_cell_formula_units_Z   1
loop_
 _symmetry_equiv_pos_site_id
 _symmetry_equiv_pos_as_xyz
  1  'x, y, z'
loop_
 _atom_site_type_symbol
 _atom_site_label
 _atom_site_symmetry_multiplicity
 _atom_site_fract_x
 _atom_site_fract_y
 _atom_site_fract_z
 _atom_site_occupancy
  Ba  Ba0  1  0.917158  0.253454  0.604562  1
  Ba  Ba1  1  0.416838  0.747004  0.895243  1
  Ba  Ba2  1  0.082751  0.746611  0.395228  1
  Ba  Ba3  1  0.583269  0.253298  0.104827  1
  Zn  Zn4  1  0.181247  0.415870  0.058967  1
  Zn  Zn5  1  0.424999  0.926248  0.291870  1
  Zn  Zn6  1  0.924931  0.073928  0.208195  1
  Zn  Zn7  1  0.075036  0.926088  0.791809  1
  Zn  Zn8  1  0.818795  0.584111  0.941055  1
  Co  Co9  1  0.681164  0.582748  0.442292  1
  Co  Co10  1  0.318794  0.417392  0.557684  1
  Co  Co11  1  0.574836  0.074169  0.709713  1
  P  P12  1  0.589058  0.441978  0.742363  1
  P  P13  1  0.088599  0.558480  0.758556  1
  P  P14  1  0.911407  0.441555  0.241461  1
  P  P15  1  0.411003  0.558545  0.257569  1
  P  P16  1  0.703945  0.952866  0.426070  1
  P  P17  1  0.203647  0.047882  0.073748  1
  P  P18  1  0.295979  0.046973  0.573756  1
  P  P19  1  0.796378  0.951953  0.926502  1
  O  O20  1  0.419820  0.725664  0.195208  1
  O  O21  1  0.920035  0.274455  0.304412  1
  O  O22  1  0.580872  0.274672  0.804543  1
  O  O23  1  0.079968  0.725572  0.695574  1
  O  O24  1  0.655407  0.797097  0.488637  1
  O  O25  1  0.154832  0.203437  0.010969  1
  O  O26  1  0.345260  0.202829  0.512083  1
  O  O27  1  0.845357  0.796473  0.989185  1
  O  O28  1  0.691370  0.446437  0.616454  1
  O  O29  1  0.190781  0.554016  0.884393  1
  O  O30  1  0.308635  0.553788  0.383510  1
  O  O31  1  0.809208  0.445978  0.115615  1
  O  O32  1  0.697009  0.076456  0.544165  1
  O  O33  1  0.197123  0.924491  0.955163  1
  O  O34  1  0.302546  0.923760  0.455001  1
  O  O35  1  0.802801  0.075542  0.044857  1
  O  O36  1  0.867347  0.544367  0.368352  1
  O  O37  1  0.366841  0.455448  0.130914  1
  O  O38  1  0.132658  0.455637  0.631656  1
  O  O39  1  0.633153  0.544777  0.869169  1
  O  O40  1  0.889945  0.006835  0.799484  1
  O  O41  1  0.389757  0.991537  0.700168  1
  O  O42  1  0.109877  0.993167  0.200562  1
  O  O43  1  0.609890  0.007029  0.299135  1
  O  O44  1  0.949028  0.494598  0.806746  1
  O  O45  1  0.449485  0.505193  0.694112  1
  O  O46  1  0.050960  0.505416  0.193240  1
  O  O47  1  0.550416  0.494883  0.305983  1
  O  O48  1  0.647111  0.943676  0.873692  1
  O  O49  1  0.146611  0.055799  0.626116  1
  O  O50  1  0.352936  0.055892  0.126393  1
  O  O51  1  0.853129  0.943924  0.373038  1
