# generated using pymatgen
data_La2Dy4Ir7Rh11
_symmetry_space_group_name_H-M   'P 1'
_cell_length_a   5.33557700
_cell_length_b   5.33014973
_cell_length_c   17.54036546
_cell_angle_alpha   90.04664727
_cell_angle_beta   90.00000000
_cell_angle_gamma   120.03366959
_symmetry_Int_Tables_number   1
_chemical_formula_structural   La2Dy4Ir7Rh11
_chemical_formula_sum   'La2 Dy4 Ir7 Rh11'
_cell_volume   431.85945443
_cell_formula_units_Z   1
loop_
 _symmetry_equiv_pos_site_id
 _symmetry_equiv_pos_as_xyz
  1  'x, y, z'
loop_
 _atom_site_type_symbol
 _atom_site_label
 _atom_site_symmetry_multiplicity
 _atom_site_fract_x
 _atom_site_fract_y
 _atom_site_fract_z
 _atom_site_occupancy
  La  La0  1  0.333652  0.667306  0.749322  1
  La  La1  1  0.666416  0.332832  0.249241  1
  Dy  Dy2  1  0.333506  0.667014  0.541389  1
  Dy  Dy3  1  0.665974  0.331947  0.041301  1
  Dy  Dy4  1  0.667057  0.334114  0.458737  1
  Dy  Dy5  1  0.332486  0.664974  0.958856  1
  Ir  Ir6  1  0.167070  0.334138  0.125263  1
  Ir  Ir7  1  0.831946  0.663894  0.623857  1
  Ir  Ir8  1  0.664304  0.831438  0.125085  1
  Ir  Ir9  1  0.167134  0.831438  0.125085  1
  Ir  Ir10  1  0.832605  0.167491  0.625368  1
  Ir  Ir11  1  0.334887  0.167491  0.625368  1
  Ir  Ir12  1  0.833851  0.667700  0.875265  1
  Rh  Rh13  1  0.833932  0.170569  0.875347  1
  Rh  Rh14  1  0.336638  0.170569  0.875347  1
  Rh  Rh15  1  0.665227  0.832589  0.375596  1
  Rh  Rh16  1  0.167362  0.832589  0.375596  1
  Rh  Rh17  1  0.167629  0.335257  0.375482  1
  Rh  Rh18  1  0.999982  0.999963  0.249779  1
  Rh  Rh19  1  0.996883  0.993768  0.749911  1
  Rh  Rh20  1  0.333143  0.666287  0.249788  1
  Rh  Rh21  1  0.669451  0.338901  0.749747  1
  Rh  Rh22  1  0.997837  0.995676  0.999585  1
  Rh  Rh23  1  0.001029  0.002058  0.499685  1
