# generated using pymatgen
data_La5Bi2Ir
_symmetry_space_group_name_H-M   'P 1'
_cell_length_a   8.52619400
_cell_length_b   9.33506800
_cell_length_c   13.17232100
_cell_angle_alpha   90.00000000
_cell_angle_beta   90.00000000
_cell_angle_gamma   90.00000000
_symmetry_Int_Tables_number   1
_chemical_formula_structural   La5Bi2Ir
_chemical_formula_sum   'La20 Bi8 Ir4'
_cell_volume   1048.41928658
_cell_formula_units_Z   4
loop_
 _symmetry_equiv_pos_site_id
 _symmetry_equiv_pos_as_xyz
  1  'x, y, z'
loop_
 _atom_site_type_symbol
 _atom_site_label
 _atom_site_symmetry_multiplicity
 _atom_site_fract_x
 _atom_site_fract_y
 _atom_site_fract_z
 _atom_site_occupancy
  La  La0  1  0.351558  0.750000  0.703365  1
  La  La1  1  0.648442  0.250000  0.296635  1
  La  La2  1  0.851558  0.250000  0.796635  1
  La  La3  1  0.148442  0.750000  0.203365  1
  La  La4  1  0.879025  0.750000  0.806340  1
  La  La5  1  0.120975  0.250000  0.193660  1
  La  La6  1  0.379025  0.250000  0.693660  1
  La  La7  1  0.620975  0.750000  0.306340  1
  La  La8  1  0.684193  0.539391  0.563292  1
  La  La9  1  0.315807  0.460609  0.436708  1
  La  La10  1  0.184193  0.460609  0.936708  1
  La  La11  1  0.315807  0.039391  0.436708  1
  La  La12  1  0.815807  0.539391  0.063292  1
  La  La13  1  0.684193  0.960609  0.563292  1
  La  La14  1  0.815807  0.960609  0.063292  1
  La  La15  1  0.184193  0.039391  0.936708  1
  La  La16  1  0.054249  0.750000  0.495684  1
  La  La17  1  0.945751  0.250000  0.504316  1
  La  La18  1  0.554249  0.250000  0.004316  1
  La  La19  1  0.445751  0.750000  0.995684  1
  Bi  Bi20  1  0.574911  0.505673  0.827182  1
  Bi  Bi21  1  0.425089  0.494327  0.172818  1
  Bi  Bi22  1  0.074911  0.494327  0.672818  1
  Bi  Bi23  1  0.425089  0.005673  0.172818  1
  Bi  Bi24  1  0.925089  0.505673  0.327182  1
  Bi  Bi25  1  0.574911  0.994327  0.827182  1
  Bi  Bi26  1  0.925089  0.994327  0.327182  1
  Bi  Bi27  1  0.074911  0.005673  0.672818  1
  Ir  Ir28  1  0.070352  0.750000  0.989248  1
  Ir  Ir29  1  0.929648  0.250000  0.010752  1
  Ir  Ir30  1  0.570352  0.250000  0.510752  1
  Ir  Ir31  1  0.429648  0.750000  0.489248  1
