# generated using pymatgen
data_Dy3TmMn4F28
_symmetry_space_group_name_H-M   'P 1'
_cell_length_a   5.42420375
_cell_length_b   8.67590255
_cell_length_c   11.67237632
_cell_angle_alpha   62.56298309
_cell_angle_beta   90.05814448
_cell_angle_gamma   90.01233120
_symmetry_Int_Tables_number   1
_chemical_formula_structural   Dy3TmMn4F28
_chemical_formula_sum   'Dy3 Tm1 Mn4 F28'
_cell_volume   487.51368474
_cell_formula_units_Z   1
loop_
 _symmetry_equiv_pos_site_id
 _symmetry_equiv_pos_as_xyz
  1  'x, y, z'
loop_
 _atom_site_type_symbol
 _atom_site_label
 _atom_site_symmetry_multiplicity
 _atom_site_fract_x
 _atom_site_fract_y
 _atom_site_fract_z
 _atom_site_occupancy
  Dy  Dy0  1  0.261231  0.187909  0.735408  1
  Dy  Dy1  1  0.238895  0.190257  0.235032  1
  Dy  Dy2  1  0.738856  0.809462  0.264928  1
  Tm  Tm3  1  0.761754  0.809352  0.764626  1
  Mn  Mn4  1  0.758542  0.274676  0.956129  1
  Mn  Mn5  1  0.258844  0.726971  0.544541  1
  Mn  Mn6  1  0.241224  0.727005  0.042030  1
  Mn  Mn7  1  0.741716  0.272359  0.457308  1
  F  F8  1  0.431764  0.705640  0.920466  1
  F  F9  1  0.930512  0.294666  0.579172  1
  F  F10  1  0.570296  0.295619  0.078480  1
  F  F11  1  0.070110  0.705234  0.422356  1
  F  F12  1  0.453122  0.278568  0.539792  1
  F  F13  1  0.952345  0.722125  0.958165  1
  F  F14  1  0.546204  0.720941  0.461087  1
  F  F15  1  0.047129  0.279830  0.039009  1
  F  F16  1  0.773995  0.514482  0.861749  1
  F  F17  1  0.274256  0.488030  0.638275  1
  F  F18  1  0.225010  0.488426  0.136926  1
  F  F19  1  0.725644  0.511443  0.362687  1
  F  F20  1  0.756044  0.037448  0.046013  1
  F  F21  1  0.256169  0.964013  0.453984  1
  F  F22  1  0.244210  0.964333  0.952857  1
  F  F23  1  0.743943  0.035104  0.547716  1
  F  F24  1  0.978509  0.727680  0.634179  1
  F  F25  1  0.478247  0.273778  0.867119  1
  F  F26  1  0.021918  0.273281  0.367967  1
  F  F27  1  0.521139  0.726459  0.131940  1
  F  F28  1  0.055707  0.743870  0.169494  1
  F  F29  1  0.556365  0.255810  0.329882  1
  F  F30  1  0.944072  0.256877  0.829248  1
  F  F31  1  0.448040  0.745063  0.671045  1
  F  F32  1  0.408054  0.968616  0.228984  1
  F  F33  1  0.907842  0.031259  0.270973  1
  F  F34  1  0.592179  0.026607  0.770556  1
  F  F35  1  0.086113  0.966810  0.729876  1
