# generated using pymatgen
data_ScCd(Ni7B2)3
_symmetry_space_group_name_H-M   'P 1'
_cell_length_a   7.48159406
_cell_length_b   7.48248466
_cell_length_c   7.48197006
_cell_angle_alpha   120.00620450
_cell_angle_beta   89.98695054
_cell_angle_gamma   120.00745820
_symmetry_Int_Tables_number   1
_chemical_formula_structural   ScCd(Ni7B2)3
_chemical_formula_sum   'Sc1 Cd1 Ni21 B6'
_cell_volume   296.14247450
_cell_formula_units_Z   1
loop_
 _symmetry_equiv_pos_site_id
 _symmetry_equiv_pos_as_xyz
  1  'x, y, z'
loop_
 _atom_site_type_symbol
 _atom_site_label
 _atom_site_symmetry_multiplicity
 _atom_site_fract_x
 _atom_site_fract_y
 _atom_site_fract_z
 _atom_site_occupancy
  Sc  Sc0  1  0.249996  0.500026  0.749953  1
  Cd  Cd1  1  0.749992  0.499992  0.249982  1
  Ni  Ni2  1  0.000030  0.000016  0.000039  1
  Ni  Ni3  1  0.335687  0.997410  0.998703  1
  Ni  Ni4  1  0.661742  0.997389  0.998732  1
  Ni  Ni5  1  0.001345  0.336957  0.998721  1
  Ni  Ni6  1  0.335697  0.337010  0.998741  1
  Ni  Ni7  1  0.001314  0.662991  0.998697  1
  Ni  Ni8  1  0.661756  0.663090  0.998733  1
  Ni  Ni9  1  0.385506  0.770926  0.156369  1
  Ni  Ni10  1  0.001257  0.002603  0.338289  1
  Ni  Ni11  1  0.001292  0.337024  0.338335  1
  Ni  Ni12  1  0.335662  0.337013  0.338268  1
  Ni  Ni13  1  0.613462  0.226898  0.386496  1
  Ni  Ni14  1  0.159650  0.773103  0.386571  1
  Ni  Ni15  1  0.613477  0.773034  0.386497  1
  Ni  Ni16  1  0.843615  0.229029  0.614475  1
  Ni  Ni17  1  0.385427  0.770842  0.614518  1
  Ni  Ni18  1  0.385415  0.229111  0.614542  1
  Ni  Ni19  1  0.001281  0.002571  0.664352  1
  Ni  Ni20  1  0.001289  0.663065  0.664354  1
  Ni  Ni21  1  0.661724  0.663049  0.664336  1
  Ni  Ni22  1  0.613408  0.226846  0.840292  1
  B  B23  1  0.728317  0.000034  0.271706  1
  B  B24  1  0.271695  0.000000  0.271690  1
  B  B25  1  0.271707  0.543429  0.271740  1
  B  B26  1  0.271708  0.000007  0.728307  1
  B  B27  1  0.728285  0.456570  0.728287  1
  B  B28  1  0.728265  0.999978  0.728279  1
