# generated using pymatgen
data_YLu2Mg(Co4P3)2
_symmetry_space_group_name_H-M   'P 1'
_cell_length_a   3.70846800
_cell_length_b   10.56686300
_cell_length_c   12.22910200
_cell_angle_alpha   90.00000000
_cell_angle_beta   90.00000000
_cell_angle_gamma   90.00000000
_symmetry_Int_Tables_number   1
_chemical_formula_structural   YLu2Mg(Co4P3)2
_chemical_formula_sum   'Y2 Lu4 Mg2 Co16 P12'
_cell_volume   479.22027060
_cell_formula_units_Z   2
loop_
 _symmetry_equiv_pos_site_id
 _symmetry_equiv_pos_as_xyz
  1  'x, y, z'
loop_
 _atom_site_type_symbol
 _atom_site_label
 _atom_site_symmetry_multiplicity
 _atom_site_fract_x
 _atom_site_fract_y
 _atom_site_fract_z
 _atom_site_occupancy
  Y  Y0  1  0.000000  0.500000  0.525946  1
  Y  Y1  1  0.500000  0.000000  0.474054  1
  Lu  Lu2  1  0.500000  0.822597  0.206145  1
  Lu  Lu3  1  0.500000  0.177403  0.206145  1
  Lu  Lu4  1  0.000000  0.677403  0.793855  1
  Lu  Lu5  1  0.000000  0.322597  0.793855  1
  Mg  Mg6  1  0.500000  0.500000  0.155796  1
  Mg  Mg7  1  0.000000  0.000000  0.844204  1
  Co  Co8  1  0.500000  0.500000  0.706990  1
  Co  Co9  1  0.000000  0.000000  0.293010  1
  Co  Co10  1  0.000000  0.500000  0.987824  1
  Co  Co11  1  0.500000  0.000000  0.012176  1
  Co  Co12  1  0.500000  0.332589  0.996334  1
  Co  Co13  1  0.500000  0.667411  0.996334  1
  Co  Co14  1  0.000000  0.167411  0.003666  1
  Co  Co15  1  0.000000  0.832589  0.003666  1
  Co  Co16  1  0.500000  0.295945  0.431322  1
  Co  Co17  1  0.500000  0.704055  0.431322  1
  Co  Co18  1  0.000000  0.204055  0.568678  1
  Co  Co19  1  0.000000  0.795945  0.568678  1
  Co  Co20  1  0.500000  0.876887  0.707263  1
  Co  Co21  1  0.500000  0.123113  0.707263  1
  Co  Co22  1  0.000000  0.623113  0.292737  1
  Co  Co23  1  0.000000  0.376887  0.292737  1
  P  P24  1  0.500000  0.500000  0.884304  1
  P  P25  1  0.000000  0.000000  0.115696  1
  P  P26  1  0.500000  0.500000  0.355070  1
  P  P27  1  0.000000  0.000000  0.644930  1
  P  P28  1  0.500000  0.309739  0.616936  1
  P  P29  1  0.500000  0.690261  0.616936  1
  P  P30  1  0.000000  0.190261  0.383064  1
  P  P31  1  0.000000  0.809739  0.383064  1
  P  P32  1  0.500000  0.837735  0.892060  1
  P  P33  1  0.500000  0.162265  0.892060  1
  P  P34  1  0.000000  0.662265  0.107940  1
  P  P35  1  0.000000  0.337735  0.107940  1
