# generated using pymatgen
data_Ce2Ho2Tc7Sn
_symmetry_space_group_name_H-M   'P 1'
_cell_length_a   5.42030500
_cell_length_b   5.42030453
_cell_length_c   9.06568700
_cell_angle_alpha   90.00000000
_cell_angle_beta   90.00000000
_cell_angle_gamma   120.00000894
_symmetry_Int_Tables_number   1
_chemical_formula_structural   Ce2Ho2Tc7Sn
_chemical_formula_sum   'Ce2 Ho2 Tc7 Sn1'
_cell_volume   230.66341936
_cell_formula_units_Z   1
loop_
 _symmetry_equiv_pos_site_id
 _symmetry_equiv_pos_as_xyz
  1  'x, y, z'
loop_
 _atom_site_type_symbol
 _atom_site_label
 _atom_site_symmetry_multiplicity
 _atom_site_fract_x
 _atom_site_fract_y
 _atom_site_fract_z
 _atom_site_occupancy
  Ce  Ce0  1  0.333333  0.666667  0.430804  1
  Ce  Ce1  1  0.666667  0.333333  0.569196  1
  Ho  Ho2  1  0.666667  0.333333  0.933195  1
  Ho  Ho3  1  0.333333  0.666667  0.066805  1
  Tc  Tc4  1  0.000000  0.000000  0.000000  1
  Tc  Tc5  1  0.826737  0.173263  0.241857  1
  Tc  Tc6  1  0.826737  0.653476  0.241857  1
  Tc  Tc7  1  0.346524  0.173263  0.241857  1
  Tc  Tc8  1  0.173263  0.826737  0.758143  1
  Tc  Tc9  1  0.173263  0.346524  0.758143  1
  Tc  Tc10  1  0.653476  0.826737  0.758143  1
  Sn  Sn11  1  0.000000  0.000000  0.500000  1
