# generated using pymatgen
data_Hf3GaSn2Ir3
_symmetry_space_group_name_H-M   'P 1'
_cell_length_a   7.43590285
_cell_length_b   7.43590439
_cell_length_c   3.54892500
_cell_angle_alpha   90.00000000
_cell_angle_beta   90.00000000
_cell_angle_gamma   120.94313772
_symmetry_Int_Tables_number   1
_chemical_formula_structural   Hf3GaSn2Ir3
_chemical_formula_sum   'Hf3 Ga1 Sn2 Ir3'
_cell_volume   168.30173991
_cell_formula_units_Z   1
loop_
 _symmetry_equiv_pos_site_id
 _symmetry_equiv_pos_as_xyz
  1  'x, y, z'
loop_
 _atom_site_type_symbol
 _atom_site_label
 _atom_site_symmetry_multiplicity
 _atom_site_fract_x
 _atom_site_fract_y
 _atom_site_fract_z
 _atom_site_occupancy
  Hf  Hf0  1  0.410057  0.410057  0.500000  1
  Hf  Hf1  1  0.602878  0.977417  0.500000  1
  Hf  Hf2  1  0.977417  0.602878  0.500000  1
  Ga  Ga3  1  0.731097  0.731097  0.000000  1
  Sn  Sn4  1  0.270926  0.000388  0.000000  1
  Sn  Sn5  1  0.000388  0.270926  0.000000  1
  Ir  Ir6  1  0.671606  0.346128  0.000000  1
  Ir  Ir7  1  0.346128  0.671606  0.000000  1
  Ir  Ir8  1  0.989504  0.989504  0.500000  1
