# generated using pymatgen
data_Nd2Dy(CuSn)4
_symmetry_space_group_name_H-M   'P 1'
_cell_length_a   8.56224650
_cell_length_b   8.56224678
_cell_length_c   8.56224622
_cell_angle_alpha   148.92933611
_cell_angle_beta   132.12353279
_cell_angle_gamma   58.17930488
_symmetry_Int_Tables_number   1
_chemical_formula_structural   Nd2Dy(CuSn)4
_chemical_formula_sum   'Nd2 Dy1 Cu4 Sn4'
_cell_volume   238.44522961
_cell_formula_units_Z   1
loop_
 _symmetry_equiv_pos_site_id
 _symmetry_equiv_pos_as_xyz
  1  'x, y, z'
loop_
 _atom_site_type_symbol
 _atom_site_label
 _atom_site_symmetry_multiplicity
 _atom_site_fract_x
 _atom_site_fract_y
 _atom_site_fract_z
 _atom_site_occupancy
  Nd  Nd0  1  0.132214  0.132214  0.000000  1
  Nd  Nd1  1  0.867786  0.867786  0.000000  1
  Dy  Dy2  1  0.500000  0.000000  0.500000  1
  Cu  Cu3  1  0.854176  0.669088  0.185088  1
  Cu  Cu4  1  0.484000  0.669088  0.814912  1
  Cu  Cu5  1  0.516000  0.330912  0.185088  1
  Cu  Cu6  1  0.145824  0.330912  0.814912  1
  Sn  Sn7  1  0.794549  0.500000  0.294549  1
  Sn  Sn8  1  0.205451  0.500000  0.705451  1
  Sn  Sn9  1  0.714340  0.214340  0.500000  1
  Sn  Sn10  1  0.285660  0.785660  0.500000  1
