# generated using pymatgen
data_Tb5Dy5Pb6
_symmetry_space_group_name_H-M   'P 1'
_cell_length_a   9.08560233
_cell_length_b   9.08906260
_cell_length_c   6.66260200
_cell_angle_alpha   89.99582107
_cell_angle_beta   90.00254016
_cell_angle_gamma   120.01790362
_symmetry_Int_Tables_number   1
_chemical_formula_structural   Tb5Dy5Pb6
_chemical_formula_sum   'Tb5 Dy5 Pb6'
_cell_volume   476.39691626
_cell_formula_units_Z   1
loop_
 _symmetry_equiv_pos_site_id
 _symmetry_equiv_pos_as_xyz
  1  'x, y, z'
loop_
 _atom_site_type_symbol
 _atom_site_label
 _atom_site_symmetry_multiplicity
 _atom_site_fract_x
 _atom_site_fract_y
 _atom_site_fract_z
 _atom_site_occupancy
  Tb  Tb0  1  0.762381  0.762277  0.249946  1
  Tb  Tb1  1  0.237656  0.999934  0.249953  1
  Tb  Tb2  1  0.000012  0.237760  0.249976  1
  Tb  Tb3  1  0.237683  0.237655  0.750001  1
  Tb  Tb4  1  0.762391  0.999973  0.749973  1
  Dy  Dy5  1  0.666649  0.333365  0.999933  1
  Dy  Dy6  1  0.333234  0.666632  0.000034  1
  Dy  Dy7  1  0.666691  0.333421  0.500054  1
  Dy  Dy8  1  0.333368  0.666742  0.500071  1
  Dy  Dy9  1  0.999987  0.762237  0.750090  1
  Pb  Pb10  1  0.605142  0.000010  0.250004  1
  Pb  Pb11  1  0.999946  0.605025  0.249970  1
  Pb  Pb12  1  0.394895  0.394888  0.249993  1
  Pb  Pb13  1  0.394644  0.999827  0.750013  1
  Pb  Pb14  1  0.999995  0.395033  0.750031  1
  Pb  Pb15  1  0.605330  0.605218  0.749958  1
