# generated using pymatgen
data_Zn12GaSi3Ir8
_symmetry_space_group_name_H-M   'P 1'
_cell_length_a   8.00024303
_cell_length_b   8.00024264
_cell_length_c   7.99116758
_cell_angle_alpha   59.96242607
_cell_angle_beta   59.96242327
_cell_angle_gamma   60.00000361
_symmetry_Int_Tables_number   1
_chemical_formula_structural   Zn12GaSi3Ir8
_chemical_formula_sum   'Zn12 Ga1 Si3 Ir8'
_cell_volume   361.45538530
_cell_formula_units_Z   1
loop_
 _symmetry_equiv_pos_site_id
 _symmetry_equiv_pos_as_xyz
  1  'x, y, z'
loop_
 _atom_site_type_symbol
 _atom_site_label
 _atom_site_symmetry_multiplicity
 _atom_site_fract_x
 _atom_site_fract_y
 _atom_site_fract_z
 _atom_site_occupancy
  Zn  Zn0  1  0.812893  0.812893  0.184468  1
  Zn  Zn1  1  0.186812  0.186812  0.813113  1
  Zn  Zn2  1  0.813262  0.186812  0.813113  1
  Zn  Zn3  1  0.189745  0.812893  0.184468  1
  Zn  Zn4  1  0.186812  0.813262  0.813113  1
  Zn  Zn5  1  0.812893  0.189745  0.184468  1
  Zn  Zn6  1  0.437107  0.437107  0.065532  1
  Zn  Zn7  1  0.063188  0.063188  0.436887  1
  Zn  Zn8  1  0.436738  0.063188  0.436887  1
  Zn  Zn9  1  0.060255  0.437107  0.065532  1
  Zn  Zn10  1  0.063188  0.436738  0.436887  1
  Zn  Zn11  1  0.437107  0.060255  0.065532  1
  Ga  Ga12  1  0.625000  0.625000  0.125000  1
  Si  Si13  1  0.125000  0.625000  0.625000  1
  Si  Si14  1  0.625000  0.125000  0.625000  1
  Si  Si15  1  0.625000  0.625000  0.625000  1
  Ir  Ir16  1  0.770624  0.404450  0.420477  1
  Ir  Ir17  1  0.404450  0.770624  0.420477  1
  Ir  Ir18  1  0.408839  0.408839  0.773483  1
  Ir  Ir19  1  0.404450  0.404450  0.420477  1
  Ir  Ir20  1  0.479376  0.845550  0.829523  1
  Ir  Ir21  1  0.845550  0.479376  0.829523  1
  Ir  Ir22  1  0.841161  0.841161  0.476517  1
  Ir  Ir23  1  0.845550  0.845550  0.829523  1
