# generated using pymatgen
data_Sr6Al2Sn7
_symmetry_space_group_name_H-M   'P 1'
_cell_length_a   8.15366650
_cell_length_b   8.15366721
_cell_length_c   12.37445232
_cell_angle_alpha   88.39216405
_cell_angle_beta   88.39216344
_cell_angle_gamma   35.69581910
_symmetry_Int_Tables_number   1
_chemical_formula_structural   Sr6Al2Sn7
_chemical_formula_sum   'Sr6 Al2 Sn7'
_cell_volume   479.81141904
_cell_formula_units_Z   1
loop_
 _symmetry_equiv_pos_site_id
 _symmetry_equiv_pos_as_xyz
  1  'x, y, z'
loop_
 _atom_site_type_symbol
 _atom_site_label
 _atom_site_symmetry_multiplicity
 _atom_site_fract_x
 _atom_site_fract_y
 _atom_site_fract_z
 _atom_site_occupancy
  Sr  Sr0  1  0.465269  0.465269  0.697818  1
  Sr  Sr1  1  0.806916  0.806916  0.296431  1
  Sr  Sr2  1  0.193084  0.193084  0.703569  1
  Sr  Sr3  1  0.365955  0.365955  0.003546  1
  Sr  Sr4  1  0.534731  0.534731  0.302182  1
  Sr  Sr5  1  0.634045  0.634045  0.996454  1
  Al  Al6  1  0.171799  0.171799  0.403702  1
  Al  Al7  1  0.828201  0.828201  0.596298  1
  Sn  Sn8  1  0.348344  0.348344  0.478416  1
  Sn  Sn9  1  0.178566  0.178566  0.177779  1
  Sn  Sn10  1  0.991744  0.991744  0.118483  1
  Sn  Sn11  1  0.821434  0.821434  0.822221  1
  Sn  Sn12  1  0.000000  0.000000  0.500000  1
  Sn  Sn13  1  0.008256  0.008256  0.881517  1
  Sn  Sn14  1  0.651656  0.651656  0.521584  1
