# generated using pymatgen
data_Tb4Fe2CoSiI2
_symmetry_space_group_name_H-M   'P 1'
_cell_length_a   4.01136100
_cell_length_b   4.01136016
_cell_length_c   16.94843100
_cell_angle_alpha   90.00000000
_cell_angle_beta   90.00000000
_cell_angle_gamma   119.99996572
_symmetry_Int_Tables_number   1
_chemical_formula_structural   Tb4Fe2CoSiI2
_chemical_formula_sum   'Tb4 Fe2 Co1 Si1 I2'
_cell_volume   236.18030859
_cell_formula_units_Z   1
loop_
 _symmetry_equiv_pos_site_id
 _symmetry_equiv_pos_as_xyz
  1  'x, y, z'
loop_
 _atom_site_type_symbol
 _atom_site_label
 _atom_site_symmetry_multiplicity
 _atom_site_fract_x
 _atom_site_fract_y
 _atom_site_fract_z
 _atom_site_occupancy
  Tb  Tb0  1  0.000000  0.000000  0.103921  1
  Tb  Tb1  1  0.000000  0.000000  0.605295  1
  Tb  Tb2  1  0.000000  0.000000  0.396919  1
  Tb  Tb3  1  0.000000  0.000000  0.895720  1
  Fe  Fe4  1  0.666667  0.333333  0.994591  1
  Fe  Fe5  1  0.333333  0.666667  0.004923  1
  Co  Co6  1  0.333333  0.666667  0.495711  1
  Si  Si7  1  0.666667  0.333333  0.503570  1
  I  I8  1  0.666667  0.333333  0.253266  1
  I  I9  1  0.333333  0.666667  0.746083  1
