# generated using pymatgen
data_Sm4Bi5SbRh7
_symmetry_space_group_name_H-M   'P 1'
_cell_length_a   7.83914934
_cell_length_b   7.83915010
_cell_length_c   7.83914968
_cell_angle_alpha   109.98041864
_cell_angle_beta   109.98041885
_cell_angle_gamma   108.45755902
_symmetry_Int_Tables_number   1
_chemical_formula_structural   Sm4Bi5SbRh7
_chemical_formula_sum   'Sm4 Bi5 Sb1 Rh7'
_cell_volume   370.75175792
_cell_formula_units_Z   1
loop_
 _symmetry_equiv_pos_site_id
 _symmetry_equiv_pos_as_xyz
  1  'x, y, z'
loop_
 _atom_site_type_symbol
 _atom_site_label
 _atom_site_symmetry_multiplicity
 _atom_site_fract_x
 _atom_site_fract_y
 _atom_site_fract_z
 _atom_site_occupancy
  Sm  Sm0  1  0.484531  0.002696  0.000000  1
  Sm  Sm1  1  0.002696  0.484531  0.000000  1
  Sm  Sm2  1  0.002696  0.002696  0.518165  1
  Sm  Sm3  1  0.484531  0.484531  0.481835  1
  Bi  Bi4  1  0.991092  0.306256  0.315165  1
  Bi  Bi5  1  0.675927  0.991092  0.684835  1
  Bi  Bi6  1  0.694989  0.694989  0.000000  1
  Bi  Bi7  1  0.991092  0.675927  0.684835  1
  Bi  Bi8  1  0.306256  0.991092  0.315165  1
  Sb  Sb9  1  0.338623  0.338623  0.000000  1
  Rh  Rh10  1  0.049259  0.049259  0.000000  1
  Rh  Rh11  1  0.498376  0.746408  0.248031  1
  Rh  Rh12  1  0.746408  0.498376  0.248031  1
  Rh  Rh13  1  0.242401  0.742401  0.500000  1
  Rh  Rh14  1  0.250345  0.498376  0.751969  1
  Rh  Rh15  1  0.498376  0.250345  0.751969  1
  Rh  Rh16  1  0.742401  0.242401  0.500000  1
