# generated using pymatgen
data_Be3NbCoRu
_symmetry_space_group_name_H-M   'P 1'
_cell_length_a   4.44404404
_cell_length_b   4.44404359
_cell_length_c   4.44404416
_cell_angle_alpha   62.08483360
_cell_angle_beta   62.08483557
_cell_angle_gamma   62.08482874
_symmetry_Int_Tables_number   1
_chemical_formula_structural   Be3NbCoRu
_chemical_formula_sum   'Be3 Nb1 Co1 Ru1'
_cell_volume   64.95347226
_cell_formula_units_Z   1
loop_
 _symmetry_equiv_pos_site_id
 _symmetry_equiv_pos_as_xyz
  1  'x, y, z'
loop_
 _atom_site_type_symbol
 _atom_site_label
 _atom_site_symmetry_multiplicity
 _atom_site_fract_x
 _atom_site_fract_y
 _atom_site_fract_z
 _atom_site_occupancy
  Be  Be0  1  0.620144  0.126587  0.126587  1
  Be  Be1  1  0.126587  0.620144  0.126587  1
  Be  Be2  1  0.126587  0.126587  0.620144  1
  Nb  Nb3  1  0.746242  0.746242  0.746242  1
  Co  Co4  1  0.123266  0.123266  0.123266  1
  Ru  Ru5  1  0.507174  0.507174  0.507174  1
