# generated using pymatgen
data_Sr2Ta3NbFe4(PO4)12
_symmetry_space_group_name_H-M   'P 1'
_cell_length_a   8.64129900
_cell_length_b   9.12446283
_cell_length_c   12.57703500
_cell_angle_alpha   86.41746430
_cell_angle_beta   90.00000000
_cell_angle_gamma   90.00000000
_symmetry_Int_Tables_number   1
_chemical_formula_structural   Sr2Ta3NbFe4(PO4)12
_chemical_formula_sum   'Sr2 Ta3 Nb1 Fe4 P12 O48'
_cell_volume   989.72625021
_cell_formula_units_Z   1
loop_
 _symmetry_equiv_pos_site_id
 _symmetry_equiv_pos_as_xyz
  1  'x, y, z'
loop_
 _atom_site_type_symbol
 _atom_site_label
 _atom_site_symmetry_multiplicity
 _atom_site_fract_x
 _atom_site_fract_y
 _atom_site_fract_z
 _atom_site_occupancy
  Sr  Sr0  1  0.000149  0.999875  0.499858  1
  Sr  Sr1  1  0.500111  0.499984  0.499959  1
  Ta  Ta2  1  0.999200  0.285783  0.147061  1
  Ta  Ta3  1  0.500771  0.785520  0.146876  1
  Ta  Ta4  1  0.000526  0.714528  0.853242  1
  Nb  Nb5  1  0.499242  0.215338  0.853418  1
  Fe  Fe6  1  0.501403  0.800845  0.645615  1
  Fe  Fe7  1  0.001374  0.699194  0.354338  1
  Fe  Fe8  1  0.498660  0.199109  0.354429  1
  Fe  Fe9  1  0.998543  0.300762  0.645448  1
  P  P10  1  0.353621  0.856240  0.395908  1
  P  P11  1  0.284156  0.500871  0.740610  1
  P  P12  1  0.146445  0.356345  0.395962  1
  P  P13  1  0.861658  0.360548  0.890209  1
  P  P14  1  0.360124  0.139276  0.110550  1
  P  P15  1  0.784807  0.999933  0.258928  1
  P  P16  1  0.214816  0.999806  0.740786  1
  P  P17  1  0.639361  0.859999  0.890202  1
  P  P18  1  0.139484  0.639621  0.109872  1
  P  P19  1  0.853624  0.643745  0.604118  1
  P  P20  1  0.715161  0.499961  0.259002  1
  P  P21  1  0.646624  0.143534  0.603663  1
  O  O22  1  0.306072  0.907744  0.665207  1
  O  O23  1  0.177770  0.830439  0.397813  1
  O  O24  1  0.433998  0.771040  0.489873  1
  O  O25  1  0.423779  0.789230  0.293943  1
  O  O26  1  0.396538  0.597528  0.674047  1
  O  O27  1  0.121650  0.522268  0.394172  1
  O  O28  1  0.193394  0.408331  0.665196  1
  O  O29  1  0.379437  0.395417  0.819614  1
  O  O30  1  0.119695  0.470884  0.112749  1
  O  O31  1  0.820426  0.408783  0.187895  1
  O  O32  1  0.322245  0.330497  0.397878  1
  O  O33  1  0.066043  0.271097  0.489893  1
  O  O34  1  0.076257  0.289311  0.294016  1
  O  O35  1  0.684616  0.329525  0.890988  1
  O  O36  1  0.925710  0.295299  0.998557  1
  O  O37  1  0.942841  0.291933  0.799380  1
  O  O38  1  0.441855  0.207789  0.201186  1
  O  O39  1  0.424398  0.205100  0.002467  1
  O  O40  1  0.183253  0.171370  0.109986  1
  O  O41  1  0.880215  0.106109  0.180507  1
  O  O42  1  0.378307  0.022186  0.394198  1
  O  O43  1  0.102699  0.096777  0.674099  1
  O  O44  1  0.319386  0.090764  0.812223  1
  O  O45  1  0.620969  0.028569  0.887556  1
  O  O46  1  0.380019  0.970644  0.113041  1
  O  O47  1  0.679494  0.908739  0.187870  1
  O  O48  1  0.896850  0.902836  0.325507  1
  O  O49  1  0.621869  0.977616  0.605546  1
  O  O50  1  0.119204  0.893755  0.819136  1
  O  O51  1  0.816227  0.827276  0.890742  1
  O  O52  1  0.575212  0.794607  0.998609  1
  O  O53  1  0.557787  0.791424  0.799443  1
  O  O54  1  0.057762  0.708068  0.200596  1
  O  O55  1  0.075390  0.704731  0.001498  1
  O  O56  1  0.316416  0.671757  0.109475  1
  O  O57  1  0.923654  0.710724  0.706040  1
  O  O58  1  0.933939  0.728883  0.510062  1
  O  O59  1  0.677741  0.669454  0.602149  1
  O  O60  1  0.179135  0.591855  0.811709  1
  O  O61  1  0.881265  0.529166  0.887402  1
  O  O62  1  0.619750  0.605996  0.180528  1
  O  O63  1  0.806473  0.591938  0.334517  1
  O  O64  1  0.878339  0.477742  0.605825  1
  O  O65  1  0.603141  0.402866  0.325544  1
  O  O66  1  0.576528  0.211185  0.705366  1
  O  O67  1  0.566335  0.228709  0.509624  1
  O  O68  1  0.822446  0.169318  0.601761  1
  O  O69  1  0.693611  0.091903  0.334514  1
