# generated using pymatgen
data_Tm10Si16Sn
_symmetry_space_group_name_H-M   'P 1'
_cell_length_a   11.01457449
_cell_length_b   10.95813216
_cell_length_c   11.01457481
_cell_angle_alpha   144.82198910
_cell_angle_beta   136.20805547
_cell_angle_gamma   57.46661685
_symmetry_Int_Tables_number   1
_chemical_formula_structural   Tm10Si16Sn
_chemical_formula_sum   'Tm10 Si16 Sn1'
_cell_volume   525.48119449
_cell_formula_units_Z   1
loop_
 _symmetry_equiv_pos_site_id
 _symmetry_equiv_pos_as_xyz
  1  'x, y, z'
loop_
 _atom_site_type_symbol
 _atom_site_label
 _atom_site_symmetry_multiplicity
 _atom_site_fract_x
 _atom_site_fract_y
 _atom_site_fract_z
 _atom_site_occupancy
  Tm  Tm0  1  0.757061  0.759454  0.517740  1
  Tm  Tm1  1  0.440306  0.971887  0.015258  1
  Tm  Tm2  1  0.848601  0.369325  0.019687  1
  Tm  Tm3  1  0.956628  0.971887  0.531580  1
  Tm  Tm4  1  0.149977  0.164461  0.515997  1
  Tm  Tm5  1  0.349638  0.369325  0.520724  1
  Tm  Tm6  1  0.241714  0.759454  0.002394  1
  Tm  Tm7  1  0.546127  0.558188  0.497084  1
  Tm  Tm8  1  0.061104  0.558188  0.012062  1
  Tm  Tm9  1  0.648465  0.164461  0.014485  1
  Si  Si10  1  0.199711  0.573960  0.374250  1
  Si  Si11  1  0.000456  0.081988  0.081531  1
  Si  Si12  1  0.696651  0.277306  0.580656  1
  Si  Si13  1  0.799466  0.174782  0.375317  1
  Si  Si14  1  0.895315  0.501892  0.606578  1
  Si  Si15  1  0.420377  0.876990  0.456612  1
  Si  Si16  1  0.104539  0.714217  0.609678  1
  Si  Si17  1  0.301828  0.894348  0.592521  1
  Si  Si18  1  0.575244  0.040097  0.464854  1
  Si  Si19  1  0.999590  0.430963  0.431374  1
  Si  Si20  1  0.881240  0.840565  0.959326  1
  Si  Si21  1  0.401510  0.500038  0.098528  1
  Si  Si22  1  0.120335  0.091046  0.970710  1
  Si  Si23  1  0.286637  0.239726  0.953090  1
  Si  Si24  1  0.499369  0.378697  0.879328  1
  Si  Si25  1  0.595246  0.705301  0.110054  1
  Sn  Sn26  1  0.722868  0.692950  0.970080  1
