# generated using pymatgen
data_Li3Si3NiRh
_symmetry_space_group_name_H-M   'P 1'
_cell_length_a   5.75849364
_cell_length_b   5.78364000
_cell_length_c   5.76511730
_cell_angle_alpha   90.00000000
_cell_angle_beta   90.62044939
_cell_angle_gamma   90.00000000
_symmetry_Int_Tables_number   1
_chemical_formula_structural   Li3Si3NiRh
_chemical_formula_sum   'Li6 Si6 Ni2 Rh2'
_cell_volume   191.99628596
_cell_formula_units_Z   2
loop_
 _symmetry_equiv_pos_site_id
 _symmetry_equiv_pos_as_xyz
  1  'x, y, z'
loop_
 _atom_site_type_symbol
 _atom_site_label
 _atom_site_symmetry_multiplicity
 _atom_site_fract_x
 _atom_site_fract_y
 _atom_site_fract_z
 _atom_site_occupancy
  Li  Li0  1  0.250000  0.750000  0.250000  1
  Li  Li1  1  0.750000  0.750000  0.750000  1
  Li  Li2  1  0.250000  0.250000  0.750000  1
  Li  Li3  1  0.750000  0.250000  0.250000  1
  Li  Li4  1  0.000000  0.992093  0.000000  1
  Li  Li5  1  0.500000  0.507907  0.500000  1
  Si  Si6  1  0.500000  0.990714  0.000000  1
  Si  Si7  1  0.500000  0.991791  0.500000  1
  Si  Si8  1  0.000000  0.509286  0.500000  1
  Si  Si9  1  0.000000  0.508209  0.000000  1
  Si  Si10  1  0.500000  0.509336  0.000000  1
  Si  Si11  1  0.000000  0.990664  0.500000  1
  Ni  Ni12  1  0.250000  0.750000  0.750000  1
  Ni  Ni13  1  0.750000  0.750000  0.250000  1
  Rh  Rh14  1  0.250000  0.250000  0.250000  1
  Rh  Rh15  1  0.750000  0.250000  0.750000  1
