# generated using pymatgen
data_LaU2Cu2Se7
_symmetry_space_group_name_H-M   'P 1'
_cell_length_a   10.26712798
_cell_length_b   10.33178656
_cell_length_c   6.03729072
_cell_angle_alpha   89.55979836
_cell_angle_beta   90.42581283
_cell_angle_gamma   120.54407057
_symmetry_Int_Tables_number   1
_chemical_formula_structural   LaU2Cu2Se7
_chemical_formula_sum   'La2 U4 Cu4 Se14'
_cell_volume   551.53550467
_cell_formula_units_Z   2
loop_
 _symmetry_equiv_pos_site_id
 _symmetry_equiv_pos_as_xyz
  1  'x, y, z'
loop_
 _atom_site_type_symbol
 _atom_site_label
 _atom_site_symmetry_multiplicity
 _atom_site_fract_x
 _atom_site_fract_y
 _atom_site_fract_z
 _atom_site_occupancy
  La  La0  1  0.221491  0.844302  0.032399  1
  La  La1  1  0.153739  0.377720  0.029738  1
  U  U2  1  0.850450  0.620571  0.533264  1
  U  U3  1  0.619392  0.771296  0.021884  1
  U  U4  1  0.772917  0.150761  0.531493  1
  U  U5  1  0.376980  0.228401  0.531560  1
  Cu  Cu6  1  0.664451  0.335461  0.158646  1
  Cu  Cu7  1  0.335078  0.666713  0.654767  1
  Cu  Cu8  1  0.999675  0.000806  0.499415  1
  Cu  Cu9  1  0.995431  0.996832  0.001483  1
  Se  Se10  1  0.665874  0.332196  0.755386  1
  Se  Se11  1  0.566535  0.487547  0.284962  1
  Se  Se12  1  0.152850  0.895297  0.519633  1
  Se  Se13  1  0.514807  0.085823  0.294458  1
  Se  Se14  1  0.447593  0.520627  0.773295  1
  Se  Se15  1  0.497229  0.920319  0.778399  1
  Se  Se16  1  0.834954  0.097829  0.018926  1
  Se  Se17  1  0.073041  0.563684  0.763672  1
  Se  Se18  1  0.738562  0.845953  0.505140  1
  Se  Se19  1  0.354612  0.674734  0.257225  1
  Se  Se20  1  0.916911  0.436107  0.283840  1
  Se  Se21  1  0.262272  0.154146  0.010359  1
  Se  Se22  1  0.108220  0.260809  0.520250  1
  Se  Se23  1  0.876935  0.732064  0.006209  1
