# generated using pymatgen
data_Tb9Dy2TmRu4
_symmetry_space_group_name_H-M   'P 1'
_cell_length_a   6.33551893
_cell_length_b   7.30323390
_cell_length_c   9.24038035
_cell_angle_alpha   89.96739659
_cell_angle_beta   90.21435837
_cell_angle_gamma   89.94741491
_symmetry_Int_Tables_number   1
_chemical_formula_structural   Tb9Dy2TmRu4
_chemical_formula_sum   'Tb9 Dy2 Tm1 Ru4'
_cell_volume   427.54709196
_cell_formula_units_Z   1
loop_
 _symmetry_equiv_pos_site_id
 _symmetry_equiv_pos_as_xyz
  1  'x, y, z'
loop_
 _atom_site_type_symbol
 _atom_site_label
 _atom_site_symmetry_multiplicity
 _atom_site_fract_x
 _atom_site_fract_y
 _atom_site_fract_z
 _atom_site_occupancy
  Tb  Tb0  1  0.634384  0.040714  0.251320  1
  Tb  Tb1  1  0.366102  0.960531  0.748855  1
  Tb  Tb2  1  0.133608  0.459229  0.748453  1
  Tb  Tb3  1  0.865775  0.539798  0.251463  1
  Tb  Tb4  1  0.170597  0.177526  0.065641  1
  Tb  Tb5  1  0.829728  0.823077  0.934789  1
  Tb  Tb6  1  0.670000  0.322186  0.933717  1
  Tb  Tb7  1  0.829373  0.822857  0.564468  1
  Tb  Tb8  1  0.330066  0.677060  0.065822  1
  Dy  Dy9  1  0.170304  0.177304  0.435367  1
  Dy  Dy10  1  0.330603  0.675881  0.435495  1
  Tm  Tm11  1  0.669355  0.323908  0.565245  1
  Ru  Ru12  1  0.460920  0.385722  0.252793  1
  Ru  Ru13  1  0.539596  0.613267  0.748277  1
  Ru  Ru14  1  0.959067  0.114764  0.748277  1
  Ru  Ru15  1  0.040522  0.886177  0.250016  1
