# generated using pymatgen
data_V19Si12Ir
_symmetry_space_group_name_H-M   'P 1'
_cell_length_a   7.06881611
_cell_length_b   7.06903532
_cell_length_c   13.31979500
_cell_angle_alpha   89.94576015
_cell_angle_beta   90.05378763
_cell_angle_gamma   140.79581832
_symmetry_Int_Tables_number   1
_chemical_formula_structural   V19Si12Ir
_chemical_formula_sum   'V19 Si12 Ir1'
_cell_volume   420.70748053
_cell_formula_units_Z   1
loop_
 _symmetry_equiv_pos_site_id
 _symmetry_equiv_pos_as_xyz
  1  'x, y, z'
loop_
 _atom_site_type_symbol
 _atom_site_label
 _atom_site_symmetry_multiplicity
 _atom_site_fract_x
 _atom_site_fract_y
 _atom_site_fract_z
 _atom_site_occupancy
  V  V0  1  0.499920  0.500103  0.999679  1
  V  V1  1  0.501379  0.499371  0.500864  1
  V  V2  1  0.000624  0.000825  0.999653  1
  V  V3  1  0.575843  0.924853  0.900309  1
  V  V4  1  0.423807  0.075368  0.601188  1
  V  V5  1  0.925457  0.575123  0.101256  1
  V  V6  1  0.849549  0.650412  0.674293  1
  V  V7  1  0.350643  0.149692  0.174788  1
  V  V8  1  0.652961  0.846528  0.325631  1
  V  V9  1  0.149585  0.350593  0.824888  1
  V  V10  1  0.649714  0.850202  0.673270  1
  V  V11  1  0.149446  0.350926  0.173359  1
  V  V12  1  0.845823  0.653898  0.324755  1
  V  V13  1  0.349865  0.150326  0.825180  1
  V  V14  1  0.425483  0.073680  0.400227  1
  V  V15  1  0.924290  0.576353  0.899556  1
  V  V16  1  0.075667  0.423829  0.603508  1
  V  V17  1  0.575162  0.925480  0.099745  1
  V  V18  1  0.999931  0.997832  0.500925  1
  Si  Si19  1  0.249319  0.749951  0.750863  1
  Si  Si20  1  0.748018  0.248988  0.248880  1
  Si  Si21  1  0.750040  0.250784  0.750843  1
  Si  Si22  1  0.251080  0.752018  0.248868  1
  Si  Si23  1  0.249856  0.250004  0.666632  1
  Si  Si24  1  0.749711  0.750989  0.164539  1
  Si  Si25  1  0.252298  0.247086  0.333716  1
  Si  Si26  1  0.749780  0.750620  0.833651  1
  Si  Si27  1  0.581348  0.917860  0.501123  1
  Si  Si28  1  0.083977  0.416935  0.999521  1
  Si  Si29  1  0.916682  0.581857  0.500001  1
  Si  Si30  1  0.416359  0.084578  0.999837  1
  Ir  Ir31  1  0.076381  0.422941  0.398451  1
