# generated using pymatgen
data_Ac6As4PbO20
_symmetry_space_group_name_H-M   'P 1'
_cell_length_a   7.48597708
_cell_length_b   8.14032106
_cell_length_c   9.58145842
_cell_angle_alpha   105.69823635
_cell_angle_beta   95.90778817
_cell_angle_gamma   110.47090338
_symmetry_Int_Tables_number   1
_chemical_formula_structural   Ac6As4PbO20
_chemical_formula_sum   'Ac6 As4 Pb1 O20'
_cell_volume   513.81393091
_cell_formula_units_Z   1
loop_
 _symmetry_equiv_pos_site_id
 _symmetry_equiv_pos_as_xyz
  1  'x, y, z'
loop_
 _atom_site_type_symbol
 _atom_site_label
 _atom_site_symmetry_multiplicity
 _atom_site_fract_x
 _atom_site_fract_y
 _atom_site_fract_z
 _atom_site_occupancy
  Ac  Ac0  1  0.324980  0.125956  0.478952  1
  Ac  Ac1  1  0.675020  0.874044  0.521048  1
  Ac  Ac2  1  0.433789  0.787826  0.091347  1
  Ac  Ac3  1  0.566211  0.212174  0.908653  1
  Ac  Ac4  1  0.818216  0.274805  0.324181  1
  Ac  Ac5  1  0.181784  0.725195  0.675819  1
  As  As6  1  0.067298  0.282040  0.750715  1
  As  As7  1  0.932702  0.717960  0.249285  1
  As  As8  1  0.358092  0.411111  0.257443  1
  As  As9  1  0.641908  0.588889  0.742557  1
  Pb  Pb10  1  0.000000  0.000000  0.000000  1
  O  O11  1  0.149369  0.253788  0.286135  1
  O  O12  1  0.850631  0.746212  0.713865  1
  O  O13  1  0.153044  0.515543  0.842824  1
  O  O14  1  0.846956  0.484457  0.157176  1
  O  O15  1  0.700442  0.074726  0.081354  1
  O  O16  1  0.299558  0.925274  0.918646  1
  O  O17  1  0.554002  0.027740  0.359248  1
  O  O18  1  0.445998  0.972260  0.640752  1
  O  O19  1  0.365412  0.632426  0.317451  1
  O  O20  1  0.634588  0.367574  0.682549  1
  O  O21  1  0.241185  0.189251  0.746628  1
  O  O22  1  0.758815  0.810749  0.253372  1
  O  O23  1  0.547022  0.393951  0.364270  1
  O  O24  1  0.452978  0.606049  0.635730  1
  O  O25  1  0.019201  0.769365  0.439458  1
  O  O26  1  0.980799  0.230635  0.560542  1
  O  O27  1  0.125108  0.848859  0.188537  1
  O  O28  1  0.874892  0.151141  0.811463  1
  O  O29  1  0.351957  0.345305  0.071164  1
  O  O30  1  0.648043  0.654695  0.928836  1
