# generated using pymatgen
data_Cs2Dy3Lu3Te10
_symmetry_space_group_name_H-M   'P 1'
_cell_length_a   4.38560800
_cell_length_b   13.40320688
_cell_length_c   23.52037543
_cell_angle_alpha   89.79024511
_cell_angle_beta   90.00000000
_cell_angle_gamma   90.00000000
_symmetry_Int_Tables_number   1
_chemical_formula_structural   Cs2Dy3Lu3Te10
_chemical_formula_sum   'Cs4 Dy6 Lu6 Te20'
_cell_volume   1382.54689341
_cell_formula_units_Z   2
loop_
 _symmetry_equiv_pos_site_id
 _symmetry_equiv_pos_as_xyz
  1  'x, y, z'
loop_
 _atom_site_type_symbol
 _atom_site_label
 _atom_site_symmetry_multiplicity
 _atom_site_fract_x
 _atom_site_fract_y
 _atom_site_fract_z
 _atom_site_occupancy
  Cs  Cs0  1  0.250000  0.352095  0.089439  1
  Cs  Cs1  1  0.750000  0.647905  0.910561  1
  Cs  Cs2  1  0.750000  0.851410  0.409848  1
  Cs  Cs3  1  0.250000  0.148590  0.590152  1
  Dy  Dy4  1  0.250000  0.454487  0.698785  1
  Dy  Dy5  1  0.750000  0.545513  0.301215  1
  Dy  Dy6  1  0.750000  0.956492  0.801906  1
  Dy  Dy7  1  0.250000  0.043508  0.198094  1
  Dy  Dy8  1  0.250000  0.795861  0.673873  1
  Dy  Dy9  1  0.750000  0.204139  0.326127  1
  Lu  Lu10  1  0.750000  0.295473  0.825954  1
  Lu  Lu11  1  0.250000  0.704527  0.174046  1
  Lu  Lu12  1  0.250000  0.393965  0.444426  1
  Lu  Lu13  1  0.750000  0.606035  0.555574  1
  Lu  Lu14  1  0.750000  0.893684  0.056107  1
  Lu  Lu15  1  0.250000  0.106316  0.943893  1
  Te  Te16  1  0.250000  0.446979  0.568405  1
  Te  Te17  1  0.750000  0.553021  0.431595  1
  Te  Te18  1  0.750000  0.947155  0.931958  1
  Te  Te19  1  0.250000  0.052845  0.068042  1
  Te  Te20  1  0.250000  0.761607  0.544870  1
  Te  Te21  1  0.750000  0.238393  0.455130  1
  Te  Te22  1  0.750000  0.262166  0.953074  1
  Te  Te23  1  0.250000  0.737834  0.046926  1
  Te  Te24  1  0.250000  0.800990  0.803650  1
  Te  Te25  1  0.750000  0.199010  0.196350  1
  Te  Te26  1  0.750000  0.299337  0.698023  1
  Te  Te27  1  0.250000  0.700663  0.301977  1
  Te  Te28  1  0.250000  0.447883  0.829327  1
  Te  Te29  1  0.750000  0.552117  0.170673  1
  Te  Te30  1  0.750000  0.952726  0.671400  1
  Te  Te31  1  0.250000  0.047274  0.328600  1
  Te  Te32  1  0.250000  0.375299  0.313708  1
  Te  Te33  1  0.750000  0.624701  0.686292  1
  Te  Te34  1  0.750000  0.872535  0.186210  1
  Te  Te35  1  0.250000  0.127465  0.813790  1
