# generated using pymatgen
data_CaDy3Sc4(B6Os)4
_symmetry_space_group_name_H-M   'P 1'
_cell_length_a   3.56430000
_cell_length_b   8.97670453
_cell_length_c   11.37038416
_cell_angle_alpha   89.98518174
_cell_angle_beta   90.00000000
_cell_angle_gamma   90.00000000
_symmetry_Int_Tables_number   1
_chemical_formula_structural   CaDy3Sc4(B6Os)4
_chemical_formula_sum   'Ca1 Dy3 Sc4 B24 Os4'
_cell_volume   363.80302406
_cell_formula_units_Z   1
loop_
 _symmetry_equiv_pos_site_id
 _symmetry_equiv_pos_as_xyz
  1  'x, y, z'
loop_
 _atom_site_type_symbol
 _atom_site_label
 _atom_site_symmetry_multiplicity
 _atom_site_fract_x
 _atom_site_fract_y
 _atom_site_fract_z
 _atom_site_occupancy
  Ca  Ca0  1  0.000000  0.320515  0.413737  1
  Dy  Dy1  1  0.000000  0.678304  0.585422  1
  Dy  Dy2  1  0.000000  0.820150  0.086362  1
  Dy  Dy3  1  0.000000  0.180478  0.914519  1
  Sc  Sc4  1  0.000000  0.945368  0.372643  1
  Sc  Sc5  1  0.000000  0.056185  0.626613  1
  Sc  Sc6  1  0.000000  0.444847  0.127156  1
  Sc  Sc7  1  0.000000  0.554269  0.874016  1
  B  B8  1  0.500000  0.554991  0.432407  1
  B  B9  1  0.500000  0.445187  0.567691  1
  B  B10  1  0.500000  0.054220  0.066881  1
  B  B11  1  0.500000  0.945082  0.932340  1
  B  B12  1  0.500000  0.752802  0.418418  1
  B  B13  1  0.500000  0.247781  0.581553  1
  B  B14  1  0.500000  0.252464  0.081409  1
  B  B15  1  0.500000  0.746998  0.918852  1
  B  B16  1  0.500000  0.794128  0.265394  1
  B  B17  1  0.500000  0.206728  0.734721  1
  B  B18  1  0.500000  0.293199  0.234295  1
  B  B19  1  0.500000  0.706378  0.765584  1
  B  B20  1  0.500000  0.629244  0.183226  1
  B  B21  1  0.500000  0.371051  0.817669  1
  B  B22  1  0.500000  0.128909  0.316538  1
  B  B23  1  0.500000  0.870909  0.682780  1
  B  B24  1  0.500000  0.981638  0.213887  1
  B  B25  1  0.500000  0.018298  0.785313  1
  B  B26  1  0.500000  0.481911  0.285540  1
  B  B27  1  0.500000  0.517999  0.714540  1
  B  B28  1  0.500000  0.599974  0.027306  1
  B  B29  1  0.500000  0.400253  0.973321  1
  B  B30  1  0.500000  0.097879  0.473399  1
  B  B31  1  0.500000  0.901462  0.526747  1
  Os  Os32  1  0.000000  0.641512  0.318174  1
  Os  Os33  1  0.000000  0.359984  0.682872  1
  Os  Os34  1  0.000000  0.138795  0.180392  1
  Os  Os35  1  0.000000  0.860104  0.818290  1
