# generated using pymatgen
data_ZnB3Ir4Au
_symmetry_space_group_name_H-M   'P 1'
_cell_length_a   13.86550328
_cell_length_b   13.86550299
_cell_length_c   2.78889000
_cell_angle_alpha   90.00000000
_cell_angle_beta   90.00000000
_cell_angle_gamma   167.90109633
_symmetry_Int_Tables_number   1
_chemical_formula_structural   ZnB3Ir4Au
_chemical_formula_sum   'Zn1 B3 Ir4 Au1'
_cell_volume   112.38119003
_cell_formula_units_Z   1
loop_
 _symmetry_equiv_pos_site_id
 _symmetry_equiv_pos_as_xyz
  1  'x, y, z'
loop_
 _atom_site_type_symbol
 _atom_site_label
 _atom_site_symmetry_multiplicity
 _atom_site_fract_x
 _atom_site_fract_y
 _atom_site_fract_z
 _atom_site_occupancy
  Zn  Zn0  1  0.288170  0.711830  0.500000  1
  B  B1  1  0.389709  0.610291  0.500000  1
  B  B2  1  0.605554  0.394446  0.000000  1
  B  B3  1  0.989871  0.010129  0.500000  1
  Ir  Ir4  1  0.137054  0.862946  0.500000  1
  Ir  Ir5  1  0.857870  0.142130  0.000000  1
  Ir  Ir6  1  0.544492  0.455508  0.500000  1
  Ir  Ir7  1  0.453283  0.546717  0.000000  1
  Au  Au8  1  0.717996  0.282004  0.000000  1
