# generated using pymatgen
data_PrHo3Ga5Ir9
_symmetry_space_group_name_H-M   'P 1'
_cell_length_a   12.43106674
_cell_length_b   12.43106728
_cell_length_c   12.43106700
_cell_angle_alpha   26.14887504
_cell_angle_beta   26.14888046
_cell_angle_gamma   26.14887324
_symmetry_Int_Tables_number   1
_chemical_formula_structural   PrHo3Ga5Ir9
_chemical_formula_sum   'Pr1 Ho3 Ga5 Ir9'
_cell_volume   328.71481338
_cell_formula_units_Z   1
loop_
 _symmetry_equiv_pos_site_id
 _symmetry_equiv_pos_as_xyz
  1  'x, y, z'
loop_
 _atom_site_type_symbol
 _atom_site_label
 _atom_site_symmetry_multiplicity
 _atom_site_fract_x
 _atom_site_fract_y
 _atom_site_fract_z
 _atom_site_occupancy
  Pr  Pr0  1  0.950433  0.950433  0.950433  1
  Ho  Ho1  1  0.048246  0.048246  0.048246  1
  Ho  Ho2  1  0.852909  0.852909  0.852909  1
  Ho  Ho3  1  0.146274  0.146274  0.146274  1
  Ga  Ga4  1  0.500009  0.500009  0.500009  1
  Ga  Ga5  1  0.722155  0.722155  0.722155  1
  Ga  Ga6  1  0.278230  0.278230  0.278230  1
  Ga  Ga7  1  0.610284  0.610284  0.610284  1
  Ga  Ga8  1  0.390021  0.390021  0.390021  1
  Ir  Ir9  1  0.500607  0.500607  0.000464  1
  Ir  Ir10  1  0.000464  0.500607  0.500607  1
  Ir  Ir11  1  0.500607  0.000464  0.500607  1
  Ir  Ir12  1  0.384626  0.896999  0.384626  1
  Ir  Ir13  1  0.384626  0.384626  0.896999  1
  Ir  Ir14  1  0.896999  0.384626  0.384626  1
  Ir  Ir15  1  0.615097  0.103315  0.615097  1
  Ir  Ir16  1  0.615097  0.615097  0.103315  1
  Ir  Ir17  1  0.103315  0.615097  0.615097  1
