# generated using pymatgen
data_Li5Cd13
_symmetry_space_group_name_H-M   'P 1'
_cell_length_a   8.42335655
_cell_length_b   8.42161202
_cell_length_c   5.98619197
_cell_angle_alpha   89.98386818
_cell_angle_beta   90.00806874
_cell_angle_gamma   119.99314050
_symmetry_Int_Tables_number   1
_chemical_formula_structural   Li5Cd13
_chemical_formula_sum   'Li5 Cd13'
_cell_volume   367.78302769
_cell_formula_units_Z   1
loop_
 _symmetry_equiv_pos_site_id
 _symmetry_equiv_pos_as_xyz
  1  'x, y, z'
loop_
 _atom_site_type_symbol
 _atom_site_label
 _atom_site_symmetry_multiplicity
 _atom_site_fract_x
 _atom_site_fract_y
 _atom_site_fract_z
 _atom_site_occupancy
  Li  Li0  1  0.000000  0.638050  0.272695  1
  Li  Li1  1  0.695299  0.029214  0.272934  1
  Li  Li2  1  0.304701  0.333914  0.272934  1
  Li  Li3  1  0.333016  0.999475  0.790953  1
  Li  Li4  1  0.666984  0.666459  0.790953  1
  Cd  Cd5  1  0.000000  0.333568  0.037561  1
  Cd  Cd6  1  0.362052  0.694706  0.533345  1
  Cd  Cd7  1  0.000000  0.972411  0.533030  1
  Cd  Cd8  1  0.637948  0.332651  0.533345  1
  Cd  Cd9  1  0.000000  0.646187  0.774090  1
  Cd  Cd10  1  0.687297  0.020474  0.774757  1
  Cd  Cd11  1  0.312703  0.333177  0.774757  1
  Cd  Cd12  1  0.332862  0.999588  0.289874  1
  Cd  Cd13  1  0.667138  0.666726  0.289874  1
  Cd  Cd14  1  0.000000  0.333720  0.512863  1
  Cd  Cd15  1  0.364960  0.697819  0.034974  1
  Cd  Cd16  1  0.000000  0.969006  0.034448  1
  Cd  Cd17  1  0.635040  0.332858  0.034974  1
