# generated using pymatgen
data_Tb4Y6Er6Cd4NiRu3
_symmetry_space_group_name_H-M   'P 1'
_cell_length_a   9.54366806
_cell_length_b   9.54366868
_cell_length_c   9.54366800
_cell_angle_alpha   60.00000236
_cell_angle_beta   60.00000020
_cell_angle_gamma   60.00000029
_symmetry_Int_Tables_number   1
_chemical_formula_structural   Tb4Y6Er6Cd4NiRu3
_chemical_formula_sum   'Tb4 Y6 Er6 Cd4 Ni1 Ru3'
_cell_volume   614.65442698
_cell_formula_units_Z   1
loop_
 _symmetry_equiv_pos_site_id
 _symmetry_equiv_pos_as_xyz
  1  'x, y, z'
loop_
 _atom_site_type_symbol
 _atom_site_label
 _atom_site_symmetry_multiplicity
 _atom_site_fract_x
 _atom_site_fract_y
 _atom_site_fract_z
 _atom_site_occupancy
  Tb  Tb0  1  0.600753  0.596362  0.596362  1
  Tb  Tb1  1  0.600753  0.596362  0.206524  1
  Tb  Tb2  1  0.600753  0.206524  0.596362  1
  Tb  Tb3  1  0.205315  0.598228  0.598228  1
  Y  Y4  1  0.190065  0.809928  0.809928  1
  Y  Y5  1  0.809030  0.187391  0.187391  1
  Y  Y6  1  0.809030  0.187391  0.816188  1
  Y  Y7  1  0.190065  0.809928  0.190079  1
  Y  Y8  1  0.809030  0.816188  0.187391  1
  Y  Y9  1  0.190065  0.190079  0.809928  1
  Er  Er10  1  0.061246  0.438143  0.438143  1
  Er  Er11  1  0.437613  0.062004  0.062004  1
  Er  Er12  1  0.437613  0.062004  0.438379  1
  Er  Er13  1  0.061246  0.438143  0.062468  1
  Er  Er14  1  0.437613  0.438379  0.062004  1
  Er  Er15  1  0.061246  0.062468  0.438143  1
  Cd  Cd16  1  0.829879  0.830710  0.830710  1
  Cd  Cd17  1  0.829879  0.830710  0.508701  1
  Cd  Cd18  1  0.829879  0.508701  0.830710  1
  Cd  Cd19  1  0.508956  0.830348  0.830348  1
  Ni  Ni20  1  0.829211  0.390264  0.390264  1
  Ru  Ru21  1  0.390253  0.389821  0.389821  1
  Ru  Ru22  1  0.390253  0.389821  0.830107  1
  Ru  Ru23  1  0.390253  0.830107  0.389821  1
