# generated using pymatgen
data_Ho2LuIn3Ag2Rh
_symmetry_space_group_name_H-M   'P 1'
_cell_length_a   7.98884527
_cell_length_b   8.00943776
_cell_length_c   3.64814300
_cell_angle_alpha   90.00000000
_cell_angle_beta   90.00000000
_cell_angle_gamma   119.94397251
_symmetry_Int_Tables_number   1
_chemical_formula_structural   Ho2LuIn3Ag2Rh
_chemical_formula_sum   'Ho2 Lu1 In3 Ag2 Rh1'
_cell_volume   202.27091477
_cell_formula_units_Z   1
loop_
 _symmetry_equiv_pos_site_id
 _symmetry_equiv_pos_as_xyz
  1  'x, y, z'
loop_
 _atom_site_type_symbol
 _atom_site_label
 _atom_site_symmetry_multiplicity
 _atom_site_fract_x
 _atom_site_fract_y
 _atom_site_fract_z
 _atom_site_occupancy
  Ho  Ho0  1  0.614474  0.582375  0.500000  1
  Ho  Ho1  1  0.418656  0.031900  0.500000  1
  Lu  Lu2  1  0.963777  0.384483  0.500000  1
  In  In3  1  0.269947  0.278937  0.000000  1
  In  In4  1  0.008494  0.729482  0.000000  1
  In  In5  1  0.722228  0.992147  0.000000  1
  Ag  Ag6  1  0.330910  0.664465  0.000000  1
  Ag  Ag7  1  0.001160  0.001984  0.500000  1
  Rh  Rh8  1  0.670353  0.334226  0.000000  1
