# generated using pymatgen
data_Tb2Ho10Tc3Os
_symmetry_space_group_name_H-M   'P 1'
_cell_length_a   6.27350982
_cell_length_b   7.39457771
_cell_length_c   9.09459800
_cell_angle_alpha   90.00000000
_cell_angle_beta   90.00000000
_cell_angle_gamma   90.00421024
_symmetry_Int_Tables_number   1
_chemical_formula_structural   Tb2Ho10Tc3Os
_chemical_formula_sum   'Tb2 Ho10 Tc3 Os1'
_cell_volume   421.89799845
_cell_formula_units_Z   1
loop_
 _symmetry_equiv_pos_site_id
 _symmetry_equiv_pos_as_xyz
  1  'x, y, z'
loop_
 _atom_site_type_symbol
 _atom_site_label
 _atom_site_symmetry_multiplicity
 _atom_site_fract_x
 _atom_site_fract_y
 _atom_site_fract_z
 _atom_site_occupancy
  Tb  Tb0  1  0.874835  0.541363  0.250000  1
  Tb  Tb1  1  0.626036  0.039307  0.250000  1
  Ho  Ho2  1  0.337454  0.675593  0.061348  1
  Ho  Ho3  1  0.160975  0.175376  0.437506  1
  Ho  Ho4  1  0.662174  0.325298  0.563264  1
  Ho  Ho5  1  0.836384  0.823766  0.936249  1
  Ho  Ho6  1  0.662174  0.325298  0.936736  1
  Ho  Ho7  1  0.836384  0.823766  0.563751  1
  Ho  Ho8  1  0.337454  0.675593  0.438652  1
  Ho  Ho9  1  0.160975  0.175376  0.062494  1
  Ho  Ho10  1  0.128983  0.458109  0.750000  1
  Ho  Ho11  1  0.373713  0.959584  0.750000  1
  Tc  Tc12  1  0.040700  0.884180  0.250000  1
  Tc  Tc13  1  0.461449  0.386057  0.250000  1
  Tc  Tc14  1  0.960162  0.115160  0.750000  1
  Os  Os15  1  0.540149  0.616174  0.750000  1
