# generated using pymatgen
data_SmDy3(Si3Rh)2
_symmetry_space_group_name_H-M   'P 1'
_cell_length_a   8.18682400
_cell_length_b   8.18682388
_cell_length_c   7.98309200
_cell_angle_alpha   90.00000000
_cell_angle_beta   90.00000000
_cell_angle_gamma   119.99999240
_symmetry_Int_Tables_number   1
_chemical_formula_structural   SmDy3(Si3Rh)2
_chemical_formula_sum   'Sm2 Dy6 Si12 Rh4'
_cell_volume   463.37510877
_cell_formula_units_Z   2
loop_
 _symmetry_equiv_pos_site_id
 _symmetry_equiv_pos_as_xyz
  1  'x, y, z'
loop_
 _atom_site_type_symbol
 _atom_site_label
 _atom_site_symmetry_multiplicity
 _atom_site_fract_x
 _atom_site_fract_y
 _atom_site_fract_z
 _atom_site_occupancy
  Sm  Sm0  1  0.000000  0.000000  0.250000  1
  Sm  Sm1  1  0.000000  0.000000  0.750000  1
  Dy  Dy2  1  0.508788  0.491212  0.250000  1
  Dy  Dy3  1  0.508788  0.017576  0.250000  1
  Dy  Dy4  1  0.982424  0.491212  0.250000  1
  Dy  Dy5  1  0.491212  0.508788  0.750000  1
  Dy  Dy6  1  0.491212  0.982424  0.750000  1
  Dy  Dy7  1  0.017576  0.508788  0.750000  1
  Si  Si8  1  0.167670  0.832330  0.499743  1
  Si  Si9  1  0.167670  0.335341  0.499743  1
  Si  Si10  1  0.664659  0.832330  0.499743  1
  Si  Si11  1  0.832330  0.167670  0.500257  1
  Si  Si12  1  0.832330  0.664659  0.500257  1
  Si  Si13  1  0.335341  0.167670  0.500257  1
  Si  Si14  1  0.832330  0.167670  0.999743  1
  Si  Si15  1  0.832330  0.664659  0.999743  1
  Si  Si16  1  0.335341  0.167670  0.999743  1
  Si  Si17  1  0.167670  0.832330  0.000257  1
  Si  Si18  1  0.167670  0.335341  0.000257  1
  Si  Si19  1  0.664659  0.832330  0.000257  1
  Rh  Rh20  1  0.333333  0.666667  0.467084  1
  Rh  Rh21  1  0.666667  0.333333  0.532916  1
  Rh  Rh22  1  0.666667  0.333333  0.967084  1
  Rh  Rh23  1  0.333333  0.666667  0.032916  1
