# generated using pymatgen
data_Lu3CdPd8
_symmetry_space_group_name_H-M   'P 1'
_cell_length_a   4.10719100
_cell_length_b   5.72605706
_cell_length_c   17.14054000
_cell_angle_alpha   89.99645782
_cell_angle_beta   90.00026505
_cell_angle_gamma   90.00759468
_symmetry_Int_Tables_number   1
_chemical_formula_structural   Lu3CdPd8
_chemical_formula_sum   'Lu6 Cd2 Pd16'
_cell_volume   403.11138728
_cell_formula_units_Z   2
loop_
 _symmetry_equiv_pos_site_id
 _symmetry_equiv_pos_as_xyz
  1  'x, y, z'
loop_
 _atom_site_type_symbol
 _atom_site_label
 _atom_site_symmetry_multiplicity
 _atom_site_fract_x
 _atom_site_fract_y
 _atom_site_fract_z
 _atom_site_occupancy
  Lu  Lu0  1  0.525028  0.338040  0.046826  1
  Lu  Lu1  1  0.524885  0.838711  0.206162  1
  Lu  Lu2  1  0.525864  0.338476  0.365518  1
  Lu  Lu3  1  0.526980  0.741202  0.546784  1
  Lu  Lu4  1  0.527104  0.239857  0.706133  1
  Lu  Lu5  1  0.526086  0.739925  0.865474  1
  Cd  Cd6  1  0.026389  0.039906  0.456148  1
  Cd  Cd7  1  0.025566  0.038968  0.956122  1
  Pd  Pd8  1  0.525282  0.825211  0.037000  1
  Pd  Pd9  1  0.025035  0.085871  0.122910  1
  Pd  Pd10  1  0.025058  0.588323  0.123140  1
  Pd  Pd11  1  0.525025  0.337479  0.206237  1
  Pd  Pd12  1  0.025478  0.588136  0.289139  1
  Pd  Pd13  1  0.025446  0.086208  0.289405  1
  Pd  Pd14  1  0.525987  0.825749  0.375311  1
  Pd  Pd15  1  0.026430  0.539897  0.456148  1
  Pd  Pd16  1  0.526759  0.253894  0.536993  1
  Pd  Pd17  1  0.027053  0.992991  0.622910  1
  Pd  Pd18  1  0.027014  0.490958  0.623168  1
  Pd  Pd19  1  0.527023  0.741135  0.706073  1
  Pd  Pd20  1  0.026549  0.489786  0.789137  1
  Pd  Pd21  1  0.026627  0.992395  0.789394  1
  Pd  Pd22  1  0.526011  0.252860  0.875268  1
  Pd  Pd23  1  0.025658  0.538989  0.956137  1
