# generated using pymatgen
data_Rb2SmHo3(CuSe4)2
_symmetry_space_group_name_H-M   'P 1'
_cell_length_a   4.14923100
_cell_length_b   7.47599204
_cell_length_c   14.51613780
_cell_angle_alpha   90.16774760
_cell_angle_beta   90.00000000
_cell_angle_gamma   73.88872955
_symmetry_Int_Tables_number   1
_chemical_formula_structural   Rb2SmHo3(CuSe4)2
_chemical_formula_sum   'Rb2 Sm1 Ho3 Cu2 Se8'
_cell_volume   432.59790824
_cell_formula_units_Z   1
loop_
 _symmetry_equiv_pos_site_id
 _symmetry_equiv_pos_as_xyz
  1  'x, y, z'
loop_
 _atom_site_type_symbol
 _atom_site_label
 _atom_site_symmetry_multiplicity
 _atom_site_fract_x
 _atom_site_fract_y
 _atom_site_fract_z
 _atom_site_occupancy
  Rb  Rb0  1  0.889565  0.220872  0.250906  1
  Rb  Rb1  1  0.110312  0.779378  0.748046  1
  Sm  Sm2  1  0.367772  0.264456  0.936180  1
  Ho  Ho3  1  0.635157  0.729688  0.065554  1
  Ho  Ho4  1  0.633380  0.733242  0.436323  1
  Ho  Ho5  1  0.366226  0.267547  0.561644  1
  Cu  Cu6  1  0.162056  0.675889  0.250660  1
  Cu  Cu7  1  0.836513  0.326975  0.750521  1
  Se  Se8  1  0.003723  0.992554  0.002516  1
  Se  Se9  1  0.260607  0.478786  0.110657  1
  Se  Se10  1  0.570919  0.858164  0.251191  1
  Se  Se11  1  0.259959  0.480082  0.392136  1
  Se  Se12  1  0.000000  0.000000  0.499403  1
  Se  Se13  1  0.740017  0.519967  0.607256  1
  Se  Se14  1  0.428236  0.143529  0.746060  1
  Se  Se15  1  0.735566  0.528870  0.890946  1
