# generated using pymatgen
data_YbSi(PRh2)3
_symmetry_space_group_name_H-M   'P 1'
_cell_length_a   7.05269700
_cell_length_b   7.05269695
_cell_length_c   3.68322800
_cell_angle_alpha   90.00000000
_cell_angle_beta   90.00000000
_cell_angle_gamma   119.99999554
_symmetry_Int_Tables_number   1
_chemical_formula_structural   YbSi(PRh2)3
_chemical_formula_sum   'Yb1 Si1 P3 Rh6'
_cell_volume   158.66082334
_cell_formula_units_Z   1
loop_
 _symmetry_equiv_pos_site_id
 _symmetry_equiv_pos_as_xyz
  1  'x, y, z'
loop_
 _atom_site_type_symbol
 _atom_site_label
 _atom_site_symmetry_multiplicity
 _atom_site_fract_x
 _atom_site_fract_y
 _atom_site_fract_z
 _atom_site_occupancy
  Yb  Yb0  1  0.000000  0.000000  0.500000  1
  Si  Si1  1  0.666667  0.333333  0.500000  1
  P  P2  1  0.193332  0.377981  0.000000  1
  P  P3  1  0.184650  0.806668  0.000000  1
  P  P4  1  0.622019  0.815350  0.000000  1
  Rh  Rh5  1  0.475017  0.927717  0.500000  1
  Rh  Rh6  1  0.452700  0.524983  0.500000  1
  Rh  Rh7  1  0.072283  0.547300  0.500000  1
  Rh  Rh8  1  0.795957  0.606750  0.000000  1
  Rh  Rh9  1  0.810793  0.204043  0.000000  1
  Rh  Rh10  1  0.393250  0.189207  0.000000  1
