# generated using pymatgen
data_CaYb(Cu9Si4)2
_symmetry_space_group_name_H-M   'P 1'
_cell_length_a   8.13762295
_cell_length_b   8.13762219
_cell_length_c   8.13762232
_cell_angle_alpha   120.47431533
_cell_angle_beta   120.47431951
_cell_angle_gamma   89.18039799
_symmetry_Int_Tables_number   1
_chemical_formula_structural   CaYb(Cu9Si4)2
_chemical_formula_sum   'Ca1 Yb1 Cu18 Si8'
_cell_volume   378.27240268
_cell_formula_units_Z   1
loop_
 _symmetry_equiv_pos_site_id
 _symmetry_equiv_pos_as_xyz
  1  'x, y, z'
loop_
 _atom_site_type_symbol
 _atom_site_label
 _atom_site_symmetry_multiplicity
 _atom_site_fract_x
 _atom_site_fract_y
 _atom_site_fract_z
 _atom_site_occupancy
  Ca  Ca0  1  0.750000  0.750000  0.000000  1
  Yb  Yb1  1  0.250000  0.250000  0.000000  1
  Cu  Cu2  1  0.935995  0.203372  0.137558  1
  Cu  Cu3  1  0.203372  0.065814  0.267378  1
  Cu  Cu4  1  0.798437  0.935995  0.732622  1
  Cu  Cu5  1  0.434186  0.296628  0.732622  1
  Cu  Cu6  1  0.065814  0.798437  0.862442  1
  Cu  Cu7  1  0.808298  0.058792  0.500674  1
  Cu  Cu8  1  0.558118  0.307624  0.499326  1
  Cu  Cu9  1  0.192376  0.941882  0.500674  1
  Cu  Cu10  1  0.441208  0.691702  0.499326  1
  Cu  Cu11  1  0.941882  0.441208  0.749506  1
  Cu  Cu12  1  0.691702  0.192376  0.250494  1
  Cu  Cu13  1  0.058792  0.558118  0.250494  1
  Cu  Cu14  1  0.701563  0.434186  0.137558  1
  Cu  Cu15  1  0.564005  0.701563  0.267378  1
  Cu  Cu16  1  0.500000  0.000000  0.500000  1
  Cu  Cu17  1  0.000000  0.500000  0.500000  1
  Cu  Cu18  1  0.307624  0.808298  0.749506  1
  Cu  Cu19  1  0.296628  0.564005  0.862442  1
  Si  Si20  1  0.794042  0.292568  0.851642  1
  Si  Si21  1  0.557600  0.059075  0.851642  1
  Si  Si22  1  0.059075  0.207432  0.501475  1
  Si  Si23  1  0.292568  0.440925  0.498525  1
  Si  Si24  1  0.942400  0.794042  0.501475  1
  Si  Si25  1  0.440925  0.942400  0.148358  1
  Si  Si26  1  0.207432  0.705958  0.148358  1
  Si  Si27  1  0.705958  0.557600  0.498525  1
