# generated using pymatgen
data_Tm(S8Cl)3
_symmetry_space_group_name_H-M   'P 1'
_cell_length_a   15.36080762
_cell_length_b   15.36080877
_cell_length_c   15.36080807
_cell_angle_alpha   119.27993884
_cell_angle_beta   119.27994545
_cell_angle_gamma   119.27994995
_symmetry_Int_Tables_number   1
_chemical_formula_structural   Tm(S8Cl)3
_chemical_formula_sum   'Tm1 S24 Cl3'
_cell_volume   797.70435507
_cell_formula_units_Z   1
loop_
 _symmetry_equiv_pos_site_id
 _symmetry_equiv_pos_as_xyz
  1  'x, y, z'
loop_
 _atom_site_type_symbol
 _atom_site_label
 _atom_site_symmetry_multiplicity
 _atom_site_fract_x
 _atom_site_fract_y
 _atom_site_fract_z
 _atom_site_occupancy
  Tm  Tm0  1  0.559416  0.559416  0.559416  1
  S  S1  1  0.814951  0.536194  0.536194  1
  S  S2  1  0.536194  0.536194  0.814951  1
  S  S3  1  0.536194  0.814951  0.536194  1
  S  S4  1  0.212581  0.341216  0.599946  1
  S  S5  1  0.392759  0.987497  0.392759  1
  S  S6  1  0.392759  0.392759  0.987497  1
  S  S7  1  0.987497  0.392759  0.392759  1
  S  S8  1  0.111073  0.719637  0.238057  1
  S  S9  1  0.238057  0.111073  0.719637  1
  S  S10  1  0.719637  0.238057  0.111073  1
  S  S11  1  0.719637  0.111073  0.238057  1
  S  S12  1  0.238057  0.719637  0.111073  1
  S  S13  1  0.111073  0.238057  0.719637  1
  S  S14  1  0.378720  0.904859  0.558275  1
  S  S15  1  0.558275  0.378720  0.904859  1
  S  S16  1  0.904859  0.558275  0.378720  1
  S  S17  1  0.904859  0.378720  0.558275  1
  S  S18  1  0.558275  0.904859  0.378720  1
  S  S19  1  0.378720  0.558275  0.904859  1
  S  S20  1  0.212581  0.599946  0.341216  1
  S  S21  1  0.341216  0.212581  0.599946  1
  S  S22  1  0.599946  0.341216  0.212581  1
  S  S23  1  0.599946  0.212581  0.341216  1
  S  S24  1  0.341216  0.599946  0.212581  1
  Cl  Cl25  1  0.976703  0.100051  0.100051  1
  Cl  Cl26  1  0.100051  0.100051  0.976703  1
  Cl  Cl27  1  0.100051  0.976703  0.100051  1
