# generated using pymatgen
data_Tb4MoRu6W
_symmetry_space_group_name_H-M   'P 1'
_cell_length_a   5.18188865
_cell_length_b   5.18188783
_cell_length_c   9.13988800
_cell_angle_alpha   90.00000000
_cell_angle_beta   90.00000000
_cell_angle_gamma   114.37986798
_symmetry_Int_Tables_number   1
_chemical_formula_structural   Tb4MoRu6W
_chemical_formula_sum   'Tb4 Mo1 Ru6 W1'
_cell_volume   223.53920000
_cell_formula_units_Z   1
loop_
 _symmetry_equiv_pos_site_id
 _symmetry_equiv_pos_as_xyz
  1  'x, y, z'
loop_
 _atom_site_type_symbol
 _atom_site_label
 _atom_site_symmetry_multiplicity
 _atom_site_fract_x
 _atom_site_fract_y
 _atom_site_fract_z
 _atom_site_occupancy
  Tb  Tb0  1  0.331335  0.668665  0.433612  1
  Tb  Tb1  1  0.668247  0.331753  0.566781  1
  Tb  Tb2  1  0.668247  0.331753  0.933219  1
  Tb  Tb3  1  0.331335  0.668665  0.066388  1
  Mo  Mo4  1  0.156556  0.843444  0.750000  1
  Ru  Ru5  1  0.999008  0.000992  0.499892  1
  Ru  Ru6  1  0.999008  0.000992  0.000108  1
  Ru  Ru7  1  0.835359  0.646813  0.250000  1
  Ru  Ru8  1  0.353187  0.164641  0.250000  1
  Ru  Ru9  1  0.164392  0.351727  0.750000  1
  Ru  Ru10  1  0.648273  0.835608  0.750000  1
  W  W11  1  0.845050  0.154950  0.250000  1
