# generated using pymatgen
data_Ho6Si12Pt7Au
_symmetry_space_group_name_H-M   'P 1'
_cell_length_a   4.23382000
_cell_length_b   8.54178615
_cell_length_c   13.02130924
_cell_angle_alpha   80.45612557
_cell_angle_beta   90.00000000
_cell_angle_gamma   90.00000000
_symmetry_Int_Tables_number   1
_chemical_formula_structural   Ho6Si12Pt7Au
_chemical_formula_sum   'Ho6 Si12 Pt7 Au1'
_cell_volume   464.38977375
_cell_formula_units_Z   1
loop_
 _symmetry_equiv_pos_site_id
 _symmetry_equiv_pos_as_xyz
  1  'x, y, z'
loop_
 _atom_site_type_symbol
 _atom_site_label
 _atom_site_symmetry_multiplicity
 _atom_site_fract_x
 _atom_site_fract_y
 _atom_site_fract_z
 _atom_site_occupancy
  Ho  Ho0  1  0.250000  0.766530  0.439410  1
  Ho  Ho1  1  0.250000  0.587010  0.187270  1
  Ho  Ho2  1  0.750000  0.233095  0.561658  1
  Ho  Ho3  1  0.750000  0.416816  0.808638  1
  Ho  Ho4  1  0.750000  0.928349  0.813030  1
  Ho  Ho5  1  0.250000  0.068406  0.185133  1
  Si  Si6  1  0.750000  0.588547  0.570296  1
  Si  Si7  1  0.750000  0.120090  0.001964  1
  Si  Si8  1  0.750000  0.872381  0.574150  1
  Si  Si9  1  0.250000  0.696305  0.713435  1
  Si  Si10  1  0.750000  0.301885  0.294612  1
  Si  Si11  1  0.750000  0.804493  0.277369  1
  Si  Si12  1  0.250000  0.874922  0.994427  1
  Si  Si13  1  0.250000  0.195540  0.722670  1
  Si  Si14  1  0.250000  0.381008  0.995899  1
  Si  Si15  1  0.250000  0.125954  0.427956  1
  Si  Si16  1  0.750000  0.627805  0.994570  1
  Si  Si17  1  0.250000  0.412885  0.431620  1
  Pt  Pt18  1  0.250000  0.970690  0.623794  1
  Pt  Pt19  1  0.750000  0.847631  0.089823  1
  Pt  Pt20  1  0.750000  0.028116  0.376697  1
  Pt  Pt21  1  0.250000  0.649705  0.899632  1
  Pt  Pt22  1  0.250000  0.151407  0.910082  1
  Pt  Pt23  1  0.750000  0.533405  0.377084  1
  Pt  Pt24  1  0.250000  0.467679  0.623473  1
  Au  Au25  1  0.750000  0.349349  0.105307  1
