# generated using pymatgen
data_Rb4Zr5Sn3Se16
_symmetry_space_group_name_H-M   'P 1'
_cell_length_a   6.96827968
_cell_length_b   7.94537900
_cell_length_c   16.87043619
_cell_angle_alpha   90.00000000
_cell_angle_beta   90.39872980
_cell_angle_gamma   90.00000000
_symmetry_Int_Tables_number   1
_chemical_formula_structural   Rb4Zr5Sn3Se16
_chemical_formula_sum   'Rb4 Zr5 Sn3 Se16'
_cell_volume   934.01959308
_cell_formula_units_Z   1
loop_
 _symmetry_equiv_pos_site_id
 _symmetry_equiv_pos_as_xyz
  1  'x, y, z'
loop_
 _atom_site_type_symbol
 _atom_site_label
 _atom_site_symmetry_multiplicity
 _atom_site_fract_x
 _atom_site_fract_y
 _atom_site_fract_z
 _atom_site_occupancy
  Rb  Rb0  1  0.346958  0.000000  0.998136  1
  Rb  Rb1  1  0.648054  0.500000  0.501172  1
  Rb  Rb2  1  0.028759  0.000000  0.500991  1
  Rb  Rb3  1  0.970889  0.500000  0.001631  1
  Zr  Zr4  1  0.998403  0.500000  0.747368  1
  Zr  Zr5  1  0.500011  0.249949  0.250054  1
  Zr  Zr6  1  0.499548  0.751235  0.749921  1
  Zr  Zr7  1  0.500011  0.750051  0.250054  1
  Zr  Zr8  1  0.499548  0.248765  0.749921  1
  Sn  Sn9  1  0.004592  0.000000  0.247275  1
  Sn  Sn10  1  0.004170  0.000000  0.752498  1
  Sn  Sn11  1  0.995307  0.500000  0.252840  1
  Se  Se12  1  0.815743  0.248088  0.343866  1
  Se  Se13  1  0.820695  0.736898  0.658015  1
  Se  Se14  1  0.184386  0.748366  0.156225  1
  Se  Se15  1  0.180351  0.267670  0.842185  1
  Se  Se16  1  0.184386  0.251634  0.156225  1
  Se  Se17  1  0.180351  0.732330  0.842185  1
  Se  Se18  1  0.815743  0.751912  0.343866  1
  Se  Se19  1  0.820695  0.263102  0.658015  1
  Se  Se20  1  0.660876  0.000000  0.159670  1
  Se  Se21  1  0.648101  0.000000  0.841369  1
  Se  Se22  1  0.338915  0.500000  0.340276  1
  Se  Se23  1  0.325860  0.500000  0.658591  1
  Se  Se24  1  0.342796  0.000000  0.340829  1
  Se  Se25  1  0.356450  0.000000  0.657838  1
  Se  Se26  1  0.656679  0.500000  0.159389  1
  Se  Se27  1  0.671721  0.500000  0.839596  1
