# generated using pymatgen
data_Ta6Ga3RhN2
_symmetry_space_group_name_H-M   'P 1'
_cell_length_a   7.01092845
_cell_length_b   7.01049008
_cell_length_c   7.04744700
_cell_angle_alpha   90.00000000
_cell_angle_beta   90.00000000
_cell_angle_gamma   90.55805619
_symmetry_Int_Tables_number   1
_chemical_formula_structural   Ta6Ga3RhN2
_chemical_formula_sum   'Ta12 Ga6 Rh2 N4'
_cell_volume   346.36590272
_cell_formula_units_Z   2
loop_
 _symmetry_equiv_pos_site_id
 _symmetry_equiv_pos_as_xyz
  1  'x, y, z'
loop_
 _atom_site_type_symbol
 _atom_site_label
 _atom_site_symmetry_multiplicity
 _atom_site_fract_x
 _atom_site_fract_y
 _atom_site_fract_z
 _atom_site_occupancy
  Ta  Ta0  1  0.793853  0.957491  0.374428  1
  Ta  Ta1  1  0.706147  0.042509  0.874428  1
  Ta  Ta2  1  0.208321  0.454490  0.124707  1
  Ta  Ta3  1  0.291679  0.545510  0.624707  1
  Ta  Ta4  1  0.957376  0.379530  0.790382  1
  Ta  Ta5  1  0.045019  0.874446  0.708489  1
  Ta  Ta6  1  0.454981  0.125554  0.208489  1
  Ta  Ta7  1  0.542624  0.620470  0.290382  1
  Ta  Ta8  1  0.378171  0.791587  0.956900  1
  Ta  Ta9  1  0.874276  0.707424  0.045006  1
  Ta  Ta10  1  0.121829  0.208413  0.456900  1
  Ta  Ta11  1  0.625724  0.292576  0.545006  1
  Ga  Ga12  1  0.822050  0.319821  0.177442  1
  Ga  Ga13  1  0.677950  0.680179  0.677442  1
  Ga  Ga14  1  0.561614  0.424505  0.928438  1
  Ga  Ga15  1  0.422061  0.933392  0.569202  1
  Ga  Ga16  1  0.938386  0.575495  0.428438  1
  Ga  Ga17  1  0.077939  0.066608  0.069202  1
  Rh  Rh18  1  0.181862  0.823554  0.318298  1
  Rh  Rh19  1  0.318138  0.176446  0.818298  1
  N  N20  1  0.876410  0.122227  0.627740  1
  N  N21  1  0.623590  0.877773  0.127740  1
  N  N22  1  0.128649  0.626708  0.878968  1
  N  N23  1  0.371351  0.373292  0.378968  1
