# generated using pymatgen
data_ThCr3HgO12
_symmetry_space_group_name_H-M   'P 1'
_cell_length_a   9.54817500
_cell_length_b   9.54818279
_cell_length_c   6.36329500
_cell_angle_alpha   90.00000000
_cell_angle_beta   90.00000000
_cell_angle_gamma   120.00009427
_symmetry_Int_Tables_number   1
_chemical_formula_structural   ThCr3HgO12
_chemical_formula_sum   'Th2 Cr6 Hg2 O24'
_cell_volume   502.40432713
_cell_formula_units_Z   2
loop_
 _symmetry_equiv_pos_site_id
 _symmetry_equiv_pos_as_xyz
  1  'x, y, z'
loop_
 _atom_site_type_symbol
 _atom_site_label
 _atom_site_symmetry_multiplicity
 _atom_site_fract_x
 _atom_site_fract_y
 _atom_site_fract_z
 _atom_site_occupancy
  Th  Th0  1  0.333335  0.666669  0.250000  1
  Th  Th1  1  0.666665  0.333331  0.749999  1
  Cr  Cr2  1  0.707096  0.099634  0.250000  1
  Cr  Cr3  1  0.392537  0.292904  0.250000  1
  Cr  Cr4  1  0.900366  0.607462  0.250000  1
  Cr  Cr5  1  0.099634  0.392539  0.749999  1
  Cr  Cr6  1  0.607462  0.707096  0.749999  1
  Cr  Cr7  1  0.292904  0.900366  0.749999  1
  Hg  Hg8  1  0.000000  0.000000  0.000000  1
  Hg  Hg9  1  0.000000  0.000000  0.500001  1
  O  O10  1  0.787325  0.533665  0.036636  1
  O  O11  1  0.746342  0.212676  0.036637  1
  O  O12  1  0.466332  0.253657  0.036636  1
  O  O13  1  0.823942  0.011633  0.250000  1
  O  O14  1  0.187688  0.176058  0.250000  1
  O  O15  1  0.443180  0.486098  0.250000  1
  O  O16  1  0.042918  0.556818  0.250000  1
  O  O17  1  0.988368  0.812311  0.250000  1
  O  O18  1  0.513900  0.957080  0.250000  1
  O  O19  1  0.466332  0.253657  0.463363  1
  O  O20  1  0.746342  0.212676  0.463362  1
  O  O21  1  0.787325  0.533665  0.463364  1
  O  O22  1  0.212676  0.466334  0.536637  1
  O  O23  1  0.253658  0.787324  0.536638  1
  O  O24  1  0.533667  0.746342  0.536637  1
  O  O25  1  0.486100  0.042920  0.749999  1
  O  O26  1  0.011633  0.187688  0.749999  1
  O  O27  1  0.957082  0.443183  0.749999  1
  O  O28  1  0.556820  0.513902  0.749999  1
  O  O29  1  0.812312  0.823942  0.749999  1
  O  O30  1  0.176057  0.988366  0.749999  1
  O  O31  1  0.533667  0.746342  0.963364  1
  O  O32  1  0.253658  0.787324  0.963362  1
  O  O33  1  0.212676  0.466334  0.963364  1
