# generated using pymatgen
data_Gd6Ti(CrC4)3
_symmetry_space_group_name_H-M   'P 1'
_cell_length_a   8.25931100
_cell_length_b   8.25931049
_cell_length_c   5.04680400
_cell_angle_alpha   90.00000000
_cell_angle_beta   90.00000000
_cell_angle_gamma   119.99998895
_symmetry_Int_Tables_number   1
_chemical_formula_structural   Gd6Ti(CrC4)3
_chemical_formula_sum   'Gd6 Ti1 Cr3 C12'
_cell_volume   298.14994326
_cell_formula_units_Z   1
loop_
 _symmetry_equiv_pos_site_id
 _symmetry_equiv_pos_as_xyz
  1  'x, y, z'
loop_
 _atom_site_type_symbol
 _atom_site_label
 _atom_site_symmetry_multiplicity
 _atom_site_fract_x
 _atom_site_fract_y
 _atom_site_fract_z
 _atom_site_occupancy
  Gd  Gd0  1  0.618056  0.685868  0.747558  1
  Gd  Gd1  1  0.932189  0.618056  0.252442  1
  Gd  Gd2  1  0.685868  0.067811  0.252442  1
  Gd  Gd3  1  0.314132  0.932189  0.747558  1
  Gd  Gd4  1  0.067811  0.381944  0.747558  1
  Gd  Gd5  1  0.381944  0.314132  0.252442  1
  Ti  Ti6  1  0.000000  0.000000  0.500000  1
  Cr  Cr7  1  0.000000  0.000000  0.000000  1
  Cr  Cr8  1  0.666667  0.333333  0.752679  1
  Cr  Cr9  1  0.333333  0.666667  0.247321  1
  C  C10  1  0.961307  0.768643  0.755500  1
  C  C11  1  0.192666  0.961307  0.244500  1
  C  C12  1  0.768643  0.807334  0.244500  1
  C  C13  1  0.231357  0.192666  0.755500  1
  C  C14  1  0.807334  0.038693  0.755500  1
  C  C15  1  0.038693  0.231357  0.244500  1
  C  C16  1  0.860448  0.576599  0.756781  1
  C  C17  1  0.283848  0.860448  0.243219  1
  C  C18  1  0.576599  0.716152  0.243219  1
  C  C19  1  0.423401  0.283848  0.756781  1
  C  C20  1  0.139552  0.423401  0.243219  1
  C  C21  1  0.716152  0.139552  0.756781  1
