# generated using pymatgen
data_DyY3Pd4F28
_symmetry_space_group_name_H-M   'P 1'
_cell_length_a   5.53473809
_cell_length_b   8.89457074
_cell_length_c   11.94356200
_cell_angle_alpha   62.53107572
_cell_angle_beta   89.90826026
_cell_angle_gamma   89.95741935
_symmetry_Int_Tables_number   1
_chemical_formula_structural   DyY3Pd4F28
_chemical_formula_sum   'Dy1 Y3 Pd4 F28'
_cell_volume   521.68318916
_cell_formula_units_Z   1
loop_
 _symmetry_equiv_pos_site_id
 _symmetry_equiv_pos_as_xyz
  1  'x, y, z'
loop_
 _atom_site_type_symbol
 _atom_site_label
 _atom_site_symmetry_multiplicity
 _atom_site_fract_x
 _atom_site_fract_y
 _atom_site_fract_z
 _atom_site_occupancy
  Dy  Dy0  1  0.261853  0.813706  0.264391  1
  Y  Y1  1  0.737905  0.186167  0.735621  1
  Y  Y2  1  0.761836  0.185724  0.235690  1
  Y  Y3  1  0.237972  0.813770  0.764349  1
  Pd  Pd4  1  0.758739  0.727055  0.043433  1
  Pd  Pd5  1  0.241327  0.272624  0.957139  1
  Pd  Pd6  1  0.258593  0.273294  0.456712  1
  Pd  Pd7  1  0.741454  0.727153  0.542722  1
  F  F8  1  0.936905  0.705038  0.415706  1
  F  F9  1  0.064300  0.295656  0.583900  1
  F  F10  1  0.435301  0.295498  0.083941  1
  F  F11  1  0.564189  0.704452  0.916632  1
  F  F12  1  0.467555  0.727673  0.135052  1
  F  F13  1  0.533206  0.272503  0.865905  1
  F  F14  1  0.967347  0.272924  0.365554  1
  F  F15  1  0.032491  0.727129  0.634202  1
  F  F16  1  0.949640  0.744057  0.174682  1
  F  F17  1  0.051681  0.255869  0.825414  1
  F  F18  1  0.448476  0.256702  0.324845  1
  F  F19  1  0.551106  0.743547  0.674606  1
  F  F20  1  0.770718  0.480569  0.141004  1
  F  F21  1  0.229403  0.519102  0.859415  1
  F  F22  1  0.270418  0.519801  0.359221  1
  F  F23  1  0.729191  0.480727  0.640252  1
  F  F24  1  0.943094  0.280898  0.041547  1
  F  F25  1  0.056497  0.718905  0.958602  1
  F  F26  1  0.443948  0.719574  0.457678  1
  F  F27  1  0.556390  0.281060  0.541285  1
  F  F28  1  0.742025  0.972748  0.450924  1
  F  F29  1  0.258087  0.027662  0.548795  1
  F  F30  1  0.241967  0.026958  0.049722  1
  F  F31  1  0.758046  0.972641  0.951160  1
  F  F32  1  0.587126  0.969009  0.231035  1
  F  F33  1  0.411451  0.030634  0.769046  1
  F  F34  1  0.088322  0.030018  0.268857  1
  F  F35  1  0.911445  0.969156  0.730961  1
