# generated using pymatgen
data_Nd4Ho5TmSi8
_symmetry_space_group_name_H-M   'P 1'
_cell_length_a   7.74563621
_cell_length_b   7.74549300
_cell_length_c   14.25854508
_cell_angle_alpha   90.00000000
_cell_angle_beta   90.08662081
_cell_angle_gamma   90.00000000
_symmetry_Int_Tables_number   1
_chemical_formula_structural   Nd4Ho5TmSi8
_chemical_formula_sum   'Nd8 Ho10 Tm2 Si16'
_cell_volume   855.42291133
_cell_formula_units_Z   2
loop_
 _symmetry_equiv_pos_site_id
 _symmetry_equiv_pos_as_xyz
  1  'x, y, z'
loop_
 _atom_site_type_symbol
 _atom_site_label
 _atom_site_symmetry_multiplicity
 _atom_site_fract_x
 _atom_site_fract_y
 _atom_site_fract_z
 _atom_site_occupancy
  Nd  Nd0  1  0.642061  0.992971  0.458873  1
  Nd  Nd1  1  0.357925  0.007102  0.958833  1
  Nd  Nd2  1  0.992842  0.642113  0.541146  1
  Nd  Nd3  1  0.493003  0.858017  0.208859  1
  Nd  Nd4  1  0.507158  0.142113  0.708854  1
  Nd  Nd5  1  0.857939  0.492971  0.791127  1
  Nd  Nd6  1  0.142075  0.507102  0.291167  1
  Nd  Nd7  1  0.006997  0.358017  0.041141  1
  Ho  Ho8  1  0.492951  0.359846  0.124257  1
  Ho  Ho9  1  0.992872  0.139979  0.625719  1
  Ho  Ho10  1  0.859958  0.007308  0.874207  1
  Ho  Ho11  1  0.140078  0.993153  0.374324  1
  Ho  Ho12  1  0.507128  0.639979  0.624281  1
  Ho  Ho13  1  0.359922  0.493153  0.875676  1
  Ho  Ho14  1  0.640042  0.507308  0.375793  1
  Ho  Ho15  1  0.007049  0.859846  0.125743  1
  Ho  Ho16  1  0.318131  0.317845  0.500042  1
  Ho  Ho17  1  0.181869  0.817845  0.749958  1
  Tm  Tm18  1  0.817874  0.181868  0.249973  1
  Tm  Tm19  1  0.682126  0.681868  0.000027  1
  Si  Si20  1  0.289947  0.937286  0.561415  1
  Si  Si21  1  0.710171  0.062794  0.061736  1
  Si  Si22  1  0.937177  0.289665  0.438275  1
  Si  Si23  1  0.437318  0.209885  0.311439  1
  Si  Si24  1  0.562823  0.789665  0.811725  1
  Si  Si25  1  0.210053  0.437286  0.688585  1
  Si  Si26  1  0.789829  0.562794  0.188264  1
  Si  Si27  1  0.062682  0.709885  0.938561  1
  Si  Si28  1  0.795527  0.848391  0.687773  1
  Si  Si29  1  0.204719  0.151537  0.188063  1
  Si  Si30  1  0.848282  0.795529  0.312127  1
  Si  Si31  1  0.348558  0.704712  0.437965  1
  Si  Si32  1  0.651718  0.295529  0.937873  1
  Si  Si33  1  0.704473  0.348391  0.562227  1
  Si  Si34  1  0.295281  0.651537  0.061937  1
  Si  Si35  1  0.151442  0.204712  0.812035  1
