# generated using pymatgen
data_Pr2SiAs5Pd21
_symmetry_space_group_name_H-M   'P 1'
_cell_length_a   8.88702439
_cell_length_b   8.85547541
_cell_length_c   8.85547540
_cell_angle_alpha   60.23584482
_cell_angle_beta   59.88208215
_cell_angle_gamma   59.88207378
_symmetry_Int_Tables_number   1
_chemical_formula_structural   Pr2SiAs5Pd21
_chemical_formula_sum   'Pr2 Si1 As5 Pd21'
_cell_volume   492.78113687
_cell_formula_units_Z   1
loop_
 _symmetry_equiv_pos_site_id
 _symmetry_equiv_pos_as_xyz
  1  'x, y, z'
loop_
 _atom_site_type_symbol
 _atom_site_label
 _atom_site_symmetry_multiplicity
 _atom_site_fract_x
 _atom_site_fract_y
 _atom_site_fract_z
 _atom_site_occupancy
  Pr  Pr0  1  0.750255  0.749745  0.749745  1
  Pr  Pr1  1  0.250255  0.249745  0.249745  1
  Si  Si2  1  0.261499  0.738501  0.738501  1
  As  As3  1  0.738545  0.738320  0.261455  1
  As  As4  1  0.261680  0.738320  0.261455  1
  As  As5  1  0.738636  0.261364  0.261364  1
  As  As6  1  0.261680  0.261455  0.738320  1
  As  As7  1  0.738545  0.261455  0.738320  1
  Pd  Pd8  1  0.001056  0.998944  0.998944  1
  Pd  Pd9  1  0.614757  0.615549  0.154939  1
  Pd  Pd10  1  0.614757  0.154939  0.615549  1
  Pd  Pd11  1  0.155996  0.617751  0.617751  1
  Pd  Pd12  1  0.608502  0.617751  0.617751  1
  Pd  Pd13  1  0.382249  0.391498  0.844004  1
  Pd  Pd14  1  0.382249  0.844004  0.391498  1
  Pd  Pd15  1  0.845061  0.385243  0.385243  1
  Pd  Pd16  1  0.384451  0.385243  0.385243  1
  Pd  Pd17  1  0.999471  0.000529  0.348595  1
  Pd  Pd18  1  0.651405  0.000529  0.348595  1
  Pd  Pd19  1  0.001045  0.651634  0.346276  1
  Pd  Pd20  1  0.651405  0.348595  0.000529  1
  Pd  Pd21  1  0.999471  0.348595  0.000529  1
  Pd  Pd22  1  0.001045  0.346276  0.651634  1
  Pd  Pd23  1  0.346014  0.653986  0.994068  1
  Pd  Pd24  1  0.346014  0.994068  0.653986  1
  Pd  Pd25  1  0.348366  0.998955  0.998955  1
  Pd  Pd26  1  0.005932  0.994068  0.653986  1
  Pd  Pd27  1  0.005932  0.653986  0.994068  1
  Pd  Pd28  1  0.653724  0.998955  0.998955  1
