# generated using pymatgen
data_U2Co6Si7Ru6
_symmetry_space_group_name_H-M   'P 1'
_cell_length_a   9.32752800
_cell_length_b   9.32752696
_cell_length_c   3.77396400
_cell_angle_alpha   90.00000000
_cell_angle_beta   90.00000000
_cell_angle_gamma   120.00000369
_symmetry_Int_Tables_number   1
_chemical_formula_structural   U2Co6Si7Ru6
_chemical_formula_sum   'U2 Co6 Si7 Ru6'
_cell_volume   284.35537571
_cell_formula_units_Z   1
loop_
 _symmetry_equiv_pos_site_id
 _symmetry_equiv_pos_as_xyz
  1  'x, y, z'
loop_
 _atom_site_type_symbol
 _atom_site_label
 _atom_site_symmetry_multiplicity
 _atom_site_fract_x
 _atom_site_fract_y
 _atom_site_fract_z
 _atom_site_occupancy
  U  U0  1  0.333333  0.666667  0.000000  1
  U  U1  1  0.666667  0.333333  0.500000  1
  Co  Co2  1  0.149611  0.280414  0.000000  1
  Co  Co3  1  0.719586  0.869195  0.000000  1
  Co  Co4  1  0.130805  0.850389  0.000000  1
  Co  Co5  1  0.436779  0.067610  0.000000  1
  Co  Co6  1  0.932390  0.369169  0.000000  1
  Co  Co7  1  0.630831  0.563221  0.000000  1
  Si  Si8  1  0.101901  0.391352  0.500000  1
  Si  Si9  1  0.608648  0.710549  0.500000  1
  Si  Si10  1  0.289451  0.898099  0.500000  1
  Si  Si11  1  0.401198  0.291565  0.000000  1
  Si  Si12  1  0.708435  0.109633  0.000000  1
  Si  Si13  1  0.890367  0.598802  0.000000  1
  Si  Si14  1  0.000000  0.000000  0.000000  1
  Ru  Ru15  1  0.382444  0.442249  0.500000  1
  Ru  Ru16  1  0.557751  0.940195  0.500000  1
  Ru  Ru17  1  0.059805  0.617556  0.500000  1
  Ru  Ru18  1  0.212484  0.101914  0.500000  1
  Ru  Ru19  1  0.898086  0.110571  0.500000  1
  Ru  Ru20  1  0.889429  0.787516  0.500000  1
