# generated using pymatgen
data_Yb2Co5Si4Ni
_symmetry_space_group_name_H-M   'P 1'
_cell_length_a   6.26151912
_cell_length_b   6.26151880
_cell_length_c   6.24471867
_cell_angle_alpha   129.97018075
_cell_angle_beta   114.28456069
_cell_angle_gamma   87.08635173
_symmetry_Int_Tables_number   1
_chemical_formula_structural   Yb2Co5Si4Ni
_chemical_formula_sum   'Yb2 Co5 Si4 Ni1'
_cell_volume   162.85977711
_cell_formula_units_Z   1
loop_
 _symmetry_equiv_pos_site_id
 _symmetry_equiv_pos_as_xyz
  1  'x, y, z'
loop_
 _atom_site_type_symbol
 _atom_site_label
 _atom_site_symmetry_multiplicity
 _atom_site_fract_x
 _atom_site_fract_y
 _atom_site_fract_z
 _atom_site_occupancy
  Yb  Yb0  1  0.249099  0.537374  0.286473  1
  Yb  Yb1  1  0.750901  0.462626  0.713527  1
  Co  Co2  1  0.716163  0.002882  0.719599  1
  Co  Co3  1  0.216718  0.503436  0.719599  1
  Co  Co4  1  0.283837  0.997118  0.280401  1
  Co  Co5  1  0.783282  0.496564  0.280401  1
  Co  Co6  1  0.000000  0.000000  0.500000  1
  Si  Si7  1  0.074846  0.879951  0.799980  1
  Si  Si8  1  0.925154  0.120049  0.200020  1
  Si  Si9  1  0.579971  0.774866  0.200020  1
  Si  Si10  1  0.420029  0.225134  0.799980  1
  Ni  Ni11  1  0.500000  0.000000  0.000000  1
