# generated using pymatgen
data_Nd4Ti3Cd4Sn(SbO7)4
_symmetry_space_group_name_H-M   'P 1'
_cell_length_a   7.36414200
_cell_length_b   7.36414200
_cell_length_c   10.46723700
_cell_angle_alpha   90.00000000
_cell_angle_beta   90.00000000
_cell_angle_gamma   90.00000000
_symmetry_Int_Tables_number   1
_chemical_formula_structural   Nd4Ti3Cd4Sn(SbO7)4
_chemical_formula_sum   'Nd4 Ti3 Cd4 Sn1 Sb4 O28'
_cell_volume   567.64441092
_cell_formula_units_Z   1
loop_
 _symmetry_equiv_pos_site_id
 _symmetry_equiv_pos_as_xyz
  1  'x, y, z'
loop_
 _atom_site_type_symbol
 _atom_site_label
 _atom_site_symmetry_multiplicity
 _atom_site_fract_x
 _atom_site_fract_y
 _atom_site_fract_z
 _atom_site_occupancy
  Nd  Nd0  1  0.004076  0.734654  0.996744  1
  Nd  Nd1  1  0.252686  0.000000  0.250000  1
  Nd  Nd2  1  0.004076  0.265346  0.503256  1
  Nd  Nd3  1  0.736212  0.000000  0.750000  1
  Ti  Ti4  1  0.001855  0.761293  0.501517  1
  Ti  Ti5  1  0.238208  0.000000  0.750000  1
  Ti  Ti6  1  0.001855  0.238707  0.998483  1
  Cd  Cd7  1  0.501538  0.735686  0.001011  1
  Cd  Cd8  1  0.501538  0.264314  0.498989  1
  Cd  Cd9  1  0.735435  0.500000  0.750000  1
  Cd  Cd10  1  0.265746  0.500000  0.250000  1
  Sn  Sn11  1  0.756263  0.000000  0.250000  1
  Sb  Sb12  1  0.245923  0.500000  0.750000  1
  Sb  Sb13  1  0.498672  0.755776  0.501455  1
  Sb  Sb14  1  0.498672  0.244224  0.998545  1
  Sb  Sb15  1  0.756333  0.500000  0.250000  1
  O  O16  1  0.260765  0.736942  0.125367  1
  O  O17  1  0.542831  0.953728  0.374541  1
  O  O18  1  0.740035  0.261664  0.626232  1
  O  O19  1  0.964750  0.959285  0.379082  1
  O  O20  1  0.055066  0.443364  0.879401  1
  O  O21  1  0.047375  0.046863  0.873599  1
  O  O22  1  0.047375  0.953137  0.626401  1
  O  O23  1  0.249135  0.239587  0.070049  1
  O  O24  1  0.237479  0.250240  0.678125  1
  O  O25  1  0.249135  0.760413  0.429951  1
  O  O26  1  0.449619  0.449871  0.875246  1
  O  O27  1  0.444207  0.056404  0.867626  1
  O  O28  1  0.444207  0.943596  0.632374  1
  O  O29  1  0.552223  0.557822  0.373182  1
  O  O30  1  0.542831  0.046272  0.125459  1
  O  O31  1  0.552223  0.442178  0.126818  1
  O  O32  1  0.750251  0.766777  0.569852  1
  O  O33  1  0.740035  0.738336  0.873768  1
  O  O34  1  0.761835  0.256668  0.330802  1
  O  O35  1  0.761835  0.743332  0.169198  1
  O  O36  1  0.750251  0.233223  0.930148  1
  O  O37  1  0.944885  0.560729  0.379729  1
  O  O38  1  0.944885  0.439271  0.120271  1
  O  O39  1  0.964750  0.040715  0.120918  1
  O  O40  1  0.055066  0.556636  0.620599  1
  O  O41  1  0.260765  0.263058  0.374633  1
  O  O42  1  0.237479  0.749760  0.821875  1
  O  O43  1  0.449619  0.550129  0.624754  1
