# generated using pymatgen
data_TbHo5Th2MgCdRh2
_symmetry_space_group_name_H-M   'P 1'
_cell_length_a   9.77428141
_cell_length_b   9.77428069
_cell_length_c   9.77010800
_cell_angle_alpha   60.01412766
_cell_angle_beta   60.01413011
_cell_angle_gamma   59.97175988
_symmetry_Int_Tables_number   1
_chemical_formula_structural   TbHo5Th2MgCdRh2
_chemical_formula_sum   'Tb2 Ho10 Th4 Mg2 Cd2 Rh4'
_cell_volume   660.01516051
_cell_formula_units_Z   2
loop_
 _symmetry_equiv_pos_site_id
 _symmetry_equiv_pos_as_xyz
  1  'x, y, z'
loop_
 _atom_site_type_symbol
 _atom_site_label
 _atom_site_symmetry_multiplicity
 _atom_site_fract_x
 _atom_site_fract_y
 _atom_site_fract_z
 _atom_site_occupancy
  Tb  Tb0  1  0.565901  0.565901  0.934099  1
  Tb  Tb1  1  0.933570  0.933570  0.566430  1
  Ho  Ho2  1  0.812940  0.186741  0.187325  1
  Ho  Ho3  1  0.186741  0.812940  0.812993  1
  Ho  Ho4  1  0.186741  0.812940  0.187325  1
  Ho  Ho5  1  0.812940  0.186741  0.812993  1
  Ho  Ho6  1  0.187158  0.187158  0.812842  1
  Ho  Ho7  1  0.812541  0.812541  0.187459  1
  Ho  Ho8  1  0.933631  0.565511  0.565572  1
  Ho  Ho9  1  0.565511  0.933631  0.935286  1
  Ho  Ho10  1  0.565511  0.933631  0.565572  1
  Ho  Ho11  1  0.933631  0.565511  0.935286  1
  Th  Th12  1  0.349028  0.349028  0.348251  1
  Th  Th13  1  0.349028  0.349028  0.953693  1
  Th  Th14  1  0.350449  0.951973  0.348790  1
  Th  Th15  1  0.951973  0.350449  0.348790  1
  Mg  Mg16  1  0.580341  0.260450  0.579605  1
  Mg  Mg17  1  0.260450  0.580341  0.579605  1
  Cd  Cd18  1  0.581309  0.581309  0.582104  1
  Cd  Cd19  1  0.581309  0.581309  0.255277  1
  Rh  Rh20  1  0.144199  0.144199  0.143929  1
  Rh  Rh21  1  0.144199  0.144199  0.567671  1
  Rh  Rh22  1  0.143498  0.567397  0.144551  1
  Rh  Rh23  1  0.567397  0.143498  0.144551  1
