# generated using pymatgen
data_Pr3DyYP12Ru19
_symmetry_space_group_name_H-M   'P 1'
_cell_length_a   12.60851800
_cell_length_b   12.60851809
_cell_length_c   4.01090400
_cell_angle_alpha   90.00000000
_cell_angle_beta   90.00000000
_cell_angle_gamma   119.99999975
_symmetry_Int_Tables_number   1
_chemical_formula_structural   Pr3DyYP12Ru19
_chemical_formula_sum   'Pr3 Dy1 Y1 P12 Ru19'
_cell_volume   552.20583186
_cell_formula_units_Z   1
loop_
 _symmetry_equiv_pos_site_id
 _symmetry_equiv_pos_as_xyz
  1  'x, y, z'
loop_
 _atom_site_type_symbol
 _atom_site_label
 _atom_site_symmetry_multiplicity
 _atom_site_fract_x
 _atom_site_fract_y
 _atom_site_fract_z
 _atom_site_occupancy
  Pr  Pr0  1  0.816123  0.000031  0.500000  1
  Pr  Pr1  1  0.183907  0.183877  0.500000  1
  Pr  Pr2  1  0.999969  0.816093  0.500000  1
  Dy  Dy3  1  0.333333  0.666667  0.000000  1
  Y  Y4  1  0.666667  0.333333  0.000000  1
  P  P5  1  0.625215  0.999992  0.000000  1
  P  P6  1  0.374777  0.374785  0.000000  1
  P  P7  1  0.000008  0.625223  0.000000  1
  P  P8  1  0.695258  0.521702  0.500000  1
  P  P9  1  0.826446  0.304742  0.500000  1
  P  P10  1  0.304762  0.826222  0.500000  1
  P  P11  1  0.521458  0.695238  0.500000  1
  P  P12  1  0.188565  0.000018  0.000000  1
  P  P13  1  0.811453  0.811435  0.000000  1
  P  P14  1  0.999982  0.188547  0.000000  1
  P  P15  1  0.478298  0.173554  0.500000  1
  P  P16  1  0.173778  0.478542  0.500000  1
  Ru  Ru17  1  0.618773  0.804238  0.000000  1
  Ru  Ru18  1  0.185464  0.381227  0.000000  1
  Ru  Ru19  1  0.381044  0.185364  0.000000  1
  Ru  Ru20  1  0.195762  0.814536  0.000000  1
  Ru  Ru21  1  0.804322  0.618956  0.000000  1
  Ru  Ru22  1  0.874511  0.506519  0.500000  1
  Ru  Ru23  1  0.493481  0.367992  0.500000  1
  Ru  Ru24  1  0.632008  0.125489  0.500000  1
  Ru  Ru25  1  0.125648  0.632057  0.500000  1
  Ru  Ru26  1  0.367943  0.493591  0.500000  1
  Ru  Ru27  1  0.506409  0.874352  0.500000  1
  Ru  Ru28  1  0.000000  0.000000  0.000000  1
  Ru  Ru29  1  0.712967  0.712960  0.500000  1
  Ru  Ru30  1  0.999993  0.287033  0.500000  1
  Ru  Ru31  1  0.445635  0.999955  0.000000  1
  Ru  Ru32  1  0.554320  0.554365  0.000000  1
  Ru  Ru33  1  0.000045  0.445680  0.000000  1
  Ru  Ru34  1  0.814636  0.195678  0.000000  1
  Ru  Ru35  1  0.287040  0.000007  0.500000  1
