# generated using pymatgen
data_CaPr2Be(PPd4)5
_symmetry_space_group_name_H-M   'P 1'
_cell_length_a   8.71924906
_cell_length_b   8.69289336
_cell_length_c   8.69289402
_cell_angle_alpha   60.20067924
_cell_angle_beta   59.89966319
_cell_angle_gamma   59.89965976
_symmetry_Int_Tables_number   1
_chemical_formula_structural   CaPr2Be(PPd4)5
_chemical_formula_sum   'Ca1 Pr2 Be1 P5 Pd20'
_cell_volume   465.89153676
_cell_formula_units_Z   1
loop_
 _symmetry_equiv_pos_site_id
 _symmetry_equiv_pos_as_xyz
  1  'x, y, z'
loop_
 _atom_site_type_symbol
 _atom_site_label
 _atom_site_symmetry_multiplicity
 _atom_site_fract_x
 _atom_site_fract_y
 _atom_site_fract_z
 _atom_site_occupancy
  Ca  Ca0  1  0.997573  0.002427  0.002427  1
  Pr  Pr1  1  0.249889  0.250111  0.250111  1
  Pr  Pr2  1  0.749889  0.750111  0.750111  1
  Be  Be3  1  0.733249  0.266751  0.266751  1
  P  P4  1  0.261102  0.738898  0.738898  1
  P  P5  1  0.263263  0.736737  0.262474  1
  P  P6  1  0.737526  0.262474  0.736737  1
  P  P7  1  0.263263  0.262474  0.736737  1
  P  P8  1  0.737526  0.736737  0.262474  1
  Pd  Pd9  1  0.388145  0.384885  0.384885  1
  Pd  Pd10  1  0.613994  0.613243  0.613243  1
  Pd  Pd11  1  0.386757  0.386006  0.840480  1
  Pd  Pd12  1  0.386757  0.840480  0.386006  1
  Pd  Pd13  1  0.615115  0.611855  0.157913  1
  Pd  Pd14  1  0.615115  0.157913  0.611855  1
  Pd  Pd15  1  0.842087  0.384885  0.384885  1
  Pd  Pd16  1  0.159520  0.613243  0.613243  1
  Pd  Pd17  1  0.344874  0.000962  0.000962  1
  Pd  Pd18  1  0.653204  0.000962  0.000962  1
  Pd  Pd19  1  0.999038  0.346796  0.655126  1
  Pd  Pd20  1  0.999038  0.655126  0.346796  1
  Pd  Pd21  1  0.997111  0.343523  0.002889  1
  Pd  Pd22  1  0.656477  0.002889  0.343523  1
  Pd  Pd23  1  0.999996  0.652044  0.000004  1
  Pd  Pd24  1  0.347956  0.000004  0.652044  1
  Pd  Pd25  1  0.997111  0.002889  0.343523  1
  Pd  Pd26  1  0.999996  0.000004  0.652044  1
  Pd  Pd27  1  0.656477  0.343523  0.002889  1
  Pd  Pd28  1  0.347956  0.652044  0.000004  1
