# generated using pymatgen
data_Hf8Mn8Si13P
_symmetry_space_group_name_H-M   'P 1'
_cell_length_a   9.55282452
_cell_length_b   9.55280306
_cell_length_c   9.58156591
_cell_angle_alpha   94.03772255
_cell_angle_beta   94.03812076
_cell_angle_gamma   149.17587124
_symmetry_Int_Tables_number   1
_chemical_formula_structural   Hf8Mn8Si13P
_chemical_formula_sum   'Hf8 Mn8 Si13 P1'
_cell_volume   432.02157141
_cell_formula_units_Z   1
loop_
 _symmetry_equiv_pos_site_id
 _symmetry_equiv_pos_as_xyz
  1  'x, y, z'
loop_
 _atom_site_type_symbol
 _atom_site_label
 _atom_site_symmetry_multiplicity
 _atom_site_fract_x
 _atom_site_fract_y
 _atom_site_fract_z
 _atom_site_occupancy
  Hf  Hf0  1  0.139421  0.139416  0.278826  1
  Hf  Hf1  1  0.859788  0.859784  0.719543  1
  Hf  Hf2  1  0.138683  0.861087  0.999779  1
  Hf  Hf3  1  0.861084  0.138675  0.999779  1
  Hf  Hf4  1  0.303728  0.498909  0.802631  1
  Hf  Hf5  1  0.696150  0.499593  0.195770  1
  Hf  Hf6  1  0.499605  0.696152  0.195759  1
  Hf  Hf7  1  0.498912  0.303722  0.802628  1
  Mn  Mn8  1  0.101832  0.601820  0.203664  1
  Mn  Mn9  1  0.398349  0.898341  0.796707  1
  Mn  Mn10  1  0.902431  0.102204  0.501511  1
  Mn  Mn11  1  0.599084  0.399354  0.501515  1
  Mn  Mn12  1  0.601819  0.101824  0.203658  1
  Mn  Mn13  1  0.898351  0.398350  0.796711  1
  Mn  Mn14  1  0.102230  0.902484  0.501520  1
  Mn  Mn15  1  0.399326  0.599070  0.501522  1
  Si  Si16  1  0.706310  0.706304  0.412415  1
  Si  Si17  1  0.291410  0.708491  0.999901  1
  Si  Si18  1  0.708482  0.291396  0.999903  1
  Si  Si19  1  0.091099  0.499782  0.591171  1
  Si  Si20  1  0.908574  0.500903  0.409274  1
  Si  Si21  1  0.500906  0.908577  0.409267  1
  Si  Si22  1  0.499855  0.091176  0.591167  1
  Si  Si23  1  0.249687  0.249685  0.999356  1
  Si  Si24  1  0.749657  0.749661  0.999348  1
  Si  Si25  1  0.297022  0.000146  0.297251  1
  Si  Si26  1  0.702995  0.000098  0.702933  1
  Si  Si27  1  0.000046  0.702947  0.702925  1
  Si  Si28  1  0.000109  0.296982  0.297248  1
  P  P29  1  0.293057  0.293065  0.586316  1
