# generated using pymatgen
data_Tb4Tm4Sc12Si15Au
_symmetry_space_group_name_H-M   'P 1'
_cell_length_a   7.10741553
_cell_length_b   7.36561481
_cell_length_c   14.04241236
_cell_angle_alpha   89.93297843
_cell_angle_beta   89.69718993
_cell_angle_gamma   90.24574437
_symmetry_Int_Tables_number   1
_chemical_formula_structural   Tb4Tm4Sc12Si15Au
_chemical_formula_sum   'Tb4 Tm4 Sc12 Si15 Au1'
_cell_volume   735.10954847
_cell_formula_units_Z   1
loop_
 _symmetry_equiv_pos_site_id
 _symmetry_equiv_pos_as_xyz
  1  'x, y, z'
loop_
 _atom_site_type_symbol
 _atom_site_label
 _atom_site_symmetry_multiplicity
 _atom_site_fract_x
 _atom_site_fract_y
 _atom_site_fract_z
 _atom_site_occupancy
  Tb  Tb0  1  0.012069  0.175601  0.097417  1
  Tb  Tb1  1  0.987764  0.825472  0.903862  1
  Tb  Tb2  1  0.487717  0.676291  0.904383  1
  Tb  Tb3  1  0.988546  0.827863  0.596866  1
  Tm  Tm4  1  0.511951  0.323026  0.097163  1
  Tm  Tm5  1  0.010617  0.175569  0.399216  1
  Tm  Tm6  1  0.509255  0.323869  0.401104  1
  Tm  Tm7  1  0.491078  0.676301  0.598629  1
  Sc  Sc8  1  0.163201  0.501421  0.750888  1
  Sc  Sc9  1  0.836986  0.497768  0.251010  1
  Sc  Sc10  1  0.338084  0.001166  0.249561  1
  Sc  Sc11  1  0.663925  0.996434  0.750715  1
  Sc  Sc12  1  0.338995  0.176661  0.625481  1
  Sc  Sc13  1  0.666004  0.823185  0.373456  1
  Sc  Sc14  1  0.169099  0.672729  0.373061  1
  Sc  Sc15  1  0.669770  0.824090  0.125864  1
  Sc  Sc16  1  0.828320  0.325825  0.624972  1
  Sc  Sc17  1  0.329522  0.175718  0.875840  1
  Sc  Sc18  1  0.829941  0.323090  0.875805  1
  Sc  Sc19  1  0.169427  0.675876  0.125616  1
  Si  Si20  1  0.035707  0.119359  0.750466  1
  Si  Si21  1  0.966597  0.884672  0.249871  1
  Si  Si22  1  0.466993  0.613212  0.248470  1
  Si  Si23  1  0.535280  0.385840  0.751967  1
  Si  Si24  1  0.286001  0.873817  0.750056  1
  Si  Si25  1  0.712032  0.129646  0.249701  1
  Si  Si26  1  0.215306  0.369665  0.248515  1
  Si  Si27  1  0.786258  0.627254  0.751849  1
  Si  Si28  1  0.833656  0.535101  0.458907  1
  Si  Si29  1  0.340144  0.964030  0.459722  1
  Si  Si30  1  0.841891  0.534963  0.039492  1
  Si  Si31  1  0.657267  0.036209  0.537157  1
  Si  Si32  1  0.155703  0.464131  0.962017  1
  Si  Si33  1  0.656530  0.036590  0.961955  1
  Si  Si34  1  0.343877  0.965306  0.039853  1
  Au  Au35  1  0.164485  0.462252  0.539093  1
