# generated using pymatgen
data_Pa3CuPt5
_symmetry_space_group_name_H-M   'P 1'
_cell_length_a   8.15757741
_cell_length_b   8.15757885
_cell_length_c   13.07543600
_cell_angle_alpha   90.00000000
_cell_angle_beta   90.00000000
_cell_angle_gamma   126.69768349
_symmetry_Int_Tables_number   1
_chemical_formula_structural   Pa3CuPt5
_chemical_formula_sum   'Pa12 Cu4 Pt20'
_cell_volume   697.66126336
_cell_formula_units_Z   4
loop_
 _symmetry_equiv_pos_site_id
 _symmetry_equiv_pos_as_xyz
  1  'x, y, z'
loop_
 _atom_site_type_symbol
 _atom_site_label
 _atom_site_symmetry_multiplicity
 _atom_site_fract_x
 _atom_site_fract_y
 _atom_site_fract_z
 _atom_site_occupancy
  Pa  Pa0  1  0.923569  0.076431  0.250000  1
  Pa  Pa1  1  0.076431  0.923569  0.750000  1
  Pa  Pa2  1  0.325734  0.674266  0.250000  1
  Pa  Pa3  1  0.674266  0.325734  0.750000  1
  Pa  Pa4  1  0.628276  0.371724  0.455237  1
  Pa  Pa5  1  0.371724  0.628276  0.544763  1
  Pa  Pa6  1  0.628276  0.371724  0.044763  1
  Pa  Pa7  1  0.371724  0.628276  0.955237  1
  Pa  Pa8  1  0.878819  0.121181  0.945337  1
  Pa  Pa9  1  0.121181  0.878819  0.054663  1
  Pa  Pa10  1  0.878819  0.121181  0.554663  1
  Pa  Pa11  1  0.121181  0.878819  0.445337  1
  Cu  Cu12  1  0.719948  0.280052  0.250000  1
  Cu  Cu13  1  0.280052  0.719948  0.750000  1
  Cu  Cu14  1  0.533084  0.466916  0.250000  1
  Cu  Cu15  1  0.466916  0.533084  0.750000  1
  Pt  Pt16  1  0.317074  0.062515  0.250000  1
  Pt  Pt17  1  0.062515  0.317074  0.750000  1
  Pt  Pt18  1  0.682926  0.937485  0.750000  1
  Pt  Pt19  1  0.937485  0.682926  0.250000  1
  Pt  Pt20  1  0.559565  0.996164  0.397237  1
  Pt  Pt21  1  0.996164  0.559565  0.602763  1
  Pt  Pt22  1  0.559565  0.996164  0.102763  1
  Pt  Pt23  1  0.996164  0.559565  0.897237  1
  Pt  Pt24  1  0.440435  0.003836  0.602763  1
  Pt  Pt25  1  0.003836  0.440435  0.397237  1
  Pt  Pt26  1  0.440435  0.003836  0.897237  1
  Pt  Pt27  1  0.003836  0.440435  0.102763  1
  Pt  Pt28  1  0.696610  0.749869  0.394822  1
  Pt  Pt29  1  0.749869  0.696610  0.605178  1
  Pt  Pt30  1  0.696610  0.749869  0.105178  1
  Pt  Pt31  1  0.749869  0.696610  0.894822  1
  Pt  Pt32  1  0.303390  0.250131  0.605178  1
  Pt  Pt33  1  0.250131  0.303390  0.394822  1
  Pt  Pt34  1  0.303390  0.250131  0.894822  1
  Pt  Pt35  1  0.250131  0.303390  0.105178  1
