# generated using pymatgen
data_Ca2EuPt2
_symmetry_space_group_name_H-M   'P 1'
_cell_length_a   7.69530477
_cell_length_b   7.69530509
_cell_length_c   7.69530545
_cell_angle_alpha   71.11638894
_cell_angle_beta   71.11638600
_cell_angle_gamma   71.11639812
_symmetry_Int_Tables_number   1
_chemical_formula_structural   Ca2EuPt2
_chemical_formula_sum   'Ca6 Eu3 Pt6'
_cell_volume   395.58207412
_cell_formula_units_Z   3
loop_
 _symmetry_equiv_pos_site_id
 _symmetry_equiv_pos_as_xyz
  1  'x, y, z'
loop_
 _atom_site_type_symbol
 _atom_site_label
 _atom_site_symmetry_multiplicity
 _atom_site_fract_x
 _atom_site_fract_y
 _atom_site_fract_z
 _atom_site_occupancy
  Ca  Ca0  1  0.999037  0.999037  0.999037  1
  Ca  Ca1  1  0.799747  0.799747  0.799747  1
  Ca  Ca2  1  0.200875  0.200875  0.200875  1
  Ca  Ca3  1  0.329667  0.605171  0.846155  1
  Ca  Ca4  1  0.846155  0.329667  0.605171  1
  Ca  Ca5  1  0.605171  0.846155  0.329667  1
  Eu  Eu6  1  0.668811  0.397049  0.154259  1
  Eu  Eu7  1  0.154259  0.668811  0.397049  1
  Eu  Eu8  1  0.397049  0.154259  0.668811  1
  Pt  Pt9  1  0.159135  0.955484  0.587666  1
  Pt  Pt10  1  0.587666  0.159135  0.955484  1
  Pt  Pt11  1  0.955484  0.587666  0.159135  1
  Pt  Pt12  1  0.841566  0.042932  0.412447  1
  Pt  Pt13  1  0.412447  0.841566  0.042932  1
  Pt  Pt14  1  0.042932  0.412447  0.841566  1
