# generated using pymatgen
data_Tb8Sb(Pd3Pt5)3
_symmetry_space_group_name_H-M   'P 1'
_cell_length_a   8.43005256
_cell_length_b   8.43767221
_cell_length_c   8.42028338
_cell_angle_alpha   90.00748256
_cell_angle_beta   90.03361783
_cell_angle_gamma   89.91732829
_symmetry_Int_Tables_number   1
_chemical_formula_structural   Tb8Sb(Pd3Pt5)3
_chemical_formula_sum   'Tb8 Sb1 Pd9 Pt15'
_cell_volume   598.93419545
_cell_formula_units_Z   1
loop_
 _symmetry_equiv_pos_site_id
 _symmetry_equiv_pos_as_xyz
  1  'x, y, z'
loop_
 _atom_site_type_symbol
 _atom_site_label
 _atom_site_symmetry_multiplicity
 _atom_site_fract_x
 _atom_site_fract_y
 _atom_site_fract_z
 _atom_site_occupancy
  Tb  Tb0  1  0.746177  0.745453  0.253340  1
  Tb  Tb1  1  0.745673  0.254312  0.746124  1
  Tb  Tb2  1  0.254291  0.746104  0.746684  1
  Tb  Tb3  1  0.745537  0.745741  0.746644  1
  Tb  Tb4  1  0.746293  0.254605  0.253878  1
  Tb  Tb5  1  0.254292  0.253835  0.746007  1
  Tb  Tb6  1  0.253641  0.745890  0.253170  1
  Tb  Tb7  1  0.253657  0.254020  0.253852  1
  Sb  Sb8  1  0.002887  0.999968  0.000230  1
  Pd  Pd9  1  0.499856  0.745643  0.500029  1
  Pd  Pd10  1  0.746199  0.499954  0.500013  1
  Pd  Pd11  1  0.999490  0.306170  0.999771  1
  Pd  Pd12  1  0.999325  0.694034  0.999775  1
  Pd  Pd13  1  0.695587  0.000185  0.000112  1
  Pd  Pd14  1  0.263200  0.499856  0.000079  1
  Pd  Pd15  1  0.264066  0.000117  0.499921  1
  Pd  Pd16  1  0.000073  0.500020  0.735957  1
  Pd  Pd17  1  0.500116  0.264541  0.999911  1
  Pt  Pt18  1  0.998519  0.999861  0.306906  1
  Pt  Pt19  1  0.733529  0.000169  0.499997  1
  Pt  Pt20  1  0.735298  0.499815  0.000114  1
  Pt  Pt21  1  0.499949  0.000105  0.735384  1
  Pt  Pt22  1  0.000339  0.734791  0.500171  1
  Pt  Pt23  1  0.499896  0.000093  0.264775  1
  Pt  Pt24  1  0.000417  0.264774  0.500160  1
  Pt  Pt25  1  0.500102  0.734978  0.999944  1
  Pt  Pt26  1  0.254374  0.499969  0.499981  1
  Pt  Pt27  1  0.499752  0.500039  0.746139  1
  Pt  Pt28  1  0.499716  0.500049  0.253723  1
  Pt  Pt29  1  0.499850  0.254697  0.499993  1
  Pt  Pt30  1  0.308900  0.000328  0.000011  1
  Pt  Pt31  1  0.998795  0.999869  0.693156  1
  Pt  Pt32  1  0.000205  0.500017  0.264048  1
