# generated using pymatgen
data_Tb2Lu2CrFeB12
_symmetry_space_group_name_H-M   'P 1'
_cell_length_a   3.53014900
_cell_length_b   9.07785526
_cell_length_c   11.46803573
_cell_angle_alpha   90.19578503
_cell_angle_beta   90.00000000
_cell_angle_gamma   90.00000000
_symmetry_Int_Tables_number   1
_chemical_formula_structural   Tb2Lu2CrFeB12
_chemical_formula_sum   'Tb4 Lu4 Cr2 Fe2 B24'
_cell_volume   367.50461063
_cell_formula_units_Z   2
loop_
 _symmetry_equiv_pos_site_id
 _symmetry_equiv_pos_as_xyz
  1  'x, y, z'
loop_
 _atom_site_type_symbol
 _atom_site_label
 _atom_site_symmetry_multiplicity
 _atom_site_fract_x
 _atom_site_fract_y
 _atom_site_fract_z
 _atom_site_occupancy
  Tb  Tb0  1  0.000000  0.822923  0.085496  1
  Tb  Tb1  1  0.000000  0.177077  0.914504  1
  Tb  Tb2  1  0.000000  0.323567  0.414753  1
  Tb  Tb3  1  0.000000  0.676433  0.585247  1
  Lu  Lu4  1  0.000000  0.443769  0.130658  1
  Lu  Lu5  1  0.000000  0.556231  0.869342  1
  Lu  Lu6  1  0.000000  0.942105  0.369673  1
  Lu  Lu7  1  0.000000  0.057895  0.630327  1
  Cr  Cr8  1  0.000000  0.139949  0.181485  1
  Cr  Cr9  1  0.000000  0.860051  0.818515  1
  Fe  Fe10  1  0.000000  0.639655  0.319740  1
  Fe  Fe11  1  0.000000  0.360345  0.680260  1
  B  B12  1  0.500000  0.053942  0.068045  1
  B  B13  1  0.500000  0.946058  0.931955  1
  B  B14  1  0.500000  0.555485  0.431060  1
  B  B15  1  0.500000  0.444515  0.568940  1
  B  B16  1  0.500000  0.249655  0.082518  1
  B  B17  1  0.500000  0.750345  0.917482  1
  B  B18  1  0.500000  0.748296  0.416623  1
  B  B19  1  0.500000  0.251704  0.583377  1
  B  B20  1  0.500000  0.293199  0.235452  1
  B  B21  1  0.500000  0.706801  0.764548  1
  B  B22  1  0.500000  0.790133  0.265943  1
  B  B23  1  0.500000  0.209867  0.734057  1
  B  B24  1  0.500000  0.131089  0.315393  1
  B  B25  1  0.500000  0.868911  0.684607  1
  B  B26  1  0.500000  0.630619  0.186424  1
  B  B27  1  0.500000  0.369381  0.813576  1
  B  B28  1  0.500000  0.485538  0.288076  1
  B  B29  1  0.500000  0.514462  0.711924  1
  B  B30  1  0.500000  0.982672  0.213056  1
  B  B31  1  0.500000  0.017328  0.786944  1
  B  B32  1  0.500000  0.101054  0.472660  1
  B  B33  1  0.500000  0.898946  0.527340  1
  B  B34  1  0.500000  0.600572  0.027869  1
  B  B35  1  0.500000  0.399428  0.972131  1
