# generated using pymatgen
data_NdPu3(Al3Ir)6
_symmetry_space_group_name_H-M   'P 1'
_cell_length_a   7.70644500
_cell_length_b   7.69442508
_cell_length_c   9.59787700
_cell_angle_alpha   90.00000000
_cell_angle_beta   90.00000000
_cell_angle_gamma   119.76322886
_symmetry_Int_Tables_number   1
_chemical_formula_structural   NdPu3(Al3Ir)6
_chemical_formula_sum   'Nd1 Pu3 Al18 Ir6'
_cell_volume   494.04590131
_cell_formula_units_Z   1
loop_
 _symmetry_equiv_pos_site_id
 _symmetry_equiv_pos_as_xyz
  1  'x, y, z'
loop_
 _atom_site_type_symbol
 _atom_site_label
 _atom_site_symmetry_multiplicity
 _atom_site_fract_x
 _atom_site_fract_y
 _atom_site_fract_z
 _atom_site_occupancy
  Nd  Nd0  1  0.330131  0.004899  0.750000  1
  Pu  Pu1  1  0.993836  0.672623  0.250000  1
  Pu  Pu2  1  0.005149  0.328028  0.750000  1
  Pu  Pu3  1  0.673891  0.995846  0.250000  1
  Al  Al4  1  0.129386  0.129881  0.250000  1
  Al  Al5  1  0.870815  0.872994  0.750000  1
  Al  Al6  1  0.000505  0.337077  0.072259  1
  Al  Al7  1  0.997364  0.662346  0.928976  1
  Al  Al8  1  0.997364  0.662346  0.571024  1
  Al  Al9  1  0.336166  0.999469  0.423644  1
  Al  Al10  1  0.000505  0.337077  0.427741  1
  Al  Al11  1  0.666350  0.999260  0.571064  1
  Al  Al12  1  0.666350  0.999260  0.928936  1
  Al  Al13  1  0.336166  0.999469  0.076356  1
  Al  Al14  1  0.332988  0.333999  0.547413  1
  Al  Al15  1  0.665573  0.665707  0.448149  1
  Al  Al16  1  0.665573  0.665707  0.051851  1
  Al  Al17  1  0.332988  0.333999  0.952587  1
  Al  Al18  1  0.338303  0.550740  0.250000  1
  Al  Al19  1  0.664790  0.454687  0.750000  1
  Al  Al20  1  0.548440  0.339623  0.250000  1
  Al  Al21  1  0.450499  0.657900  0.750000  1
  Ir  Ir22  1  0.670243  0.328877  0.000583  1
  Ir  Ir23  1  0.328618  0.670851  0.000142  1
  Ir  Ir24  1  0.328618  0.670851  0.499858  1
  Ir  Ir25  1  0.670243  0.328877  0.499417  1
  Ir  Ir26  1  0.999574  0.998804  0.001718  1
  Ir  Ir27  1  0.999574  0.998804  0.498282  1
