# generated using pymatgen
data_Sc8Ti8VSi16Mo3
_symmetry_space_group_name_H-M   'P 1'
_cell_length_a   6.61583119
_cell_length_b   6.77746593
_cell_length_c   12.98056800
_cell_angle_alpha   90.00000000
_cell_angle_beta   90.00000000
_cell_angle_gamma   90.05516793
_symmetry_Int_Tables_number   1
_chemical_formula_structural   Sc8Ti8VSi16Mo3
_chemical_formula_sum   'Sc8 Ti8 V1 Si16 Mo3'
_cell_volume   582.02984350
_cell_formula_units_Z   1
loop_
 _symmetry_equiv_pos_site_id
 _symmetry_equiv_pos_as_xyz
  1  'x, y, z'
loop_
 _atom_site_type_symbol
 _atom_site_label
 _atom_site_symmetry_multiplicity
 _atom_site_fract_x
 _atom_site_fract_y
 _atom_site_fract_z
 _atom_site_occupancy
  Sc  Sc0  1  0.501904  0.324872  0.095814  1
  Sc  Sc1  1  0.001549  0.175122  0.404311  1
  Sc  Sc2  1  0.497827  0.674173  0.595379  1
  Sc  Sc3  1  0.998274  0.824775  0.904547  1
  Sc  Sc4  1  0.497827  0.674173  0.904621  1
  Sc  Sc5  1  0.998274  0.824775  0.595453  1
  Sc  Sc6  1  0.501904  0.324872  0.404186  1
  Sc  Sc7  1  0.001549  0.175122  0.095689  1
  Ti  Ti8  1  0.833834  0.327344  0.627151  1
  Ti  Ti9  1  0.334435  0.172638  0.872878  1
  Ti  Ti10  1  0.167011  0.672254  0.126461  1
  Ti  Ti11  1  0.666736  0.828070  0.373622  1
  Ti  Ti12  1  0.167011  0.672254  0.373539  1
  Ti  Ti13  1  0.666736  0.828070  0.126378  1
  Ti  Ti14  1  0.833834  0.327344  0.872849  1
  Ti  Ti15  1  0.334435  0.172638  0.627122  1
  V  V16  1  0.659164  0.011160  0.750000  1
  Si  Si17  1  0.664646  0.035477  0.541768  1
  Si  Si18  1  0.164646  0.463486  0.959103  1
  Si  Si19  1  0.335246  0.964417  0.040538  1
  Si  Si20  1  0.834283  0.536134  0.459543  1
  Si  Si21  1  0.335246  0.964417  0.459462  1
  Si  Si22  1  0.834283  0.536134  0.040457  1
  Si  Si23  1  0.664646  0.035477  0.958232  1
  Si  Si24  1  0.164646  0.463486  0.540897  1
  Si  Si25  1  0.535854  0.382561  0.750000  1
  Si  Si26  1  0.031433  0.113450  0.750000  1
  Si  Si27  1  0.466435  0.614989  0.250000  1
  Si  Si28  1  0.965807  0.884778  0.250000  1
  Si  Si29  1  0.792366  0.641481  0.750000  1
  Si  Si30  1  0.297503  0.863501  0.750000  1
  Si  Si31  1  0.205223  0.361419  0.250000  1
  Si  Si32  1  0.705529  0.138089  0.250000  1
  Mo  Mo33  1  0.159462  0.491498  0.750000  1
  Mo  Mo34  1  0.340091  0.991062  0.250000  1
  Mo  Mo35  1  0.840346  0.508490  0.250000  1
