# generated using pymatgen
data_Hf16Ni3Ir5N4
_symmetry_space_group_name_H-M   'P 1'
_cell_length_a   8.61779562
_cell_length_b   8.61669158
_cell_length_c   8.61704727
_cell_angle_alpha   60.48178407
_cell_angle_beta   60.48291757
_cell_angle_gamma   60.48480477
_symmetry_Int_Tables_number   1
_chemical_formula_structural   Hf16Ni3Ir5N4
_chemical_formula_sum   'Hf16 Ni3 Ir5 N4'
_cell_volume   457.40123340
_cell_formula_units_Z   1
loop_
 _symmetry_equiv_pos_site_id
 _symmetry_equiv_pos_as_xyz
  1  'x, y, z'
loop_
 _atom_site_type_symbol
 _atom_site_label
 _atom_site_symmetry_multiplicity
 _atom_site_fract_x
 _atom_site_fract_y
 _atom_site_fract_z
 _atom_site_occupancy
  Hf  Hf0  1  0.147861  0.620162  0.620099  1
  Hf  Hf1  1  0.620161  0.147843  0.620109  1
  Hf  Hf2  1  0.620094  0.620102  0.147945  1
  Hf  Hf3  1  0.612863  0.612915  0.612868  1
  Hf  Hf4  1  0.817379  0.817390  0.183896  1
  Hf  Hf5  1  0.184205  0.184219  0.816158  1
  Hf  Hf6  1  0.817380  0.183918  0.817374  1
  Hf  Hf7  1  0.184196  0.816190  0.184192  1
  Hf  Hf8  1  0.183886  0.817400  0.817384  1
  Hf  Hf9  1  0.816171  0.184209  0.184191  1
  Hf  Hf10  1  0.436766  0.436781  0.061798  1
  Hf  Hf11  1  0.064307  0.064325  0.435615  1
  Hf  Hf12  1  0.436765  0.061823  0.436759  1
  Hf  Hf13  1  0.064289  0.435656  0.064274  1
  Hf  Hf14  1  0.061800  0.436796  0.436775  1
  Hf  Hf15  1  0.435639  0.064308  0.064273  1
  Ni  Ni16  1  0.797176  0.398337  0.398404  1
  Ni  Ni17  1  0.398429  0.796899  0.398457  1
  Ni  Ni18  1  0.398365  0.398417  0.796992  1
  Ir  Ir19  1  0.404661  0.404637  0.404713  1
  Ir  Ir20  1  0.495290  0.833582  0.833616  1
  Ir  Ir21  1  0.833575  0.495308  0.833610  1
  Ir  Ir22  1  0.833584  0.833585  0.495294  1
  Ir  Ir23  1  0.835857  0.835847  0.835906  1
  N  N24  1  0.625243  0.124879  0.124866  1
  N  N25  1  0.124873  0.625253  0.124869  1
  N  N26  1  0.124871  0.124877  0.625257  1
  N  N27  1  0.124318  0.124339  0.124307  1
