# generated using pymatgen
data_Dy10IrOs2Ru
_symmetry_space_group_name_H-M   'P 1'
_cell_length_a   6.40563390
_cell_length_b   7.31776152
_cell_length_c   8.45799418
_cell_angle_alpha   96.66315368
_cell_angle_beta   112.33883737
_cell_angle_gamma   90.01675582
_symmetry_Int_Tables_number   1
_chemical_formula_structural   Dy10IrOs2Ru
_chemical_formula_sum   'Dy10 Ir1 Os2 Ru1'
_cell_volume   363.81116896
_cell_formula_units_Z   1
loop_
 _symmetry_equiv_pos_site_id
 _symmetry_equiv_pos_as_xyz
  1  'x, y, z'
loop_
 _atom_site_type_symbol
 _atom_site_label
 _atom_site_symmetry_multiplicity
 _atom_site_fract_x
 _atom_site_fract_y
 _atom_site_fract_z
 _atom_site_occupancy
  Dy  Dy0  1  0.791966  0.084244  0.818314  1
  Dy  Dy1  1  0.976059  0.416599  0.182612  1
  Dy  Dy2  1  0.208991  0.915318  0.186139  1
  Dy  Dy3  1  0.023212  0.581789  0.815601  1
  Dy  Dy4  1  0.210046  0.184937  0.561552  1
  Dy  Dy5  1  0.647354  0.316251  0.436733  1
  Dy  Dy6  1  0.788988  0.816765  0.435321  1
  Dy  Dy7  1  0.354249  0.682725  0.562924  1
  Dy  Dy8  1  0.425299  0.251520  0.001294  1
  Dy  Dy9  1  0.576011  0.749674  0.000058  1
  Ir  Ir10  1  0.174389  0.924582  0.778364  1
  Os  Os11  1  0.605248  0.425238  0.781665  1
  Os  Os12  1  0.824955  0.074196  0.218654  1
  Ru  Ru13  1  0.393235  0.576162  0.220769  1
