# generated using pymatgen
data_LiNd6IrBr12
_symmetry_space_group_name_H-M   'P 1'
_cell_length_a   9.38957526
_cell_length_b   9.67662830
_cell_length_c   9.69074611
_cell_angle_alpha   108.27438696
_cell_angle_beta   107.67948025
_cell_angle_gamma   107.74613099
_symmetry_Int_Tables_number   1
_chemical_formula_structural   LiNd6IrBr12
_chemical_formula_sum   'Li1 Nd6 Ir1 Br12'
_cell_volume   714.50056800
_cell_formula_units_Z   1
loop_
 _symmetry_equiv_pos_site_id
 _symmetry_equiv_pos_as_xyz
  1  'x, y, z'
loop_
 _atom_site_type_symbol
 _atom_site_label
 _atom_site_symmetry_multiplicity
 _atom_site_fract_x
 _atom_site_fract_y
 _atom_site_fract_z
 _atom_site_occupancy
  Li  Li0  1  0.500000  0.500000  0.500000  1
  Nd  Nd1  1  0.124616  0.331298  0.036731  1
  Nd  Nd2  1  0.308853  0.031960  0.110434  1
  Nd  Nd3  1  0.033799  0.123367  0.330763  1
  Nd  Nd4  1  0.966202  0.876633  0.669238  1
  Nd  Nd5  1  0.691147  0.968041  0.889566  1
  Nd  Nd6  1  0.875384  0.668702  0.963269  1
  Ir  Ir7  1  0.000000  0.000000  0.000000  1
  Br  Br8  1  0.216411  0.687756  0.072759  1
  Br  Br9  1  0.468684  0.380960  0.177310  1
  Br  Br10  1  0.681137  0.069839  0.213365  1
  Br  Br11  1  0.927418  0.786110  0.312864  1
  Br  Br12  1  0.176166  0.464613  0.380675  1
  Br  Br13  1  0.381443  0.176094  0.459495  1
  Br  Br14  1  0.618557  0.823906  0.540506  1
  Br  Br15  1  0.823835  0.535387  0.619325  1
  Br  Br16  1  0.072583  0.213890  0.687137  1
  Br  Br17  1  0.318864  0.930162  0.786635  1
  Br  Br18  1  0.531316  0.619040  0.822691  1
  Br  Br19  1  0.783589  0.312244  0.927241  1
