# generated using pymatgen
data_InSn7B6Ir13Rh
_symmetry_space_group_name_H-M   'P 1'
_cell_length_a   9.39652124
_cell_length_b   9.34902303
_cell_length_c   5.69769958
_cell_angle_alpha   89.99080926
_cell_angle_beta   90.07796182
_cell_angle_gamma   119.93162474
_symmetry_Int_Tables_number   1
_chemical_formula_structural   InSn7B6Ir13Rh
_chemical_formula_sum   'In1 Sn7 B6 Ir13 Rh1'
_cell_volume   433.77232714
_cell_formula_units_Z   1
loop_
 _symmetry_equiv_pos_site_id
 _symmetry_equiv_pos_as_xyz
  1  'x, y, z'
loop_
 _atom_site_type_symbol
 _atom_site_label
 _atom_site_symmetry_multiplicity
 _atom_site_fract_x
 _atom_site_fract_y
 _atom_site_fract_z
 _atom_site_occupancy
  In  In0  1  0.506952  0.093153  0.749927  1
  Sn  Sn1  1  0.091749  0.589558  0.251087  1
  Sn  Sn2  1  0.906531  0.407921  0.750273  1
  Sn  Sn3  1  0.587481  0.495537  0.749974  1
  Sn  Sn4  1  0.498437  0.911987  0.249958  1
  Sn  Sn5  1  0.332040  0.668462  0.747981  1
  Sn  Sn6  1  0.410578  0.502967  0.249800  1
  Sn  Sn7  1  0.665217  0.331289  0.250205  1
  B  B8  1  0.826877  0.790637  0.250049  1
  B  B9  1  0.965057  0.173280  0.250322  1
  B  B10  1  0.209717  0.036855  0.249525  1
  B  B11  1  0.790827  0.963255  0.750468  1
  B  B12  1  0.037007  0.826619  0.749957  1
  B  B13  1  0.172631  0.208598  0.749887  1
  Ir  Ir14  1  0.773645  0.123010  0.497302  1
  Ir  Ir15  1  0.774243  0.123523  0.003296  1
  Ir  Ir16  1  0.646730  0.770609  0.500992  1
  Ir  Ir17  1  0.124456  0.354110  0.501565  1
  Ir  Ir18  1  0.875424  0.645783  0.000891  1
  Ir  Ir19  1  0.350124  0.229407  0.001125  1
  Ir  Ir20  1  0.227636  0.875965  0.501283  1
  Ir  Ir21  1  0.875107  0.645974  0.499106  1
  Ir  Ir22  1  0.350883  0.229648  0.498075  1
  Ir  Ir23  1  0.227721  0.875581  0.999171  1
  Ir  Ir24  1  0.000644  0.999691  0.499751  1
  Ir  Ir25  1  0.000520  0.000058  0.999901  1
  Ir  Ir26  1  0.646807  0.770430  0.999046  1
  Rh  Rh27  1  0.124959  0.356092  0.999081  1
