# generated using pymatgen
data_Pu2As7Rh12
_symmetry_space_group_name_H-M   'P 1'
_cell_length_a   9.96019592
_cell_length_b   9.96076349
_cell_length_c   3.93236566
_cell_angle_alpha   90.15552965
_cell_angle_beta   89.90024029
_cell_angle_gamma   119.92124225
_symmetry_Int_Tables_number   1
_chemical_formula_structural   Pu2As7Rh12
_chemical_formula_sum   'Pu2 As7 Rh12'
_cell_volume   338.13296218
_cell_formula_units_Z   1
loop_
 _symmetry_equiv_pos_site_id
 _symmetry_equiv_pos_as_xyz
  1  'x, y, z'
loop_
 _atom_site_type_symbol
 _atom_site_label
 _atom_site_symmetry_multiplicity
 _atom_site_fract_x
 _atom_site_fract_y
 _atom_site_fract_z
 _atom_site_occupancy
  Pu  Pu0  1  0.333455  0.667735  0.249758  1
  Pu  Pu1  1  0.666545  0.332265  0.750242  1
  As  As2  1  0.000000  0.000000  0.500000  1
  As  As3  1  0.406118  0.119039  0.250268  1
  As  As4  1  0.712088  0.593686  0.250111  1
  As  As5  1  0.881310  0.287178  0.250364  1
  As  As6  1  0.593882  0.880961  0.749732  1
  As  As7  1  0.287912  0.406314  0.749889  1
  As  As8  1  0.118690  0.712822  0.749636  1
  Rh  Rh9  1  0.444567  0.381976  0.249829  1
  Rh  Rh10  1  0.935705  0.553967  0.250496  1
  Rh  Rh11  1  0.618212  0.063555  0.250257  1
  Rh  Rh12  1  0.555433  0.618024  0.750171  1
  Rh  Rh13  1  0.064295  0.446033  0.749504  1
  Rh  Rh14  1  0.381788  0.936445  0.749743  1
  Rh  Rh15  1  0.149408  0.886535  0.244506  1
  Rh  Rh16  1  0.736905  0.851140  0.244204  1
  Rh  Rh17  1  0.113494  0.262129  0.243450  1
  Rh  Rh18  1  0.850592  0.113465  0.755494  1
  Rh  Rh19  1  0.263095  0.148860  0.755796  1
  Rh  Rh20  1  0.886506  0.737871  0.756550  1
