# generated using pymatgen
data_SmThMn5(PRh)7
_symmetry_space_group_name_H-M   'P 1'
_cell_length_a   9.49396733
_cell_length_b   9.49334221
_cell_length_c   3.83744300
_cell_angle_alpha   90.00000000
_cell_angle_beta   90.00000000
_cell_angle_gamma   119.91556526
_symmetry_Int_Tables_number   1
_chemical_formula_structural   SmThMn5(PRh)7
_chemical_formula_sum   'Sm1 Th1 Mn5 P7 Rh7'
_cell_volume   299.78390816
_cell_formula_units_Z   1
loop_
 _symmetry_equiv_pos_site_id
 _symmetry_equiv_pos_as_xyz
  1  'x, y, z'
loop_
 _atom_site_type_symbol
 _atom_site_label
 _atom_site_symmetry_multiplicity
 _atom_site_fract_x
 _atom_site_fract_y
 _atom_site_fract_z
 _atom_site_occupancy
  Sm  Sm0  1  0.999709  0.000128  0.500000  1
  Th  Th1  1  0.334350  0.667220  0.000000  1
  Mn  Mn2  1  0.554599  0.066209  0.000000  1
  Mn  Mn3  1  0.934839  0.488575  0.000000  1
  Mn  Mn4  1  0.508961  0.442989  0.000000  1
  Mn  Mn5  1  0.771887  0.559259  0.500000  1
  Mn  Mn6  1  0.438504  0.211974  0.500000  1
  P  P7  1  0.773809  0.035366  0.000000  1
  P  P8  1  0.962075  0.736542  0.000000  1
  P  P9  1  0.260134  0.222503  0.000000  1
  P  P10  1  0.390387  0.943790  0.500000  1
  P  P11  1  0.058332  0.450316  0.500000  1
  P  P12  1  0.555443  0.607973  0.500000  1
  P  P13  1  0.668388  0.336229  0.000000  1
  Rh  Rh14  1  0.032190  0.270089  0.000000  1
  Rh  Rh15  1  0.729552  0.760869  0.000000  1
  Rh  Rh16  1  0.237078  0.967202  0.000000  1
  Rh  Rh17  1  0.610766  0.890918  0.500000  1
  Rh  Rh18  1  0.106525  0.718649  0.500000  1
  Rh  Rh19  1  0.279316  0.388242  0.500000  1
  Rh  Rh20  1  0.793157  0.234957  0.500000  1
