# generated using pymatgen
data_Li2Nd3MgAg2Os
_symmetry_space_group_name_H-M   'P 1'
_cell_length_a   7.71338676
_cell_length_b   7.76275772
_cell_length_c   4.06101600
_cell_angle_alpha   90.00000000
_cell_angle_beta   90.00000000
_cell_angle_gamma   119.51914330
_symmetry_Int_Tables_number   1
_chemical_formula_structural   Li2Nd3MgAg2Os
_chemical_formula_sum   'Li2 Nd3 Mg1 Ag2 Os1'
_cell_volume   211.59747877
_cell_formula_units_Z   1
loop_
 _symmetry_equiv_pos_site_id
 _symmetry_equiv_pos_as_xyz
  1  'x, y, z'
loop_
 _atom_site_type_symbol
 _atom_site_label
 _atom_site_symmetry_multiplicity
 _atom_site_fract_x
 _atom_site_fract_y
 _atom_site_fract_z
 _atom_site_occupancy
  Li  Li0  1  0.243295  0.996607  0.500000  1
  Li  Li1  1  0.000997  0.245788  0.500000  1
  Nd  Nd2  1  0.565859  0.970479  0.000000  1
  Nd  Nd3  1  0.032451  0.600435  0.000000  1
  Nd  Nd4  1  0.395513  0.427075  0.000000  1
  Mg  Mg5  1  0.751941  0.754368  0.500000  1
  Ag  Ag6  1  0.666765  0.332960  0.500000  1
  Ag  Ag7  1  0.003139  0.003823  0.000000  1
  Os  Os8  1  0.340041  0.668465  0.500000  1
