# generated using pymatgen
data_Ca7Er(Si3Pd)4
_symmetry_space_group_name_H-M   'P 1'
_cell_length_a   8.26482600
_cell_length_b   8.26482576
_cell_length_c   8.35435400
_cell_angle_alpha   90.00000000
_cell_angle_beta   90.00000000
_cell_angle_gamma   120.00000095
_symmetry_Int_Tables_number   1
_chemical_formula_structural   Ca7Er(Si3Pd)4
_chemical_formula_sum   'Ca7 Er1 Si12 Pd4'
_cell_volume   494.20930532
_cell_formula_units_Z   1
loop_
 _symmetry_equiv_pos_site_id
 _symmetry_equiv_pos_as_xyz
  1  'x, y, z'
loop_
 _atom_site_type_symbol
 _atom_site_label
 _atom_site_symmetry_multiplicity
 _atom_site_fract_x
 _atom_site_fract_y
 _atom_site_fract_z
 _atom_site_occupancy
  Ca  Ca0  1  0.500940  0.001882  0.250000  1
  Ca  Ca1  1  0.498828  0.997654  0.750000  1
  Ca  Ca2  1  0.998118  0.499060  0.250000  1
  Ca  Ca3  1  0.002346  0.501172  0.750000  1
  Ca  Ca4  1  0.500940  0.499060  0.250000  1
  Ca  Ca5  1  0.498828  0.501172  0.750000  1
  Ca  Ca6  1  0.000000  0.000000  0.250000  1
  Er  Er7  1  0.000000  0.000000  0.750000  1
  Si  Si8  1  0.164541  0.329081  0.996181  1
  Si  Si9  1  0.835445  0.670890  0.993841  1
  Si  Si10  1  0.670919  0.835459  0.996181  1
  Si  Si11  1  0.835445  0.670890  0.506159  1
  Si  Si12  1  0.329110  0.164555  0.993841  1
  Si  Si13  1  0.164541  0.329081  0.503819  1
  Si  Si14  1  0.164541  0.835459  0.996181  1
  Si  Si15  1  0.329110  0.164555  0.506159  1
  Si  Si16  1  0.835445  0.164555  0.993841  1
  Si  Si17  1  0.670919  0.835459  0.503819  1
  Si  Si18  1  0.835445  0.164555  0.506159  1
  Si  Si19  1  0.164541  0.835459  0.503819  1
  Pd  Pd20  1  0.333333  0.666667  0.001661  1
  Pd  Pd21  1  0.666667  0.333333  0.998984  1
  Pd  Pd22  1  0.666667  0.333333  0.501016  1
  Pd  Pd23  1  0.333333  0.666667  0.498339  1
