# generated using pymatgen
data_Hf2Co9B6Ir
_symmetry_space_group_name_H-M   'P 1'
_cell_length_a   5.65580204
_cell_length_b   5.65580150
_cell_length_c   5.65580066
_cell_angle_alpha   95.60102693
_cell_angle_beta   95.60102691
_cell_angle_gamma   95.60102755
_symmetry_Int_Tables_number   1
_chemical_formula_structural   Hf2Co9B6Ir
_chemical_formula_sum   'Hf2 Co9 B6 Ir1'
_cell_volume   178.14368371
_cell_formula_units_Z   1
loop_
 _symmetry_equiv_pos_site_id
 _symmetry_equiv_pos_as_xyz
  1  'x, y, z'
loop_
 _atom_site_type_symbol
 _atom_site_label
 _atom_site_symmetry_multiplicity
 _atom_site_fract_x
 _atom_site_fract_y
 _atom_site_fract_z
 _atom_site_occupancy
  Hf  Hf0  1  0.685609  0.685609  0.685609  1
  Hf  Hf1  1  0.314391  0.314391  0.314391  1
  Co  Co2  1  0.500000  0.000000  0.000000  1
  Co  Co3  1  0.000000  0.500000  0.000000  1
  Co  Co4  1  0.000000  0.000000  0.500000  1
  Co  Co5  1  0.703015  0.202899  0.703015  1
  Co  Co6  1  0.703015  0.703015  0.202899  1
  Co  Co7  1  0.202899  0.703015  0.703015  1
  Co  Co8  1  0.296985  0.797101  0.296985  1
  Co  Co9  1  0.296985  0.296985  0.797101  1
  Co  Co10  1  0.797101  0.296985  0.296985  1
  B  B11  1  0.385231  0.000000  0.614769  1
  B  B12  1  0.614769  0.385231  0.000000  1
  B  B13  1  0.000000  0.614769  0.385231  1
  B  B14  1  0.614769  0.000000  0.385231  1
  B  B15  1  0.385231  0.614769  0.000000  1
  B  B16  1  0.000000  0.385231  0.614769  1
  Ir  Ir17  1  0.000000  0.000000  0.000000  1
