# generated using pymatgen
data_La2Pa2In2Pt3Rh
_symmetry_space_group_name_H-M   'P 1'
_cell_length_a   7.88422074
_cell_length_b   8.06572350
_cell_length_c   3.71770900
_cell_angle_alpha   90.00000000
_cell_angle_beta   90.00000000
_cell_angle_gamma   90.62106417
_symmetry_Int_Tables_number   1
_chemical_formula_structural   La2Pa2In2Pt3Rh
_chemical_formula_sum   'La2 Pa2 In2 Pt3 Rh1'
_cell_volume   236.40245512
_cell_formula_units_Z   1
loop_
 _symmetry_equiv_pos_site_id
 _symmetry_equiv_pos_as_xyz
  1  'x, y, z'
loop_
 _atom_site_type_symbol
 _atom_site_label
 _atom_site_symmetry_multiplicity
 _atom_site_fract_x
 _atom_site_fract_y
 _atom_site_fract_z
 _atom_site_occupancy
  La  La0  1  0.826131  0.679139  0.500000  1
  La  La1  1  0.326149  0.823329  0.500000  1
  Pa  Pa2  1  0.167567  0.326696  0.500000  1
  Pa  Pa3  1  0.677082  0.177764  0.500000  1
  In  In4  1  0.003552  0.010303  0.000000  1
  In  In5  1  0.506081  0.493270  0.000000  1
  Pt  Pt6  1  0.132207  0.591995  0.000000  1
  Pt  Pt7  1  0.634514  0.905969  0.000000  1
  Pt  Pt8  1  0.366729  0.151356  0.000000  1
  Rh  Rh9  1  0.859991  0.340179  0.000000  1
