# generated using pymatgen
data_La16Cd3Hg(OsRu)2
_symmetry_space_group_name_H-M   'P 1'
_cell_length_a   10.08902340
_cell_length_b   10.08902258
_cell_length_c   10.12798920
_cell_angle_alpha   59.70982955
_cell_angle_beta   59.70983270
_cell_angle_gamma   59.69368655
_symmetry_Int_Tables_number   1
_chemical_formula_structural   La16Cd3Hg(OsRu)2
_chemical_formula_sum   'La16 Cd3 Hg1 Os2 Ru2'
_cell_volume   724.07089486
_cell_formula_units_Z   1
loop_
 _symmetry_equiv_pos_site_id
 _symmetry_equiv_pos_as_xyz
  1  'x, y, z'
loop_
 _atom_site_type_symbol
 _atom_site_label
 _atom_site_symmetry_multiplicity
 _atom_site_fract_x
 _atom_site_fract_y
 _atom_site_fract_z
 _atom_site_occupancy
  La  La0  1  0.904918  0.904918  0.904307  1
  La  La1  1  0.438840  0.438840  0.060339  1
  La  La2  1  0.060783  0.060783  0.438891  1
  La  La3  1  0.440303  0.060407  0.060266  1
  La  La4  1  0.309166  0.692545  0.306801  1
  La  La5  1  0.689249  0.689249  0.309669  1
  La  La6  1  0.692545  0.309166  0.306801  1
  La  La7  1  0.288553  0.904405  0.904451  1
  La  La8  1  0.904405  0.288553  0.904451  1
  La  La9  1  0.309656  0.691169  0.689458  1
  La  La10  1  0.905087  0.905087  0.287073  1
  La  La11  1  0.060407  0.440303  0.060266  1
  La  La12  1  0.307062  0.307062  0.692234  1
  La  La13  1  0.060774  0.439554  0.437592  1
  La  La14  1  0.439554  0.060774  0.437592  1
  La  La15  1  0.691169  0.309656  0.689458  1
  Cd  Cd16  1  0.986810  0.671603  0.670698  1
  Cd  Cd17  1  0.671603  0.986810  0.670698  1
  Cd  Cd18  1  0.671581  0.671581  0.670527  1
  Hg  Hg19  1  0.669137  0.669137  0.993343  1
  Os  Os20  1  0.112867  0.112867  0.664298  1
  Os  Os21  1  0.112092  0.112092  0.111785  1
  Ru  Ru22  1  0.114980  0.658456  0.114499  1
  Ru  Ru23  1  0.658456  0.114980  0.114499  1
