# generated using pymatgen
data_Tb10Pr6Cd3InIr4
_symmetry_space_group_name_H-M   'P 1'
_cell_length_a   9.78771164
_cell_length_b   9.78770485
_cell_length_c   9.78745571
_cell_angle_alpha   60.15634350
_cell_angle_beta   60.15617646
_cell_angle_gamma   60.15614280
_symmetry_Int_Tables_number   1
_chemical_formula_structural   Tb10Pr6Cd3InIr4
_chemical_formula_sum   'Tb10 Pr6 Cd3 In1 Ir4'
_cell_volume   665.35104586
_cell_formula_units_Z   1
loop_
 _symmetry_equiv_pos_site_id
 _symmetry_equiv_pos_as_xyz
  1  'x, y, z'
loop_
 _atom_site_type_symbol
 _atom_site_label
 _atom_site_symmetry_multiplicity
 _atom_site_fract_x
 _atom_site_fract_y
 _atom_site_fract_z
 _atom_site_occupancy
  Tb  Tb0  1  0.347018  0.347018  0.346972  1
  Tb  Tb1  1  0.348633  0.348633  0.956255  1
  Tb  Tb2  1  0.348578  0.956215  0.348662  1
  Tb  Tb3  1  0.956215  0.348579  0.348662  1
  Tb  Tb4  1  0.811801  0.187341  0.187280  1
  Tb  Tb5  1  0.187248  0.810677  0.810692  1
  Tb  Tb6  1  0.187340  0.811801  0.187280  1
  Tb  Tb7  1  0.810678  0.187248  0.810692  1
  Tb  Tb8  1  0.187299  0.187300  0.811809  1
  Tb  Tb9  1  0.810714  0.810714  0.187196  1
  Pr  Pr10  1  0.943532  0.558904  0.558903  1
  Pr  Pr11  1  0.557779  0.942043  0.942024  1
  Pr  Pr12  1  0.558903  0.943532  0.558903  1
  Pr  Pr13  1  0.942042  0.557780  0.942024  1
  Pr  Pr14  1  0.559006  0.559006  0.943479  1
  Pr  Pr15  1  0.941927  0.941927  0.557876  1
  Cd  Cd16  1  0.578728  0.578729  0.261987  1
  Cd  Cd17  1  0.578720  0.262000  0.578722  1
  Cd  Cd18  1  0.262000  0.578720  0.578723  1
  In  In19  1  0.579730  0.579729  0.579729  1
  Ir  Ir20  1  0.141751  0.141752  0.141737  1
  Ir  Ir21  1  0.142182  0.142182  0.576022  1
  Ir  Ir22  1  0.142168  0.576000  0.142185  1
  Ir  Ir23  1  0.576000  0.142168  0.142185  1
