# generated using pymatgen
data_Y8ReIrI8
_symmetry_space_group_name_H-M   'P 1'
_cell_length_a   11.47091511
_cell_length_b   11.47091683
_cell_length_c   6.18751700
_cell_angle_alpha   90.02514919
_cell_angle_beta   90.02516917
_cell_angle_gamma   88.65578025
_symmetry_Int_Tables_number   1
_chemical_formula_structural   Y8ReIrI8
_chemical_formula_sum   'Y8 Re1 Ir1 I8'
_cell_volume   813.94111433
_cell_formula_units_Z   1
loop_
 _symmetry_equiv_pos_site_id
 _symmetry_equiv_pos_as_xyz
  1  'x, y, z'
loop_
 _atom_site_type_symbol
 _atom_site_label
 _atom_site_symmetry_multiplicity
 _atom_site_fract_x
 _atom_site_fract_y
 _atom_site_fract_z
 _atom_site_occupancy
  Y  Y0  1  0.801791  0.083955  0.001810  1
  Y  Y1  1  0.083999  0.801777  0.496622  1
  Y  Y2  1  0.078706  0.195839  0.002618  1
  Y  Y3  1  0.195784  0.078692  0.497863  1
  Y  Y4  1  0.921308  0.804216  0.002137  1
  Y  Y5  1  0.916045  0.198209  0.498190  1
  Y  Y6  1  0.198223  0.916001  0.003378  1
  Y  Y7  1  0.804161  0.921294  0.497382  1
  Re  Re8  1  0.999906  0.000094  0.250000  1
  Ir  Ir9  1  0.000097  0.999903  0.750000  1
  I  I10  1  0.645365  0.151398  0.508713  1
  I  I11  1  0.857979  0.649603  0.505348  1
  I  I12  1  0.350397  0.142021  0.994652  1
  I  I13  1  0.142017  0.350462  0.495267  1
  I  I14  1  0.649538  0.857983  0.004733  1
  I  I15  1  0.354711  0.848627  0.492074  1
  I  I16  1  0.151373  0.645289  0.007926  1
  I  I17  1  0.848602  0.354635  0.991287  1
