# generated using pymatgen
data_Y2Ni16GeH3
_symmetry_space_group_name_H-M   'P 1'
_cell_length_a   6.28919077
_cell_length_b   6.31689236
_cell_length_c   6.28919142
_cell_angle_alpha   83.78864236
_cell_angle_beta   83.03171616
_cell_angle_gamma   83.78863516
_symmetry_Int_Tables_number   1
_chemical_formula_structural   Y2Ni16GeH3
_chemical_formula_sum   'Y2 Ni16 Ge1 H3'
_cell_volume   245.40941481
_cell_formula_units_Z   1
loop_
 _symmetry_equiv_pos_site_id
 _symmetry_equiv_pos_as_xyz
  1  'x, y, z'
loop_
 _atom_site_type_symbol
 _atom_site_label
 _atom_site_symmetry_multiplicity
 _atom_site_fract_x
 _atom_site_fract_y
 _atom_site_fract_z
 _atom_site_occupancy
  Y  Y0  1  0.653999  0.661516  0.653999  1
  Y  Y1  1  0.346001  0.338484  0.346001  1
  Ni  Ni2  1  0.000000  0.000000  0.500000  1
  Ni  Ni3  1  0.500000  0.000000  0.000000  1
  Ni  Ni4  1  0.292344  0.709917  0.999043  1
  Ni  Ni5  1  0.711436  0.000000  0.288564  1
  Ni  Ni6  1  0.000957  0.290083  0.707656  1
  Ni  Ni7  1  0.288564  0.000000  0.711436  1
  Ni  Ni8  1  0.999043  0.709917  0.292344  1
  Ni  Ni9  1  0.707656  0.290083  0.000957  1
  Ni  Ni10  1  0.348752  0.343917  0.852345  1
  Ni  Ni11  1  0.346430  0.851559  0.346430  1
  Ni  Ni12  1  0.852345  0.343917  0.348752  1
  Ni  Ni13  1  0.651248  0.656083  0.147655  1
  Ni  Ni14  1  0.653570  0.148441  0.653570  1
  Ni  Ni15  1  0.147655  0.656083  0.651248  1
  Ni  Ni16  1  0.897666  0.906764  0.897666  1
  Ni  Ni17  1  0.102334  0.093236  0.102334  1
  Ge  Ge18  1  0.000000  0.500000  0.000000  1
  H  H19  1  0.500000  0.500000  0.000000  1
  H  H20  1  0.500000  0.000000  0.500000  1
  H  H21  1  0.000000  0.500000  0.500000  1
