# generated using pymatgen
data_Dy2Ho5Th(ReB6)4
_symmetry_space_group_name_H-M   'P 1'
_cell_length_a   3.70133100
_cell_length_b   9.18677958
_cell_length_c   11.59201901
_cell_angle_alpha   90.04563990
_cell_angle_beta   90.00000000
_cell_angle_gamma   90.00000000
_symmetry_Int_Tables_number   1
_chemical_formula_structural   Dy2Ho5Th(ReB6)4
_chemical_formula_sum   'Dy2 Ho5 Th1 Re4 B24'
_cell_volume   394.16691464
_cell_formula_units_Z   1
loop_
 _symmetry_equiv_pos_site_id
 _symmetry_equiv_pos_as_xyz
  1  'x, y, z'
loop_
 _atom_site_type_symbol
 _atom_site_label
 _atom_site_symmetry_multiplicity
 _atom_site_fract_x
 _atom_site_fract_y
 _atom_site_fract_z
 _atom_site_occupancy
  Dy  Dy0  1  0.000000  0.677663  0.587258  1
  Dy  Dy1  1  0.000000  0.823522  0.085268  1
  Ho  Ho2  1  0.000000  0.175858  0.913963  1
  Ho  Ho3  1  0.000000  0.942222  0.369519  1
  Ho  Ho4  1  0.000000  0.055826  0.631247  1
  Ho  Ho5  1  0.000000  0.443601  0.128352  1
  Ho  Ho6  1  0.000000  0.557168  0.870438  1
  Th  Th7  1  0.000000  0.322561  0.414076  1
  Re  Re8  1  0.000000  0.638996  0.320564  1
  Re  Re9  1  0.000000  0.361740  0.680288  1
  Re  Re10  1  0.000000  0.138315  0.178285  1
  Re  Re11  1  0.000000  0.861710  0.820845  1
  B  B12  1  0.500000  0.555971  0.432180  1
  B  B13  1  0.500000  0.446762  0.569533  1
  B  B14  1  0.500000  0.053221  0.066428  1
  B  B15  1  0.500000  0.946600  0.932892  1
  B  B16  1  0.500000  0.750240  0.418310  1
  B  B17  1  0.500000  0.250602  0.584775  1
  B  B18  1  0.500000  0.248921  0.080084  1
  B  B19  1  0.500000  0.750710  0.918431  1
  B  B20  1  0.500000  0.792199  0.265191  1
  B  B21  1  0.500000  0.207905  0.735983  1
  B  B22  1  0.500000  0.290578  0.232223  1
  B  B23  1  0.500000  0.707978  0.765713  1
  B  B24  1  0.500000  0.631929  0.184649  1
  B  B25  1  0.500000  0.369511  0.815151  1
  B  B26  1  0.500000  0.129265  0.312301  1
  B  B27  1  0.500000  0.868934  0.686125  1
  B  B28  1  0.500000  0.982238  0.211194  1
  B  B29  1  0.500000  0.017054  0.788495  1
  B  B30  1  0.500000  0.485765  0.286201  1
  B  B31  1  0.500000  0.517834  0.713571  1
  B  B32  1  0.500000  0.601058  0.027625  1
  B  B33  1  0.500000  0.399344  0.971585  1
  B  B34  1  0.500000  0.097208  0.472936  1
  B  B35  1  0.500000  0.898987  0.528322  1
