# generated using pymatgen
data_Gd6TmVO12
_symmetry_space_group_name_H-M   'P 1'
_cell_length_a   6.70665272
_cell_length_b   6.70665393
_cell_length_c   6.70665204
_cell_angle_alpha   93.40025087
_cell_angle_beta   93.40024704
_cell_angle_gamma   93.40025940
_symmetry_Int_Tables_number   1
_chemical_formula_structural   Gd6TmVO12
_chemical_formula_sum   'Gd6 Tm1 V1 O12'
_cell_volume   300.00057973
_cell_formula_units_Z   1
loop_
 _symmetry_equiv_pos_site_id
 _symmetry_equiv_pos_as_xyz
  1  'x, y, z'
loop_
 _atom_site_type_symbol
 _atom_site_label
 _atom_site_symmetry_multiplicity
 _atom_site_fract_x
 _atom_site_fract_y
 _atom_site_fract_z
 _atom_site_occupancy
  Gd  Gd0  1  0.739497  0.924227  0.435434  1
  Gd  Gd1  1  0.435434  0.739497  0.924227  1
  Gd  Gd2  1  0.075773  0.564566  0.260503  1
  Gd  Gd3  1  0.924227  0.435434  0.739497  1
  Gd  Gd4  1  0.564566  0.260503  0.075773  1
  Gd  Gd5  1  0.260503  0.075773  0.564566  1
  Tm  Tm6  1  0.000000  0.000000  0.000000  1
  V  V7  1  0.500000  0.500000  0.500000  1
  O  O8  1  0.066206  0.911109  0.313595  1
  O  O9  1  0.686405  0.933794  0.088891  1
  O  O10  1  0.460282  0.797323  0.586996  1
  O  O11  1  0.088891  0.686405  0.933794  1
  O  O12  1  0.797323  0.586996  0.460282  1
  O  O13  1  0.413004  0.539718  0.202677  1
  O  O14  1  0.586996  0.460282  0.797323  1
  O  O15  1  0.202677  0.413004  0.539718  1
  O  O16  1  0.911109  0.313595  0.066206  1
  O  O17  1  0.539718  0.202677  0.413004  1
  O  O18  1  0.313595  0.066206  0.911109  1
  O  O19  1  0.933794  0.088891  0.686405  1
