# generated using pymatgen
data_Er2CrFe2P6Rh7
_symmetry_space_group_name_H-M   'P 1'
_cell_length_a   3.83312100
_cell_length_b   10.69289400
_cell_length_c   12.46298600
_cell_angle_alpha   90.00000000
_cell_angle_beta   90.00000000
_cell_angle_gamma   90.00000000
_symmetry_Int_Tables_number   1
_chemical_formula_structural   Er2CrFe2P6Rh7
_chemical_formula_sum   'Er4 Cr2 Fe4 P12 Rh14'
_cell_volume   510.82235816
_cell_formula_units_Z   2
loop_
 _symmetry_equiv_pos_site_id
 _symmetry_equiv_pos_as_xyz
  1  'x, y, z'
loop_
 _atom_site_type_symbol
 _atom_site_label
 _atom_site_symmetry_multiplicity
 _atom_site_fract_x
 _atom_site_fract_y
 _atom_site_fract_z
 _atom_site_occupancy
  Er  Er0  1  0.250000  0.584950  0.709621  1
  Er  Er1  1  0.250000  0.915050  0.209621  1
  Er  Er2  1  0.750000  0.422728  0.292587  1
  Er  Er3  1  0.750000  0.077272  0.792587  1
  Cr  Cr4  1  0.250000  0.702466  0.986149  1
  Cr  Cr5  1  0.250000  0.797534  0.486149  1
  Fe  Fe6  1  0.250000  0.459612  0.935527  1
  Fe  Fe7  1  0.250000  0.040388  0.435527  1
  Fe  Fe8  1  0.750000  0.534947  0.063889  1
  Fe  Fe9  1  0.750000  0.965053  0.563889  1
  P  P10  1  0.250000  0.429125  0.107681  1
  P  P11  1  0.250000  0.070875  0.607681  1
  P  P12  1  0.750000  0.572774  0.893886  1
  P  P13  1  0.750000  0.927226  0.393886  1
  P  P14  1  0.250000  0.267172  0.868830  1
  P  P15  1  0.250000  0.232828  0.368830  1
  P  P16  1  0.750000  0.726713  0.128999  1
  P  P17  1  0.750000  0.773287  0.628999  1
  P  P18  1  0.250000  0.603661  0.390529  1
  P  P19  1  0.250000  0.896339  0.890529  1
  P  P20  1  0.750000  0.402153  0.610584  1
  P  P21  1  0.750000  0.097847  0.110584  1
  Rh  Rh22  1  0.750000  0.286772  0.010745  1
  Rh  Rh23  1  0.750000  0.213228  0.510745  1
  Rh  Rh24  1  0.250000  0.408189  0.484113  1
  Rh  Rh25  1  0.250000  0.091811  0.984113  1
  Rh  Rh26  1  0.750000  0.597334  0.518162  1
  Rh  Rh27  1  0.750000  0.902666  0.018162  1
  Rh  Rh28  1  0.250000  0.232120  0.177492  1
  Rh  Rh29  1  0.250000  0.267880  0.677492  1
  Rh  Rh30  1  0.750000  0.770003  0.824206  1
  Rh  Rh31  1  0.750000  0.729997  0.324206  1
  Rh  Rh32  1  0.250000  0.881819  0.698193  1
  Rh  Rh33  1  0.250000  0.618181  0.198193  1
  Rh  Rh34  1  0.750000  0.114531  0.298806  1
  Rh  Rh35  1  0.750000  0.385469  0.798806  1
