# generated using pymatgen
data_EuMg3P6N13
_symmetry_space_group_name_H-M   'P 1'
_cell_length_a   7.17057112
_cell_length_b   7.17057174
_cell_length_c   7.17057096
_cell_angle_alpha   109.14770370
_cell_angle_beta   109.14770183
_cell_angle_gamma   109.14770637
_symmetry_Int_Tables_number   1
_chemical_formula_structural   EuMg3P6N13
_chemical_formula_sum   'Eu1 Mg3 P6 N13'
_cell_volume   287.16685916
_cell_formula_units_Z   1
loop_
 _symmetry_equiv_pos_site_id
 _symmetry_equiv_pos_as_xyz
  1  'x, y, z'
loop_
 _atom_site_type_symbol
 _atom_site_label
 _atom_site_symmetry_multiplicity
 _atom_site_fract_x
 _atom_site_fract_y
 _atom_site_fract_z
 _atom_site_occupancy
  Eu  Eu0  1  0.269279  0.269279  0.269279  1
  Mg  Mg1  1  0.990255  0.682780  0.990255  1
  Mg  Mg2  1  0.682780  0.990255  0.990255  1
  Mg  Mg3  1  0.990255  0.990255  0.682780  1
  P  P4  1  0.506975  0.254906  0.758948  1
  P  P5  1  0.506975  0.758948  0.254906  1
  P  P6  1  0.758948  0.254906  0.506975  1
  P  P7  1  0.254906  0.506975  0.758948  1
  P  P8  1  0.758948  0.506975  0.254906  1
  P  P9  1  0.254906  0.758948  0.506975  1
  N  N10  1  0.964076  0.964076  0.964076  1
  N  N11  1  0.003656  0.733683  0.446493  1
  N  N12  1  0.276008  0.722607  0.276008  1
  N  N13  1  0.286561  0.566425  0.566425  1
  N  N14  1  0.566425  0.566425  0.286561  1
  N  N15  1  0.566425  0.286561  0.566425  1
  N  N16  1  0.733683  0.003656  0.446493  1
  N  N17  1  0.446493  0.003656  0.733683  1
  N  N18  1  0.733683  0.446493  0.003656  1
  N  N19  1  0.276008  0.276008  0.722607  1
  N  N20  1  0.722607  0.276008  0.276008  1
  N  N21  1  0.003656  0.446493  0.733683  1
  N  N22  1  0.446493  0.733683  0.003656  1
