# generated using pymatgen
data_PrTh3(CoB10)2
_symmetry_space_group_name_H-M   'P 1'
_cell_length_a   4.18523600
_cell_length_b   5.62413336
_cell_length_c   11.23668270
_cell_angle_alpha   90.10488323
_cell_angle_beta   90.00000000
_cell_angle_gamma   90.00000000
_symmetry_Int_Tables_number   1
_chemical_formula_structural   PrTh3(CoB10)2
_chemical_formula_sum   'Pr1 Th3 Co2 B20'
_cell_volume   264.49225070
_cell_formula_units_Z   1
loop_
 _symmetry_equiv_pos_site_id
 _symmetry_equiv_pos_as_xyz
  1  'x, y, z'
loop_
 _atom_site_type_symbol
 _atom_site_label
 _atom_site_symmetry_multiplicity
 _atom_site_fract_x
 _atom_site_fract_y
 _atom_site_fract_z
 _atom_site_occupancy
  Pr  Pr0  1  0.500000  0.302637  0.865131  1
  Th  Th1  1  0.500000  0.698994  0.133911  1
  Th  Th2  1  0.500000  0.802247  0.634660  1
  Th  Th3  1  0.500000  0.198114  0.365553  1
  Co  Co4  1  0.000000  0.500363  0.500029  1
  Co  Co5  1  0.000000  0.998273  0.000724  1
  B  B6  1  0.000000  0.126826  0.540096  1
  B  B7  1  0.000000  0.872894  0.459928  1
  B  B8  1  0.000000  0.627718  0.959967  1
  B  B9  1  0.000000  0.372895  0.040589  1
  B  B10  1  0.000000  0.152361  0.696831  1
  B  B11  1  0.000000  0.847318  0.302862  1
  B  B12  1  0.299783  0.200562  0.113709  1
  B  B13  1  0.299651  0.798516  0.886728  1
  B  B14  1  0.699558  0.700854  0.386561  1
  B  B15  1  0.700210  0.298934  0.613304  1
  B  B16  1  0.700349  0.798516  0.886728  1
  B  B17  1  0.700217  0.200562  0.113709  1
  B  B18  1  0.299790  0.298934  0.613304  1
  B  B19  1  0.300442  0.700854  0.386561  1
  B  B20  1  0.000000  0.034752  0.187185  1
  B  B21  1  0.000000  0.964711  0.812770  1
  B  B22  1  0.000000  0.535113  0.312683  1
  B  B23  1  0.000000  0.465335  0.686730  1
  B  B24  1  0.000000  0.347560  0.196970  1
  B  B25  1  0.000000  0.654158  0.802779  1
