# generated using pymatgen
data_Tb2Yb3Y3(ReC2)4
_symmetry_space_group_name_H-M   'P 1'
_cell_length_a   5.14239800
_cell_length_b   6.55923524
_cell_length_c   10.08040311
_cell_angle_alpha   89.38839413
_cell_angle_beta   90.00000000
_cell_angle_gamma   90.00000000
_symmetry_Int_Tables_number   1
_chemical_formula_structural   Tb2Yb3Y3(ReC2)4
_chemical_formula_sum   'Tb2 Yb3 Y3 Re4 C8'
_cell_volume   339.99462309
_cell_formula_units_Z   1
loop_
 _symmetry_equiv_pos_site_id
 _symmetry_equiv_pos_as_xyz
  1  'x, y, z'
loop_
 _atom_site_type_symbol
 _atom_site_label
 _atom_site_symmetry_multiplicity
 _atom_site_fract_x
 _atom_site_fract_y
 _atom_site_fract_z
 _atom_site_occupancy
  Tb  Tb0  1  0.750000  0.311066  0.447224  1
  Tb  Tb1  1  0.750000  0.815079  0.052858  1
  Yb  Yb2  1  0.750000  0.464749  0.776131  1
  Yb  Yb3  1  0.750000  0.964524  0.724328  1
  Yb  Yb4  1  0.250000  0.034677  0.276919  1
  Y  Y5  1  0.250000  0.690633  0.554335  1
  Y  Y6  1  0.250000  0.185527  0.945383  1
  Y  Y7  1  0.250000  0.534048  0.223075  1
  Re  Re8  1  0.250000  0.724069  0.860296  1
  Re  Re9  1  0.750000  0.274518  0.139883  1
  Re  Re10  1  0.750000  0.773417  0.359847  1
  Re  Re11  1  0.250000  0.228401  0.638472  1
  C  C12  1  0.250000  0.459189  0.758905  1
  C  C13  1  0.750000  0.540692  0.239917  1
  C  C14  1  0.750000  0.040760  0.260166  1
  C  C15  1  0.250000  0.959974  0.740531  1
  C  C16  1  0.250000  0.807059  0.041709  1
  C  C17  1  0.750000  0.180815  0.961634  1
  C  C18  1  0.750000  0.688005  0.540147  1
  C  C19  1  0.250000  0.322798  0.458239  1
