# generated using pymatgen
data_Ce(DyPt2)9
_symmetry_space_group_name_H-M   'P 1'
_cell_length_a   9.81003916
_cell_length_b   9.81003916
_cell_length_c   5.78771100
_cell_angle_alpha   90.00000000
_cell_angle_beta   90.00000000
_cell_angle_gamma   89.35966486
_symmetry_Int_Tables_number   1
_chemical_formula_structural   Ce(DyPt2)9
_chemical_formula_sum   'Ce1 Dy9 Pt18'
_cell_volume   556.95639724
_cell_formula_units_Z   1
loop_
 _symmetry_equiv_pos_site_id
 _symmetry_equiv_pos_as_xyz
  1  'x, y, z'
loop_
 _atom_site_type_symbol
 _atom_site_label
 _atom_site_symmetry_multiplicity
 _atom_site_fract_x
 _atom_site_fract_y
 _atom_site_fract_z
 _atom_site_occupancy
  Ce  Ce0  1  0.500000  0.500000  0.500000  1
  Dy  Dy1  1  0.452740  0.809355  0.000000  1
  Dy  Dy2  1  0.547260  0.190645  0.000000  1
  Dy  Dy3  1  0.190645  0.547260  0.000000  1
  Dy  Dy4  1  0.809355  0.452740  0.000000  1
  Dy  Dy5  1  0.307188  0.046750  0.500000  1
  Dy  Dy6  1  0.692812  0.953250  0.500000  1
  Dy  Dy7  1  0.953250  0.692812  0.500000  1
  Dy  Dy8  1  0.046750  0.307188  0.500000  1
  Dy  Dy9  1  0.000000  0.000000  0.000000  1
  Pt  Pt10  1  0.192208  0.807792  0.250470  1
  Pt  Pt11  1  0.807792  0.192208  0.749530  1
  Pt  Pt12  1  0.807792  0.192208  0.250470  1
  Pt  Pt13  1  0.192208  0.807792  0.749530  1
  Pt  Pt14  1  0.440844  0.780564  0.500000  1
  Pt  Pt15  1  0.559156  0.219436  0.500000  1
  Pt  Pt16  1  0.219436  0.559156  0.500000  1
  Pt  Pt17  1  0.780564  0.440844  0.500000  1
  Pt  Pt18  1  0.306146  0.306146  0.249644  1
  Pt  Pt19  1  0.693854  0.693854  0.750356  1
  Pt  Pt20  1  0.693854  0.693854  0.249644  1
  Pt  Pt21  1  0.306146  0.306146  0.750356  1
  Pt  Pt22  1  0.281360  0.058552  0.000000  1
  Pt  Pt23  1  0.718640  0.941448  0.000000  1
  Pt  Pt24  1  0.941448  0.718640  0.000000  1
  Pt  Pt25  1  0.058552  0.281360  0.000000  1
  Pt  Pt26  1  0.000000  0.000000  0.500000  1
  Pt  Pt27  1  0.500000  0.500000  0.000000  1
