# generated using pymatgen
data_Zr3NbRe2O
_symmetry_space_group_name_H-M   'P 1'
_cell_length_a   8.77934989
_cell_length_b   8.77934978
_cell_length_c   8.77935100
_cell_angle_alpha   59.99999916
_cell_angle_beta   59.99999958
_cell_angle_gamma   59.99999930
_symmetry_Int_Tables_number   1
_chemical_formula_structural   Zr3NbRe2O
_chemical_formula_sum   'Zr12 Nb4 Re8 O4'
_cell_volume   478.48917592
_cell_formula_units_Z   4
loop_
 _symmetry_equiv_pos_site_id
 _symmetry_equiv_pos_as_xyz
  1  'x, y, z'
loop_
 _atom_site_type_symbol
 _atom_site_label
 _atom_site_symmetry_multiplicity
 _atom_site_fract_x
 _atom_site_fract_y
 _atom_site_fract_z
 _atom_site_occupancy
  Zr  Zr0  1  0.810070  0.810070  0.189930  1
  Zr  Zr1  1  0.189930  0.189930  0.810070  1
  Zr  Zr2  1  0.810070  0.189930  0.810070  1
  Zr  Zr3  1  0.189930  0.810070  0.189930  1
  Zr  Zr4  1  0.189930  0.810070  0.810070  1
  Zr  Zr5  1  0.810070  0.189930  0.189930  1
  Zr  Zr6  1  0.439930  0.439930  0.060070  1
  Zr  Zr7  1  0.060070  0.060070  0.439930  1
  Zr  Zr8  1  0.439930  0.060070  0.439930  1
  Zr  Zr9  1  0.060070  0.439930  0.060070  1
  Zr  Zr10  1  0.060070  0.439930  0.439930  1
  Zr  Zr11  1  0.439930  0.060070  0.060070  1
  Nb  Nb12  1  0.125000  0.625000  0.625000  1
  Nb  Nb13  1  0.625000  0.125000  0.625000  1
  Nb  Nb14  1  0.625000  0.625000  0.125000  1
  Nb  Nb15  1  0.625000  0.625000  0.625000  1
  Re  Re16  1  0.747582  0.417472  0.417472  1
  Re  Re17  1  0.417472  0.747582  0.417472  1
  Re  Re18  1  0.417472  0.417472  0.747582  1
  Re  Re19  1  0.417472  0.417472  0.417472  1
  Re  Re20  1  0.502418  0.832528  0.832528  1
  Re  Re21  1  0.832528  0.502418  0.832528  1
  Re  Re22  1  0.832528  0.832528  0.502418  1
  Re  Re23  1  0.832528  0.832528  0.832528  1
  O  O24  1  0.625000  0.125000  0.125000  1
  O  O25  1  0.125000  0.625000  0.125000  1
  O  O26  1  0.125000  0.125000  0.625000  1
  O  O27  1  0.125000  0.125000  0.125000  1
