# generated using pymatgen
data_Zr6Zn18Ni5S
_symmetry_space_group_name_H-M   'P 1'
_cell_length_a   8.66626544
_cell_length_b   8.63583106
_cell_length_c   8.66518729
_cell_angle_alpha   60.11772888
_cell_angle_beta   59.46933423
_cell_angle_gamma   60.11107690
_symmetry_Int_Tables_number   1
_chemical_formula_structural   Zr6Zn18Ni5S
_chemical_formula_sum   'Zr6 Zn18 Ni5 S1'
_cell_volume   457.47767595
_cell_formula_units_Z   1
loop_
 _symmetry_equiv_pos_site_id
 _symmetry_equiv_pos_as_xyz
  1  'x, y, z'
loop_
 _atom_site_type_symbol
 _atom_site_label
 _atom_site_symmetry_multiplicity
 _atom_site_fract_x
 _atom_site_fract_y
 _atom_site_fract_z
 _atom_site_occupancy
  Zr  Zr0  1  0.706883  0.288817  0.293096  1
  Zr  Zr1  1  0.293117  0.711183  0.706904  1
  Zr  Zr2  1  0.294457  0.705549  0.294447  1
  Zr  Zr3  1  0.705543  0.294451  0.705553  1
  Zr  Zr4  1  0.293121  0.288809  0.706900  1
  Zr  Zr5  1  0.706879  0.711192  0.293098  1
  Zn  Zn6  1  0.128511  0.113727  0.128486  1
  Zn  Zn7  1  0.871489  0.886275  0.871513  1
  Zn  Zn8  1  0.122446  0.124456  0.628670  1
  Zn  Zn9  1  0.128503  0.629277  0.128504  1
  Zn  Zn10  1  0.877552  0.875544  0.371335  1
  Zn  Zn11  1  0.871499  0.370720  0.871496  1
  Zn  Zn12  1  0.628686  0.124439  0.122432  1
  Zn  Zn13  1  0.371314  0.875561  0.877568  1
  Zn  Zn14  1  0.000000  0.500000  0.000000  1
  Zn  Zn15  1  0.334679  0.332982  0.334663  1
  Zn  Zn16  1  0.665322  0.667018  0.665336  1
  Zn  Zn17  1  0.340582  0.331566  0.996282  1
  Zn  Zn18  1  0.334697  0.997682  0.334648  1
  Zn  Zn19  1  0.659419  0.668434  0.003716  1
  Zn  Zn20  1  0.665301  0.002320  0.665352  1
  Zn  Zn21  1  0.996280  0.331606  0.340539  1
  Zn  Zn22  1  0.003720  0.668395  0.659461  1
  Zn  Zn23  1  0.000000  0.999998  0.000003  1
  Ni  Ni24  1  0.500001  0.000000  0.000000  1
  Ni  Ni25  1  0.000001  0.499999  0.500001  1
  Ni  Ni26  1  0.499997  0.000000  0.500002  1
  Ni  Ni27  1  0.999997  0.000001  0.500002  1
  Ni  Ni28  1  0.500003  0.499999  0.999997  1
  S  S29  1  0.500000  0.500000  0.500000  1
