# generated using pymatgen
data_TmLu4Bi3
_symmetry_space_group_name_H-M   'P 1'
_cell_length_a   8.13353100
_cell_length_b   9.38644300
_cell_length_c   11.82371000
_cell_angle_alpha   90.00000000
_cell_angle_beta   90.00000000
_cell_angle_gamma   90.00000000
_symmetry_Int_Tables_number   1
_chemical_formula_structural   TmLu4Bi3
_chemical_formula_sum   'Tm4 Lu16 Bi12'
_cell_volume   902.68025459
_cell_formula_units_Z   4
loop_
 _symmetry_equiv_pos_site_id
 _symmetry_equiv_pos_as_xyz
  1  'x, y, z'
loop_
 _atom_site_type_symbol
 _atom_site_label
 _atom_site_symmetry_multiplicity
 _atom_site_fract_x
 _atom_site_fract_y
 _atom_site_fract_z
 _atom_site_occupancy
  Tm  Tm0  1  0.188113  0.250000  0.781625  1
  Tm  Tm1  1  0.811887  0.750000  0.218375  1
  Tm  Tm2  1  0.311887  0.750000  0.281625  1
  Tm  Tm3  1  0.688113  0.250000  0.718375  1
  Lu  Lu4  1  0.025832  0.250000  0.510927  1
  Lu  Lu5  1  0.974168  0.750000  0.489073  1
  Lu  Lu6  1  0.474168  0.750000  0.010927  1
  Lu  Lu7  1  0.525832  0.250000  0.989073  1
  Lu  Lu8  1  0.355500  0.250000  0.282720  1
  Lu  Lu9  1  0.644500  0.750000  0.717280  1
  Lu  Lu10  1  0.144500  0.750000  0.782720  1
  Lu  Lu11  1  0.855500  0.250000  0.217280  1
  Lu  Lu12  1  0.194085  0.066396  0.060531  1
  Lu  Lu13  1  0.805915  0.933604  0.939469  1
  Lu  Lu14  1  0.305915  0.933604  0.560531  1
  Lu  Lu15  1  0.805915  0.566396  0.939469  1
  Lu  Lu16  1  0.694085  0.066396  0.439469  1
  Lu  Lu17  1  0.194085  0.433604  0.060531  1
  Lu  Lu18  1  0.694085  0.433604  0.439469  1
  Lu  Lu19  1  0.305915  0.566396  0.560531  1
  Bi  Bi20  1  0.407258  0.250000  0.542287  1
  Bi  Bi21  1  0.592742  0.750000  0.457713  1
  Bi  Bi22  1  0.092742  0.750000  0.042287  1
  Bi  Bi23  1  0.907258  0.250000  0.957713  1
  Bi  Bi24  1  0.066895  0.003809  0.325984  1
  Bi  Bi25  1  0.933105  0.996191  0.674016  1
  Bi  Bi26  1  0.433105  0.996191  0.825984  1
  Bi  Bi27  1  0.933105  0.503809  0.674016  1
  Bi  Bi28  1  0.566895  0.003809  0.174016  1
  Bi  Bi29  1  0.066895  0.496191  0.325984  1
  Bi  Bi30  1  0.566895  0.496191  0.174016  1
  Bi  Bi31  1  0.433105  0.503809  0.825984  1
