# generated using pymatgen
data_Er4Si4OsRh3
_symmetry_space_group_name_H-M   'P 1'
_cell_length_a   4.26106500
_cell_length_b   6.85354015
_cell_length_c   7.30927770
_cell_angle_alpha   89.74952480
_cell_angle_beta   90.00000000
_cell_angle_gamma   90.00000000
_symmetry_Int_Tables_number   1
_chemical_formula_structural   Er4Si4OsRh3
_chemical_formula_sum   'Er4 Si4 Os1 Rh3'
_cell_volume   213.45357495
_cell_formula_units_Z   1
loop_
 _symmetry_equiv_pos_site_id
 _symmetry_equiv_pos_as_xyz
  1  'x, y, z'
loop_
 _atom_site_type_symbol
 _atom_site_label
 _atom_site_symmetry_multiplicity
 _atom_site_fract_x
 _atom_site_fract_y
 _atom_site_fract_z
 _atom_site_occupancy
  Er  Er0  1  0.250000  0.497342  0.690505  1
  Er  Er1  1  0.750000  0.507152  0.309886  1
  Er  Er2  1  0.250000  0.998397  0.813390  1
  Er  Er3  1  0.750000  0.001670  0.187073  1
  Si  Si4  1  0.250000  0.296534  0.108686  1
  Si  Si5  1  0.750000  0.705209  0.885690  1
  Si  Si6  1  0.250000  0.797254  0.399377  1
  Si  Si7  1  0.750000  0.199741  0.605608  1
  Os  Os8  1  0.750000  0.843798  0.566856  1
  Rh  Rh9  1  0.250000  0.154968  0.432129  1
  Rh  Rh10  1  0.750000  0.344403  0.933055  1
  Rh  Rh11  1  0.250000  0.653531  0.067747  1
