# generated using pymatgen
data_Cs2Pa2OF10
_symmetry_space_group_name_H-M   'P 1'
_cell_length_a   5.58287300
_cell_length_b   7.94329734
_cell_length_c   14.96123357
_cell_angle_alpha   80.18495365
_cell_angle_beta   90.00000000
_cell_angle_gamma   90.00000000
_symmetry_Int_Tables_number   1
_chemical_formula_structural   Cs2Pa2OF10
_chemical_formula_sum   'Cs4 Pa4 O2 F20'
_cell_volume   653.76594671
_cell_formula_units_Z   2
loop_
 _symmetry_equiv_pos_site_id
 _symmetry_equiv_pos_as_xyz
  1  'x, y, z'
loop_
 _atom_site_type_symbol
 _atom_site_label
 _atom_site_symmetry_multiplicity
 _atom_site_fract_x
 _atom_site_fract_y
 _atom_site_fract_z
 _atom_site_occupancy
  Cs  Cs0  1  0.430635  0.235754  0.594207  1
  Cs  Cs1  1  0.569365  0.235754  0.094207  1
  Cs  Cs2  1  0.569365  0.764246  0.405793  1
  Cs  Cs3  1  0.430635  0.764246  0.905793  1
  Pa  Pa4  1  0.017487  0.281862  0.340049  1
  Pa  Pa5  1  0.982513  0.281862  0.840049  1
  Pa  Pa6  1  0.017487  0.718138  0.159951  1
  Pa  Pa7  1  0.982513  0.718138  0.659951  1
  O  O8  1  0.106417  0.500000  0.750000  1
  O  O9  1  0.893583  0.500000  0.250000  1
  F  F10  1  0.710789  0.865127  0.182347  1
  F  F11  1  0.678762  0.574882  0.630605  1
  F  F12  1  0.166898  0.797471  0.276518  1
  F  F13  1  0.820488  0.072880  0.926974  1
  F  F14  1  0.321238  0.425118  0.369395  1
  F  F15  1  0.179512  0.927120  0.073026  1
  F  F16  1  0.166898  0.202529  0.223482  1
  F  F17  1  0.289211  0.865127  0.682347  1
  F  F18  1  0.833102  0.202529  0.723482  1
  F  F19  1  0.678762  0.425118  0.869395  1
  F  F20  1  0.179512  0.072880  0.426974  1
  F  F21  1  0.159880  0.359454  0.952893  1
  F  F22  1  0.289211  0.134873  0.817653  1
  F  F23  1  0.840120  0.640546  0.047107  1
  F  F24  1  0.833102  0.797471  0.776518  1
  F  F25  1  0.710789  0.134873  0.317653  1
  F  F26  1  0.820488  0.927120  0.573026  1
  F  F27  1  0.840120  0.359454  0.452893  1
  F  F28  1  0.321238  0.574882  0.130605  1
  F  F29  1  0.159880  0.640546  0.547107  1
