# generated using pymatgen
data_Pr3Sm5(Si3Pt)4
_symmetry_space_group_name_H-M   'P 1'
_cell_length_a   8.22055500
_cell_length_b   8.22372037
_cell_length_c   8.54026000
_cell_angle_alpha   90.00000000
_cell_angle_beta   90.00000000
_cell_angle_gamma   119.98727219
_symmetry_Int_Tables_number   1
_chemical_formula_structural   Pr3Sm5(Si3Pt)4
_chemical_formula_sum   'Pr3 Sm5 Si12 Pt4'
_cell_volume   500.06548961
_cell_formula_units_Z   1
loop_
 _symmetry_equiv_pos_site_id
 _symmetry_equiv_pos_as_xyz
  1  'x, y, z'
loop_
 _atom_site_type_symbol
 _atom_site_label
 _atom_site_symmetry_multiplicity
 _atom_site_fract_x
 _atom_site_fract_y
 _atom_site_fract_z
 _atom_site_occupancy
  Pr  Pr0  1  0.500251  0.000500  0.250000  1
  Pr  Pr1  1  0.000003  0.000007  0.750000  1
  Pr  Pr2  1  0.999987  0.999975  0.250000  1
  Sm  Sm3  1  0.499741  0.500290  0.750000  1
  Sm  Sm4  1  0.500245  0.499806  0.250000  1
  Sm  Sm5  1  0.000549  0.500290  0.750000  1
  Sm  Sm6  1  0.999561  0.499806  0.250000  1
  Sm  Sm7  1  0.499714  0.999426  0.750000  1
  Si  Si8  1  0.834148  0.166792  0.998528  1
  Si  Si9  1  0.165842  0.833208  0.998763  1
  Si  Si10  1  0.332644  0.166792  0.998528  1
  Si  Si11  1  0.165842  0.833208  0.501237  1
  Si  Si12  1  0.667366  0.833208  0.998763  1
  Si  Si13  1  0.834148  0.166792  0.501472  1
  Si  Si14  1  0.833744  0.667489  0.000081  1
  Si  Si15  1  0.667366  0.833208  0.501237  1
  Si  Si16  1  0.166244  0.332489  0.000146  1
  Si  Si17  1  0.332644  0.166792  0.501472  1
  Si  Si18  1  0.166244  0.332489  0.499854  1
  Si  Si19  1  0.833744  0.667489  0.499919  1
  Pt  Pt20  1  0.667144  0.334286  0.996650  1
  Pt  Pt21  1  0.332841  0.665683  0.998093  1
  Pt  Pt22  1  0.332841  0.665683  0.501907  1
  Pt  Pt23  1  0.667144  0.334286  0.503350  1
