# generated using pymatgen
data_Ca2DyY3(GeRh2)6
_symmetry_space_group_name_H-M   'P 1'
_cell_length_a   5.61657700
_cell_length_b   5.61657693
_cell_length_c   15.51532800
_cell_angle_alpha   90.00000000
_cell_angle_beta   90.00000000
_cell_angle_gamma   120.00000628
_symmetry_Int_Tables_number   1
_chemical_formula_structural   Ca2DyY3(GeRh2)6
_chemical_formula_sum   'Ca2 Dy1 Y3 Ge6 Rh12'
_cell_volume   423.87225930
_cell_formula_units_Z   1
loop_
 _symmetry_equiv_pos_site_id
 _symmetry_equiv_pos_as_xyz
  1  'x, y, z'
loop_
 _atom_site_type_symbol
 _atom_site_label
 _atom_site_symmetry_multiplicity
 _atom_site_fract_x
 _atom_site_fract_y
 _atom_site_fract_z
 _atom_site_occupancy
  Ca  Ca0  1  0.333333  0.666667  0.749985  1
  Ca  Ca1  1  0.666667  0.333333  0.249998  1
  Dy  Dy2  1  0.333333  0.666667  0.541789  1
  Y  Y3  1  0.666667  0.333333  0.458202  1
  Y  Y4  1  0.666667  0.333333  0.041800  1
  Y  Y5  1  0.333333  0.666667  0.958197  1
  Ge  Ge6  1  0.000000  0.000000  0.250005  1
  Ge  Ge7  1  0.000000  0.000000  0.750011  1
  Ge  Ge8  1  0.333333  0.666667  0.249996  1
  Ge  Ge9  1  0.666667  0.333333  0.750003  1
  Ge  Ge10  1  0.000000  0.000000  0.999996  1
  Ge  Ge11  1  0.000000  0.000000  0.500011  1
  Rh  Rh12  1  0.168534  0.337067  0.126595  1
  Rh  Rh13  1  0.831462  0.662923  0.873401  1
  Rh  Rh14  1  0.662933  0.831466  0.126595  1
  Rh  Rh15  1  0.831476  0.662952  0.626572  1
  Rh  Rh16  1  0.337077  0.168538  0.873401  1
  Rh  Rh17  1  0.168556  0.337111  0.373434  1
  Rh  Rh18  1  0.168534  0.831466  0.126595  1
  Rh  Rh19  1  0.337048  0.168524  0.626572  1
  Rh  Rh20  1  0.831462  0.168538  0.873401  1
  Rh  Rh21  1  0.662889  0.831444  0.373434  1
  Rh  Rh22  1  0.831476  0.168524  0.626572  1
  Rh  Rh23  1  0.168556  0.831444  0.373434  1
