# generated using pymatgen
data_SrZrAs2Ir
_symmetry_space_group_name_H-M   'P 1'
_cell_length_a   4.30573400
_cell_length_b   4.30573484
_cell_length_c   14.20165000
_cell_angle_alpha   90.00000000
_cell_angle_beta   90.00000000
_cell_angle_gamma   119.99999352
_symmetry_Int_Tables_number   1
_chemical_formula_structural   SrZrAs2Ir
_chemical_formula_sum   'Sr2 Zr2 As4 Ir2'
_cell_volume   228.01527574
_cell_formula_units_Z   2
loop_
 _symmetry_equiv_pos_site_id
 _symmetry_equiv_pos_as_xyz
  1  'x, y, z'
loop_
 _atom_site_type_symbol
 _atom_site_label
 _atom_site_symmetry_multiplicity
 _atom_site_fract_x
 _atom_site_fract_y
 _atom_site_fract_z
 _atom_site_occupancy
  Sr  Sr0  1  0.666667  0.333333  0.389825  1
  Sr  Sr1  1  0.333333  0.666667  0.889825  1
  Zr  Zr2  1  0.333333  0.666667  0.623078  1
  Zr  Zr3  1  0.666667  0.333333  0.123078  1
  As  As4  1  0.333333  0.666667  0.249778  1
  As  As5  1  0.000000  0.000000  0.028232  1
  As  As6  1  0.000000  0.000000  0.528232  1
  As  As7  1  0.666667  0.333333  0.749778  1
  Ir  Ir8  1  0.000000  0.000000  0.709087  1
  Ir  Ir9  1  0.000000  0.000000  0.209087  1
