# generated using pymatgen
data_Sr2Cd4Au3
_symmetry_space_group_name_H-M   'P 1'
_cell_length_a   15.49379500
_cell_length_b   15.49379655
_cell_length_c   4.48164100
_cell_angle_alpha   90.00000000
_cell_angle_beta   90.00000000
_cell_angle_gamma   120.00000309
_symmetry_Int_Tables_number   1
_chemical_formula_structural   Sr2Cd4Au3
_chemical_formula_sum   'Sr8 Cd16 Au12'
_cell_volume   931.71553617
_cell_formula_units_Z   4
loop_
 _symmetry_equiv_pos_site_id
 _symmetry_equiv_pos_as_xyz
  1  'x, y, z'
loop_
 _atom_site_type_symbol
 _atom_site_label
 _atom_site_symmetry_multiplicity
 _atom_site_fract_x
 _atom_site_fract_y
 _atom_site_fract_z
 _atom_site_occupancy
  Sr  Sr0  1  0.450197  0.000000  0.000000  1
  Sr  Sr1  1  0.000000  0.450197  0.000000  1
  Sr  Sr2  1  0.549803  0.549803  0.000000  1
  Sr  Sr3  1  0.333333  0.666667  0.000000  1
  Sr  Sr4  1  0.666667  0.333333  0.000000  1
  Sr  Sr5  1  0.822940  0.000000  0.500000  1
  Sr  Sr6  1  0.000000  0.822940  0.500000  1
  Sr  Sr7  1  0.177060  0.177060  0.500000  1
  Cd  Cd8  1  0.179164  0.374833  0.000000  1
  Cd  Cd9  1  0.625167  0.804333  0.000000  1
  Cd  Cd10  1  0.374833  0.179164  0.000000  1
  Cd  Cd11  1  0.195667  0.820836  0.000000  1
  Cd  Cd12  1  0.804333  0.625167  0.000000  1
  Cd  Cd13  1  0.820836  0.195667  0.000000  1
  Cd  Cd14  1  0.282629  0.000000  0.500000  1
  Cd  Cd15  1  0.000000  0.282629  0.500000  1
  Cd  Cd16  1  0.717371  0.717371  0.500000  1
  Cd  Cd17  1  0.346467  0.472904  0.500000  1
  Cd  Cd18  1  0.527096  0.873563  0.500000  1
  Cd  Cd19  1  0.472904  0.346467  0.500000  1
  Cd  Cd20  1  0.126437  0.653533  0.500000  1
  Cd  Cd21  1  0.873563  0.527096  0.500000  1
  Cd  Cd22  1  0.653533  0.126437  0.500000  1
  Cd  Cd23  1  0.000000  0.000000  0.000000  1
  Au  Au24  1  0.170720  0.494414  0.500000  1
  Au  Au25  1  0.505586  0.676306  0.500000  1
  Au  Au26  1  0.494414  0.170720  0.500000  1
  Au  Au27  1  0.323694  0.829280  0.500000  1
  Au  Au28  1  0.676306  0.505586  0.500000  1
  Au  Au29  1  0.829280  0.323694  0.500000  1
  Au  Au30  1  0.175466  0.000000  0.000000  1
  Au  Au31  1  0.000000  0.175466  0.000000  1
  Au  Au32  1  0.824534  0.824534  0.000000  1
  Au  Au33  1  0.655606  0.000000  0.000000  1
  Au  Au34  1  0.000000  0.655606  0.000000  1
  Au  Au35  1  0.344394  0.344394  0.000000  1
