# generated using pymatgen
data_Tb2HoAl4Ni9B2
_symmetry_space_group_name_H-M   'P 1'
_cell_length_a   5.16129100
_cell_length_b   5.16129151
_cell_length_c   10.56068700
_cell_angle_alpha   90.00000000
_cell_angle_beta   90.00000000
_cell_angle_gamma   119.99999032
_symmetry_Int_Tables_number   1
_chemical_formula_structural   Tb2HoAl4Ni9B2
_chemical_formula_sum   'Tb2 Ho1 Al4 Ni9 B2'
_cell_volume   243.63494480
_cell_formula_units_Z   1
loop_
 _symmetry_equiv_pos_site_id
 _symmetry_equiv_pos_as_xyz
  1  'x, y, z'
loop_
 _atom_site_type_symbol
 _atom_site_label
 _atom_site_symmetry_multiplicity
 _atom_site_fract_x
 _atom_site_fract_y
 _atom_site_fract_z
 _atom_site_occupancy
  Tb  Tb0  1  0.000000  0.000000  0.336589  1
  Tb  Tb1  1  0.000000  0.000000  0.663411  1
  Ho  Ho2  1  0.000000  0.000000  0.000000  1
  Al  Al3  1  0.333333  0.666667  0.315476  1
  Al  Al4  1  0.666667  0.333333  0.315476  1
  Al  Al5  1  0.666667  0.333333  0.684524  1
  Al  Al6  1  0.333333  0.666667  0.684524  1
  Ni  Ni7  1  0.500000  0.000000  0.500000  1
  Ni  Ni8  1  0.500000  0.500000  0.500000  1
  Ni  Ni9  1  0.000000  0.500000  0.500000  1
  Ni  Ni10  1  0.500000  0.000000  0.128793  1
  Ni  Ni11  1  0.500000  0.500000  0.128793  1
  Ni  Ni12  1  0.000000  0.500000  0.128793  1
  Ni  Ni13  1  0.500000  0.000000  0.871207  1
  Ni  Ni14  1  0.500000  0.500000  0.871207  1
  Ni  Ni15  1  0.000000  0.500000  0.871207  1
  B  B16  1  0.333333  0.666667  0.000000  1
  B  B17  1  0.666667  0.333333  0.000000  1
