# generated using pymatgen
data_Dy4Y5Er7(CdNi)4
_symmetry_space_group_name_H-M   'P 1'
_cell_length_a   9.50838392
_cell_length_b   9.51132175
_cell_length_c   9.51132152
_cell_angle_alpha   60.03696332
_cell_angle_beta   60.01021764
_cell_angle_gamma   60.01021019
_symmetry_Int_Tables_number   1
_chemical_formula_structural   Dy4Y5Er7(CdNi)4
_chemical_formula_sum   'Dy4 Y5 Er7 Cd4 Ni4'
_cell_volume   608.50154973
_cell_formula_units_Z   1
loop_
 _symmetry_equiv_pos_site_id
 _symmetry_equiv_pos_as_xyz
  1  'x, y, z'
loop_
 _atom_site_type_symbol
 _atom_site_label
 _atom_site_symmetry_multiplicity
 _atom_site_fract_x
 _atom_site_fract_y
 _atom_site_fract_z
 _atom_site_occupancy
  Dy  Dy0  1  0.597743  0.599115  0.599115  1
  Dy  Dy1  1  0.599101  0.599842  0.201956  1
  Dy  Dy2  1  0.599101  0.201956  0.599842  1
  Dy  Dy3  1  0.204027  0.599115  0.599115  1
  Y  Y4  1  0.812452  0.187548  0.187548  1
  Y  Y5  1  0.814114  0.186463  0.812690  1
  Y  Y6  1  0.186733  0.812690  0.186463  1
  Y  Y7  1  0.814114  0.812690  0.186463  1
  Y  Y8  1  0.186733  0.186463  0.812690  1
  Er  Er9  1  0.061534  0.438466  0.438466  1
  Er  Er10  1  0.437080  0.062920  0.062920  1
  Er  Er11  1  0.437541  0.062330  0.438011  1
  Er  Er12  1  0.062119  0.438011  0.062330  1
  Er  Er13  1  0.437541  0.438011  0.062330  1
  Er  Er14  1  0.062119  0.062330  0.438011  1
  Er  Er15  1  0.186701  0.813299  0.813299  1
  Cd  Cd16  1  0.831691  0.830536  0.830536  1
  Cd  Cd17  1  0.831101  0.830782  0.507014  1
  Cd  Cd18  1  0.831101  0.507014  0.830782  1
  Cd  Cd19  1  0.507234  0.830536  0.830536  1
  Ni  Ni20  1  0.392774  0.392087  0.392087  1
  Ni  Ni21  1  0.392146  0.391925  0.823785  1
  Ni  Ni22  1  0.392146  0.823785  0.391925  1
  Ni  Ni23  1  0.823054  0.392087  0.392087  1
