# generated using pymatgen
data_Tb2Fe2Co5
_symmetry_space_group_name_H-M   'P 1'
_cell_length_a   5.08076285
_cell_length_b   5.08076290
_cell_length_c   12.15647223
_cell_angle_alpha   77.93778809
_cell_angle_beta   77.93778934
_cell_angle_gamma   59.99998774
_symmetry_Int_Tables_number   1
_chemical_formula_structural   Tb2Fe2Co5
_chemical_formula_sum   'Tb4 Fe4 Co10'
_cell_volume   263.73586686
_cell_formula_units_Z   2
loop_
 _symmetry_equiv_pos_site_id
 _symmetry_equiv_pos_as_xyz
  1  'x, y, z'
loop_
 _atom_site_type_symbol
 _atom_site_label
 _atom_site_symmetry_multiplicity
 _atom_site_fract_x
 _atom_site_fract_y
 _atom_site_fract_z
 _atom_site_occupancy
  Tb  Tb0  1  0.051214  0.051214  0.846357  1
  Tb  Tb1  1  0.948786  0.948786  0.153643  1
  Tb  Tb2  1  0.148494  0.148494  0.554519  1
  Tb  Tb3  1  0.851506  0.851506  0.445481  1
  Fe  Fe4  1  0.278622  0.278622  0.164134  1
  Fe  Fe5  1  0.721378  0.721378  0.835866  1
  Fe  Fe6  1  0.388069  0.388069  0.835794  1
  Fe  Fe7  1  0.611931  0.611931  0.164206  1
  Co  Co8  1  0.500000  0.500000  0.500000  1
  Co  Co9  1  0.500000  0.500000  0.000000  1
  Co  Co10  1  0.500000  0.000000  0.000000  1
  Co  Co11  1  0.000000  0.500000  0.000000  1
  Co  Co12  1  0.109577  0.609372  0.671679  1
  Co  Co13  1  0.609372  0.609372  0.671679  1
  Co  Co14  1  0.609372  0.109577  0.671679  1
  Co  Co15  1  0.890423  0.390628  0.328321  1
  Co  Co16  1  0.390628  0.390628  0.328321  1
  Co  Co17  1  0.390628  0.890423  0.328321  1
