# generated using pymatgen
data_TbEr7(Si3Ni)4
_symmetry_space_group_name_H-M   'P 1'
_cell_length_a   7.93563300
_cell_length_b   7.93439525
_cell_length_c   8.03323700
_cell_angle_alpha   90.00000000
_cell_angle_beta   90.00000000
_cell_angle_gamma   119.99024778
_symmetry_Int_Tables_number   1
_chemical_formula_structural   TbEr7(Si3Ni)4
_chemical_formula_sum   'Tb1 Er7 Si12 Ni4'
_cell_volume   438.08591157
_cell_formula_units_Z   1
loop_
 _symmetry_equiv_pos_site_id
 _symmetry_equiv_pos_as_xyz
  1  'x, y, z'
loop_
 _atom_site_type_symbol
 _atom_site_label
 _atom_site_symmetry_multiplicity
 _atom_site_fract_x
 _atom_site_fract_y
 _atom_site_fract_z
 _atom_site_occupancy
  Tb  Tb0  1  0.999950  0.000020  0.250000  1
  Er  Er1  1  0.499970  0.499909  0.750000  1
  Er  Er2  1  0.499928  0.499871  0.250000  1
  Er  Er3  1  0.000044  0.500091  0.750000  1
  Er  Er4  1  0.999974  0.499985  0.250000  1
  Er  Er5  1  0.500001  0.999937  0.750000  1
  Er  Er6  1  0.499911  0.999981  0.250000  1
  Er  Er7  1  0.000067  0.999989  0.750000  1
  Si  Si8  1  0.829009  0.171011  0.999083  1
  Si  Si9  1  0.170958  0.829020  0.999102  1
  Si  Si10  1  0.342100  0.171058  0.999084  1
  Si  Si11  1  0.170958  0.829020  0.500898  1
  Si  Si12  1  0.657932  0.828953  0.999098  1
  Si  Si13  1  0.829009  0.171011  0.500917  1
  Si  Si14  1  0.828955  0.657930  0.999091  1
  Si  Si15  1  0.657932  0.828953  0.500902  1
  Si  Si16  1  0.171031  0.342066  0.999080  1
  Si  Si17  1  0.342100  0.171058  0.500916  1
  Si  Si18  1  0.171031  0.342066  0.500920  1
  Si  Si19  1  0.828955  0.657930  0.500909  1
  Ni  Ni20  1  0.666724  0.333339  0.999759  1
  Ni  Ni21  1  0.333369  0.666733  0.000072  1
  Ni  Ni22  1  0.333369  0.666733  0.499928  1
  Ni  Ni23  1  0.666724  0.333339  0.500241  1
