# generated using pymatgen
data_Dy15Y5(Cd3Ir)2
_symmetry_space_group_name_H-M   'P 1'
_cell_length_a   9.64749100
_cell_length_b   9.64749218
_cell_length_c   9.86618300
_cell_angle_alpha   90.00061863
_cell_angle_beta   89.99938338
_cell_angle_gamma   120.00281275
_symmetry_Int_Tables_number   1
_chemical_formula_structural   Dy15Y5(Cd3Ir)2
_chemical_formula_sum   'Dy15 Y5 Cd6 Ir2'
_cell_volume   795.23650076
_cell_formula_units_Z   1
loop_
 _symmetry_equiv_pos_site_id
 _symmetry_equiv_pos_as_xyz
  1  'x, y, z'
loop_
 _atom_site_type_symbol
 _atom_site_label
 _atom_site_symmetry_multiplicity
 _atom_site_fract_x
 _atom_site_fract_y
 _atom_site_fract_z
 _atom_site_occupancy
  Dy  Dy0  1  0.999902  0.000098  0.500019  1
  Dy  Dy1  1  0.999902  0.000098  0.999980  1
  Dy  Dy2  1  0.209534  0.790466  0.440464  1
  Dy  Dy3  1  0.209592  0.418965  0.440449  1
  Dy  Dy4  1  0.581035  0.790408  0.440449  1
  Dy  Dy5  1  0.790502  0.209498  0.559657  1
  Dy  Dy6  1  0.790364  0.580881  0.559630  1
  Dy  Dy7  1  0.419119  0.209636  0.559630  1
  Dy  Dy8  1  0.790496  0.209504  0.940326  1
  Dy  Dy9  1  0.790354  0.580864  0.940352  1
  Dy  Dy10  1  0.419136  0.209646  0.940352  1
  Dy  Dy11  1  0.209541  0.790459  0.059553  1
  Dy  Dy12  1  0.209599  0.418980  0.059570  1
  Dy  Dy13  1  0.581020  0.790401  0.059570  1
  Dy  Dy14  1  0.541313  0.458687  0.250005  1
  Y  Y15  1  0.541523  0.082974  0.250000  1
  Y  Y16  1  0.917026  0.458477  0.250000  1
  Y  Y17  1  0.458599  0.541401  0.749999  1
  Y  Y18  1  0.458585  0.917204  0.750000  1
  Y  Y19  1  0.082796  0.541415  0.750000  1
  Cd  Cd20  1  0.885431  0.114569  0.250008  1
  Cd  Cd21  1  0.885374  0.770756  0.250008  1
  Cd  Cd22  1  0.229244  0.114626  0.250008  1
  Cd  Cd23  1  0.114660  0.885340  0.749992  1
  Cd  Cd24  1  0.114618  0.229276  0.749992  1
  Cd  Cd25  1  0.770724  0.885382  0.749992  1
  Ir  Ir26  1  0.333369  0.666631  0.249992  1
  Ir  Ir27  1  0.666646  0.333354  0.750006  1
