# generated using pymatgen
data_Ce2Nd9In9NiIr3
_symmetry_space_group_name_H-M   'P 1'
_cell_length_a   13.31780684
_cell_length_b   13.33384810
_cell_length_c   3.80524400
_cell_angle_alpha   90.00000000
_cell_angle_beta   90.00000000
_cell_angle_gamma   111.22982087
_symmetry_Int_Tables_number   1
_chemical_formula_structural   Ce2Nd9In9NiIr3
_chemical_formula_sum   'Ce2 Nd9 In9 Ni1 Ir3'
_cell_volume   629.86830351
_cell_formula_units_Z   1
loop_
 _symmetry_equiv_pos_site_id
 _symmetry_equiv_pos_as_xyz
  1  'x, y, z'
loop_
 _atom_site_type_symbol
 _atom_site_label
 _atom_site_symmetry_multiplicity
 _atom_site_fract_x
 _atom_site_fract_y
 _atom_site_fract_z
 _atom_site_occupancy
  Ce  Ce0  1  0.072491  0.426162  0.000000  1
  Ce  Ce1  1  0.925688  0.573932  0.000000  1
  Nd  Nd2  1  0.418764  0.078347  0.000000  1
  Nd  Nd3  1  0.581452  0.918985  0.000000  1
  Nd  Nd4  1  0.627508  0.371427  0.000000  1
  Nd  Nd5  1  0.368165  0.624613  0.000000  1
  Nd  Nd6  1  0.838341  0.155880  0.000000  1
  Nd  Nd7  1  0.162013  0.843850  0.000000  1
  Nd  Nd8  1  0.999121  0.999935  0.000000  1
  Nd  Nd9  1  0.310161  0.312185  0.000000  1
  Nd  Nd10  1  0.693758  0.688455  0.000000  1
  In  In11  1  0.839813  0.361131  0.500000  1
  In  In12  1  0.159887  0.639131  0.500000  1
  In  In13  1  0.369286  0.838423  0.500000  1
  In  In14  1  0.631678  0.159737  0.500000  1
  In  In15  1  0.074414  0.221043  0.500000  1
  In  In16  1  0.928393  0.779955  0.500000  1
  In  In17  1  0.220031  0.080709  0.500000  1
  In  In18  1  0.779502  0.919669  0.500000  1
  In  In19  1  0.502434  0.502121  0.500000  1
  Ni  Ni20  1  0.547150  0.749767  0.500000  1
  Ir  Ir21  1  0.223079  0.443837  0.500000  1
  Ir  Ir22  1  0.776047  0.561517  0.500000  1
  Ir  Ir23  1  0.450825  0.249189  0.500000  1
