# generated using pymatgen
data_Tm6TiMn5O18
_symmetry_space_group_name_H-M   'P 1'
_cell_length_a   6.13797241
_cell_length_b   6.13141019
_cell_length_c   11.61586802
_cell_angle_alpha   90.23279267
_cell_angle_beta   89.53490860
_cell_angle_gamma   120.03541569
_symmetry_Int_Tables_number   1
_chemical_formula_structural   Tm6TiMn5O18
_chemical_formula_sum   'Tm6 Ti1 Mn5 O18'
_cell_volume   378.44101392
_cell_formula_units_Z   1
loop_
 _symmetry_equiv_pos_site_id
 _symmetry_equiv_pos_as_xyz
  1  'x, y, z'
loop_
 _atom_site_type_symbol
 _atom_site_label
 _atom_site_symmetry_multiplicity
 _atom_site_fract_x
 _atom_site_fract_y
 _atom_site_fract_z
 _atom_site_occupancy
  Tm  Tm0  1  0.665928  0.335430  0.228982  1
  Tm  Tm1  1  0.334421  0.666806  0.735108  1
  Tm  Tm2  1  0.667618  0.333194  0.735108  1
  Tm  Tm3  1  0.330497  0.664570  0.228982  1
  Tm  Tm4  1  0.002357  0.000000  0.777033  1
  Tm  Tm5  1  0.999418  0.000000  0.273301  1
  Ti  Ti6  1  0.665478  0.000000  0.500845  1
  Mn  Mn7  1  0.666959  0.667419  0.000875  1
  Mn  Mn8  1  0.999540  0.332581  0.000875  1
  Mn  Mn9  1  0.999869  0.666298  0.500015  1
  Mn  Mn10  1  0.333571  0.333702  0.500015  1
  Mn  Mn11  1  0.333098  0.000000  0.001021  1
  O  O12  1  0.667103  0.333721  0.023738  1
  O  O13  1  0.358127  0.691666  0.521985  1
  O  O14  1  0.666462  0.308334  0.521985  1
  O  O15  1  0.333381  0.666279  0.023738  1
  O  O16  1  0.000598  0.000000  0.973564  1
  O  O17  1  0.974429  0.000000  0.474898  1
  O  O18  1  0.361557  0.000000  0.836800  1
  O  O19  1  0.357746  0.357754  0.331797  1
  O  O20  1  0.999992  0.642246  0.331797  1
  O  O21  1  0.000481  0.361842  0.837213  1
  O  O22  1  0.638640  0.638158  0.837213  1
  O  O23  1  0.635035  0.000000  0.334601  1
  O  O24  1  0.305057  0.000000  0.165089  1
  O  O25  1  0.310046  0.309993  0.668764  1
  O  O26  1  0.000052  0.690007  0.668764  1
  O  O27  1  0.998886  0.303726  0.165123  1
  O  O28  1  0.695160  0.696274  0.165123  1
  O  O29  1  0.698491  0.000000  0.669641  1
