# generated using pymatgen
data_NdY(Tm2Rh9)2
_symmetry_space_group_name_H-M   'P 1'
_cell_length_a   5.26732400
_cell_length_b   5.26732366
_cell_length_c   17.52086500
_cell_angle_alpha   90.00000000
_cell_angle_beta   90.00000000
_cell_angle_gamma   120.00000214
_symmetry_Int_Tables_number   1
_chemical_formula_structural   NdY(Tm2Rh9)2
_chemical_formula_sum   'Nd1 Y1 Tm4 Rh18'
_cell_volume   420.98459487
_cell_formula_units_Z   1
loop_
 _symmetry_equiv_pos_site_id
 _symmetry_equiv_pos_as_xyz
  1  'x, y, z'
loop_
 _atom_site_type_symbol
 _atom_site_label
 _atom_site_symmetry_multiplicity
 _atom_site_fract_x
 _atom_site_fract_y
 _atom_site_fract_z
 _atom_site_occupancy
  Nd  Nd0  1  0.666667  0.333333  0.250000  1
  Y  Y1  1  0.333333  0.666667  0.750000  1
  Tm  Tm2  1  0.333333  0.666667  0.541898  1
  Tm  Tm3  1  0.666667  0.333333  0.040826  1
  Tm  Tm4  1  0.666667  0.333333  0.459174  1
  Tm  Tm5  1  0.333333  0.666667  0.958102  1
  Rh  Rh6  1  0.167469  0.334935  0.124243  1
  Rh  Rh7  1  0.832524  0.665048  0.625132  1
  Rh  Rh8  1  0.665065  0.832531  0.124243  1
  Rh  Rh9  1  0.167469  0.832531  0.124243  1
  Rh  Rh10  1  0.832524  0.167476  0.625132  1
  Rh  Rh11  1  0.334952  0.167476  0.625132  1
  Rh  Rh12  1  0.832524  0.665048  0.874868  1
  Rh  Rh13  1  0.832524  0.167476  0.874868  1
  Rh  Rh14  1  0.334952  0.167476  0.874868  1
  Rh  Rh15  1  0.665065  0.832531  0.375757  1
  Rh  Rh16  1  0.167469  0.832531  0.375757  1
  Rh  Rh17  1  0.167469  0.334935  0.375757  1
  Rh  Rh18  1  0.000000  0.000000  0.250000  1
  Rh  Rh19  1  0.000000  0.000000  0.750000  1
  Rh  Rh20  1  0.333333  0.666667  0.250000  1
  Rh  Rh21  1  0.666667  0.333333  0.750000  1
  Rh  Rh22  1  0.000000  0.000000  0.999650  1
  Rh  Rh23  1  0.000000  0.000000  0.500350  1
