# generated using pymatgen
data_Th6Mg7Cd16As
_symmetry_space_group_name_H-M   'P 1'
_cell_length_a   10.02123160
_cell_length_b   10.01702746
_cell_length_c   10.01713100
_cell_angle_alpha   60.02719924
_cell_angle_beta   59.98271333
_cell_angle_gamma   59.99113559
_symmetry_Int_Tables_number   1
_chemical_formula_structural   Th6Mg7Cd16As
_chemical_formula_sum   'Th6 Mg7 Cd16 As1'
_cell_volume   711.03603549
_cell_formula_units_Z   1
loop_
 _symmetry_equiv_pos_site_id
 _symmetry_equiv_pos_as_xyz
  1  'x, y, z'
loop_
 _atom_site_type_symbol
 _atom_site_label
 _atom_site_symmetry_multiplicity
 _atom_site_fract_x
 _atom_site_fract_y
 _atom_site_fract_z
 _atom_site_occupancy
  Th  Th0  1  0.792829  0.792786  0.208406  1
  Th  Th1  1  0.207207  0.791575  0.207201  1
  Th  Th2  1  0.791484  0.207318  0.207287  1
  Th  Th3  1  0.207171  0.207214  0.791594  1
  Th  Th4  1  0.792793  0.208425  0.792799  1
  Th  Th5  1  0.208516  0.792682  0.792713  1
  Mg  Mg6  1  0.000000  0.000000  0.500000  1
  Mg  Mg7  1  0.500000  0.000000  0.500000  1
  Mg  Mg8  1  0.000000  0.500000  0.500000  1
  Mg  Mg9  1  0.500000  0.500000  0.000000  1
  Mg  Mg10  1  0.000000  0.500000  0.000000  1
  Mg  Mg11  1  0.500000  0.000000  0.000000  1
  Mg  Mg12  1  0.500000  0.500000  0.500000  1
  Cd  Cd13  1  0.833554  0.833594  0.497832  1
  Cd  Cd14  1  0.833544  0.497860  0.833594  1
  Cd  Cd15  1  0.497836  0.833530  0.833535  1
  Cd  Cd16  1  0.834707  0.834668  0.834661  1
  Cd  Cd17  1  0.166446  0.166406  0.502168  1
  Cd  Cd18  1  0.166456  0.502140  0.166406  1
  Cd  Cd19  1  0.502164  0.166470  0.166465  1
  Cd  Cd20  1  0.165293  0.165332  0.165339  1
  Cd  Cd21  1  0.622516  0.622705  0.134861  1
  Cd  Cd22  1  0.622523  0.134872  0.622647  1
  Cd  Cd23  1  0.134840  0.622606  0.622535  1
  Cd  Cd24  1  0.621647  0.621560  0.621553  1
  Cd  Cd25  1  0.377484  0.377295  0.865139  1
  Cd  Cd26  1  0.377477  0.865128  0.377353  1
  Cd  Cd27  1  0.865160  0.377394  0.377465  1
  Cd  Cd28  1  0.378353  0.378440  0.378447  1
  As  As29  1  0.000000  0.000000  0.000000  1
