# generated using pymatgen
data_SrCa5Pb18
_symmetry_space_group_name_H-M   'P 1'
_cell_length_a   6.98714900
_cell_length_b   6.98714915
_cell_length_c   17.44913000
_cell_angle_alpha   90.00000000
_cell_angle_beta   90.00000000
_cell_angle_gamma   119.99999454
_symmetry_Int_Tables_number   1
_chemical_formula_structural   SrCa5Pb18
_chemical_formula_sum   'Sr1 Ca5 Pb18'
_cell_volume   737.74190468
_cell_formula_units_Z   1
loop_
 _symmetry_equiv_pos_site_id
 _symmetry_equiv_pos_as_xyz
  1  'x, y, z'
loop_
 _atom_site_type_symbol
 _atom_site_label
 _atom_site_symmetry_multiplicity
 _atom_site_fract_x
 _atom_site_fract_y
 _atom_site_fract_z
 _atom_site_occupancy
  Sr  Sr0  1  0.000000  0.000000  0.418704  1
  Ca  Ca1  1  0.666667  0.333333  0.580112  1
  Ca  Ca2  1  0.666667  0.333333  0.919587  1
  Ca  Ca3  1  0.000000  0.000000  0.079592  1
  Ca  Ca4  1  0.333333  0.666667  0.250647  1
  Ca  Ca5  1  0.333333  0.666667  0.752785  1
  Pb  Pb6  1  0.002481  0.501240  0.418132  1
  Pb  Pb7  1  0.498760  0.501240  0.418132  1
  Pb  Pb8  1  0.498760  0.997519  0.418132  1
  Pb  Pb9  1  0.660654  0.830327  0.585036  1
  Pb  Pb10  1  0.169673  0.830327  0.585036  1
  Pb  Pb11  1  0.169673  0.339346  0.585036  1
  Pb  Pb12  1  0.666913  0.833456  0.917709  1
  Pb  Pb13  1  0.166544  0.833456  0.917709  1
  Pb  Pb14  1  0.166544  0.333087  0.917709  1
  Pb  Pb15  1  0.006844  0.503423  0.081091  1
  Pb  Pb16  1  0.496577  0.503423  0.081091  1
  Pb  Pb17  1  0.496577  0.993156  0.081091  1
  Pb  Pb18  1  0.346165  0.173084  0.247163  1
  Pb  Pb19  1  0.826916  0.173084  0.247163  1
  Pb  Pb20  1  0.826916  0.653835  0.247163  1
  Pb  Pb21  1  0.329336  0.164667  0.750213  1
  Pb  Pb22  1  0.835333  0.164667  0.750213  1
  Pb  Pb23  1  0.835333  0.670664  0.750213  1
