# generated using pymatgen
data_Tb2Y3Lu3(CdIr)2
_symmetry_space_group_name_H-M   'P 1'
_cell_length_a   9.57825548
_cell_length_b   9.57825547
_cell_length_c   9.57825600
_cell_angle_alpha   60.00000506
_cell_angle_beta   60.00000512
_cell_angle_gamma   59.99999937
_symmetry_Int_Tables_number   1
_chemical_formula_structural   Tb2Y3Lu3(CdIr)2
_chemical_formula_sum   'Tb4 Y6 Lu6 Cd4 Ir4'
_cell_volume   621.36145178
_cell_formula_units_Z   2
loop_
 _symmetry_equiv_pos_site_id
 _symmetry_equiv_pos_as_xyz
  1  'x, y, z'
loop_
 _atom_site_type_symbol
 _atom_site_label
 _atom_site_symmetry_multiplicity
 _atom_site_fract_x
 _atom_site_fract_y
 _atom_site_fract_z
 _atom_site_occupancy
  Tb  Tb0  1  0.349555  0.349555  0.349555  1
  Tb  Tb1  1  0.349555  0.349555  0.951336  1
  Tb  Tb2  1  0.349555  0.951336  0.349555  1
  Tb  Tb3  1  0.951336  0.349555  0.349555  1
  Y  Y4  1  0.939059  0.560941  0.560941  1
  Y  Y5  1  0.560941  0.939059  0.939059  1
  Y  Y6  1  0.560941  0.939059  0.560941  1
  Y  Y7  1  0.939059  0.560941  0.939059  1
  Y  Y8  1  0.560941  0.560941  0.939059  1
  Y  Y9  1  0.939059  0.939059  0.560941  1
  Lu  Lu10  1  0.812866  0.187134  0.187134  1
  Lu  Lu11  1  0.187134  0.812866  0.812866  1
  Lu  Lu12  1  0.187134  0.812866  0.187134  1
  Lu  Lu13  1  0.812866  0.187134  0.812866  1
  Lu  Lu14  1  0.187134  0.187134  0.812866  1
  Lu  Lu15  1  0.812866  0.812866  0.187134  1
  Cd  Cd16  1  0.580354  0.580354  0.580354  1
  Cd  Cd17  1  0.580354  0.580354  0.258940  1
  Cd  Cd18  1  0.580354  0.258940  0.580354  1
  Cd  Cd19  1  0.258940  0.580354  0.580354  1
  Ir  Ir20  1  0.140368  0.140368  0.140368  1
  Ir  Ir21  1  0.140368  0.140368  0.578897  1
  Ir  Ir22  1  0.140368  0.578897  0.140368  1
  Ir  Ir23  1  0.578897  0.140368  0.140368  1
