# generated using pymatgen
data_Li2HoTm7(Sc5Si8)2
_symmetry_space_group_name_H-M   'P 1'
_cell_length_a   6.95771227
_cell_length_b   7.36348267
_cell_length_c   13.94672949
_cell_angle_alpha   90.02909491
_cell_angle_beta   90.00913018
_cell_angle_gamma   89.92186126
_symmetry_Int_Tables_number   1
_chemical_formula_structural   Li2HoTm7(Sc5Si8)2
_chemical_formula_sum   'Li2 Ho1 Tm7 Sc10 Si16'
_cell_volume   714.53193911
_cell_formula_units_Z   1
loop_
 _symmetry_equiv_pos_site_id
 _symmetry_equiv_pos_as_xyz
  1  'x, y, z'
loop_
 _atom_site_type_symbol
 _atom_site_label
 _atom_site_symmetry_multiplicity
 _atom_site_fract_x
 _atom_site_fract_y
 _atom_site_fract_z
 _atom_site_occupancy
  Li  Li0  1  0.160090  0.507080  0.749987  1
  Li  Li1  1  0.839845  0.493109  0.250102  1
  Ho  Ho2  1  0.009719  0.184114  0.097623  1
  Tm  Tm3  1  0.989791  0.815187  0.901822  1
  Tm  Tm4  1  0.485577  0.674754  0.902934  1
  Tm  Tm5  1  0.989779  0.815172  0.598018  1
  Tm  Tm6  1  0.514560  0.325428  0.096921  1
  Tm  Tm7  1  0.010163  0.184738  0.401912  1
  Tm  Tm8  1  0.514614  0.325261  0.403183  1
  Tm  Tm9  1  0.485454  0.674742  0.596937  1
  Sc  Sc10  1  0.341846  0.003858  0.250163  1
  Sc  Sc11  1  0.658326  0.995861  0.749978  1
  Sc  Sc12  1  0.325967  0.181274  0.626262  1
  Sc  Sc13  1  0.674007  0.818610  0.373891  1
  Sc  Sc14  1  0.165419  0.675053  0.373138  1
  Sc  Sc15  1  0.673841  0.818460  0.126292  1
  Sc  Sc16  1  0.834557  0.324941  0.626984  1
  Sc  Sc17  1  0.326168  0.181316  0.873633  1
  Sc  Sc18  1  0.834284  0.325207  0.872904  1
  Sc  Sc19  1  0.165527  0.675018  0.127002  1
  Si  Si20  1  0.028973  0.099330  0.749911  1
  Si  Si21  1  0.970736  0.899955  0.250335  1
  Si  Si22  1  0.466714  0.611157  0.250095  1
  Si  Si23  1  0.533238  0.389028  0.749967  1
  Si  Si24  1  0.286996  0.876052  0.750007  1
  Si  Si25  1  0.712481  0.123568  0.250451  1
  Si  Si26  1  0.221008  0.371524  0.250342  1
  Si  Si27  1  0.779614  0.629045  0.749953  1
  Si  Si28  1  0.161378  0.461643  0.533380  1
  Si  Si29  1  0.838671  0.538336  0.466677  1
  Si  Si30  1  0.341970  0.967135  0.461260  1
  Si  Si31  1  0.838481  0.539206  0.033037  1
  Si  Si32  1  0.657943  0.032921  0.538814  1
  Si  Si33  1  0.161575  0.462494  0.966358  1
  Si  Si34  1  0.657756  0.032826  0.961143  1
  Si  Si35  1  0.342931  0.966597  0.038584  1
