# generated using pymatgen
data_Ca4CuNiH12
_symmetry_space_group_name_H-M   'P 1'
_cell_length_a   7.00038754
_cell_length_b   7.00038644
_cell_length_c   5.10683199
_cell_angle_alpha   90.01632324
_cell_angle_beta   90.01630626
_cell_angle_gamma   137.16074914
_symmetry_Int_Tables_number   1
_chemical_formula_structural   Ca4CuNiH12
_chemical_formula_sum   'Ca4 Cu1 Ni1 H12'
_cell_volume   170.16433789
_cell_formula_units_Z   1
loop_
 _symmetry_equiv_pos_site_id
 _symmetry_equiv_pos_as_xyz
  1  'x, y, z'
loop_
 _atom_site_type_symbol
 _atom_site_label
 _atom_site_symmetry_multiplicity
 _atom_site_fract_x
 _atom_site_fract_y
 _atom_site_fract_z
 _atom_site_occupancy
  Ca  Ca0  1  0.147723  0.852277  0.500000  1
  Ca  Ca1  1  0.648304  0.351696  0.000000  1
  Ca  Ca2  1  0.852277  0.147723  0.500000  1
  Ca  Ca3  1  0.351696  0.648304  0.000000  1
  Cu  Cu4  1  0.000000  0.000000  0.000000  1
  Ni  Ni5  1  0.500000  0.500000  0.500000  1
  H  H6  1  0.999764  0.500033  0.748943  1
  H  H7  1  0.499967  0.000236  0.251057  1
  H  H8  1  0.000236  0.499967  0.251057  1
  H  H9  1  0.500033  0.999764  0.748943  1
  H  H10  1  0.380945  0.619055  0.500000  1
  H  H11  1  0.878552  0.121448  0.000000  1
  H  H12  1  0.619055  0.380945  0.500000  1
  H  H13  1  0.121448  0.878552  0.000000  1
  H  H14  1  0.269975  0.269975  0.730854  1
  H  H15  1  0.730025  0.730025  0.269146  1
  H  H16  1  0.268593  0.268593  0.268947  1
  H  H17  1  0.731407  0.731407  0.731053  1
