# generated using pymatgen
data_Tb4Dy2FeCl10
_symmetry_space_group_name_H-M   'P 1'
_cell_length_a   7.09810313
_cell_length_b   8.78825213
_cell_length_c   8.87901910
_cell_angle_alpha   108.45379804
_cell_angle_beta   96.27610988
_cell_angle_gamma   105.67454247
_symmetry_Int_Tables_number   1
_chemical_formula_structural   Tb4Dy2FeCl10
_chemical_formula_sum   'Tb4 Dy2 Fe1 Cl10'
_cell_volume   494.20831820
_cell_formula_units_Z   1
loop_
 _symmetry_equiv_pos_site_id
 _symmetry_equiv_pos_as_xyz
  1  'x, y, z'
loop_
 _atom_site_type_symbol
 _atom_site_label
 _atom_site_symmetry_multiplicity
 _atom_site_fract_x
 _atom_site_fract_y
 _atom_site_fract_z
 _atom_site_occupancy
  Tb  Tb0  1  0.532922  0.703637  0.904520  1
  Tb  Tb1  1  0.467078  0.296363  0.095480  1
  Tb  Tb2  1  0.633957  0.055108  0.756822  1
  Tb  Tb3  1  0.366043  0.944892  0.243178  1
  Dy  Dy4  1  0.861265  0.138398  0.186519  1
  Dy  Dy5  1  0.138735  0.861602  0.813481  1
  Fe  Fe6  1  0.500000  0.000000  0.000000  1
  Cl  Cl7  1  0.738581  0.079325  0.450458  1
  Cl  Cl8  1  0.261419  0.920675  0.549542  1
  Cl  Cl9  1  0.952093  0.825676  0.076526  1
  Cl  Cl10  1  0.047907  0.174324  0.923474  1
  Cl  Cl11  1  0.280595  0.246763  0.341966  1
  Cl  Cl12  1  0.719405  0.753237  0.658034  1
  Cl  Cl13  1  0.589868  0.371772  0.836243  1
  Cl  Cl14  1  0.410132  0.628228  0.163757  1
  Cl  Cl15  1  0.843528  0.449126  0.274374  1
  Cl  Cl16  1  0.156472  0.550874  0.725626  1
