# generated using pymatgen
data_HoLu(ZnIr)2
_symmetry_space_group_name_H-M   'P 1'
_cell_length_a   4.00740000
_cell_length_b   6.97141072
_cell_length_c   8.07621050
_cell_angle_alpha   89.60868258
_cell_angle_beta   90.00000000
_cell_angle_gamma   90.00000000
_symmetry_Int_Tables_number   1
_chemical_formula_structural   HoLu(ZnIr)2
_chemical_formula_sum   'Ho2 Lu2 Zn4 Ir4'
_cell_volume   225.62169855
_cell_formula_units_Z   2
loop_
 _symmetry_equiv_pos_site_id
 _symmetry_equiv_pos_as_xyz
  1  'x, y, z'
loop_
 _atom_site_type_symbol
 _atom_site_label
 _atom_site_symmetry_multiplicity
 _atom_site_fract_x
 _atom_site_fract_y
 _atom_site_fract_z
 _atom_site_occupancy
  Ho  Ho0  1  0.250000  0.535000  0.183681  1
  Ho  Ho1  1  0.750000  0.465000  0.816319  1
  Lu  Lu2  1  0.750000  0.964910  0.680238  1
  Lu  Lu3  1  0.250000  0.035090  0.319762  1
  Zn  Zn4  1  0.250000  0.640737  0.566517  1
  Zn  Zn5  1  0.750000  0.359263  0.433483  1
  Zn  Zn6  1  0.750000  0.861569  0.066331  1
  Zn  Zn7  1  0.250000  0.138431  0.933669  1
  Ir  Ir8  1  0.250000  0.760912  0.875617  1
  Ir  Ir9  1  0.750000  0.239088  0.124383  1
  Ir  Ir10  1  0.750000  0.745286  0.378624  1
  Ir  Ir11  1  0.250000  0.254714  0.621376  1
