# generated using pymatgen
data_Ca2DyRuO6
_symmetry_space_group_name_H-M   'P 1'
_cell_length_a   5.80238800
_cell_length_b   5.61014643
_cell_length_c   9.77512850
_cell_angle_alpha   55.53405791
_cell_angle_beta   90.00000000
_cell_angle_gamma   90.00000000
_symmetry_Int_Tables_number   1
_chemical_formula_structural   Ca2DyRuO6
_chemical_formula_sum   'Ca4 Dy2 Ru2 O12'
_cell_volume   262.34601073
_cell_formula_units_Z   2
loop_
 _symmetry_equiv_pos_site_id
 _symmetry_equiv_pos_as_xyz
  1  'x, y, z'
loop_
 _atom_site_type_symbol
 _atom_site_label
 _atom_site_symmetry_multiplicity
 _atom_site_fract_x
 _atom_site_fract_y
 _atom_site_fract_z
 _atom_site_occupancy
  Ca  Ca0  1  0.555335  0.734253  0.750610  1
  Ca  Ca1  1  0.055335  0.265747  0.749390  1
  Ca  Ca2  1  0.944665  0.734253  0.250610  1
  Ca  Ca3  1  0.444665  0.265747  0.249390  1
  Dy  Dy4  1  0.000000  0.000000  0.500000  1
  Dy  Dy5  1  0.500000  0.000000  0.000000  1
  Ru  Ru6  1  0.000000  0.500000  0.000000  1
  Ru  Ru7  1  0.500000  0.500000  0.500000  1
  O  O8  1  0.543392  0.842044  0.267486  1
  O  O9  1  0.043392  0.157956  0.232514  1
  O  O10  1  0.456608  0.157956  0.732514  1
  O  O11  1  0.956608  0.842044  0.767486  1
  O  O12  1  0.784996  0.618492  0.560278  1
  O  O13  1  0.284996  0.381508  0.939722  1
  O  O14  1  0.215004  0.381508  0.439722  1
  O  O15  1  0.715004  0.618492  0.060278  1
  O  O16  1  0.186061  0.729953  0.055664  1
  O  O17  1  0.686061  0.270047  0.444336  1
  O  O18  1  0.813939  0.270047  0.944336  1
  O  O19  1  0.313939  0.729953  0.555664  1
