# generated using pymatgen
data_Y3Al3GaAg2
_symmetry_space_group_name_H-M   'P 1'
_cell_length_a   7.16619200
_cell_length_b   7.16619172
_cell_length_c   4.27775900
_cell_angle_alpha   90.00000000
_cell_angle_beta   90.00000000
_cell_angle_gamma   120.00000128
_symmetry_Int_Tables_number   1
_chemical_formula_structural   Y3Al3GaAg2
_chemical_formula_sum   'Y3 Al3 Ga1 Ag2'
_cell_volume   190.24962201
_cell_formula_units_Z   1
loop_
 _symmetry_equiv_pos_site_id
 _symmetry_equiv_pos_as_xyz
  1  'x, y, z'
loop_
 _atom_site_type_symbol
 _atom_site_label
 _atom_site_symmetry_multiplicity
 _atom_site_fract_x
 _atom_site_fract_y
 _atom_site_fract_z
 _atom_site_occupancy
  Y  Y0  1  0.004963  0.421449  0.500000  1
  Y  Y1  1  0.578551  0.583515  0.500000  1
  Y  Y2  1  0.416485  0.995037  0.500000  1
  Al  Al3  1  0.995560  0.756851  0.000000  1
  Al  Al4  1  0.243149  0.238711  0.000000  1
  Al  Al5  1  0.761289  0.004440  0.000000  1
  Ga  Ga6  1  0.333333  0.666667  0.000000  1
  Ag  Ag7  1  0.666667  0.333333  0.000000  1
  Ag  Ag8  1  0.000000  0.000000  0.500000  1
