# generated using pymatgen
data_TbLuZr2(Al8Pt3)3
_symmetry_space_group_name_H-M   'P 1'
_cell_length_a   7.49994210
_cell_length_b   7.50968285
_cell_length_c   13.05631031
_cell_angle_alpha   84.53533138
_cell_angle_beta   78.97556836
_cell_angle_gamma   59.94494898
_symmetry_Int_Tables_number   1
_chemical_formula_structural   TbLuZr2(Al8Pt3)3
_chemical_formula_sum   'Tb1 Lu1 Zr2 Al24 Pt9'
_cell_volume   624.74079900
_cell_formula_units_Z   1
loop_
 _symmetry_equiv_pos_site_id
 _symmetry_equiv_pos_as_xyz
  1  'x, y, z'
loop_
 _atom_site_type_symbol
 _atom_site_label
 _atom_site_symmetry_multiplicity
 _atom_site_fract_x
 _atom_site_fract_y
 _atom_site_fract_z
 _atom_site_occupancy
  Tb  Tb0  1  0.733174  0.498317  0.808757  1
  Lu  Lu1  1  0.265817  0.501503  0.193397  1
  Zr  Zr2  1  0.393462  0.168012  0.810369  1
  Zr  Zr3  1  0.606379  0.832521  0.189479  1
  Al  Al4  1  0.680974  0.836494  0.944462  1
  Al  Al5  1  0.318273  0.164920  0.057549  1
  Al  Al6  1  0.146178  0.832993  0.562692  1
  Al  Al7  1  0.854187  0.166704  0.436655  1
  Al  Al8  1  0.479996  0.166939  0.560839  1
  Al  Al9  1  0.520176  0.833116  0.438297  1
  Al  Al10  1  0.221236  0.163372  0.325878  1
  Al  Al11  1  0.779453  0.836514  0.672605  1
  Al  Al12  1  0.436640  0.504176  0.672767  1
  Al  Al13  1  0.563675  0.495865  0.325746  1
  Al  Al14  1  0.111325  0.160261  0.671420  1
  Al  Al15  1  0.889443  0.839555  0.326988  1
  Al  Al16  1  0.352219  0.497221  0.943642  1
  Al  Al17  1  0.645265  0.503202  0.059005  1
  Al  Al18  1  0.018737  0.167260  0.951869  1
  Al  Al19  1  0.981970  0.831476  0.050119  1
  Al  Al20  1  0.186775  0.499686  0.440292  1
  Al  Al21  1  0.813610  0.500279  0.559182  1
  Al  Al22  1  0.732645  0.159512  0.183606  1
  Al  Al23  1  0.265792  0.841703  0.816234  1
  Al  Al24  1  0.066481  0.626773  0.815229  1
  Al  Al25  1  0.934910  0.373617  0.184608  1
  Al  Al26  1  0.850895  0.039998  0.815764  1
  Al  Al27  1  0.149553  0.958027  0.184126  1
  Pt  Pt28  1  0.120158  0.491033  0.639173  1
  Pt  Pt29  1  0.880968  0.509012  0.360199  1
  Pt  Pt30  1  0.656584  0.172960  0.999709  1
  Pt  Pt31  1  0.343172  0.827101  0.000553  1
  Pt  Pt32  1  0.536436  0.167418  0.361085  1
  Pt  Pt33  1  0.463114  0.833209  0.638157  1
  Pt  Pt34  1  0.778688  0.175992  0.637431  1
  Pt  Pt35  1  0.221746  0.823043  0.361929  1
  Pt  Pt36  1  0.999895  0.500217  0.000187  1
