# generated using pymatgen
data_YHoTh7Se17
_symmetry_space_group_name_H-M   'P 1'
_cell_length_a   8.47861002
_cell_length_b   8.46559796
_cell_length_c   11.23966100
_cell_angle_alpha   80.65341572
_cell_angle_beta   80.87377743
_cell_angle_gamma   65.04807864
_symmetry_Int_Tables_number   1
_chemical_formula_structural   YHoTh7Se17
_chemical_formula_sum   'Y1 Ho1 Th7 Se17'
_cell_volume   718.06375107
_cell_formula_units_Z   1
loop_
 _symmetry_equiv_pos_site_id
 _symmetry_equiv_pos_as_xyz
  1  'x, y, z'
loop_
 _atom_site_type_symbol
 _atom_site_label
 _atom_site_symmetry_multiplicity
 _atom_site_fract_x
 _atom_site_fract_y
 _atom_site_fract_z
 _atom_site_occupancy
  Y  Y0  1  0.811278  0.305785  0.299516  1
  Ho  Ho1  1  0.996648  0.003550  0.002230  1
  Th  Th2  1  0.302643  0.811354  0.298995  1
  Th  Th3  1  0.186662  0.698416  0.699634  1
  Th  Th4  1  0.698263  0.188726  0.697304  1
  Th  Th5  1  0.206542  0.204831  0.536921  1
  Th  Th6  1  0.793661  0.794921  0.459888  1
  Th  Th7  1  0.683232  0.680076  0.981455  1
  Th  Th8  1  0.316843  0.318034  0.022661  1
  Se  Se9  1  0.824465  0.428996  0.530489  1
  Se  Se10  1  0.432698  0.820405  0.532747  1
  Se  Se11  1  0.177679  0.567127  0.466423  1
  Se  Se12  1  0.570527  0.178122  0.466586  1
  Se  Se13  1  0.942109  0.335633  0.040467  1
  Se  Se14  1  0.334184  0.941970  0.037021  1
  Se  Se15  1  0.058703  0.667203  0.961199  1
  Se  Se16  1  0.664674  0.058665  0.960099  1
  Se  Se17  1  0.207504  0.205736  0.277834  1
  Se  Se18  1  0.790971  0.790941  0.723057  1
  Se  Se19  1  0.065529  0.065455  0.763042  1
  Se  Se20  1  0.934730  0.940662  0.240465  1
  Se  Se21  1  0.304901  0.304589  0.751877  1
  Se  Se22  1  0.693898  0.695020  0.247796  1
  Se  Se23  1  0.521305  0.521947  0.831421  1
  Se  Se24  1  0.477201  0.479336  0.166075  1
  Se  Se25  1  0.003152  0.992499  0.504796  1
