# generated using pymatgen
data_Ti8C7
_symmetry_space_group_name_H-M   'P 1'
_cell_length_a   8.72967100
_cell_length_b   8.72967100
_cell_length_c   8.72967100
_cell_angle_alpha   90.00000000
_cell_angle_beta   90.00000000
_cell_angle_gamma   90.00000000
_symmetry_Int_Tables_number   1
_chemical_formula_structural   Ti8C7
_chemical_formula_sum   'Ti32 C28'
_cell_volume   665.26339770
_cell_formula_units_Z   4
loop_
 _symmetry_equiv_pos_site_id
 _symmetry_equiv_pos_as_xyz
  1  'x, y, z'
loop_
 _atom_site_type_symbol
 _atom_site_label
 _atom_site_symmetry_multiplicity
 _atom_site_fract_x
 _atom_site_fract_y
 _atom_site_fract_z
 _atom_site_occupancy
  Ti  Ti0  1  0.129627  0.876117  0.111785  1
  Ti  Ti1  1  0.138216  0.373884  0.120374  1
  Ti  Ti2  1  0.623151  0.876849  0.123151  1
  Ti  Ti3  1  0.611784  0.370374  0.123884  1
  Ti  Ti4  1  0.879625  0.638215  0.126117  1
  Ti  Ti5  1  0.373151  0.626850  0.126849  1
  Ti  Ti6  1  0.876117  0.111785  0.129627  1
  Ti  Ti7  1  0.373884  0.120374  0.138216  1
  Ti  Ti8  1  0.626116  0.620374  0.361785  1
  Ti  Ti9  1  0.123884  0.611784  0.370374  1
  Ti  Ti10  1  0.626850  0.126849  0.373151  1
  Ti  Ti11  1  0.120374  0.138216  0.373884  1
  Ti  Ti12  1  0.388215  0.870374  0.376117  1
  Ti  Ti13  1  0.376849  0.376849  0.376849  1
  Ti  Ti14  1  0.861784  0.873883  0.379626  1
  Ti  Ti15  1  0.870374  0.376117  0.388215  1
  Ti  Ti16  1  0.370374  0.123884  0.611784  1
  Ti  Ti17  1  0.361785  0.626116  0.620374  1
  Ti  Ti18  1  0.876849  0.123151  0.623151  1
  Ti  Ti19  1  0.888216  0.629626  0.623883  1
  Ti  Ti20  1  0.620374  0.361785  0.626116  1
  Ti  Ti21  1  0.126849  0.373151  0.626850  1
  Ti  Ti22  1  0.623883  0.888216  0.629626  1
  Ti  Ti23  1  0.126117  0.879625  0.638215  1
  Ti  Ti24  1  0.873883  0.379626  0.861784  1
  Ti  Ti25  1  0.376117  0.388215  0.870374  1
  Ti  Ti26  1  0.873151  0.873151  0.873151  1
  Ti  Ti27  1  0.379626  0.861784  0.873883  1
  Ti  Ti28  1  0.111785  0.129627  0.876117  1
  Ti  Ti29  1  0.123151  0.623151  0.876849  1
  Ti  Ti30  1  0.638215  0.126117  0.879625  1
  Ti  Ti31  1  0.629626  0.623883  0.888216  1
  C  C32  1  0.375000  0.372168  0.122167  1
  C  C33  1  0.625000  0.125569  0.124431  1
  C  C34  1  0.125000  0.125000  0.125000  1
  C  C35  1  0.627833  0.622167  0.125000  1
  C  C36  1  0.374430  0.875569  0.125000  1
  C  C37  1  0.124431  0.625000  0.125569  1
  C  C38  1  0.877833  0.875001  0.127833  1
  C  C39  1  0.122167  0.375000  0.372168  1
  C  C40  1  0.875569  0.125000  0.374430  1
  C  C41  1  0.372168  0.122167  0.375000  1
  C  C42  1  0.625569  0.375568  0.375000  1
  C  C43  1  0.875001  0.625000  0.375000  1
  C  C44  1  0.375000  0.625569  0.375568  1
  C  C45  1  0.625000  0.872167  0.377833  1
  C  C46  1  0.125000  0.627833  0.622167  1
  C  C47  1  0.875001  0.874431  0.624431  1
  C  C48  1  0.125569  0.124431  0.625000  1
  C  C49  1  0.872167  0.377833  0.625000  1
  C  C50  1  0.375000  0.875001  0.625000  1
  C  C51  1  0.375568  0.375000  0.625569  1
  C  C52  1  0.622167  0.125000  0.627833  1
  C  C53  1  0.377833  0.625000  0.872167  1
  C  C54  1  0.624431  0.875001  0.874431  1
  C  C55  1  0.625000  0.375000  0.875001  1
  C  C56  1  0.874431  0.624431  0.875001  1
  C  C57  1  0.127833  0.877833  0.875001  1
  C  C58  1  0.125000  0.374430  0.875569  1
  C  C59  1  0.875001  0.127833  0.877833  1
