# generated using pymatgen
data_Yb8Zn3SbPd21
_symmetry_space_group_name_H-M   'P 1'
_cell_length_a   8.07835700
_cell_length_b   8.46033100
_cell_length_c   8.46033100
_cell_angle_alpha   90.00000000
_cell_angle_beta   90.00000000
_cell_angle_gamma   90.00000000
_symmetry_Int_Tables_number   1
_chemical_formula_structural   Yb8Zn3SbPd21
_chemical_formula_sum   'Yb8 Zn3 Sb1 Pd21'
_cell_volume   578.22617975
_cell_formula_units_Z   1
loop_
 _symmetry_equiv_pos_site_id
 _symmetry_equiv_pos_as_xyz
  1  'x, y, z'
loop_
 _atom_site_type_symbol
 _atom_site_label
 _atom_site_symmetry_multiplicity
 _atom_site_fract_x
 _atom_site_fract_y
 _atom_site_fract_z
 _atom_site_occupancy
  Yb  Yb0  1  0.748067  0.740372  0.259628  1
  Yb  Yb1  1  0.748067  0.259628  0.740372  1
  Yb  Yb2  1  0.250649  0.759494  0.759494  1
  Yb  Yb3  1  0.748067  0.740372  0.740372  1
  Yb  Yb4  1  0.748067  0.259628  0.259628  1
  Yb  Yb5  1  0.250649  0.240506  0.759494  1
  Yb  Yb6  1  0.250649  0.759494  0.240506  1
  Yb  Yb7  1  0.250649  0.240506  0.240506  1
  Zn  Zn8  1  0.720126  0.000000  0.500000  1
  Zn  Zn9  1  0.720126  0.500000  0.000000  1
  Zn  Zn10  1  0.259771  0.500000  0.500000  1
  Sb  Sb11  1  0.019399  0.000000  0.000000  1
  Pd  Pd12  1  0.975038  0.000000  0.311410  1
  Pd  Pd13  1  0.513209  0.000000  0.725037  1
  Pd  Pd14  1  0.016589  0.733013  0.500000  1
  Pd  Pd15  1  0.513209  0.000000  0.274963  1
  Pd  Pd16  1  0.016589  0.266987  0.500000  1
  Pd  Pd17  1  0.513209  0.725037  0.000000  1
  Pd  Pd18  1  0.490638  0.500000  0.741758  1
  Pd  Pd19  1  0.490638  0.500000  0.258242  1
  Pd  Pd20  1  0.490638  0.258242  0.500000  1
  Pd  Pd21  1  0.490638  0.741758  0.500000  1
  Pd  Pd22  1  0.748665  0.500000  0.500000  1
  Pd  Pd23  1  0.339197  0.000000  0.000000  1
  Pd  Pd24  1  0.975038  0.000000  0.688590  1
  Pd  Pd25  1  0.016589  0.500000  0.266987  1
  Pd  Pd26  1  0.975038  0.311410  0.000000  1
  Pd  Pd27  1  0.975038  0.688590  0.000000  1
  Pd  Pd28  1  0.699666  0.000000  0.000000  1
  Pd  Pd29  1  0.258141  0.500000  0.000000  1
  Pd  Pd30  1  0.258141  0.000000  0.500000  1
  Pd  Pd31  1  0.016589  0.500000  0.733013  1
  Pd  Pd32  1  0.513209  0.274963  0.000000  1
