# generated using pymatgen
data_Ba5Nd4Dy4Mn4O21
_symmetry_space_group_name_H-M   'P 1'
_cell_length_a   5.86545054
_cell_length_b   10.46576029
_cell_length_c   10.46576000
_cell_angle_alpha   85.49628410
_cell_angle_beta   73.72661426
_cell_angle_gamma   73.72660524
_symmetry_Int_Tables_number   1
_chemical_formula_structural   Ba5Nd4Dy4Mn4O21
_chemical_formula_sum   'Ba5 Nd4 Dy4 Mn4 O21'
_cell_volume   592.00731346
_cell_formula_units_Z   1
loop_
 _symmetry_equiv_pos_site_id
 _symmetry_equiv_pos_as_xyz
  1  'x, y, z'
loop_
 _atom_site_type_symbol
 _atom_site_label
 _atom_site_symmetry_multiplicity
 _atom_site_fract_x
 _atom_site_fract_y
 _atom_site_fract_z
 _atom_site_occupancy
  Ba  Ba0  1  0.529210  0.331999  0.609580  1
  Ba  Ba1  1  0.861209  0.609580  0.668001  1
  Ba  Ba2  1  0.138791  0.390420  0.331999  1
  Ba  Ba3  1  0.470790  0.668001  0.390420  1
  Ba  Ba4  1  0.000000  0.000000  0.000000  1
  Nd  Nd5  1  0.247144  0.584057  0.921655  1
  Nd  Nd6  1  0.831201  0.921655  0.415943  1
  Nd  Nd7  1  0.168799  0.078345  0.584057  1
  Nd  Nd8  1  0.752856  0.415943  0.078345  1
  Dy  Dy9  1  0.412886  0.226472  0.947756  1
  Dy  Dy10  1  0.639358  0.947756  0.773528  1
  Dy  Dy11  1  0.360642  0.052244  0.226472  1
  Dy  Dy12  1  0.587114  0.773528  0.052244  1
  Mn  Mn13  1  0.040106  0.711335  0.208452  1
  Mn  Mn14  1  0.751441  0.208452  0.288665  1
  Mn  Mn15  1  0.248559  0.791548  0.711335  1
  Mn  Mn16  1  0.959894  0.288665  0.791548  1
  O  O17  1  0.891655  0.600281  0.108794  1
  O  O18  1  0.491937  0.108794  0.399719  1
  O  O19  1  0.000449  0.891206  0.600281  1
  O  O20  1  0.600732  0.399719  0.891206  1
  O  O21  1  0.108345  0.399719  0.891206  1
  O  O22  1  0.508063  0.891206  0.600281  1
  O  O23  1  0.999551  0.108794  0.399719  1
  O  O24  1  0.399268  0.600281  0.108794  1
  O  O25  1  0.079297  0.220672  0.129537  1
  O  O26  1  0.299969  0.129537  0.779328  1
  O  O27  1  0.208834  0.870463  0.220672  1
  O  O28  1  0.429506  0.779328  0.870463  1
  O  O29  1  0.920703  0.779328  0.870463  1
  O  O30  1  0.700031  0.870463  0.220672  1
  O  O31  1  0.791166  0.129537  0.779328  1
  O  O32  1  0.570494  0.220672  0.129537  1
  O  O33  1  0.625229  0.408271  0.341269  1
  O  O34  1  0.500000  0.000000  0.000000  1
  O  O35  1  0.374771  0.591729  0.658731  1
  O  O36  1  0.966499  0.658731  0.408271  1
  O  O37  1  0.033501  0.341269  0.591729  1
