# generated using pymatgen
data_PaGa(I2Cl)2
_symmetry_space_group_name_H-M   'P 1'
_cell_length_a   7.85556798
_cell_length_b   7.92087781
_cell_length_c   8.40854852
_cell_angle_alpha   90.16295765
_cell_angle_beta   118.33105575
_cell_angle_gamma   119.92052166
_symmetry_Int_Tables_number   1
_chemical_formula_structural   PaGa(I2Cl)2
_chemical_formula_sum   'Pa1 Ga1 I4 Cl2'
_cell_volume   378.96572970
_cell_formula_units_Z   1
loop_
 _symmetry_equiv_pos_site_id
 _symmetry_equiv_pos_as_xyz
  1  'x, y, z'
loop_
 _atom_site_type_symbol
 _atom_site_label
 _atom_site_symmetry_multiplicity
 _atom_site_fract_x
 _atom_site_fract_y
 _atom_site_fract_z
 _atom_site_occupancy
  Pa  Pa0  1  0.596071  0.301580  0.883615  1
  Ga  Ga1  1  0.247818  0.631550  0.863448  1
  I  I2  1  0.460603  0.066774  0.124408  1
  I  I3  1  0.118327  0.208940  0.632460  1
  I  I4  1  0.729733  0.521374  0.632971  1
  I  I5  1  0.431780  0.907918  0.642251  1
  Cl  Cl6  1  0.703767  0.619054  0.085283  1
  Cl  Cl7  1  0.010899  0.392311  0.084061  1
