# generated using pymatgen
data_Lu20Si2Bi9Sb
_symmetry_space_group_name_H-M   'P 1'
_cell_length_a   7.95246508
_cell_length_b   9.24905500
_cell_length_c   11.69128309
_cell_angle_alpha   90.00000000
_cell_angle_beta   89.89565816
_cell_angle_gamma   90.00000000
_symmetry_Int_Tables_number   1
_chemical_formula_structural   Lu20Si2Bi9Sb
_chemical_formula_sum   'Lu20 Si2 Bi9 Sb1'
_cell_volume   859.92502811
_cell_formula_units_Z   1
loop_
 _symmetry_equiv_pos_site_id
 _symmetry_equiv_pos_as_xyz
  1  'x, y, z'
loop_
 _atom_site_type_symbol
 _atom_site_label
 _atom_site_symmetry_multiplicity
 _atom_site_fract_x
 _atom_site_fract_y
 _atom_site_fract_z
 _atom_site_occupancy
  Lu  Lu0  1  0.037135  0.250000  0.509139  1
  Lu  Lu1  1  0.976107  0.750000  0.490774  1
  Lu  Lu2  1  0.459928  0.750000  0.011580  1
  Lu  Lu3  1  0.520809  0.250000  0.990238  1
  Lu  Lu4  1  0.353243  0.250000  0.294821  1
  Lu  Lu5  1  0.652405  0.750000  0.713240  1
  Lu  Lu6  1  0.145359  0.750000  0.793482  1
  Lu  Lu7  1  0.848490  0.250000  0.217283  1
  Lu  Lu8  1  0.196680  0.250000  0.773972  1
  Lu  Lu9  1  0.827989  0.750000  0.208797  1
  Lu  Lu10  1  0.312649  0.750000  0.281117  1
  Lu  Lu11  1  0.668988  0.250000  0.706400  1
  Lu  Lu12  1  0.189314  0.049131  0.060192  1
  Lu  Lu13  1  0.816090  0.926125  0.945982  1
  Lu  Lu14  1  0.312674  0.947014  0.558079  1
  Lu  Lu15  1  0.816090  0.573875  0.945982  1
  Lu  Lu16  1  0.681875  0.070759  0.446661  1
  Lu  Lu17  1  0.189314  0.450869  0.060192  1
  Lu  Lu18  1  0.681875  0.429241  0.446661  1
  Lu  Lu19  1  0.312674  0.552986  0.558079  1
  Si  Si20  1  0.404188  0.250000  0.537297  1
  Si  Si21  1  0.090816  0.750000  0.036331  1
  Bi  Bi22  1  0.907232  0.250000  0.953935  1
  Bi  Bi23  1  0.061886  0.002328  0.324134  1
  Bi  Bi24  1  0.936596  0.998928  0.676338  1
  Bi  Bi25  1  0.438809  0.995202  0.824139  1
  Bi  Bi26  1  0.936596  0.501072  0.676338  1
  Bi  Bi27  1  0.563875  0.002052  0.176963  1
  Bi  Bi28  1  0.061886  0.497672  0.324134  1
  Bi  Bi29  1  0.563875  0.497948  0.176963  1
  Bi  Bi30  1  0.438809  0.504798  0.824139  1
  Sb  Sb31  1  0.595746  0.750000  0.456619  1
