# generated using pymatgen
data_CePr(Nd9Rh8)2
_symmetry_space_group_name_H-M   'P 1'
_cell_length_a   7.53277061
_cell_length_b   7.71487997
_cell_length_c   15.09189811
_cell_angle_alpha   90.04036653
_cell_angle_beta   90.01731042
_cell_angle_gamma   90.08259693
_symmetry_Int_Tables_number   1
_chemical_formula_structural   CePr(Nd9Rh8)2
_chemical_formula_sum   'Ce1 Pr1 Nd18 Rh16'
_cell_volume   877.05575329
_cell_formula_units_Z   1
loop_
 _symmetry_equiv_pos_site_id
 _symmetry_equiv_pos_as_xyz
  1  'x, y, z'
loop_
 _atom_site_type_symbol
 _atom_site_label
 _atom_site_symmetry_multiplicity
 _atom_site_fract_x
 _atom_site_fract_y
 _atom_site_fract_z
 _atom_site_occupancy
  Ce  Ce0  1  0.316363  0.520167  0.250216  1
  Pr  Pr1  1  0.012630  0.680748  0.088424  1
  Nd  Nd2  1  0.836545  0.832452  0.622491  1
  Nd  Nd3  1  0.986208  0.318310  0.592821  1
  Nd  Nd4  1  0.175322  0.012945  0.749946  1
  Nd  Nd5  1  0.512081  0.819108  0.411183  1
  Nd  Nd6  1  0.486466  0.181170  0.593027  1
  Nd  Nd7  1  0.164618  0.169672  0.377448  1
  Nd  Nd8  1  0.336094  0.667863  0.877109  1
  Nd  Nd9  1  0.675091  0.488104  0.749932  1
  Nd  Nd10  1  0.335990  0.667878  0.622769  1
  Nd  Nd11  1  0.012925  0.680988  0.411594  1
  Nd  Nd12  1  0.486491  0.181203  0.906911  1
  Nd  Nd13  1  0.823314  0.977829  0.250155  1
  Nd  Nd14  1  0.512099  0.819263  0.088918  1
  Nd  Nd15  1  0.986160  0.318063  0.906963  1
  Nd  Nd16  1  0.836435  0.832560  0.877286  1
  Nd  Nd17  1  0.663892  0.332095  0.123111  1
  Nd  Nd18  1  0.164707  0.169715  0.122614  1
  Nd  Nd19  1  0.664205  0.332252  0.377015  1
  Rh  Rh20  1  0.040598  0.603379  0.749921  1
  Rh  Rh21  1  0.825336  0.029637  0.456871  1
  Rh  Rh22  1  0.460760  0.101693  0.250087  1
  Rh  Rh23  1  0.177586  0.969710  0.960145  1
  Rh  Rh24  1  0.674107  0.638425  0.250272  1
  Rh  Rh25  1  0.298915  0.356173  0.749926  1
  Rh  Rh26  1  0.973214  0.421790  0.250299  1
  Rh  Rh27  1  0.676742  0.529733  0.540404  1
  Rh  Rh28  1  0.323712  0.468703  0.041180  1
  Rh  Rh29  1  0.323379  0.469173  0.458721  1
  Rh  Rh30  1  0.540708  0.897596  0.749889  1
  Rh  Rh31  1  0.676665  0.529626  0.959459  1
  Rh  Rh32  1  0.824949  0.030160  0.043018  1
  Rh  Rh33  1  0.799469  0.144142  0.749897  1
  Rh  Rh34  1  0.177124  0.969387  0.539655  1
  Rh  Rh35  1  0.219100  0.838286  0.250322  1
