# generated using pymatgen
data_LaThAlGa8Ir3
_symmetry_space_group_name_H-M   'P 1'
_cell_length_a   7.71172585
_cell_length_b   7.71049947
_cell_length_c   9.57085588
_cell_angle_alpha   89.96707024
_cell_angle_beta   89.98548025
_cell_angle_gamma   119.63924725
_symmetry_Int_Tables_number   1
_chemical_formula_structural   LaThAlGa8Ir3
_chemical_formula_sum   'La2 Th2 Al2 Ga16 Ir6'
_cell_volume   494.63248714
_cell_formula_units_Z   2
loop_
 _symmetry_equiv_pos_site_id
 _symmetry_equiv_pos_as_xyz
  1  'x, y, z'
loop_
 _atom_site_type_symbol
 _atom_site_label
 _atom_site_symmetry_multiplicity
 _atom_site_fract_x
 _atom_site_fract_y
 _atom_site_fract_z
 _atom_site_occupancy
  La  La0  1  0.669740  0.997251  0.250421  1
  La  La1  1  0.330260  0.002749  0.749579  1
  Th  Th2  1  0.998392  0.670291  0.250814  1
  Th  Th3  1  0.001608  0.329709  0.749186  1
  Al  Al4  1  0.665547  0.666517  0.048374  1
  Al  Al5  1  0.334453  0.333483  0.951626  1
  Ga  Ga6  1  0.132077  0.131508  0.249979  1
  Ga  Ga7  1  0.867923  0.868492  0.750021  1
  Ga  Ga8  1  0.001866  0.333805  0.079249  1
  Ga  Ga9  1  0.998134  0.666195  0.920751  1
  Ga  Ga10  1  0.996704  0.666721  0.580869  1
  Ga  Ga11  1  0.337218  0.005244  0.420596  1
  Ga  Ga12  1  0.003296  0.333279  0.419131  1
  Ga  Ga13  1  0.662782  0.994756  0.579404  1
  Ga  Ga14  1  0.662909  0.996349  0.922083  1
  Ga  Ga15  1  0.337091  0.003651  0.077917  1
  Ga  Ga16  1  0.335679  0.334333  0.560680  1
  Ga  Ga17  1  0.664321  0.665667  0.439320  1
  Ga  Ga18  1  0.344885  0.546028  0.249864  1
  Ga  Ga19  1  0.655115  0.453972  0.750136  1
  Ga  Ga20  1  0.546779  0.345267  0.249882  1
  Ga  Ga21  1  0.453221  0.654733  0.750118  1
  Ir  Ir22  1  0.671988  0.334255  0.999903  1
  Ir  Ir23  1  0.328012  0.665745  0.000097  1
  Ir  Ir24  1  0.324399  0.668957  0.499758  1
  Ir  Ir25  1  0.675601  0.331043  0.500242  1
  Ir  Ir26  1  0.000000  0.000000  0.000000  1
  Ir  Ir27  1  0.000000  0.000000  0.500000  1
