# generated using pymatgen
data_Ca7La(TbIr2)2
_symmetry_space_group_name_H-M   'P 1'
_cell_length_a   6.64163670
_cell_length_b   7.46514651
_cell_length_c   8.74680422
_cell_angle_alpha   96.81815039
_cell_angle_beta   112.79386379
_cell_angle_gamma   90.60365312
_symmetry_Int_Tables_number   1
_chemical_formula_structural   Ca7La(TbIr2)2
_chemical_formula_sum   'Ca7 La1 Tb2 Ir4'
_cell_volume   396.22046099
_cell_formula_units_Z   1
loop_
 _symmetry_equiv_pos_site_id
 _symmetry_equiv_pos_as_xyz
  1  'x, y, z'
loop_
 _atom_site_type_symbol
 _atom_site_label
 _atom_site_symmetry_multiplicity
 _atom_site_fract_x
 _atom_site_fract_y
 _atom_site_fract_z
 _atom_site_occupancy
  Ca  Ca0  1  0.800345  0.576687  0.821630  1
  Ca  Ca1  1  0.019957  0.082623  0.819658  1
  Ca  Ca2  1  0.196116  0.419141  0.173120  1
  Ca  Ca3  1  0.638307  0.819382  0.434832  1
  Ca  Ca4  1  0.205570  0.678201  0.567023  1
  Ca  Ca5  1  0.363480  0.182524  0.568302  1
  Ca  Ca6  1  0.796396  0.319641  0.434439  1
  La  La7  1  0.982201  0.915969  0.174457  1
  Tb  Tb8  1  0.431668  0.747596  0.997111  1
  Tb  Tb9  1  0.561885  0.250827  0.999931  1
  Ir  Ir10  1  0.814815  0.586459  0.207780  1
  Ir  Ir11  1  0.606255  0.926640  0.802088  1
  Ir  Ir12  1  0.194290  0.424427  0.791775  1
  Ir  Ir13  1  0.388715  0.069883  0.207857  1
