# generated using pymatgen
data_Li4Yb(GdGe)4
_symmetry_space_group_name_H-M   'P 1'
_cell_length_a   14.50825644
_cell_length_b   14.50825853
_cell_length_c   14.53605865
_cell_angle_alpha   95.55051605
_cell_angle_beta   96.09129248
_cell_angle_gamma   142.82323669
_symmetry_Int_Tables_number   1
_chemical_formula_structural   Li4Yb(GdGe)4
_chemical_formula_sum   'Li4 Yb1 Gd4 Ge4'
_cell_volume   1752.79975254
_cell_formula_units_Z   1
loop_
 _symmetry_equiv_pos_site_id
 _symmetry_equiv_pos_as_xyz
  1  'x, y, z'
loop_
 _atom_site_type_symbol
 _atom_site_label
 _atom_site_symmetry_multiplicity
 _atom_site_fract_x
 _atom_site_fract_y
 _atom_site_fract_z
 _atom_site_occupancy
  Li  Li0  1  0.592674  0.066155  0.658828  1
  Li  Li1  1  0.935254  0.584208  0.519462  1
  Li  Li2  1  0.068734  0.399399  0.468134  1
  Li  Li3  1  0.395814  0.926738  0.322553  1
  Yb  Yb4  1  0.814532  0.875905  0.690437  1
  Gd  Gd5  1  0.130866  0.819953  0.950819  1
  Gd  Gd6  1  0.178675  0.127065  0.305740  1
  Gd  Gd7  1  0.940930  0.156232  0.097162  1
  Gd  Gd8  1  0.499462  0.525599  0.025061  1
  Ge  Ge9  1  0.417079  0.220698  0.637778  1
  Ge  Ge10  1  0.538511  0.749323  0.287834  1
  Ge  Ge11  1  0.232385  0.610152  0.842537  1
  Ge  Ge12  1  0.755082  0.438573  0.193655  1
