# generated using pymatgen
data_Ba4Nd7TmSe16
_symmetry_space_group_name_H-M   'P 1'
_cell_length_a   4.32426800
_cell_length_b   13.02121732
_cell_length_c   15.50358500
_cell_angle_alpha   89.78076459
_cell_angle_beta   90.00000000
_cell_angle_gamma   90.00000000
_symmetry_Int_Tables_number   1
_chemical_formula_structural   Ba4Nd7TmSe16
_chemical_formula_sum   'Ba4 Nd7 Tm1 Se16'
_cell_volume   872.95758838
_cell_formula_units_Z   1
loop_
 _symmetry_equiv_pos_site_id
 _symmetry_equiv_pos_as_xyz
  1  'x, y, z'
loop_
 _atom_site_type_symbol
 _atom_site_label
 _atom_site_symmetry_multiplicity
 _atom_site_fract_x
 _atom_site_fract_y
 _atom_site_fract_z
 _atom_site_occupancy
  Ba  Ba0  1  0.250000  0.756950  0.338509  1
  Ba  Ba1  1  0.250000  0.257108  0.165308  1
  Ba  Ba2  1  0.750000  0.240415  0.658658  1
  Ba  Ba3  1  0.750000  0.743103  0.836880  1
  Nd  Nd4  1  0.250000  0.426665  0.392909  1
  Nd  Nd5  1  0.250000  0.933130  0.111716  1
  Nd  Nd6  1  0.750000  0.569634  0.608453  1
  Nd  Nd7  1  0.750000  0.070046  0.892012  1
  Nd  Nd8  1  0.250000  0.419820  0.899309  1
  Nd  Nd9  1  0.250000  0.923523  0.597889  1
  Nd  Nd10  1  0.750000  0.579208  0.101347  1
  Tm  Tm11  1  0.750000  0.077977  0.397865  1
  Se  Se12  1  0.250000  0.207504  0.825449  1
  Se  Se13  1  0.250000  0.709178  0.670682  1
  Se  Se14  1  0.750000  0.792917  0.174138  1
  Se  Se15  1  0.750000  0.285204  0.332133  1
  Se  Se16  1  0.250000  0.129667  0.516712  1
  Se  Se17  1  0.250000  0.630045  0.974322  1
  Se  Se18  1  0.750000  0.876285  0.469637  1
  Se  Se19  1  0.750000  0.369261  0.026568  1
  Se  Se20  1  0.250000  0.520724  0.218199  1
  Se  Se21  1  0.250000  0.027298  0.288050  1
  Se  Se22  1  0.750000  0.476824  0.782862  1
  Se  Se23  1  0.750000  0.977797  0.715802  1
  Se  Se24  1  0.250000  0.415447  0.580879  1
  Se  Se25  1  0.250000  0.916187  0.922457  1
  Se  Se26  1  0.750000  0.582616  0.420211  1
  Se  Se27  1  0.750000  0.085469  0.081048  1
