# generated using pymatgen
data_LiHo16In3IrPt3
_symmetry_space_group_name_H-M   'P 1'
_cell_length_a   9.63475950
_cell_length_b   9.63477190
_cell_length_c   9.64590855
_cell_angle_alpha   60.16353183
_cell_angle_beta   60.15858836
_cell_angle_gamma   60.07665696
_symmetry_Int_Tables_number   1
_chemical_formula_structural   LiHo16In3IrPt3
_chemical_formula_sum   'Li1 Ho16 In3 Ir1 Pt3'
_cell_volume   635.06126419
_cell_formula_units_Z   1
loop_
 _symmetry_equiv_pos_site_id
 _symmetry_equiv_pos_as_xyz
  1  'x, y, z'
loop_
 _atom_site_type_symbol
 _atom_site_label
 _atom_site_symmetry_multiplicity
 _atom_site_fract_x
 _atom_site_fract_y
 _atom_site_fract_z
 _atom_site_occupancy
  Li  Li0  1  0.426384  0.426381  0.427362  1
  Ho  Ho1  1  0.435167  0.435162  0.063917  1
  Ho  Ho2  1  0.646616  0.646611  0.058814  1
  Ho  Ho3  1  0.184765  0.810979  0.191013  1
  Ho  Ho4  1  0.062463  0.439546  0.060931  1
  Ho  Ho5  1  0.191672  0.807790  0.807130  1
  Ho  Ho6  1  0.063971  0.437204  0.433462  1
  Ho  Ho7  1  0.810972  0.184778  0.191010  1
  Ho  Ho8  1  0.652248  0.652247  0.648219  1
  Ho  Ho9  1  0.807814  0.191679  0.807116  1
  Ho  Ho10  1  0.188639  0.188628  0.809558  1
  Ho  Ho11  1  0.053025  0.650618  0.645638  1
  Ho  Ho12  1  0.439567  0.062453  0.060926  1
  Ho  Ho13  1  0.061411  0.061407  0.438015  1
  Ho  Ho14  1  0.650597  0.053044  0.645637  1
  Ho  Ho15  1  0.808323  0.808317  0.193576  1
  Ho  Ho16  1  0.437204  0.063963  0.433465  1
  In  In17  1  0.416520  0.416512  0.746838  1
  In  In18  1  0.415973  0.746658  0.417031  1
  In  In19  1  0.746661  0.415972  0.417046  1
  Ir  Ir20  1  0.858489  0.858520  0.426478  1
  Pt  Pt21  1  0.427748  0.857680  0.859645  1
  Pt  Pt22  1  0.856071  0.856100  0.857539  1
  Pt  Pt23  1  0.857701  0.427751  0.859636  1
