# generated using pymatgen
data_Tb2B(PdPt2)2
_symmetry_space_group_name_H-M   'P 1'
_cell_length_a   5.95242333
_cell_length_b   5.95242309
_cell_length_c   5.87038000
_cell_angle_alpha   60.45490483
_cell_angle_beta   60.45490612
_cell_angle_gamma   62.39143342
_symmetry_Int_Tables_number   1
_chemical_formula_structural   Tb2B(PdPt2)2
_chemical_formula_sum   'Tb2 B1 Pd2 Pt4'
_cell_volume   150.60549755
_cell_formula_units_Z   1
loop_
 _symmetry_equiv_pos_site_id
 _symmetry_equiv_pos_as_xyz
  1  'x, y, z'
loop_
 _atom_site_type_symbol
 _atom_site_label
 _atom_site_symmetry_multiplicity
 _atom_site_fract_x
 _atom_site_fract_y
 _atom_site_fract_z
 _atom_site_occupancy
  Tb  Tb0  1  0.255121  0.255121  0.250204  1
  Tb  Tb1  1  0.744880  0.744880  0.760444  1
  B  B2  1  0.500000  0.500000  0.479197  1
  Pd  Pd3  1  0.757663  0.242337  0.753251  1
  Pd  Pd4  1  0.242337  0.757663  0.753251  1
  Pt  Pt5  1  0.232444  0.767556  0.247469  1
  Pt  Pt6  1  0.767556  0.232444  0.247469  1
  Pt  Pt7  1  0.754423  0.754423  0.249935  1
  Pt  Pt8  1  0.245577  0.245577  0.758781  1
