# generated using pymatgen
data_La2Nd3Y3(HgIr)2
_symmetry_space_group_name_H-M   'P 1'
_cell_length_a   9.86314960
_cell_length_b   9.86315138
_cell_length_c   9.86315000
_cell_angle_alpha   60.00000464
_cell_angle_beta   59.99999866
_cell_angle_gamma   60.00000508
_symmetry_Int_Tables_number   1
_chemical_formula_structural   La2Nd3Y3(HgIr)2
_chemical_formula_sum   'La4 Nd6 Y6 Hg4 Ir4'
_cell_volume   678.47208987
_cell_formula_units_Z   2
loop_
 _symmetry_equiv_pos_site_id
 _symmetry_equiv_pos_as_xyz
  1  'x, y, z'
loop_
 _atom_site_type_symbol
 _atom_site_label
 _atom_site_symmetry_multiplicity
 _atom_site_fract_x
 _atom_site_fract_y
 _atom_site_fract_z
 _atom_site_occupancy
  La  La0  1  0.351361  0.351361  0.351361  1
  La  La1  1  0.351361  0.351361  0.945917  1
  La  La2  1  0.351361  0.945917  0.351361  1
  La  La3  1  0.945917  0.351361  0.351361  1
  Nd  Nd4  1  0.939079  0.560921  0.560921  1
  Nd  Nd5  1  0.560921  0.939079  0.939079  1
  Nd  Nd6  1  0.560921  0.939079  0.560921  1
  Nd  Nd7  1  0.939079  0.560921  0.939079  1
  Nd  Nd8  1  0.560921  0.560921  0.939079  1
  Nd  Nd9  1  0.939079  0.939079  0.560921  1
  Y  Y10  1  0.813673  0.186327  0.186327  1
  Y  Y11  1  0.186327  0.813673  0.813673  1
  Y  Y12  1  0.186327  0.813673  0.186327  1
  Y  Y13  1  0.813673  0.186327  0.813673  1
  Y  Y14  1  0.186327  0.186327  0.813673  1
  Y  Y15  1  0.813673  0.813673  0.186327  1
  Hg  Hg16  1  0.584094  0.584094  0.584094  1
  Hg  Hg17  1  0.584094  0.584094  0.247716  1
  Hg  Hg18  1  0.584094  0.247716  0.584094  1
  Hg  Hg19  1  0.247716  0.584094  0.584094  1
  Ir  Ir20  1  0.140060  0.140060  0.140060  1
  Ir  Ir21  1  0.140060  0.140060  0.579819  1
  Ir  Ir22  1  0.140060  0.579819  0.140060  1
  Ir  Ir23  1  0.579819  0.140060  0.140060  1
