# generated using pymatgen
data_PrGd2Th3In10
_symmetry_space_group_name_H-M   'P 1'
_cell_length_a   6.56865517
_cell_length_b   6.56865523
_cell_length_c   10.32408700
_cell_angle_alpha   89.94373047
_cell_angle_beta   89.94373047
_cell_angle_gamma   102.42583541
_symmetry_Int_Tables_number   1
_chemical_formula_structural   PrGd2Th3In10
_chemical_formula_sum   'Pr1 Gd2 Th3 In10'
_cell_volume   435.02058849
_cell_formula_units_Z   1
loop_
 _symmetry_equiv_pos_site_id
 _symmetry_equiv_pos_as_xyz
  1  'x, y, z'
loop_
 _atom_site_type_symbol
 _atom_site_label
 _atom_site_symmetry_multiplicity
 _atom_site_fract_x
 _atom_site_fract_y
 _atom_site_fract_z
 _atom_site_occupancy
  Pr  Pr0  1  0.705440  0.294560  0.000000  1
  Gd  Gd1  1  0.129865  0.128714  0.748493  1
  Gd  Gd2  1  0.871286  0.870135  0.251507  1
  Th  Th3  1  0.705290  0.294710  0.500000  1
  Th  Th4  1  0.293583  0.706417  0.000000  1
  Th  Th5  1  0.294146  0.705854  0.500000  1
  In  In6  1  0.508386  0.508601  0.749999  1
  In  In7  1  0.491399  0.491614  0.250001  1
  In  In8  1  0.810360  0.810649  0.548070  1
  In  In9  1  0.189351  0.189640  0.451930  1
  In  In10  1  0.809514  0.808868  0.953406  1
  In  In11  1  0.191132  0.190486  0.046594  1
  In  In12  1  0.991723  0.565591  0.749595  1
  In  In13  1  0.434409  0.008277  0.250405  1
  In  In14  1  0.008576  0.434459  0.249839  1
  In  In15  1  0.565541  0.991424  0.750161  1
