# generated using pymatgen
data_Tb3Ho7In8IrPd3
_symmetry_space_group_name_H-M   'P 1'
_cell_length_a   3.63331200
_cell_length_b   8.12643087
_cell_length_c   18.27430960
_cell_angle_alpha   90.23022386
_cell_angle_beta   90.00000000
_cell_angle_gamma   90.00000000
_symmetry_Int_Tables_number   1
_chemical_formula_structural   Tb3Ho7In8IrPd3
_chemical_formula_sum   'Tb3 Ho7 In8 Ir1 Pd3'
_cell_volume   539.56032867
_cell_formula_units_Z   1
loop_
 _symmetry_equiv_pos_site_id
 _symmetry_equiv_pos_as_xyz
  1  'x, y, z'
loop_
 _atom_site_type_symbol
 _atom_site_label
 _atom_site_symmetry_multiplicity
 _atom_site_fract_x
 _atom_site_fract_y
 _atom_site_fract_z
 _atom_site_occupancy
  Tb  Tb0  1  0.000000  0.500820  0.499815  1
  Tb  Tb1  1  0.000000  0.999734  0.000496  1
  Tb  Tb2  1  0.000000  0.729146  0.277970  1
  Ho  Ho3  1  0.000000  0.260810  0.719087  1
  Ho  Ho4  1  0.000000  0.760116  0.780342  1
  Ho  Ho5  1  0.000000  0.253483  0.219646  1
  Ho  Ho6  1  0.000000  0.613931  0.087036  1
  Ho  Ho7  1  0.000000  0.383072  0.916266  1
  Ho  Ho8  1  0.000000  0.882938  0.583676  1
  Ho  Ho9  1  0.000000  0.117336  0.415413  1
  In  In10  1  0.500000  0.707360  0.932428  1
  In  In11  1  0.500000  0.292255  0.067946  1
  In  In12  1  0.500000  0.793513  0.432307  1
  In  In13  1  0.500000  0.206712  0.567415  1
  In  In14  1  0.500000  0.580404  0.650156  1
  In  In15  1  0.500000  0.420393  0.350944  1
  In  In16  1  0.500000  0.923468  0.150353  1
  In  In17  1  0.500000  0.080128  0.849589  1
  Ir  Ir18  1  0.500000  0.518095  0.195263  1
  Pd  Pd19  1  0.500000  0.476547  0.803996  1
  Pd  Pd20  1  0.500000  0.976820  0.695932  1
  Pd  Pd21  1  0.500000  0.022923  0.303925  1
