# generated using pymatgen
data_Ho8Er12Si15Hg
_symmetry_space_group_name_H-M   'P 1'
_cell_length_a   7.37284736
_cell_length_b   7.64742716
_cell_length_c   14.56968335
_cell_angle_alpha   89.90671389
_cell_angle_beta   89.44227858
_cell_angle_gamma   90.10702737
_symmetry_Int_Tables_number   1
_chemical_formula_structural   Ho8Er12Si15Hg
_chemical_formula_sum   'Ho8 Er12 Si15 Hg1'
_cell_volume   821.44555382
_cell_formula_units_Z   1
loop_
 _symmetry_equiv_pos_site_id
 _symmetry_equiv_pos_as_xyz
  1  'x, y, z'
loop_
 _atom_site_type_symbol
 _atom_site_label
 _atom_site_symmetry_multiplicity
 _atom_site_fract_x
 _atom_site_fract_y
 _atom_site_fract_z
 _atom_site_occupancy
  Ho  Ho0  1  0.019329  0.180012  0.098353  1
  Ho  Ho1  1  0.980176  0.820932  0.903567  1
  Ho  Ho2  1  0.480418  0.682292  0.903415  1
  Ho  Ho3  1  0.985510  0.828741  0.598992  1
  Ho  Ho4  1  0.518372  0.317833  0.097390  1
  Ho  Ho5  1  0.011500  0.173757  0.397999  1
  Ho  Ho6  1  0.515654  0.316523  0.399036  1
  Ho  Ho7  1  0.491106  0.688063  0.600437  1
  Er  Er8  1  0.162624  0.510239  0.752383  1
  Er  Er9  1  0.837470  0.489915  0.251010  1
  Er  Er10  1  0.337321  0.008602  0.249930  1
  Er  Er11  1  0.665356  0.988847  0.750543  1
  Er  Er12  1  0.340200  0.169069  0.625956  1
  Er  Er13  1  0.664206  0.823369  0.376631  1
  Er  Er14  1  0.167227  0.678802  0.372813  1
  Er  Er15  1  0.671607  0.820991  0.122312  1
  Er  Er16  1  0.827434  0.325399  0.624014  1
  Er  Er17  1  0.327584  0.178470  0.877863  1
  Er  Er18  1  0.826473  0.319981  0.877858  1
  Er  Er19  1  0.171679  0.679525  0.122980  1
  Si  Si20  1  0.036589  0.111105  0.752287  1
  Si  Si21  1  0.963266  0.893289  0.247678  1
  Si  Si22  1  0.466435  0.604982  0.247819  1
  Si  Si23  1  0.533653  0.395687  0.751999  1
  Si  Si24  1  0.279100  0.873055  0.752519  1
  Si  Si25  1  0.719121  0.127639  0.247580  1
  Si  Si26  1  0.220219  0.369437  0.247412  1
  Si  Si27  1  0.781722  0.628930  0.753360  1
  Si  Si28  1  0.832270  0.531460  0.458191  1
  Si  Si29  1  0.331198  0.967080  0.459204  1
  Si  Si30  1  0.845892  0.531113  0.038561  1
  Si  Si31  1  0.667118  0.034070  0.538703  1
  Si  Si32  1  0.152257  0.468224  0.962105  1
  Si  Si33  1  0.653864  0.030038  0.960437  1
  Si  Si34  1  0.344965  0.969916  0.039999  1
  Hg  Hg35  1  0.171085  0.462610  0.538663  1
