# generated using pymatgen
data_Ta3Ti4BeRu8
_symmetry_space_group_name_H-M   'P 1'
_cell_length_a   6.19035600
_cell_length_b   6.19069601
_cell_length_c   6.17360900
_cell_angle_alpha   89.99946238
_cell_angle_beta   89.99904528
_cell_angle_gamma   90.00069403
_symmetry_Int_Tables_number   1
_chemical_formula_structural   Ta3Ti4BeRu8
_chemical_formula_sum   'Ta3 Ti4 Be1 Ru8'
_cell_volume   236.58882349
_cell_formula_units_Z   1
loop_
 _symmetry_equiv_pos_site_id
 _symmetry_equiv_pos_as_xyz
  1  'x, y, z'
loop_
 _atom_site_type_symbol
 _atom_site_label
 _atom_site_symmetry_multiplicity
 _atom_site_fract_x
 _atom_site_fract_y
 _atom_site_fract_z
 _atom_site_occupancy
  Ta  Ta0  1  0.250050  0.750003  0.999993  1
  Ta  Ta1  1  0.249949  0.750002  0.499997  1
  Ta  Ta2  1  0.750042  0.249998  0.500015  1
  Ti  Ti3  1  0.750017  0.750005  0.000081  1
  Ti  Ti4  1  0.250012  0.250000  0.499896  1
  Ti  Ti5  1  0.749984  0.750002  0.500094  1
  Ti  Ti6  1  0.250024  0.250001  0.999922  1
  Be  Be7  1  0.749876  0.249974  0.999995  1
  Ru  Ru8  1  0.996261  0.003755  0.246414  1
  Ru  Ru9  1  0.996263  0.496241  0.246417  1
  Ru  Ru10  1  0.503769  0.003763  0.246456  1
  Ru  Ru11  1  0.503774  0.496250  0.246452  1
  Ru  Ru12  1  0.503742  0.496242  0.753544  1
  Ru  Ru13  1  0.503743  0.003753  0.753545  1
  Ru  Ru14  1  0.996244  0.496259  0.753590  1
  Ru  Ru15  1  0.996251  0.003754  0.753584  1
