# generated using pymatgen
data_Ba2HfPaBi5
_symmetry_space_group_name_H-M   'P 1'
_cell_length_a   9.78573300
_cell_length_b   9.92653218
_cell_length_c   6.54230200
_cell_angle_alpha   90.00000000
_cell_angle_beta   90.00000000
_cell_angle_gamma   119.53188840
_symmetry_Int_Tables_number   1
_chemical_formula_structural   Ba2HfPaBi5
_chemical_formula_sum   'Ba4 Hf2 Pa2 Bi10'
_cell_volume   552.94436783
_cell_formula_units_Z   2
loop_
 _symmetry_equiv_pos_site_id
 _symmetry_equiv_pos_as_xyz
  1  'x, y, z'
loop_
 _atom_site_type_symbol
 _atom_site_label
 _atom_site_symmetry_multiplicity
 _atom_site_fract_x
 _atom_site_fract_y
 _atom_site_fract_z
 _atom_site_occupancy
  Ba  Ba0  1  0.983256  0.604261  0.250000  1
  Ba  Ba1  1  0.016744  0.395739  0.750000  1
  Ba  Ba2  1  0.378997  0.395739  0.250000  1
  Ba  Ba3  1  0.621003  0.604261  0.750000  1
  Hf  Hf4  1  0.000000  0.000000  0.000000  1
  Hf  Hf5  1  0.000000  0.000000  0.500000  1
  Pa  Pa6  1  0.617427  0.000000  0.250000  1
  Pa  Pa7  1  0.382573  0.000000  0.750000  1
  Bi  Bi8  1  0.265600  0.000000  0.250000  1
  Bi  Bi9  1  0.734400  0.000000  0.750000  1
  Bi  Bi10  1  0.981962  0.242716  0.250000  1
  Bi  Bi11  1  0.018038  0.757284  0.750000  1
  Bi  Bi12  1  0.739246  0.757284  0.250000  1
  Bi  Bi13  1  0.260754  0.242716  0.750000  1
  Bi  Bi14  1  0.352163  0.704325  0.000000  1
  Bi  Bi15  1  0.647837  0.295675  0.000000  1
  Bi  Bi16  1  0.647837  0.295675  0.500000  1
  Bi  Bi17  1  0.352163  0.704325  0.500000  1
