# generated using pymatgen
data_Tm4Al13Cu9
_symmetry_space_group_name_H-M   'P 1'
_cell_length_a   11.15609600
_cell_length_b   11.15609590
_cell_length_c   3.97573000
_cell_angle_alpha   90.00000000
_cell_angle_beta   90.00000000
_cell_angle_gamma   119.99999438
_symmetry_Int_Tables_number   1
_chemical_formula_structural   Tm4Al13Cu9
_chemical_formula_sum   'Tm4 Al13 Cu9'
_cell_volume   428.52091217
_cell_formula_units_Z   1
loop_
 _symmetry_equiv_pos_site_id
 _symmetry_equiv_pos_as_xyz
  1  'x, y, z'
loop_
 _atom_site_type_symbol
 _atom_site_label
 _atom_site_symmetry_multiplicity
 _atom_site_fract_x
 _atom_site_fract_y
 _atom_site_fract_z
 _atom_site_occupancy
  Tm  Tm0  1  0.203407  0.796593  0.500000  1
  Tm  Tm1  1  0.593186  0.796593  0.500000  1
  Tm  Tm2  1  0.203407  0.406814  0.500000  1
  Tm  Tm3  1  0.666667  0.333333  0.000000  1
  Al  Al4  1  0.949013  0.293306  0.000000  1
  Al  Al5  1  0.706694  0.655706  0.000000  1
  Al  Al6  1  0.949013  0.655706  0.000000  1
  Al  Al7  1  0.344294  0.050987  0.000000  1
  Al  Al8  1  0.171865  0.085932  0.500000  1
  Al  Al9  1  0.914068  0.828135  0.500000  1
  Al  Al10  1  0.706694  0.050987  0.000000  1
  Al  Al11  1  0.529691  0.059381  0.500000  1
  Al  Al12  1  0.914068  0.085932  0.500000  1
  Al  Al13  1  0.344294  0.293306  0.000000  1
  Al  Al14  1  0.529691  0.470309  0.500000  1
  Al  Al15  1  0.940619  0.470309  0.500000  1
  Al  Al16  1  0.333333  0.666667  0.000000  1
  Cu  Cu17  1  0.454605  0.545395  0.000000  1
  Cu  Cu18  1  0.837157  0.918579  0.000000  1
  Cu  Cu19  1  0.454605  0.909207  0.000000  1
  Cu  Cu20  1  0.081421  0.162843  0.000000  1
  Cu  Cu21  1  0.081421  0.918579  0.000000  1
  Cu  Cu22  1  0.784356  0.568711  0.500000  1
  Cu  Cu23  1  0.090793  0.545395  0.000000  1
  Cu  Cu24  1  0.784356  0.215644  0.500000  1
  Cu  Cu25  1  0.431289  0.215644  0.500000  1
