# generated using pymatgen
data_La4As2PO4
_symmetry_space_group_name_H-M   'P 1'
_cell_length_a   7.23233710
_cell_length_b   7.23233774
_cell_length_c   8.18640100
_cell_angle_alpha   90.00000000
_cell_angle_beta   90.00000000
_cell_angle_gamma   146.72174217
_symmetry_Int_Tables_number   1
_chemical_formula_structural   La4As2PO4
_chemical_formula_sum   'La4 As2 P1 O4'
_cell_volume   234.95775092
_cell_formula_units_Z   1
loop_
 _symmetry_equiv_pos_site_id
 _symmetry_equiv_pos_as_xyz
  1  'x, y, z'
loop_
 _atom_site_type_symbol
 _atom_site_label
 _atom_site_symmetry_multiplicity
 _atom_site_fract_x
 _atom_site_fract_y
 _atom_site_fract_z
 _atom_site_occupancy
  La  La0  1  0.319851  0.680149  0.761227  1
  La  La1  1  0.319851  0.680149  0.238773  1
  La  La2  1  0.987474  0.012526  0.500000  1
  La  La3  1  0.000379  0.999621  0.000000  1
  As  As4  1  0.627872  0.372128  0.255416  1
  As  As5  1  0.627872  0.372128  0.744584  1
  P  P6  1  0.698078  0.301922  0.000000  1
  O  O7  1  0.397366  0.602634  0.500000  1
  O  O8  1  0.413207  0.586793  0.000000  1
  O  O9  1  0.904630  0.095370  0.749779  1
  O  O10  1  0.904630  0.095370  0.250221  1
