# generated using pymatgen
data_Dy2CrSiO8
_symmetry_space_group_name_H-M   'P 1'
_cell_length_a   5.90523669
_cell_length_b   5.90523764
_cell_length_c   5.90523617
_cell_angle_alpha   105.95841156
_cell_angle_beta   105.95842723
_cell_angle_gamma   116.75141989
_symmetry_Int_Tables_number   1
_chemical_formula_structural   Dy2CrSiO8
_chemical_formula_sum   'Dy2 Cr1 Si1 O8'
_cell_volume   156.57947521
_cell_formula_units_Z   1
loop_
 _symmetry_equiv_pos_site_id
 _symmetry_equiv_pos_as_xyz
  1  'x, y, z'
loop_
 _atom_site_type_symbol
 _atom_site_label
 _atom_site_symmetry_multiplicity
 _atom_site_fract_x
 _atom_site_fract_y
 _atom_site_fract_z
 _atom_site_occupancy
  Dy  Dy0  1  0.500000  0.500000  0.000000  1
  Dy  Dy1  1  0.750000  0.250000  0.500000  1
  Cr  Cr2  1  0.000000  0.000000  0.000000  1
  Si  Si3  1  0.250000  0.750000  0.500000  1
  O  O4  1  0.833855  0.015895  0.182040  1
  O  O5  1  0.898025  0.578228  0.319798  1
  O  O6  1  0.258431  0.578228  0.680202  1
  O  O7  1  0.833855  0.651815  0.817960  1
  O  O8  1  0.348185  0.166145  0.182040  1
  O  O9  1  0.421772  0.741569  0.319798  1
  O  O10  1  0.421772  0.101975  0.680202  1
  O  O11  1  0.984105  0.166145  0.817960  1
