# generated using pymatgen
data_Tm6Al24Ir3Os5
_symmetry_space_group_name_H-M   'P 1'
_cell_length_a   8.75689286
_cell_length_b   8.78054309
_cell_length_c   9.52481283
_cell_angle_alpha   89.77510829
_cell_angle_beta   90.22383912
_cell_angle_gamma   119.61733574
_symmetry_Int_Tables_number   1
_chemical_formula_structural   Tm6Al24Ir3Os5
_chemical_formula_sum   'Tm6 Al24 Ir3 Os5'
_cell_volume   636.67205497
_cell_formula_units_Z   1
loop_
 _symmetry_equiv_pos_site_id
 _symmetry_equiv_pos_as_xyz
  1  'x, y, z'
loop_
 _atom_site_type_symbol
 _atom_site_label
 _atom_site_symmetry_multiplicity
 _atom_site_fract_x
 _atom_site_fract_y
 _atom_site_fract_z
 _atom_site_occupancy
  Tm  Tm0  1  0.192951  0.387383  0.251304  1
  Tm  Tm1  1  0.807049  0.612617  0.748696  1
  Tm  Tm2  1  0.609184  0.807449  0.251714  1
  Tm  Tm3  1  0.390816  0.192551  0.748286  1
  Tm  Tm4  1  0.197048  0.809130  0.249723  1
  Tm  Tm5  1  0.802952  0.190870  0.750277  1
  Al  Al6  1  0.333860  0.668121  0.025335  1
  Al  Al7  1  0.666140  0.331879  0.974665  1
  Al  Al8  1  0.665797  0.332491  0.523986  1
  Al  Al9  1  0.334203  0.667509  0.476014  1
  Al  Al10  1  0.165603  0.326617  0.577455  1
  Al  Al11  1  0.834397  0.673383  0.422545  1
  Al  Al12  1  0.672513  0.834774  0.576931  1
  Al  Al13  1  0.836242  0.674175  0.077386  1
  Al  Al14  1  0.327487  0.165226  0.423069  1
  Al  Al15  1  0.163758  0.325825  0.922614  1
  Al  Al16  1  0.165043  0.837206  0.576492  1
  Al  Al17  1  0.326755  0.163377  0.076665  1
  Al  Al18  1  0.834957  0.162794  0.423508  1
  Al  Al19  1  0.673245  0.836623  0.923335  1
  Al  Al20  1  0.834999  0.162649  0.076893  1
  Al  Al21  1  0.165001  0.837351  0.923107  1
  Al  Al22  1  0.561183  0.124588  0.249543  1
  Al  Al23  1  0.438817  0.875412  0.750457  1
  Al  Al24  1  0.876899  0.439696  0.249561  1
  Al  Al25  1  0.123101  0.560304  0.750439  1
  Al  Al26  1  0.561096  0.438714  0.250498  1
  Al  Al27  1  0.438904  0.561286  0.749502  1
  Al  Al28  1  0.999430  0.001489  0.250014  1
  Al  Al29  1  0.000570  0.998511  0.749986  1
  Ir  Ir30  1  0.000000  0.500000  0.000000  1
  Ir  Ir31  1  0.500000  0.500000  0.000000  1
  Ir  Ir32  1  0.000000  0.500000  0.500000  1
  Os  Os33  1  0.500000  0.000000  0.000000  1
  Os  Os34  1  0.500000  0.000000  0.500000  1
  Os  Os35  1  0.500000  0.500000  0.500000  1
  Os  Os36  1  0.000000  0.000000  0.000000  1
  Os  Os37  1  0.000000  0.000000  0.500000  1
