# generated using pymatgen
data_Dy3Tm3Al24(Ir3Ru)2
_symmetry_space_group_name_H-M   'P 1'
_cell_length_a   8.80848600
_cell_length_b   8.80848544
_cell_length_c   9.47374200
_cell_angle_alpha   90.00000000
_cell_angle_beta   90.00000000
_cell_angle_gamma   120.00000210
_symmetry_Int_Tables_number   1
_chemical_formula_structural   Dy3Tm3Al24(Ir3Ru)2
_chemical_formula_sum   'Dy3 Tm3 Al24 Ir6 Ru2'
_cell_volume   636.58248490
_cell_formula_units_Z   1
loop_
 _symmetry_equiv_pos_site_id
 _symmetry_equiv_pos_as_xyz
  1  'x, y, z'
loop_
 _atom_site_type_symbol
 _atom_site_label
 _atom_site_symmetry_multiplicity
 _atom_site_fract_x
 _atom_site_fract_y
 _atom_site_fract_z
 _atom_site_occupancy
  Dy  Dy0  1  0.807221  0.192779  0.750000  1
  Dy  Dy1  1  0.807221  0.614442  0.750000  1
  Dy  Dy2  1  0.385558  0.192779  0.750000  1
  Tm  Tm3  1  0.194146  0.805854  0.250000  1
  Tm  Tm4  1  0.194146  0.388291  0.250000  1
  Tm  Tm5  1  0.611709  0.805854  0.250000  1
  Al  Al6  1  0.562157  0.437843  0.250000  1
  Al  Al7  1  0.562157  0.124314  0.250000  1
  Al  Al8  1  0.875686  0.437843  0.250000  1
  Al  Al9  1  0.437382  0.562618  0.750000  1
  Al  Al10  1  0.437382  0.874763  0.750000  1
  Al  Al11  1  0.125237  0.562618  0.750000  1
  Al  Al12  1  0.325629  0.162815  0.423346  1
  Al  Al13  1  0.837185  0.162815  0.423346  1
  Al  Al14  1  0.837185  0.674371  0.423346  1
  Al  Al15  1  0.674102  0.837051  0.575603  1
  Al  Al16  1  0.162949  0.837051  0.575603  1
  Al  Al17  1  0.162949  0.325898  0.575603  1
  Al  Al18  1  0.674102  0.837051  0.924397  1
  Al  Al19  1  0.162949  0.837051  0.924397  1
  Al  Al20  1  0.162949  0.325898  0.924397  1
  Al  Al21  1  0.325629  0.162815  0.076654  1
  Al  Al22  1  0.837185  0.162815  0.076654  1
  Al  Al23  1  0.837185  0.674371  0.076654  1
  Al  Al24  1  0.666667  0.333333  0.528780  1
  Al  Al25  1  0.333333  0.666667  0.469970  1
  Al  Al26  1  0.333333  0.666667  0.030030  1
  Al  Al27  1  0.666667  0.333333  0.971220  1
  Al  Al28  1  0.000000  0.000000  0.250000  1
  Al  Al29  1  0.000000  0.000000  0.750000  1
  Ir  Ir30  1  0.499603  0.500397  0.499297  1
  Ir  Ir31  1  0.499603  0.999207  0.499297  1
  Ir  Ir32  1  0.000793  0.500397  0.499297  1
  Ir  Ir33  1  0.499603  0.500397  0.000703  1
  Ir  Ir34  1  0.499603  0.999207  0.000703  1
  Ir  Ir35  1  0.000793  0.500397  0.000703  1
  Ru  Ru36  1  0.000000  0.000000  0.499997  1
  Ru  Ru37  1  0.000000  0.000000  0.000003  1
