# generated using pymatgen
data_Nd4Y5HoSi8
_symmetry_space_group_name_H-M   'P 1'
_cell_length_a   7.77004102
_cell_length_b   7.77014800
_cell_length_c   14.43178204
_cell_angle_alpha   90.00000000
_cell_angle_beta   89.99119038
_cell_angle_gamma   90.00000000
_symmetry_Int_Tables_number   1
_chemical_formula_structural   Nd4Y5HoSi8
_chemical_formula_sum   'Nd8 Y10 Ho2 Si16'
_cell_volume   871.30971995
_cell_formula_units_Z   2
loop_
 _symmetry_equiv_pos_site_id
 _symmetry_equiv_pos_as_xyz
  1  'x, y, z'
loop_
 _atom_site_type_symbol
 _atom_site_label
 _atom_site_symmetry_multiplicity
 _atom_site_fract_x
 _atom_site_fract_y
 _atom_site_fract_z
 _atom_site_occupancy
  Nd  Nd0  1  0.638950  0.991914  0.457585  1
  Nd  Nd1  1  0.360440  0.007842  0.956337  1
  Nd  Nd2  1  0.992334  0.639116  0.543364  1
  Nd  Nd3  1  0.491838  0.860560  0.207342  1
  Nd  Nd4  1  0.507666  0.139116  0.706636  1
  Nd  Nd5  1  0.861050  0.491914  0.792415  1
  Nd  Nd6  1  0.139560  0.507842  0.293663  1
  Nd  Nd7  1  0.008162  0.360560  0.042658  1
  Y  Y8  1  0.490373  0.361974  0.124593  1
  Y  Y9  1  0.990533  0.137668  0.625411  1
  Y  Y10  1  0.862226  0.009868  0.873836  1
  Y  Y11  1  0.137900  0.990756  0.375362  1
  Y  Y12  1  0.509467  0.637668  0.624589  1
  Y  Y13  1  0.362100  0.490756  0.874638  1
  Y  Y14  1  0.637774  0.509868  0.376164  1
  Y  Y15  1  0.009627  0.861974  0.125407  1
  Y  Y16  1  0.816523  0.183248  0.250406  1
  Y  Y17  1  0.683477  0.683248  0.999594  1
  Ho  Ho18  1  0.317012  0.316804  0.500375  1
  Ho  Ho19  1  0.182988  0.816804  0.749625  1
  Si  Si20  1  0.289839  0.934882  0.561736  1
  Si  Si21  1  0.710205  0.065519  0.060758  1
  Si  Si22  1  0.935349  0.290242  0.439397  1
  Si  Si23  1  0.434095  0.210543  0.311845  1
  Si  Si24  1  0.564651  0.790242  0.810603  1
  Si  Si25  1  0.210161  0.434882  0.688264  1
  Si  Si26  1  0.789795  0.565519  0.189242  1
  Si  Si27  1  0.065905  0.710543  0.938155  1
  Si  Si28  1  0.798340  0.844056  0.690371  1
  Si  Si29  1  0.202063  0.155560  0.191011  1
  Si  Si30  1  0.844558  0.797848  0.309880  1
  Si  Si31  1  0.343939  0.701602  0.441263  1
  Si  Si32  1  0.655442  0.297848  0.940120  1
  Si  Si33  1  0.701660  0.344056  0.559629  1
  Si  Si34  1  0.297937  0.655560  0.058989  1
  Si  Si35  1  0.156061  0.201602  0.808737  1
