# generated using pymatgen
data_DyHo2Hf3(SnRh)6
_symmetry_space_group_name_H-M   'P 1'
_cell_length_a   7.47347003
_cell_length_b   7.47213637
_cell_length_c   7.51051700
_cell_angle_alpha   90.00000000
_cell_angle_beta   90.00000000
_cell_angle_gamma   119.99501553
_symmetry_Int_Tables_number   1
_chemical_formula_structural   DyHo2Hf3(SnRh)6
_chemical_formula_sum   'Dy1 Ho2 Hf3 Sn6 Rh6'
_cell_volume   363.23640019
_cell_formula_units_Z   1
loop_
 _symmetry_equiv_pos_site_id
 _symmetry_equiv_pos_as_xyz
  1  'x, y, z'
loop_
 _atom_site_type_symbol
 _atom_site_label
 _atom_site_symmetry_multiplicity
 _atom_site_fract_x
 _atom_site_fract_y
 _atom_site_fract_z
 _atom_site_occupancy
  Dy  Dy0  1  0.999705  0.405879  0.750000  1
  Ho  Ho1  1  0.594246  0.593962  0.750000  1
  Ho  Ho2  1  0.406053  0.000310  0.750000  1
  Hf  Hf3  1  0.997999  0.392489  0.250000  1
  Hf  Hf4  1  0.607511  0.605505  0.250000  1
  Hf  Hf5  1  0.394486  0.002000  0.250000  1
  Sn  Sn6  1  0.266108  0.267501  0.493744  1
  Sn  Sn7  1  0.001514  0.734113  0.493626  1
  Sn  Sn8  1  0.001514  0.734113  0.006374  1
  Sn  Sn9  1  0.732385  0.998368  0.493754  1
  Sn  Sn10  1  0.732385  0.998368  0.006246  1
  Sn  Sn11  1  0.266108  0.267501  0.006256  1
  Rh  Rh12  1  0.333450  0.666755  0.459568  1
  Rh  Rh13  1  0.666544  0.333305  0.463002  1
  Rh  Rh14  1  0.333450  0.666755  0.040432  1
  Rh  Rh15  1  0.000000  0.999790  0.750000  1
  Rh  Rh16  1  0.999999  0.999982  0.250000  1
  Rh  Rh17  1  0.666544  0.333305  0.036998  1
