# generated using pymatgen
data_Zr3Zn3CoNi2
_symmetry_space_group_name_H-M   'P 1'
_cell_length_a   6.91850900
_cell_length_b   6.91850877
_cell_length_c   3.43375700
_cell_angle_alpha   90.00000000
_cell_angle_beta   90.00000000
_cell_angle_gamma   120.00000586
_symmetry_Int_Tables_number   1
_chemical_formula_structural   Zr3Zn3CoNi2
_chemical_formula_sum   'Zr3 Zn3 Co1 Ni2'
_cell_volume   142.33941285
_cell_formula_units_Z   1
loop_
 _symmetry_equiv_pos_site_id
 _symmetry_equiv_pos_as_xyz
  1  'x, y, z'
loop_
 _atom_site_type_symbol
 _atom_site_label
 _atom_site_symmetry_multiplicity
 _atom_site_fract_x
 _atom_site_fract_y
 _atom_site_fract_z
 _atom_site_occupancy
  Zr  Zr0  1  0.402907  0.990997  0.500000  1
  Zr  Zr1  1  0.009003  0.411911  0.500000  1
  Zr  Zr2  1  0.588089  0.597093  0.500000  1
  Zn  Zn3  1  0.742985  0.002263  0.000000  1
  Zn  Zn4  1  0.997737  0.740722  0.000000  1
  Zn  Zn5  1  0.259278  0.257015  0.000000  1
  Co  Co6  1  0.333333  0.666667  0.000000  1
  Ni  Ni7  1  0.666667  0.333333  0.000000  1
  Ni  Ni8  1  0.000000  0.000000  0.500000  1
