# generated using pymatgen
data_Tm2Ni2B6Rh
_symmetry_space_group_name_H-M   'P 1'
_cell_length_a   3.46128100
_cell_length_b   5.83668794
_cell_length_c   5.83668829
_cell_angle_alpha   94.85904716
_cell_angle_beta   90.00000000
_cell_angle_gamma   90.00000000
_symmetry_Int_Tables_number   1
_chemical_formula_structural   Tm2Ni2B6Rh
_chemical_formula_sum   'Tm2 Ni2 B6 Rh1'
_cell_volume   117.49143500
_cell_formula_units_Z   1
loop_
 _symmetry_equiv_pos_site_id
 _symmetry_equiv_pos_as_xyz
  1  'x, y, z'
loop_
 _atom_site_type_symbol
 _atom_site_label
 _atom_site_symmetry_multiplicity
 _atom_site_fract_x
 _atom_site_fract_y
 _atom_site_fract_z
 _atom_site_occupancy
  Tm  Tm0  1  0.000000  0.274554  0.725446  1
  Tm  Tm1  1  0.000000  0.725446  0.274554  1
  Ni  Ni2  1  0.000000  0.763168  0.763168  1
  Ni  Ni3  1  0.000000  0.236832  0.236832  1
  B  B4  1  0.500000  0.910832  0.609276  1
  B  B5  1  0.500000  0.089168  0.390724  1
  B  B6  1  0.500000  0.609276  0.910832  1
  B  B7  1  0.500000  0.390724  0.089168  1
  B  B8  1  0.500000  0.609329  0.609329  1
  B  B9  1  0.500000  0.390671  0.390671  1
  Rh  Rh10  1  0.500000  0.000000  0.000000  1
