# generated using pymatgen
data_Dy7Tm4Th5(MgRu)4
_symmetry_space_group_name_H-M   'P 1'
_cell_length_a   9.70528586
_cell_length_b   9.76579053
_cell_length_c   9.76392005
_cell_angle_alpha   59.76778473
_cell_angle_beta   60.10199469
_cell_angle_gamma   60.12637126
_symmetry_Int_Tables_number   1
_chemical_formula_structural   Dy7Tm4Th5(MgRu)4
_chemical_formula_sum   'Dy7 Tm4 Th5 Mg4 Ru4'
_cell_volume   654.33736479
_cell_formula_units_Z   1
loop_
 _symmetry_equiv_pos_site_id
 _symmetry_equiv_pos_as_xyz
  1  'x, y, z'
loop_
 _atom_site_type_symbol
 _atom_site_label
 _atom_site_symmetry_multiplicity
 _atom_site_fract_x
 _atom_site_fract_y
 _atom_site_fract_z
 _atom_site_occupancy
  Dy  Dy0  1  0.814818  0.810874  0.183592  1
  Dy  Dy1  1  0.933437  0.567207  0.567972  1
  Dy  Dy2  1  0.563819  0.935915  0.935265  1
  Dy  Dy3  1  0.561912  0.936593  0.564963  1
  Dy  Dy4  1  0.937479  0.563568  0.935971  1
  Dy  Dy5  1  0.562283  0.564614  0.936284  1
  Dy  Dy6  1  0.937222  0.936128  0.563966  1
  Tm  Tm7  1  0.185343  0.814687  0.814276  1
  Tm  Tm8  1  0.191108  0.809703  0.184684  1
  Tm  Tm9  1  0.814680  0.184287  0.810273  1
  Tm  Tm10  1  0.190646  0.184718  0.809790  1
  Th  Th11  1  0.341519  0.348841  0.348687  1
  Th  Th12  1  0.347106  0.347149  0.959526  1
  Th  Th13  1  0.346178  0.959752  0.347514  1
  Th  Th14  1  0.960055  0.348686  0.349802  1
  Th  Th15  1  0.816683  0.183441  0.182794  1
  Mg  Mg16  1  0.580478  0.579424  0.580162  1
  Mg  Mg17  1  0.578377  0.582238  0.258797  1
  Mg  Mg18  1  0.578581  0.258856  0.582387  1
  Mg  Mg19  1  0.259875  0.578928  0.578956  1
  Ru  Ru20  1  0.129684  0.146373  0.146672  1
  Ru  Ru21  1  0.145161  0.141160  0.569634  1
  Ru  Ru22  1  0.146440  0.568556  0.141030  1
  Ru  Ru23  1  0.577118  0.148304  0.147001  1
