# generated using pymatgen
data_Yb6Al13Mo3Os7
_symmetry_space_group_name_H-M   'P 1'
_cell_length_a   8.99502581
_cell_length_b   8.99502695
_cell_length_c   8.99502753
_cell_angle_alpha   59.66608354
_cell_angle_beta   59.66607939
_cell_angle_gamma   59.66608021
_symmetry_Int_Tables_number   1
_chemical_formula_structural   Yb6Al13Mo3Os7
_chemical_formula_sum   'Yb6 Al13 Mo3 Os7'
_cell_volume   510.72255478
_cell_formula_units_Z   1
loop_
 _symmetry_equiv_pos_site_id
 _symmetry_equiv_pos_as_xyz
  1  'x, y, z'
loop_
 _atom_site_type_symbol
 _atom_site_label
 _atom_site_symmetry_multiplicity
 _atom_site_fract_x
 _atom_site_fract_y
 _atom_site_fract_z
 _atom_site_occupancy
  Yb  Yb0  1  0.709393  0.709393  0.287693  1
  Yb  Yb1  1  0.290731  0.710571  0.290731  1
  Yb  Yb2  1  0.710571  0.290731  0.290731  1
  Yb  Yb3  1  0.290731  0.290731  0.710571  1
  Yb  Yb4  1  0.709393  0.287693  0.709393  1
  Yb  Yb5  1  0.287693  0.709393  0.709393  1
  Al  Al6  1  0.881612  0.881612  0.881612  1
  Al  Al7  1  0.118920  0.118920  0.641183  1
  Al  Al8  1  0.118920  0.641183  0.118920  1
  Al  Al9  1  0.641183  0.118920  0.118920  1
  Al  Al10  1  0.121097  0.121097  0.121097  1
  Al  Al11  1  0.671710  0.671710  0.990435  1
  Al  Al12  1  0.671710  0.990435  0.671710  1
  Al  Al13  1  0.990435  0.671710  0.671710  1
  Al  Al14  1  0.668913  0.668913  0.668913  1
  Al  Al15  1  0.330086  0.330086  0.013012  1
  Al  Al16  1  0.330086  0.013012  0.330086  1
  Al  Al17  1  0.013012  0.330086  0.330086  1
  Al  Al18  1  0.330159  0.330159  0.330159  1
  Mo  Mo19  1  0.877739  0.877739  0.361487  1
  Mo  Mo20  1  0.877739  0.361487  0.877739  1
  Mo  Mo21  1  0.361487  0.877739  0.877739  1
  Os  Os22  1  0.004582  0.004582  0.004582  1
  Os  Os23  1  0.997723  0.997723  0.493774  1
  Os  Os24  1  0.504182  0.994512  0.504182  1
  Os  Os25  1  0.994512  0.504182  0.504182  1
  Os  Os26  1  0.504182  0.504182  0.994512  1
  Os  Os27  1  0.997723  0.493774  0.997723  1
  Os  Os28  1  0.493774  0.997723  0.997723  1
