# generated using pymatgen
data_NaLa(TcH9)2
_symmetry_space_group_name_H-M   'P 1'
_cell_length_a   5.08209154
_cell_length_b   5.08202185
_cell_length_c   8.54974000
_cell_angle_alpha   91.05255176
_cell_angle_beta   88.94804902
_cell_angle_gamma   123.08751703
_symmetry_Int_Tables_number   1
_chemical_formula_structural   NaLa(TcH9)2
_chemical_formula_sum   'Na1 La1 Tc2 H18'
_cell_volume   184.96818809
_cell_formula_units_Z   1
loop_
 _symmetry_equiv_pos_site_id
 _symmetry_equiv_pos_as_xyz
  1  'x, y, z'
loop_
 _atom_site_type_symbol
 _atom_site_label
 _atom_site_symmetry_multiplicity
 _atom_site_fract_x
 _atom_site_fract_y
 _atom_site_fract_z
 _atom_site_occupancy
  Na  Na0  1  0.000000  0.000000  0.000000  1
  La  La1  1  0.000000  0.000000  0.500000  1
  Tc  Tc2  1  0.332185  0.667845  0.738797  1
  Tc  Tc3  1  0.667815  0.332155  0.261203  1
  H  H4  1  0.404481  0.595544  0.553230  1
  H  H5  1  0.595519  0.404456  0.446770  1
  H  H6  1  0.410583  0.589433  0.910269  1
  H  H7  1  0.589417  0.410567  0.089731  1
  H  H8  1  0.492732  0.963994  0.867012  1
  H  H9  1  0.963951  0.492658  0.132989  1
  H  H10  1  0.541470  0.015686  0.645546  1
  H  H11  1  0.015647  0.541394  0.354462  1
  H  H12  1  0.507268  0.036006  0.132988  1
  H  H13  1  0.036049  0.507342  0.867011  1
  H  H14  1  0.458530  0.984314  0.354454  1
  H  H15  1  0.984353  0.458606  0.645538  1
  H  H16  1  0.705877  0.754347  0.745423  1
  H  H17  1  0.754367  0.705866  0.254577  1
  H  H18  1  0.294123  0.245653  0.254577  1
  H  H19  1  0.245633  0.294134  0.745423  1
  H  H20  1  0.146449  0.853669  0.752612  1
  H  H21  1  0.853551  0.146331  0.247388  1
