# generated using pymatgen
data_Li2TbYO4
_symmetry_space_group_name_H-M   'P 1'
_cell_length_a   3.40575100
_cell_length_b   5.32665143
_cell_length_c   11.29438013
_cell_angle_alpha   90.10930614
_cell_angle_beta   90.00000000
_cell_angle_gamma   90.00000000
_symmetry_Int_Tables_number   1
_chemical_formula_structural   Li2TbYO4
_chemical_formula_sum   'Li4 Tb2 Y2 O8'
_cell_volume   204.89378289
_cell_formula_units_Z   2
loop_
 _symmetry_equiv_pos_site_id
 _symmetry_equiv_pos_as_xyz
  1  'x, y, z'
loop_
 _atom_site_type_symbol
 _atom_site_label
 _atom_site_symmetry_multiplicity
 _atom_site_fract_x
 _atom_site_fract_y
 _atom_site_fract_z
 _atom_site_occupancy
  Li  Li0  1  0.250000  0.097211  0.566511  1
  Li  Li1  1  0.750000  0.902789  0.433489  1
  Li  Li2  1  0.750000  0.597002  0.933307  1
  Li  Li3  1  0.250000  0.402998  0.066693  1
  Tb  Tb4  1  0.750000  0.953393  0.140610  1
  Tb  Tb5  1  0.250000  0.046607  0.859390  1
  Y  Y6  1  0.250000  0.454043  0.359939  1
  Y  Y7  1  0.750000  0.545957  0.640061  1
  O  O8  1  0.250000  0.307913  0.704364  1
  O  O9  1  0.750000  0.692087  0.295636  1
  O  O10  1  0.750000  0.806070  0.794845  1
  O  O11  1  0.250000  0.193930  0.205155  1
  O  O12  1  0.250000  0.757152  0.026459  1
  O  O13  1  0.750000  0.242848  0.973541  1
  O  O14  1  0.750000  0.257475  0.473222  1
  O  O15  1  0.250000  0.742525  0.526778  1
