# generated using pymatgen
data_LaPr2Nd5(B4Br5)2
_symmetry_space_group_name_H-M   'P 1'
_cell_length_a   9.36872627
_cell_length_b   9.36872694
_cell_length_c   19.42775292
_cell_angle_alpha   75.70380623
_cell_angle_beta   75.70388769
_cell_angle_gamma   26.49534929
_symmetry_Int_Tables_number   1
_chemical_formula_structural   LaPr2Nd5(B4Br5)2
_chemical_formula_sum   'La1 Pr2 Nd5 B8 Br10'
_cell_volume   735.86092920
_cell_formula_units_Z   1
loop_
 _symmetry_equiv_pos_site_id
 _symmetry_equiv_pos_as_xyz
  1  'x, y, z'
loop_
 _atom_site_type_symbol
 _atom_site_label
 _atom_site_symmetry_multiplicity
 _atom_site_fract_x
 _atom_site_fract_y
 _atom_site_fract_z
 _atom_site_occupancy
  La  La0  1  0.029194  0.029193  0.113317  1
  Pr  Pr1  1  0.612030  0.612022  0.720450  1
  Pr  Pr2  1  0.388559  0.388533  0.279889  1
  Nd  Nd3  1  0.975238  0.975250  0.627058  1
  Nd  Nd4  1  0.025074  0.025077  0.372636  1
  Nd  Nd5  1  0.334235  0.334242  0.790563  1
  Nd  Nd6  1  0.666299  0.666309  0.210472  1
  Nd  Nd7  1  0.971531  0.971542  0.883079  1
  B  B8  1  0.158011  0.787621  0.755321  1
  B  B9  1  0.213055  0.842644  0.244053  1
  B  B10  1  0.842645  0.213058  0.244052  1
  B  B11  1  0.787624  0.158005  0.755320  1
  B  B12  1  0.472786  0.472823  0.804636  1
  B  B13  1  0.527881  0.527868  0.194505  1
  B  B14  1  0.471551  0.471560  0.706358  1
  B  B15  1  0.528796  0.528809  0.293770  1
  Br  Br16  1  0.144699  0.144686  0.601508  1
  Br  Br17  1  0.855550  0.855544  0.398497  1
  Br  Br18  1  0.147435  0.147431  0.826544  1
  Br  Br19  1  0.851298  0.851260  0.175896  1
  Br  Br20  1  0.801449  0.801459  0.908425  1
  Br  Br21  1  0.201430  0.201427  0.093034  1
  Br  Br22  1  0.798690  0.798696  0.686225  1
  Br  Br23  1  0.200968  0.200969  0.315356  1
  Br  Br24  1  0.498702  0.498701  0.500569  1
  Br  Br25  1  0.495269  0.495271  0.998470  1
