# generated using pymatgen
data_Sr5YbSn8BiBr
_symmetry_space_group_name_H-M   'P 1'
_cell_length_a   8.95028115
_cell_length_b   8.95028178
_cell_length_c   8.95028230
_cell_angle_alpha   120.03167371
_cell_angle_beta   120.03167694
_cell_angle_gamma   89.94515326
_symmetry_Int_Tables_number   1
_chemical_formula_structural   Sr5YbSn8BiBr
_chemical_formula_sum   'Sr5 Yb1 Sn8 Bi1 Br1'
_cell_volume   506.74199730
_cell_formula_units_Z   1
loop_
 _symmetry_equiv_pos_site_id
 _symmetry_equiv_pos_as_xyz
  1  'x, y, z'
loop_
 _atom_site_type_symbol
 _atom_site_label
 _atom_site_symmetry_multiplicity
 _atom_site_fract_x
 _atom_site_fract_y
 _atom_site_fract_z
 _atom_site_occupancy
  Sr  Sr0  1  0.753386  0.753386  0.000000  1
  Sr  Sr1  1  0.161555  0.661501  0.822317  1
  Sr  Sr2  1  0.839184  0.339238  0.177683  1
  Sr  Sr3  1  0.661501  0.839184  0.499946  1
  Sr  Sr4  1  0.339238  0.161555  0.500054  1
  Yb  Yb5  1  0.245903  0.245903  0.000000  1
  Sn  Sn6  1  0.833022  0.331407  0.787231  1
  Sn  Sn7  1  0.170860  0.664990  0.212906  1
  Sn  Sn8  1  0.544176  0.045791  0.212769  1
  Sn  Sn9  1  0.331407  0.544176  0.498385  1
  Sn  Sn10  1  0.957953  0.170860  0.505868  1
  Sn  Sn11  1  0.452084  0.957953  0.787094  1
  Sn  Sn12  1  0.664990  0.452084  0.494132  1
  Sn  Sn13  1  0.045791  0.833022  0.501615  1
  Bi  Bi14  1  0.493331  0.493331  0.000000  1
  Br  Br15  1  0.005617  0.005617  0.000000  1
