# generated using pymatgen
data_Dy3Ho5In3Ru
_symmetry_space_group_name_H-M   'P 1'
_cell_length_a   10.37334300
_cell_length_b   10.37334450
_cell_length_c   7.02966600
_cell_angle_alpha   90.00000000
_cell_angle_beta   90.00000000
_cell_angle_gamma   119.99999842
_symmetry_Int_Tables_number   1
_chemical_formula_structural   Dy3Ho5In3Ru
_chemical_formula_sum   'Dy6 Ho10 In6 Ru2'
_cell_volume   655.09286428
_cell_formula_units_Z   2
loop_
 _symmetry_equiv_pos_site_id
 _symmetry_equiv_pos_as_xyz
  1  'x, y, z'
loop_
 _atom_site_type_symbol
 _atom_site_label
 _atom_site_symmetry_multiplicity
 _atom_site_fract_x
 _atom_site_fract_y
 _atom_site_fract_z
 _atom_site_occupancy
  Dy  Dy0  1  0.532994  0.065986  0.508111  1
  Dy  Dy1  1  0.934014  0.467006  0.508111  1
  Dy  Dy2  1  0.532994  0.467006  0.508111  1
  Dy  Dy3  1  0.467006  0.934014  0.008111  1
  Dy  Dy4  1  0.065986  0.532994  0.008111  1
  Dy  Dy5  1  0.467006  0.532994  0.008111  1
  Ho  Ho6  1  0.177247  0.354495  0.712211  1
  Ho  Ho7  1  0.645505  0.822753  0.712211  1
  Ho  Ho8  1  0.177247  0.822753  0.712211  1
  Ho  Ho9  1  0.822753  0.645505  0.212211  1
  Ho  Ho10  1  0.354495  0.177247  0.212211  1
  Ho  Ho11  1  0.822753  0.177247  0.212211  1
  Ho  Ho12  1  0.666667  0.333333  0.885001  1
  Ho  Ho13  1  0.333333  0.666667  0.385001  1
  Ho  Ho14  1  0.000000  0.000000  0.492808  1
  Ho  Ho15  1  0.000000  0.000000  0.992808  1
  In  In16  1  0.837508  0.675015  0.752693  1
  In  In17  1  0.324985  0.162492  0.752693  1
  In  In18  1  0.837508  0.162492  0.752693  1
  In  In19  1  0.162492  0.324985  0.252693  1
  In  In20  1  0.675015  0.837508  0.252693  1
  In  In21  1  0.162492  0.837508  0.252693  1
  Ru  Ru22  1  0.666667  0.333333  0.282168  1
  Ru  Ru23  1  0.333333  0.666667  0.782168  1
