# generated using pymatgen
data_Tm8Sc12Tl15Bi
_symmetry_space_group_name_H-M   'P 1'
_cell_length_a   7.61631670
_cell_length_b   7.91967642
_cell_length_c   15.22270600
_cell_angle_alpha   90.10598711
_cell_angle_beta   89.53050635
_cell_angle_gamma   89.97402896
_symmetry_Int_Tables_number   1
_chemical_formula_structural   Tm8Sc12Tl15Bi
_chemical_formula_sum   'Tm8 Sc12 Tl15 Bi1'
_cell_volume   918.18230852
_cell_formula_units_Z   1
loop_
 _symmetry_equiv_pos_site_id
 _symmetry_equiv_pos_as_xyz
  1  'x, y, z'
loop_
 _atom_site_type_symbol
 _atom_site_label
 _atom_site_symmetry_multiplicity
 _atom_site_fract_x
 _atom_site_fract_y
 _atom_site_fract_z
 _atom_site_occupancy
  Tm  Tm0  1  0.999404  0.183000  0.093052  1
  Tm  Tm1  1  0.002256  0.817531  0.907117  1
  Tm  Tm2  1  0.501857  0.680644  0.907803  1
  Tm  Tm3  1  0.001613  0.822039  0.593642  1
  Tm  Tm4  1  0.497142  0.317887  0.093111  1
  Tm  Tm5  1  0.994118  0.179352  0.404118  1
  Tm  Tm6  1  0.499762  0.312156  0.405108  1
  Tm  Tm7  1  0.509822  0.686031  0.595525  1
  Sc  Sc8  1  0.168153  0.497375  0.753146  1
  Sc  Sc9  1  0.833473  0.503155  0.248715  1
  Sc  Sc10  1  0.331752  0.998541  0.250319  1
  Sc  Sc11  1  0.668937  0.003743  0.750817  1
  Sc  Sc12  1  0.340261  0.153401  0.626541  1
  Sc  Sc13  1  0.662808  0.843823  0.373896  1
  Sc  Sc14  1  0.161735  0.665089  0.373041  1
  Sc  Sc15  1  0.665080  0.839220  0.124370  1
  Sc  Sc16  1  0.831010  0.338786  0.625964  1
  Sc  Sc17  1  0.333571  0.159417  0.875396  1
  Sc  Sc18  1  0.834820  0.339599  0.875053  1
  Sc  Sc19  1  0.167930  0.657869  0.125350  1
  Tl  Tl20  1  0.029048  0.124836  0.748631  1
  Tl  Tl21  1  0.971399  0.877022  0.247406  1
  Tl  Tl22  1  0.473032  0.623298  0.251761  1
  Tl  Tl23  1  0.527981  0.376225  0.751230  1
  Tl  Tl24  1  0.301624  0.851409  0.751021  1
  Tl  Tl25  1  0.697742  0.147246  0.248189  1
  Tl  Tl26  1  0.198376  0.353991  0.251354  1
  Tl  Tl27  1  0.803835  0.647357  0.749805  1
  Tl  Tl28  1  0.807361  0.543083  0.456022  1
  Tl  Tl29  1  0.315783  0.959851  0.459018  1
  Tl  Tl30  1  0.817377  0.539070  0.042033  1
  Tl  Tl31  1  0.684039  0.042476  0.540594  1
  Tl  Tl32  1  0.180588  0.459222  0.958447  1
  Tl  Tl33  1  0.681904  0.040381  0.957858  1
  Tl  Tl34  1  0.319088  0.958028  0.042804  1
  Bi  Bi35  1  0.185315  0.457844  0.541739  1
