# generated using pymatgen
data_Ho4AlGaSi2
_symmetry_space_group_name_H-M   'P 1'
_cell_length_a   3.95311000
_cell_length_b   5.77603503
_cell_length_c   7.98045801
_cell_angle_alpha   90.06416772
_cell_angle_beta   90.00000000
_cell_angle_gamma   90.00000000
_symmetry_Int_Tables_number   1
_chemical_formula_structural   Ho4AlGaSi2
_chemical_formula_sum   'Ho4 Al1 Ga1 Si2'
_cell_volume   182.22009234
_cell_formula_units_Z   1
loop_
 _symmetry_equiv_pos_site_id
 _symmetry_equiv_pos_as_xyz
  1  'x, y, z'
loop_
 _atom_site_type_symbol
 _atom_site_label
 _atom_site_symmetry_multiplicity
 _atom_site_fract_x
 _atom_site_fract_y
 _atom_site_fract_z
 _atom_site_occupancy
  Ho  Ho0  1  0.250000  0.380374  0.678369  1
  Ho  Ho1  1  0.250000  0.120319  0.179383  1
  Ho  Ho2  1  0.750000  0.610977  0.324213  1
  Ho  Ho3  1  0.750000  0.891635  0.819425  1
  Al  Al4  1  0.250000  0.627916  0.036584  1
  Ga  Ga5  1  0.250000  0.868178  0.538172  1
  Si  Si6  1  0.750000  0.127902  0.462476  1
  Si  Si7  1  0.750000  0.372696  0.961375  1
