# generated using pymatgen
data_Yb3DySi10Ir5Ru
_symmetry_space_group_name_H-M   'P 1'
_cell_length_a   8.13771394
_cell_length_b   8.14379368
_cell_length_c   8.29459100
_cell_angle_alpha   139.35364409
_cell_angle_beta   107.36820610
_cell_angle_gamma   85.52438886
_symmetry_Int_Tables_number   1
_chemical_formula_structural   Yb3DySi10Ir5Ru
_chemical_formula_sum   'Yb3 Dy1 Si10 Ir5 Ru1'
_cell_volume   331.85423960
_cell_formula_units_Z   1
loop_
 _symmetry_equiv_pos_site_id
 _symmetry_equiv_pos_as_xyz
  1  'x, y, z'
loop_
 _atom_site_type_symbol
 _atom_site_label
 _atom_site_symmetry_multiplicity
 _atom_site_fract_x
 _atom_site_fract_y
 _atom_site_fract_z
 _atom_site_occupancy
  Yb  Yb0  1  0.902801  0.124652  0.757776  1
  Yb  Yb1  1  0.096513  0.873794  0.242431  1
  Yb  Yb2  1  0.633681  0.357641  0.260584  1
  Dy  Dy3  1  0.366777  0.648024  0.741573  1
  Si  Si4  1  0.009290  0.760420  0.747750  1
  Si  Si5  1  0.989397  0.238988  0.249729  1
  Si  Si6  1  0.707650  0.451870  0.741312  1
  Si  Si7  1  0.276148  0.023426  0.746601  1
  Si  Si8  1  0.295044  0.548195  0.259138  1
  Si  Si9  1  0.722184  0.974726  0.251946  1
  Si  Si10  1  0.239191  0.402210  0.840004  1
  Si  Si11  1  0.562569  0.898637  0.662960  1
  Si  Si12  1  0.436585  0.095959  0.333599  1
  Si  Si13  1  0.760472  0.603283  0.166229  1
  Ir  Ir14  1  0.758238  0.831948  0.875708  1
  Ir  Ir15  1  0.504496  0.253795  0.749971  1
  Ir  Ir16  1  0.962530  0.384271  0.627239  1
  Ir  Ir17  1  0.038426  0.612407  0.369296  1
  Ir  Ir18  1  0.243913  0.169869  0.127695  1
  Ru  Ru19  1  0.494094  0.745887  0.248460  1
