# generated using pymatgen
data_SmY2Er(WN3)4
_symmetry_space_group_name_H-M   'P 1'
_cell_length_a   7.36573272
_cell_length_b   7.36573334
_cell_length_c   6.29791838
_cell_angle_alpha   73.87312773
_cell_angle_beta   73.87312001
_cell_angle_gamma   81.98638072
_symmetry_Int_Tables_number   1
_chemical_formula_structural   SmY2Er(WN3)4
_chemical_formula_sum   'Sm1 Y2 Er1 W4 N12'
_cell_volume   314.60669839
_cell_formula_units_Z   1
loop_
 _symmetry_equiv_pos_site_id
 _symmetry_equiv_pos_as_xyz
  1  'x, y, z'
loop_
 _atom_site_type_symbol
 _atom_site_label
 _atom_site_symmetry_multiplicity
 _atom_site_fract_x
 _atom_site_fract_y
 _atom_site_fract_z
 _atom_site_occupancy
  Sm  Sm0  1  0.708405  0.291595  0.750000  1
  Y  Y1  1  0.289736  0.710264  0.250000  1
  Y  Y2  1  0.911885  0.088115  0.250000  1
  Er  Er3  1  0.091285  0.908715  0.750000  1
  W  W4  1  0.378642  0.200564  0.232950  1
  W  W5  1  0.619116  0.799353  0.770096  1
  W  W6  1  0.799436  0.621358  0.267050  1
  W  W7  1  0.200647  0.380884  0.729904  1
  N  N8  1  0.622730  0.112123  0.165204  1
  N  N9  1  0.347509  0.366058  0.435108  1
  N  N10  1  0.005913  0.214664  0.846327  1
  N  N11  1  0.374693  0.888685  0.837799  1
  N  N12  1  0.785336  0.994087  0.653673  1
  N  N13  1  0.111315  0.625307  0.662201  1
  N  N14  1  0.887877  0.377270  0.334796  1
  N  N15  1  0.653278  0.639496  0.561029  1
  N  N16  1  0.633942  0.652491  0.064892  1
  N  N17  1  0.360504  0.346722  0.938971  1
  N  N18  1  0.999615  0.781872  0.149036  1
  N  N19  1  0.218128  0.000385  0.350964  1
