# generated using pymatgen
data_Zr7FeCo16As11P
_symmetry_space_group_name_H-M   'P 1'
_cell_length_a   12.45223402
_cell_length_b   12.45223279
_cell_length_c   3.76727400
_cell_angle_alpha   90.00000000
_cell_angle_beta   90.00000000
_cell_angle_gamma   119.92586524
_symmetry_Int_Tables_number   1
_chemical_formula_structural   Zr7FeCo16As11P
_chemical_formula_sum   'Zr7 Fe1 Co16 As11 P1'
_cell_volume   506.26312082
_cell_formula_units_Z   1
loop_
 _symmetry_equiv_pos_site_id
 _symmetry_equiv_pos_as_xyz
  1  'x, y, z'
loop_
 _atom_site_type_symbol
 _atom_site_label
 _atom_site_symmetry_multiplicity
 _atom_site_fract_x
 _atom_site_fract_y
 _atom_site_fract_z
 _atom_site_occupancy
  Zr  Zr0  1  0.556468  0.999802  0.000000  1
  Zr  Zr1  1  0.999802  0.556468  0.000000  1
  Zr  Zr2  1  0.665343  0.334450  0.000000  1
  Zr  Zr3  1  0.334450  0.665343  0.000000  1
  Zr  Zr4  1  0.816474  0.816474  0.500000  1
  Zr  Zr5  1  0.173678  0.003846  0.500000  1
  Zr  Zr6  1  0.003846  0.173678  0.500000  1
  Fe  Fe7  1  0.446543  0.446543  0.000000  1
  Co  Co8  1  0.201048  0.368411  0.000000  1
  Co  Co9  1  0.178392  0.806582  0.000000  1
  Co  Co10  1  0.819498  0.628173  0.000000  1
  Co  Co11  1  0.806582  0.178392  0.000000  1
  Co  Co12  1  0.368411  0.201048  0.000000  1
  Co  Co13  1  0.128994  0.477079  0.500000  1
  Co  Co14  1  0.355748  0.878230  0.500000  1
  Co  Co15  1  0.517564  0.640282  0.500000  1
  Co  Co16  1  0.640282  0.517564  0.500000  1
  Co  Co17  1  0.878230  0.355748  0.500000  1
  Co  Co18  1  0.477079  0.128994  0.500000  1
  Co  Co19  1  0.009450  0.009450  0.000000  1
  Co  Co20  1  0.721069  0.001209  0.500000  1
  Co  Co21  1  0.001209  0.721069  0.500000  1
  Co  Co22  1  0.628173  0.819498  0.000000  1
  Co  Co23  1  0.275493  0.275493  0.500000  1
  As  As24  1  0.637262  0.637262  0.000000  1
  As  As25  1  0.346176  0.005487  0.000000  1
  As  As26  1  0.005487  0.346176  0.000000  1
  As  As27  1  0.480151  0.318611  0.500000  1
  As  As28  1  0.689338  0.176291  0.500000  1
  As  As29  1  0.824012  0.515469  0.500000  1
  As  As30  1  0.515469  0.824012  0.500000  1
  As  As31  1  0.176291  0.689338  0.500000  1
  As  As32  1  0.826128  0.998070  0.000000  1
  As  As33  1  0.998070  0.826128  0.000000  1
  As  As34  1  0.318611  0.480151  0.500000  1
  P  P35  1  0.179181  0.179181  0.000000  1
