# generated using pymatgen
data_Tb2Dy3SiBi2
_symmetry_space_group_name_H-M   'P 1'
_cell_length_a   12.12737100
_cell_length_b   9.19489900
_cell_length_c   8.07320700
_cell_angle_alpha   90.00000000
_cell_angle_beta   90.00000000
_cell_angle_gamma   90.00000000
_symmetry_Int_Tables_number   1
_chemical_formula_structural   Tb2Dy3SiBi2
_chemical_formula_sum   'Tb8 Dy12 Si4 Bi8'
_cell_volume   900.24292086
_cell_formula_units_Z   4
loop_
 _symmetry_equiv_pos_site_id
 _symmetry_equiv_pos_as_xyz
  1  'x, y, z'
loop_
 _atom_site_type_symbol
 _atom_site_label
 _atom_site_symmetry_multiplicity
 _atom_site_fract_x
 _atom_site_fract_y
 _atom_site_fract_z
 _atom_site_occupancy
  Tb  Tb0  1  0.211539  0.750000  0.165276  1
  Tb  Tb1  1  0.711539  0.750000  0.334724  1
  Tb  Tb2  1  0.788461  0.250000  0.834724  1
  Tb  Tb3  1  0.288461  0.250000  0.665276  1
  Tb  Tb4  1  0.295368  0.750000  0.635670  1
  Tb  Tb5  1  0.795368  0.750000  0.864330  1
  Tb  Tb6  1  0.704632  0.250000  0.364330  1
  Tb  Tb7  1  0.204632  0.250000  0.135670  1
  Dy  Dy8  1  0.063352  0.551910  0.820129  1
  Dy  Dy9  1  0.563352  0.948090  0.679871  1
  Dy  Dy10  1  0.936648  0.051910  0.179871  1
  Dy  Dy11  1  0.436648  0.448090  0.320129  1
  Dy  Dy12  1  0.936648  0.448090  0.179871  1
  Dy  Dy13  1  0.436648  0.051910  0.320129  1
  Dy  Dy14  1  0.063352  0.948090  0.820129  1
  Dy  Dy15  1  0.563352  0.551910  0.679871  1
  Dy  Dy16  1  0.001078  0.750000  0.459832  1
  Dy  Dy17  1  0.501078  0.750000  0.040168  1
  Dy  Dy18  1  0.998922  0.250000  0.540168  1
  Dy  Dy19  1  0.498922  0.250000  0.959832  1
  Si  Si20  1  0.479727  0.750000  0.413952  1
  Si  Si21  1  0.979727  0.750000  0.086048  1
  Si  Si22  1  0.520273  0.250000  0.586048  1
  Si  Si23  1  0.020273  0.250000  0.913952  1
  Bi  Bi24  1  0.325827  0.511000  0.932068  1
  Bi  Bi25  1  0.825827  0.989000  0.567932  1
  Bi  Bi26  1  0.674173  0.011000  0.067932  1
  Bi  Bi27  1  0.174173  0.489000  0.432068  1
  Bi  Bi28  1  0.674173  0.489000  0.067932  1
  Bi  Bi29  1  0.174173  0.011000  0.432068  1
  Bi  Bi30  1  0.325827  0.989000  0.932068  1
  Bi  Bi31  1  0.825827  0.511000  0.567932  1
