# generated using pymatgen
data_NaLiNi5(PRu)7
_symmetry_space_group_name_H-M   'P 1'
_cell_length_a   9.33869762
_cell_length_b   9.30451145
_cell_length_c   3.69111400
_cell_angle_alpha   90.00000000
_cell_angle_beta   90.00000000
_cell_angle_gamma   120.59481389
_symmetry_Int_Tables_number   1
_chemical_formula_structural   NaLiNi5(PRu)7
_chemical_formula_sum   'Na1 Li1 Ni5 P7 Ru7'
_cell_volume   276.07914463
_cell_formula_units_Z   1
loop_
 _symmetry_equiv_pos_site_id
 _symmetry_equiv_pos_as_xyz
  1  'x, y, z'
loop_
 _atom_site_type_symbol
 _atom_site_label
 _atom_site_symmetry_multiplicity
 _atom_site_fract_x
 _atom_site_fract_y
 _atom_site_fract_z
 _atom_site_occupancy
  Na  Na0  1  0.335518  0.669261  0.500000  1
  Li  Li1  1  0.999861  0.000157  0.000000  1
  Ni  Ni2  1  0.300715  0.902358  0.000000  1
  Ni  Ni3  1  0.604065  0.700119  0.000000  1
  Ni  Ni4  1  0.826121  0.615827  0.000000  1
  Ni  Ni5  1  0.779560  0.171250  0.000000  1
  Ni  Ni6  1  0.390948  0.212881  0.000000  1
  P  P7  1  0.666690  0.334781  0.000000  1
  P  P8  1  0.074021  0.628939  0.000000  1
  P  P9  1  0.550222  0.921066  0.000000  1
  P  P10  1  0.373680  0.446048  0.000000  1
  P  P11  1  0.792747  0.746010  0.500000  1
  P  P12  1  0.953931  0.213813  0.500000  1
  P  P13  1  0.258820  0.046536  0.500000  1
  Ru  Ru14  1  0.098071  0.396292  0.000000  1
  Ru  Ru15  1  0.057617  0.772811  0.500000  1
  Ru  Ru16  1  0.714160  0.942749  0.500000  1
  Ru  Ru17  1  0.230530  0.278920  0.500000  1
  Ru  Ru18  1  0.868930  0.416283  0.500000  1
  Ru  Ru19  1  0.540046  0.121497  0.500000  1
  Ru  Ru20  1  0.583748  0.462401  0.500000  1
