# generated using pymatgen
data_Mg5Co19(Si3P)3
_symmetry_space_group_name_H-M   'P 1'
_cell_length_a   11.92220800
_cell_length_b   11.92220837
_cell_length_c   3.63053200
_cell_angle_alpha   90.00000000
_cell_angle_beta   90.00000000
_cell_angle_gamma   119.99999343
_symmetry_Int_Tables_number   1
_chemical_formula_structural   Mg5Co19(Si3P)3
_chemical_formula_sum   'Mg5 Co19 Si9 P3'
_cell_volume   446.90409261
_cell_formula_units_Z   1
loop_
 _symmetry_equiv_pos_site_id
 _symmetry_equiv_pos_as_xyz
  1  'x, y, z'
loop_
 _atom_site_type_symbol
 _atom_site_label
 _atom_site_symmetry_multiplicity
 _atom_site_fract_x
 _atom_site_fract_y
 _atom_site_fract_z
 _atom_site_occupancy
  Mg  Mg0  1  0.333333  0.666667  0.500000  1
  Mg  Mg1  1  0.666667  0.333333  0.500000  1
  Mg  Mg2  1  0.000000  0.185789  0.000000  1
  Mg  Mg3  1  0.814211  0.814211  0.000000  1
  Mg  Mg4  1  0.185789  0.000000  0.000000  1
  Co  Co5  1  0.628145  0.823530  0.500000  1
  Co  Co6  1  0.176470  0.804615  0.500000  1
  Co  Co7  1  0.195385  0.371855  0.500000  1
  Co  Co8  1  0.371855  0.195385  0.500000  1
  Co  Co9  1  0.823530  0.628145  0.500000  1
  Co  Co10  1  0.804615  0.176470  0.500000  1
  Co  Co11  1  0.000000  0.555432  0.500000  1
  Co  Co12  1  0.444568  0.444568  0.500000  1
  Co  Co13  1  0.555432  0.000000  0.500000  1
  Co  Co14  1  0.522265  0.649079  0.000000  1
  Co  Co15  1  0.350921  0.873186  0.000000  1
  Co  Co16  1  0.126814  0.477735  0.000000  1
  Co  Co17  1  0.477735  0.126814  0.000000  1
  Co  Co18  1  0.649079  0.522265  0.000000  1
  Co  Co19  1  0.873186  0.350921  0.000000  1
  Co  Co20  1  0.000000  0.726408  0.000000  1
  Co  Co21  1  0.273592  0.273592  0.000000  1
  Co  Co22  1  0.726408  0.000000  0.000000  1
  Co  Co23  1  0.000000  0.000000  0.500000  1
  Si  Si24  1  0.000000  0.366298  0.500000  1
  Si  Si25  1  0.633702  0.633702  0.500000  1
  Si  Si26  1  0.366298  0.000000  0.500000  1
  Si  Si27  1  0.520276  0.842618  0.000000  1
  Si  Si28  1  0.157382  0.677658  0.000000  1
  Si  Si29  1  0.322342  0.479724  0.000000  1
  Si  Si30  1  0.479724  0.322342  0.000000  1
  Si  Si31  1  0.842618  0.520276  0.000000  1
  Si  Si32  1  0.677658  0.157382  0.000000  1
  P  P33  1  0.000000  0.822649  0.500000  1
  P  P34  1  0.177351  0.177351  0.500000  1
  P  P35  1  0.822649  0.000000  0.500000  1
