# generated using pymatgen
data_Dy13Tm7(Cd3Fe)2
_symmetry_space_group_name_H-M   'P 1'
_cell_length_a   9.49164504
_cell_length_b   9.49097614
_cell_length_c   9.65632800
_cell_angle_alpha   90.00003622
_cell_angle_beta   90.00530603
_cell_angle_gamma   119.99769904
_symmetry_Int_Tables_number   1
_chemical_formula_structural   Dy13Tm7(Cd3Fe)2
_chemical_formula_sum   'Dy13 Tm7 Cd6 Fe2'
_cell_volume   753.36437161
_cell_formula_units_Z   1
loop_
 _symmetry_equiv_pos_site_id
 _symmetry_equiv_pos_as_xyz
  1  'x, y, z'
loop_
 _atom_site_type_symbol
 _atom_site_label
 _atom_site_symmetry_multiplicity
 _atom_site_fract_x
 _atom_site_fract_y
 _atom_site_fract_z
 _atom_site_occupancy
  Dy  Dy0  1  0.541483  0.459060  0.251068  1
  Dy  Dy1  1  0.541479  0.082424  0.251069  1
  Dy  Dy2  1  0.917310  0.458653  0.251421  1
  Dy  Dy3  1  0.458699  0.541818  0.748822  1
  Dy  Dy4  1  0.458700  0.916881  0.748823  1
  Dy  Dy5  1  0.082515  0.541259  0.748518  1
  Dy  Dy6  1  0.424339  0.212166  0.563165  1
  Dy  Dy7  1  0.788509  0.211579  0.936112  1
  Dy  Dy8  1  0.788512  0.576932  0.936114  1
  Dy  Dy9  1  0.422527  0.211264  0.936899  1
  Dy  Dy10  1  0.211469  0.788401  0.063824  1
  Dy  Dy11  1  0.211466  0.423067  0.063821  1
  Dy  Dy12  1  0.577009  0.788507  0.063997  1
  Tm  Tm13  1  0.999393  0.999695  0.499967  1
  Tm  Tm14  1  0.999912  0.999952  0.999944  1
  Tm  Tm15  1  0.212019  0.787490  0.437057  1
  Tm  Tm16  1  0.212022  0.424535  0.437058  1
  Tm  Tm17  1  0.575539  0.787773  0.437157  1
  Tm  Tm18  1  0.788688  0.212199  0.562578  1
  Tm  Tm19  1  0.788687  0.576490  0.562579  1
  Cd  Cd20  1  0.885827  0.114121  0.250742  1
  Cd  Cd21  1  0.885835  0.771707  0.250743  1
  Cd  Cd22  1  0.228050  0.114019  0.250573  1
  Cd  Cd23  1  0.113994  0.885709  0.749285  1
  Cd  Cd24  1  0.113989  0.228280  0.749282  1
  Cd  Cd25  1  0.771746  0.885874  0.749154  1
  Fe  Fe26  1  0.333392  0.666697  0.250418  1
  Fe  Fe27  1  0.666889  0.333445  0.749807  1
