# generated using pymatgen
data_Yb3Ho13(LuIr3)4
_symmetry_space_group_name_H-M   'P 1'
_cell_length_a   10.79724485
_cell_length_b   10.84172010
_cell_length_c   6.32182570
_cell_angle_alpha   89.95021967
_cell_angle_beta   90.14570968
_cell_angle_gamma   90.13131028
_symmetry_Int_Tables_number   1
_chemical_formula_structural   Yb3Ho13(LuIr3)4
_chemical_formula_sum   'Yb3 Ho13 Lu4 Ir12'
_cell_volume   740.03277084
_cell_formula_units_Z   1
loop_
 _symmetry_equiv_pos_site_id
 _symmetry_equiv_pos_as_xyz
  1  'x, y, z'
loop_
 _atom_site_type_symbol
 _atom_site_label
 _atom_site_symmetry_multiplicity
 _atom_site_fract_x
 _atom_site_fract_y
 _atom_site_fract_z
 _atom_site_occupancy
  Yb  Yb0  1  0.288928  0.087164  0.373631  1
  Yb  Yb1  1  0.288006  0.912393  0.874381  1
  Yb  Yb2  1  0.712228  0.087623  0.874440  1
  Ho  Ho3  1  0.709227  0.914139  0.378453  1
  Ho  Ho4  1  0.587806  0.794075  0.876267  1
  Ho  Ho5  1  0.585871  0.207544  0.377658  1
  Ho  Ho6  1  0.410884  0.794202  0.377292  1
  Ho  Ho7  1  0.414634  0.206625  0.877861  1
  Ho  Ho8  1  0.211444  0.413037  0.625047  1
  Ho  Ho9  1  0.210743  0.585748  0.124016  1
  Ho  Ho10  1  0.789849  0.412800  0.123434  1
  Ho  Ho11  1  0.789141  0.586351  0.621578  1
  Ho  Ho12  1  0.913121  0.709569  0.124467  1
  Ho  Ho13  1  0.913313  0.289549  0.624842  1
  Ho  Ho14  1  0.086505  0.709089  0.623250  1
  Ho  Ho15  1  0.087157  0.289971  0.125151  1
  Lu  Lu16  1  0.002242  0.999686  0.500295  1
  Lu  Lu17  1  0.998893  0.000361  0.000618  1
  Lu  Lu18  1  0.500502  0.500907  0.996496  1
  Lu  Lu19  1  0.499286  0.500988  0.496446  1
  Ir  Ir20  1  0.851807  0.152790  0.257815  1
  Ir  Ir21  1  0.854068  0.842828  0.745382  1
  Ir  Ir22  1  0.146063  0.158275  0.754590  1
  Ir  Ir23  1  0.144988  0.841902  0.251174  1
  Ir  Ir24  1  0.649143  0.352265  0.747108  1
  Ir  Ir25  1  0.650272  0.653827  0.249397  1
  Ir  Ir26  1  0.350054  0.352028  0.245021  1
  Ir  Ir27  1  0.349213  0.648190  0.746776  1
  Ir  Ir28  1  0.502134  0.998900  0.123919  1
  Ir  Ir29  1  0.502275  0.998668  0.622222  1
  Ir  Ir30  1  0.000097  0.499609  0.880294  1
  Ir  Ir31  1  0.000104  0.498896  0.380678  1
