# generated using pymatgen
data_Zr5Ti3Fe11Co5P12
_symmetry_space_group_name_H-M   'P 1'
_cell_length_a   11.96756743
_cell_length_b   11.94994509
_cell_length_c   3.62572700
_cell_angle_alpha   90.00000000
_cell_angle_beta   90.00000000
_cell_angle_gamma   120.01531798
_symmetry_Int_Tables_number   1
_chemical_formula_structural   Zr5Ti3Fe11Co5P12
_chemical_formula_sum   'Zr5 Ti3 Fe11 Co5 P12'
_cell_volume   448.98359142
_cell_formula_units_Z   1
loop_
 _symmetry_equiv_pos_site_id
 _symmetry_equiv_pos_as_xyz
  1  'x, y, z'
loop_
 _atom_site_type_symbol
 _atom_site_label
 _atom_site_symmetry_multiplicity
 _atom_site_fract_x
 _atom_site_fract_y
 _atom_site_fract_z
 _atom_site_occupancy
  Zr  Zr0  1  0.666272  0.333274  0.000000  1
  Zr  Zr1  1  0.334199  0.666861  0.000000  1
  Zr  Zr2  1  0.813374  0.812390  0.500000  1
  Zr  Zr3  1  0.186625  0.000550  0.500000  1
  Zr  Zr4  1  0.999561  0.185291  0.500000  1
  Ti  Ti5  1  0.436378  0.438327  0.000000  1
  Ti  Ti6  1  0.561259  0.999488  0.000000  1
  Ti  Ti7  1  0.001885  0.563517  0.000000  1
  Fe  Fe8  1  0.194539  0.376327  0.000000  1
  Fe  Fe9  1  0.181002  0.805007  0.000000  1
  Fe  Fe10  1  0.123055  0.479880  0.500000  1
  Fe  Fe11  1  0.357176  0.877117  0.500000  1
  Fe  Fe12  1  0.519211  0.644228  0.500000  1
  Fe  Fe13  1  0.644134  0.518505  0.500000  1
  Fe  Fe14  1  0.874910  0.355737  0.500000  1
  Fe  Fe15  1  0.481418  0.125806  0.500000  1
  Fe  Fe16  1  0.721852  0.999849  0.500000  1
  Fe  Fe17  1  0.998612  0.720733  0.500000  1
  Fe  Fe18  1  0.278398  0.277921  0.500000  1
  Co  Co19  1  0.820198  0.625729  0.000000  1
  Co  Co20  1  0.804553  0.178521  0.000000  1
  Co  Co21  1  0.373850  0.194555  0.000000  1
  Co  Co22  1  0.000161  0.999392  0.000000  1
  Co  Co23  1  0.627095  0.820440  0.000000  1
  P  P24  1  0.641279  0.640621  0.000000  1
  P  P25  1  0.357967  0.000634  0.000000  1
  P  P26  1  0.998445  0.356345  0.000000  1
  P  P27  1  0.481737  0.312843  0.500000  1
  P  P28  1  0.687059  0.169137  0.500000  1
  P  P29  1  0.830293  0.517958  0.500000  1
  P  P30  1  0.518862  0.830553  0.500000  1
  P  P31  1  0.170586  0.689975  0.500000  1
  P  P32  1  0.821975  0.999569  0.000000  1
  P  P33  1  0.001660  0.821391  0.000000  1
  P  P34  1  0.312382  0.481936  0.500000  1
  P  P35  1  0.178037  0.179593  0.000000  1
