# generated using pymatgen
data_NaTlZnF6
_symmetry_space_group_name_H-M   'P 1'
_cell_length_a   5.13195700
_cell_length_b   5.13195700
_cell_length_c   10.19553700
_cell_angle_alpha   90.00000000
_cell_angle_beta   90.00000000
_cell_angle_gamma   90.00000000
_symmetry_Int_Tables_number   1
_chemical_formula_structural   NaTlZnF6
_chemical_formula_sum   'Na2 Tl2 Zn2 F12'
_cell_volume   268.51968107
_cell_formula_units_Z   2
loop_
 _symmetry_equiv_pos_site_id
 _symmetry_equiv_pos_as_xyz
  1  'x, y, z'
loop_
 _atom_site_type_symbol
 _atom_site_label
 _atom_site_symmetry_multiplicity
 _atom_site_fract_x
 _atom_site_fract_y
 _atom_site_fract_z
 _atom_site_occupancy
  Na  Na0  1  0.500000  0.500000  0.499254  1
  Na  Na1  1  0.000000  0.000000  0.999254  1
  Tl  Tl2  1  0.500000  0.500000  0.832014  1
  Tl  Tl3  1  0.000000  0.000000  0.332014  1
  Zn  Zn4  1  0.500000  0.500000  0.167116  1
  Zn  Zn5  1  0.000000  0.000000  0.667116  1
  F  F6  1  0.181946  0.818054  0.507764  1
  F  F7  1  0.818054  0.181946  0.507764  1
  F  F8  1  0.318054  0.318054  0.007764  1
  F  F9  1  0.681946  0.681946  0.007764  1
  F  F10  1  0.212654  0.787346  0.175792  1
  F  F11  1  0.787346  0.212654  0.175792  1
  F  F12  1  0.287346  0.287346  0.675792  1
  F  F13  1  0.712654  0.712654  0.675792  1
  F  F14  1  0.805671  0.194329  0.817252  1
  F  F15  1  0.194329  0.805671  0.817252  1
  F  F16  1  0.694329  0.694329  0.317252  1
  F  F17  1  0.305671  0.305671  0.317252  1
