# generated using pymatgen
data_Y3Ho17Cd3Hg3Ir2
_symmetry_space_group_name_H-M   'P 1'
_cell_length_a   9.61027600
_cell_length_b   9.61027500
_cell_length_c   9.73797300
_cell_angle_alpha   90.00000000
_cell_angle_beta   90.00000000
_cell_angle_gamma   120.00000344
_symmetry_Int_Tables_number   1
_chemical_formula_structural   Y3Ho17Cd3Hg3Ir2
_chemical_formula_sum   'Y3 Ho17 Cd3 Hg3 Ir2'
_cell_volume   778.88054931
_cell_formula_units_Z   1
loop_
 _symmetry_equiv_pos_site_id
 _symmetry_equiv_pos_as_xyz
  1  'x, y, z'
loop_
 _atom_site_type_symbol
 _atom_site_label
 _atom_site_symmetry_multiplicity
 _atom_site_fract_x
 _atom_site_fract_y
 _atom_site_fract_z
 _atom_site_occupancy
  Y  Y0  1  0.458936  0.541064  0.750000  1
  Y  Y1  1  0.458936  0.917872  0.750000  1
  Y  Y2  1  0.082128  0.541064  0.750000  1
  Ho  Ho3  1  0.000000  0.000000  0.490104  1
  Ho  Ho4  1  0.000000  0.000000  0.009896  1
  Ho  Ho5  1  0.208994  0.791006  0.439813  1
  Ho  Ho6  1  0.208994  0.417988  0.439813  1
  Ho  Ho7  1  0.582012  0.791006  0.439813  1
  Ho  Ho8  1  0.790743  0.209257  0.558636  1
  Ho  Ho9  1  0.790743  0.581485  0.558636  1
  Ho  Ho10  1  0.418515  0.209257  0.558636  1
  Ho  Ho11  1  0.790743  0.209257  0.941364  1
  Ho  Ho12  1  0.790743  0.581485  0.941364  1
  Ho  Ho13  1  0.418515  0.209257  0.941364  1
  Ho  Ho14  1  0.208994  0.791006  0.060187  1
  Ho  Ho15  1  0.208994  0.417988  0.060187  1
  Ho  Ho16  1  0.582012  0.791006  0.060187  1
  Ho  Ho17  1  0.541112  0.458888  0.250000  1
  Ho  Ho18  1  0.541112  0.082224  0.250000  1
  Ho  Ho19  1  0.917776  0.458888  0.250000  1
  Cd  Cd20  1  0.112179  0.887821  0.750000  1
  Cd  Cd21  1  0.112179  0.224358  0.750000  1
  Cd  Cd22  1  0.775642  0.887821  0.750000  1
  Hg  Hg23  1  0.879388  0.120612  0.250000  1
  Hg  Hg24  1  0.879388  0.758778  0.250000  1
  Hg  Hg25  1  0.241222  0.120612  0.250000  1
  Ir  Ir26  1  0.333333  0.666667  0.250000  1
  Ir  Ir27  1  0.666667  0.333333  0.750000  1
