# generated using pymatgen
data_Ce12Si8IrOs7
_symmetry_space_group_name_H-M   'P 1'
_cell_length_a   5.58142906
_cell_length_b   7.90673723
_cell_length_c   13.30955400
_cell_angle_alpha   89.85269399
_cell_angle_beta   89.99153102
_cell_angle_gamma   89.96970980
_symmetry_Int_Tables_number   1
_chemical_formula_structural   Ce12Si8IrOs7
_chemical_formula_sum   'Ce12 Si8 Ir1 Os7'
_cell_volume   587.36047359
_cell_formula_units_Z   1
loop_
 _symmetry_equiv_pos_site_id
 _symmetry_equiv_pos_as_xyz
  1  'x, y, z'
loop_
 _atom_site_type_symbol
 _atom_site_label
 _atom_site_symmetry_multiplicity
 _atom_site_fract_x
 _atom_site_fract_y
 _atom_site_fract_z
 _atom_site_occupancy
  Ce  Ce0  1  0.129223  0.248929  0.750039  1
  Ce  Ce1  1  0.866383  0.752069  0.251595  1
  Ce  Ce2  1  0.134868  0.250690  0.250626  1
  Ce  Ce3  1  0.866894  0.749117  0.750605  1
  Ce  Ce4  1  0.652055  0.398785  0.600639  1
  Ce  Ce5  1  0.352719  0.610399  0.099065  1
  Ce  Ce6  1  0.652670  0.102883  0.399846  1
  Ce  Ce7  1  0.348882  0.896167  0.899887  1
  Ce  Ce8  1  0.348598  0.600767  0.399138  1
  Ce  Ce9  1  0.647803  0.394478  0.898800  1
  Ce  Ce10  1  0.348907  0.896764  0.600058  1
  Ce  Ce11  1  0.651840  0.098149  0.099207  1
  Si  Si12  1  0.112722  0.250231  0.500010  1
  Si  Si13  1  0.880055  0.750983  0.000211  1
  Si  Si14  1  0.888238  0.749747  0.500655  1
  Si  Si15  1  0.121982  0.249318  0.998342  1
  Si  Si16  1  0.637837  0.099686  0.749432  1
  Si  Si17  1  0.358370  0.900362  0.250475  1
  Si  Si18  1  0.640434  0.399277  0.249032  1
  Si  Si19  1  0.357729  0.598811  0.750547  1
  Ir  Ir20  1  0.863495  0.467400  0.092753  1
  Os  Os21  1  0.855589  0.028981  0.591079  1
  Os  Os22  1  0.138988  0.970548  0.091658  1
  Os  Os23  1  0.856749  0.472017  0.407932  1
  Os  Os24  1  0.139648  0.530937  0.909745  1
  Os  Os25  1  0.144248  0.971577  0.409512  1
  Os  Os26  1  0.859674  0.033230  0.907800  1
  Os  Os27  1  0.143399  0.527698  0.591313  1
