# generated using pymatgen
data_LaYbPr3CdPd4
_symmetry_space_group_name_H-M   'P 1'
_cell_length_a   8.02225797
_cell_length_b   8.05056177
_cell_length_c   3.97671500
_cell_angle_alpha   90.00000000
_cell_angle_beta   90.00000000
_cell_angle_gamma   90.40772544
_symmetry_Int_Tables_number   1
_chemical_formula_structural   LaYbPr3CdPd4
_chemical_formula_sum   'La1 Yb1 Pr3 Cd1 Pd4'
_cell_volume   256.82439933
_cell_formula_units_Z   1
loop_
 _symmetry_equiv_pos_site_id
 _symmetry_equiv_pos_as_xyz
  1  'x, y, z'
loop_
 _atom_site_type_symbol
 _atom_site_label
 _atom_site_symmetry_multiplicity
 _atom_site_fract_x
 _atom_site_fract_y
 _atom_site_fract_z
 _atom_site_occupancy
  La  La0  1  0.352652  0.815287  0.500000  1
  Yb  Yb1  1  0.999085  0.000533  0.000000  1
  Pr  Pr2  1  0.815232  0.647056  0.500000  1
  Pr  Pr3  1  0.184908  0.352184  0.500000  1
  Pr  Pr4  1  0.647762  0.185773  0.500000  1
  Cd  Cd5  1  0.500540  0.499081  0.000000  1
  Pd  Pd6  1  0.361472  0.123109  0.000000  1
  Pd  Pd7  1  0.877000  0.361684  0.000000  1
  Pd  Pd8  1  0.123497  0.638627  0.000000  1
  Pd  Pd9  1  0.637851  0.876665  0.000000  1
