# generated using pymatgen
data_Sr8FeRu3O16
_symmetry_space_group_name_H-M   'P 1'
_cell_length_a   5.55534273
_cell_length_b   5.55543215
_cell_length_c   13.47011433
_cell_angle_alpha   101.85197391
_cell_angle_beta   101.85500113
_cell_angle_gamma   89.99326944
_symmetry_Int_Tables_number   1
_chemical_formula_structural   Sr8FeRu3O16
_chemical_formula_sum   'Sr8 Fe1 Ru3 O16'
_cell_volume   397.79421669
_cell_formula_units_Z   1
loop_
 _symmetry_equiv_pos_site_id
 _symmetry_equiv_pos_as_xyz
  1  'x, y, z'
loop_
 _atom_site_type_symbol
 _atom_site_label
 _atom_site_symmetry_multiplicity
 _atom_site_fract_x
 _atom_site_fract_y
 _atom_site_fract_z
 _atom_site_occupancy
  Sr  Sr0  1  0.822320  0.823324  0.644196  1
  Sr  Sr1  1  0.076755  0.576255  0.148854  1
  Sr  Sr2  1  0.178892  0.178441  0.355822  1
  Sr  Sr3  1  0.425432  0.925955  0.851176  1
  Sr  Sr4  1  0.321105  0.321310  0.644162  1
  Sr  Sr5  1  0.575612  0.075626  0.150755  1
  Sr  Sr6  1  0.677765  0.676557  0.355820  1
  Sr  Sr7  1  0.922629  0.422674  0.849236  1
  Fe  Fe8  1  0.750080  0.249934  0.500013  1
  Ru  Ru9  1  0.999753  0.999835  0.000005  1
  Ru  Ru10  1  0.250049  0.749893  0.499992  1
  Ru  Ru11  1  0.499892  0.500156  0.999997  1
  O  O12  1  0.023920  0.481463  0.500078  1
  O  O13  1  0.916401  0.921745  0.838060  1
  O  O14  1  0.082576  0.077202  0.161932  1
  O  O15  1  0.172806  0.669157  0.341945  1
  O  O16  1  0.326805  0.830259  0.658048  1
  O  O17  1  0.210416  0.710732  0.997843  1
  O  O18  1  0.287906  0.211834  0.000104  1
  O  O19  1  0.476448  0.018443  0.499886  1
  O  O20  1  0.519216  0.524281  0.501374  1
  O  O21  1  0.422399  0.417088  0.838083  1
  O  O22  1  0.577908  0.583479  0.161924  1
  O  O23  1  0.669147  0.174063  0.340334  1
  O  O24  1  0.832310  0.327096  0.659662  1
  O  O25  1  0.711464  0.788508  0.000006  1
  O  O26  1  0.789180  0.289168  0.002037  1
  O  O27  1  0.980813  0.975522  0.498659  1
