# generated using pymatgen
data_NaAs2Pd3
_symmetry_space_group_name_H-M   'P 1'
_cell_length_a   4.01744600
_cell_length_b   8.70728139
_cell_length_c   10.02171704
_cell_angle_alpha   106.55977141
_cell_angle_beta   90.00000000
_cell_angle_gamma   103.33796380
_symmetry_Int_Tables_number   1
_chemical_formula_structural   NaAs2Pd3
_chemical_formula_sum   'Na3 As6 Pd9'
_cell_volume   326.15189167
_cell_formula_units_Z   3
loop_
 _symmetry_equiv_pos_site_id
 _symmetry_equiv_pos_as_xyz
  1  'x, y, z'
loop_
 _atom_site_type_symbol
 _atom_site_label
 _atom_site_symmetry_multiplicity
 _atom_site_fract_x
 _atom_site_fract_y
 _atom_site_fract_z
 _atom_site_occupancy
  Na  Na0  1  0.000000  0.000000  0.000000  1
  Na  Na1  1  0.844719  0.689435  0.298933  1
  Na  Na2  1  0.155282  0.310565  0.701068  1
  As  As3  1  0.197039  0.394079  0.132063  1
  As  As4  1  0.458667  0.917334  0.218431  1
  As  As5  1  0.636739  0.273475  0.456944  1
  As  As6  1  0.363263  0.726525  0.543056  1
  As  As7  1  0.541333  0.082666  0.781570  1
  As  As8  1  0.802962  0.605922  0.867938  1
  Pd  Pd9  1  0.318670  0.637341  0.039631  1
  Pd  Pd10  1  0.623148  0.246294  0.201282  1
  Pd  Pd11  1  0.040721  0.081443  0.323620  1
  Pd  Pd12  1  0.218578  0.437155  0.395198  1
  Pd  Pd13  1  0.499999  0.999999  0.500001  1
  Pd  Pd14  1  0.781424  0.562845  0.604803  1
  Pd  Pd15  1  0.959281  0.918558  0.676381  1
  Pd  Pd16  1  0.376853  0.753706  0.798718  1
  Pd  Pd17  1  0.681330  0.362660  0.960369  1
