# generated using pymatgen
data_K5Cd5Au
_symmetry_space_group_name_H-M   'P 1'
_cell_length_a   18.11892752
_cell_length_b   18.11892722
_cell_length_c   5.46612100
_cell_angle_alpha   90.00000000
_cell_angle_beta   90.00000000
_cell_angle_gamma   165.98959899
_symmetry_Int_Tables_number   1
_chemical_formula_structural   K5Cd5Au
_chemical_formula_sum   'K5 Cd5 Au1'
_cell_volume   434.44566374
_cell_formula_units_Z   1
loop_
 _symmetry_equiv_pos_site_id
 _symmetry_equiv_pos_as_xyz
  1  'x, y, z'
loop_
 _atom_site_type_symbol
 _atom_site_label
 _atom_site_symmetry_multiplicity
 _atom_site_fract_x
 _atom_site_fract_y
 _atom_site_fract_z
 _atom_site_occupancy
  K  K0  1  0.000436  0.999564  0.000000  1
  K  K1  1  0.621675  0.378323  0.000000  1
  K  K2  1  0.382549  0.617449  0.000000  1
  K  K3  1  0.801860  0.198138  0.500001  1
  K  K4  1  0.197133  0.802865  0.500001  1
  Cd  Cd5  1  0.270379  0.729619  0.000000  1
  Cd  Cd6  1  0.906027  0.093972  0.500001  1
  Cd  Cd7  1  0.540357  0.459641  0.500001  1
  Cd  Cd8  1  0.460130  0.539868  0.500001  1
  Cd  Cd9  1  0.093685  0.906314  0.500001  1
  Au  Au10  1  0.725761  0.274237  0.000000  1
