# generated using pymatgen
data_Lu20(IrPt3)3
_symmetry_space_group_name_H-M   'P 1'
_cell_length_a   10.82859300
_cell_length_b   10.82859300
_cell_length_c   6.28093200
_cell_angle_alpha   90.00000000
_cell_angle_beta   90.00000000
_cell_angle_gamma   90.00000000
_symmetry_Int_Tables_number   1
_chemical_formula_structural   Lu20(IrPt3)3
_chemical_formula_sum   'Lu20 Ir3 Pt9'
_cell_volume   736.49220239
_cell_formula_units_Z   1
loop_
 _symmetry_equiv_pos_site_id
 _symmetry_equiv_pos_as_xyz
  1  'x, y, z'
loop_
 _atom_site_type_symbol
 _atom_site_label
 _atom_site_symmetry_multiplicity
 _atom_site_fract_x
 _atom_site_fract_y
 _atom_site_fract_z
 _atom_site_occupancy
  Lu  Lu0  1  0.088325  0.294449  0.120743  1
  Lu  Lu1  1  0.794449  0.411675  0.120743  1
  Lu  Lu2  1  0.205551  0.588325  0.120743  1
  Lu  Lu3  1  0.911675  0.705551  0.120743  1
  Lu  Lu4  1  0.412069  0.796220  0.375589  1
  Lu  Lu5  1  0.587931  0.203780  0.375589  1
  Lu  Lu6  1  0.296220  0.087931  0.375589  1
  Lu  Lu7  1  0.703780  0.912069  0.375589  1
  Lu  Lu8  1  0.412587  0.203736  0.876308  1
  Lu  Lu9  1  0.703736  0.087413  0.876308  1
  Lu  Lu10  1  0.296264  0.912587  0.876308  1
  Lu  Lu11  1  0.587413  0.796264  0.876308  1
  Lu  Lu12  1  0.088234  0.706204  0.627433  1
  Lu  Lu13  1  0.911766  0.293796  0.627433  1
  Lu  Lu14  1  0.206204  0.411766  0.627433  1
  Lu  Lu15  1  0.793796  0.588234  0.627433  1
  Lu  Lu16  1  0.000000  0.000000  0.999524  1
  Lu  Lu17  1  0.500000  0.500000  0.999524  1
  Lu  Lu18  1  0.500000  0.500000  0.499324  1
  Lu  Lu19  1  0.000000  0.000000  0.499324  1
  Ir  Ir20  1  0.500000  0.000000  0.121097  1
  Ir  Ir21  1  0.500000  0.000000  0.620317  1
  Ir  Ir22  1  0.000000  0.500000  0.880158  1
  Pt  Pt23  1  0.152347  0.845866  0.249880  1
  Pt  Pt24  1  0.345866  0.347653  0.249880  1
  Pt  Pt25  1  0.654134  0.652347  0.249880  1
  Pt  Pt26  1  0.847653  0.154134  0.249880  1
  Pt  Pt27  1  0.346850  0.653123  0.749868  1
  Pt  Pt28  1  0.153123  0.153150  0.749868  1
  Pt  Pt29  1  0.846877  0.846850  0.749868  1
  Pt  Pt30  1  0.653150  0.346877  0.749868  1
  Pt  Pt31  1  0.000000  0.500000  0.381446  1
