# generated using pymatgen
data_Y12Tc2PdRu
_symmetry_space_group_name_H-M   'P 1'
_cell_length_a   6.37806800
_cell_length_b   7.39107571
_cell_length_c   9.26293800
_cell_angle_alpha   90.00000000
_cell_angle_beta   90.00000000
_cell_angle_gamma   90.13595166
_symmetry_Int_Tables_number   1
_chemical_formula_structural   Y12Tc2PdRu
_chemical_formula_sum   'Y12 Tc2 Pd1 Ru1'
_cell_volume   436.66092536
_cell_formula_units_Z   1
loop_
 _symmetry_equiv_pos_site_id
 _symmetry_equiv_pos_as_xyz
  1  'x, y, z'
loop_
 _atom_site_type_symbol
 _atom_site_label
 _atom_site_symmetry_multiplicity
 _atom_site_fract_x
 _atom_site_fract_y
 _atom_site_fract_z
 _atom_site_occupancy
  Y  Y0  1  0.627807  0.042972  0.250000  1
  Y  Y1  1  0.367136  0.956830  0.750000  1
  Y  Y2  1  0.132224  0.461287  0.750000  1
  Y  Y3  1  0.867480  0.533990  0.250000  1
  Y  Y4  1  0.168316  0.183693  0.058583  1
  Y  Y5  1  0.826544  0.822297  0.931038  1
  Y  Y6  1  0.668158  0.321870  0.935565  1
  Y  Y7  1  0.826544  0.822297  0.568962  1
  Y  Y8  1  0.336216  0.673029  0.061103  1
  Y  Y9  1  0.168316  0.183693  0.441417  1
  Y  Y10  1  0.336216  0.673029  0.438897  1
  Y  Y11  1  0.668158  0.321870  0.564435  1
  Tc  Tc12  1  0.459722  0.387123  0.250000  1
  Tc  Tc13  1  0.964551  0.113051  0.750000  1
  Pd  Pd14  1  0.046628  0.886918  0.250000  1
  Ru  Ru15  1  0.535981  0.616049  0.750000  1
