# generated using pymatgen
data_Lu(Hf5Bi6)3
_symmetry_space_group_name_H-M   'P 1'
_cell_length_a   10.83785300
_cell_length_b   10.83785300
_cell_length_c   7.64541100
_cell_angle_alpha   90.00000000
_cell_angle_beta   90.00000000
_cell_angle_gamma   90.00000000
_symmetry_Int_Tables_number   1
_chemical_formula_structural   Lu(Hf5Bi6)3
_chemical_formula_sum   'Lu1 Hf15 Bi18'
_cell_volume   898.02277140
_cell_formula_units_Z   1
loop_
 _symmetry_equiv_pos_site_id
 _symmetry_equiv_pos_as_xyz
  1  'x, y, z'
loop_
 _atom_site_type_symbol
 _atom_site_label
 _atom_site_symmetry_multiplicity
 _atom_site_fract_x
 _atom_site_fract_y
 _atom_site_fract_z
 _atom_site_occupancy
  Lu  Lu0  1  0.750000  0.750000  0.079939  1
  Hf  Hf1  1  0.000796  0.000796  0.000506  1
  Hf  Hf2  1  0.499204  0.000796  0.000506  1
  Hf  Hf3  1  0.000796  0.499204  0.000506  1
  Hf  Hf4  1  0.499204  0.499204  0.000506  1
  Hf  Hf5  1  0.750000  0.104307  0.152479  1
  Hf  Hf6  1  0.750000  0.395692  0.152479  1
  Hf  Hf7  1  0.104307  0.750000  0.152479  1
  Hf  Hf8  1  0.395692  0.750000  0.152479  1
  Hf  Hf9  1  0.250000  0.250000  0.433505  1
  Hf  Hf10  1  0.750000  0.750000  0.566433  1
  Hf  Hf11  1  0.605123  0.249999  0.846066  1
  Hf  Hf12  1  0.894878  0.250000  0.846066  1
  Hf  Hf13  1  0.249999  0.605123  0.846066  1
  Hf  Hf14  1  0.250000  0.894878  0.846066  1
  Hf  Hf15  1  0.250000  0.250000  0.920696  1
  Bi  Bi16  1  0.250000  0.016602  0.197039  1
  Bi  Bi17  1  0.016602  0.250000  0.197039  1
  Bi  Bi18  1  0.483397  0.249999  0.197039  1
  Bi  Bi19  1  0.249999  0.483397  0.197039  1
  Bi  Bi20  1  0.581146  0.581146  0.354641  1
  Bi  Bi21  1  0.918854  0.581146  0.354641  1
  Bi  Bi22  1  0.918854  0.918854  0.354641  1
  Bi  Bi23  1  0.581146  0.918854  0.354641  1
  Bi  Bi24  1  0.750000  0.250000  0.498146  1
  Bi  Bi25  1  0.250000  0.750000  0.498146  1
  Bi  Bi26  1  0.416127  0.083873  0.649287  1
  Bi  Bi27  1  0.083873  0.083873  0.649287  1
  Bi  Bi28  1  0.083873  0.416127  0.649287  1
  Bi  Bi29  1  0.416127  0.416127  0.649287  1
  Bi  Bi30  1  0.750000  0.513781  0.800768  1
  Bi  Bi31  1  0.513781  0.750000  0.800768  1
  Bi  Bi32  1  0.986219  0.750000  0.800768  1
  Bi  Bi33  1  0.750000  0.986219  0.800768  1
