# generated using pymatgen
data_Lu4B16MoRh2W
_symmetry_space_group_name_H-M   'P 1'
_cell_length_a   3.55764500
_cell_length_b   5.95260306
_cell_length_c   11.51479905
_cell_angle_alpha   90.31860311
_cell_angle_beta   90.00000000
_cell_angle_gamma   90.00000000
_symmetry_Int_Tables_number   1
_chemical_formula_structural   Lu4B16MoRh2W
_chemical_formula_sum   'Lu4 B16 Mo1 Rh2 W1'
_cell_volume   243.84799076
_cell_formula_units_Z   1
loop_
 _symmetry_equiv_pos_site_id
 _symmetry_equiv_pos_as_xyz
  1  'x, y, z'
loop_
 _atom_site_type_symbol
 _atom_site_label
 _atom_site_symmetry_multiplicity
 _atom_site_fract_x
 _atom_site_fract_y
 _atom_site_fract_z
 _atom_site_occupancy
  Lu  Lu0  1  0.500000  0.370158  0.147432  1
  Lu  Lu1  1  0.500000  0.629896  0.852188  1
  Lu  Lu2  1  0.500000  0.128250  0.650488  1
  Lu  Lu3  1  0.500000  0.871415  0.349648  1
  B  B4  1  0.000000  0.114055  0.047810  1
  B  B5  1  0.000000  0.886026  0.952155  1
  B  B6  1  0.000000  0.384745  0.547869  1
  B  B7  1  0.000000  0.615887  0.452564  1
  B  B8  1  0.000000  0.131057  0.468159  1
  B  B9  1  0.000000  0.868358  0.532181  1
  B  B10  1  0.000000  0.365516  0.969951  1
  B  B11  1  0.000000  0.634473  0.030047  1
  B  B12  1  0.000000  0.022052  0.192441  1
  B  B13  1  0.000000  0.977719  0.807482  1
  B  B14  1  0.000000  0.476563  0.695696  1
  B  B15  1  0.000000  0.524040  0.304174  1
  B  B16  1  0.000000  0.206634  0.311333  1
  B  B17  1  0.000000  0.792854  0.688274  1
  B  B18  1  0.000000  0.289661  0.814254  1
  B  B19  1  0.000000  0.710431  0.185673  1
  Mo  Mo20  1  0.500000  0.630241  0.586628  1
  Rh  Rh21  1  0.500000  0.143266  0.906386  1
  Rh  Rh22  1  0.500000  0.856790  0.093834  1
  W  W23  1  0.500000  0.369912  0.413333  1
