# generated using pymatgen
data_Sc6Al13Fe7Mo3
_symmetry_space_group_name_H-M   'P 1'
_cell_length_a   8.57327638
_cell_length_b   8.57327657
_cell_length_c   8.57327604
_cell_angle_alpha   59.96584041
_cell_angle_beta   59.96584421
_cell_angle_gamma   59.96583543
_symmetry_Int_Tables_number   1
_chemical_formula_structural   Sc6Al13Fe7Mo3
_chemical_formula_sum   'Sc6 Al13 Fe7 Mo3'
_cell_volume   445.23460122
_cell_formula_units_Z   1
loop_
 _symmetry_equiv_pos_site_id
 _symmetry_equiv_pos_as_xyz
  1  'x, y, z'
loop_
 _atom_site_type_symbol
 _atom_site_label
 _atom_site_symmetry_multiplicity
 _atom_site_fract_x
 _atom_site_fract_y
 _atom_site_fract_z
 _atom_site_occupancy
  Sc  Sc0  1  0.706726  0.706726  0.290817  1
  Sc  Sc1  1  0.294137  0.707488  0.294137  1
  Sc  Sc2  1  0.707488  0.294137  0.294137  1
  Sc  Sc3  1  0.294137  0.294137  0.707488  1
  Sc  Sc4  1  0.706726  0.290817  0.706726  1
  Sc  Sc5  1  0.290817  0.706726  0.706726  1
  Al  Al6  1  0.881426  0.881426  0.881426  1
  Al  Al7  1  0.119332  0.119332  0.642723  1
  Al  Al8  1  0.119332  0.642723  0.119332  1
  Al  Al9  1  0.642723  0.119332  0.119332  1
  Al  Al10  1  0.120385  0.120385  0.120385  1
  Al  Al11  1  0.666748  0.666748  0.003636  1
  Al  Al12  1  0.666748  0.003636  0.666748  1
  Al  Al13  1  0.003636  0.666748  0.666748  1
  Al  Al14  1  0.663441  0.663441  0.663441  1
  Al  Al15  1  0.333259  0.333259  0.000312  1
  Al  Al16  1  0.333259  0.000312  0.333259  1
  Al  Al17  1  0.000312  0.333259  0.333259  1
  Al  Al18  1  0.334535  0.334535  0.334535  1
  Fe  Fe19  1  0.004607  0.004607  0.004607  1
  Fe  Fe20  1  0.996071  0.996071  0.493776  1
  Fe  Fe21  1  0.505134  0.993706  0.505134  1
  Fe  Fe22  1  0.993706  0.505134  0.505134  1
  Fe  Fe23  1  0.505134  0.505134  0.993706  1
  Fe  Fe24  1  0.996071  0.493776  0.996071  1
  Fe  Fe25  1  0.493776  0.996071  0.996071  1
  Mo  Mo26  1  0.879942  0.879942  0.360449  1
  Mo  Mo27  1  0.879942  0.360449  0.879942  1
  Mo  Mo28  1  0.360449  0.879942  0.879942  1
