# generated using pymatgen
data_Sc12Si12Os3Rh
_symmetry_space_group_name_H-M   'P 1'
_cell_length_a   4.02204700
_cell_length_b   10.28057103
_cell_length_c   11.68604849
_cell_angle_alpha   90.08822439
_cell_angle_beta   90.00000000
_cell_angle_gamma   90.00000000
_symmetry_Int_Tables_number   1
_chemical_formula_structural   Sc12Si12Os3Rh
_chemical_formula_sum   'Sc12 Si12 Os3 Rh1'
_cell_volume   483.20514318
_cell_formula_units_Z   1
loop_
 _symmetry_equiv_pos_site_id
 _symmetry_equiv_pos_as_xyz
  1  'x, y, z'
loop_
 _atom_site_type_symbol
 _atom_site_label
 _atom_site_symmetry_multiplicity
 _atom_site_fract_x
 _atom_site_fract_y
 _atom_site_fract_z
 _atom_site_occupancy
  Sc  Sc0  1  0.250000  0.878084  0.020865  1
  Sc  Sc1  1  0.250000  0.622915  0.519326  1
  Sc  Sc2  1  0.750000  0.123616  0.981749  1
  Sc  Sc3  1  0.750000  0.377931  0.480799  1
  Sc  Sc4  1  0.250000  0.920736  0.602768  1
  Sc  Sc5  1  0.250000  0.579686  0.104426  1
  Sc  Sc6  1  0.750000  0.079001  0.395725  1
  Sc  Sc7  1  0.750000  0.420559  0.895177  1
  Sc  Sc8  1  0.250000  0.658810  0.798342  1
  Sc  Sc9  1  0.250000  0.840264  0.298125  1
  Sc  Sc10  1  0.750000  0.340847  0.201900  1
  Sc  Sc11  1  0.750000  0.158154  0.700955  1
  Si  Si12  1  0.250000  0.014856  0.823071  1
  Si  Si13  1  0.250000  0.485503  0.321580  1
  Si  Si14  1  0.750000  0.985124  0.178073  1
  Si  Si15  1  0.750000  0.514532  0.678501  1
  Si  Si16  1  0.250000  0.250633  0.841550  1
  Si  Si17  1  0.250000  0.248662  0.342388  1
  Si  Si18  1  0.750000  0.748669  0.157644  1
  Si  Si19  1  0.750000  0.751537  0.657337  1
  Si  Si20  1  0.250000  0.195546  0.545789  1
  Si  Si21  1  0.250000  0.305631  0.045713  1
  Si  Si22  1  0.750000  0.805710  0.453939  1
  Si  Si23  1  0.750000  0.693048  0.954831  1
  Os  Os24  1  0.250000  0.390693  0.676555  1
  Os  Os25  1  0.250000  0.109747  0.176481  1
  Os  Os26  1  0.750000  0.609981  0.323399  1
  Rh  Rh27  1  0.750000  0.889528  0.822993  1
