# generated using pymatgen
data_Dy4Lu3ScPt4
_symmetry_space_group_name_H-M   'P 1'
_cell_length_a   4.71873400
_cell_length_b   7.05287280
_cell_length_c   8.57838982
_cell_angle_alpha   89.95814945
_cell_angle_beta   90.00000000
_cell_angle_gamma   90.00000000
_symmetry_Int_Tables_number   1
_chemical_formula_structural   Dy4Lu3ScPt4
_chemical_formula_sum   'Dy4 Lu3 Sc1 Pt4'
_cell_volume   285.49414717
_cell_formula_units_Z   1
loop_
 _symmetry_equiv_pos_site_id
 _symmetry_equiv_pos_as_xyz
  1  'x, y, z'
loop_
 _atom_site_type_symbol
 _atom_site_label
 _atom_site_symmetry_multiplicity
 _atom_site_fract_x
 _atom_site_fract_y
 _atom_site_fract_z
 _atom_site_occupancy
  Dy  Dy0  1  0.250000  0.984157  0.328999  1
  Dy  Dy1  1  0.750000  0.010432  0.676907  1
  Dy  Dy2  1  0.250000  0.490749  0.165986  1
  Dy  Dy3  1  0.750000  0.519860  0.827892  1
  Lu  Lu4  1  0.750000  0.642106  0.421744  1
  Lu  Lu5  1  0.250000  0.355150  0.576018  1
  Lu  Lu6  1  0.750000  0.143683  0.075901  1
  Sc  Sc7  1  0.250000  0.860246  0.925108  1
  Pt  Pt8  1  0.250000  0.249758  0.902664  1
  Pt  Pt9  1  0.750000  0.749334  0.091857  1
  Pt  Pt10  1  0.250000  0.753443  0.601244  1
  Pt  Pt11  1  0.750000  0.241082  0.405678  1
