# generated using pymatgen
data_Y2BeSi13Ir6
_symmetry_space_group_name_H-M   'P 1'
_cell_length_a   7.97867972
_cell_length_b   7.97867888
_cell_length_c   7.97867958
_cell_angle_alpha   57.29928448
_cell_angle_beta   57.29927748
_cell_angle_gamma   57.29928589
_symmetry_Int_Tables_number   1
_chemical_formula_structural   Y2BeSi13Ir6
_chemical_formula_sum   'Y2 Be1 Si13 Ir6'
_cell_volume   336.82010774
_cell_formula_units_Z   1
loop_
 _symmetry_equiv_pos_site_id
 _symmetry_equiv_pos_as_xyz
  1  'x, y, z'
loop_
 _atom_site_type_symbol
 _atom_site_label
 _atom_site_symmetry_multiplicity
 _atom_site_fract_x
 _atom_site_fract_y
 _atom_site_fract_z
 _atom_site_occupancy
  Y  Y0  1  0.998532  0.998532  0.998532  1
  Y  Y1  1  0.501468  0.501468  0.501468  1
  Be  Be2  1  0.750000  0.750000  0.750000  1
  Si  Si3  1  0.250000  0.250000  0.250000  1
  Si  Si4  1  0.846671  0.055643  0.674604  1
  Si  Si5  1  0.674604  0.846671  0.055643  1
  Si  Si6  1  0.055643  0.674604  0.846671  1
  Si  Si7  1  0.653329  0.825396  0.444357  1
  Si  Si8  1  0.444357  0.653329  0.825396  1
  Si  Si9  1  0.825396  0.444357  0.653329  1
  Si  Si10  1  0.169388  0.563423  0.356343  1
  Si  Si11  1  0.563423  0.356343  0.169388  1
  Si  Si12  1  0.356343  0.169388  0.563423  1
  Si  Si13  1  0.936577  0.330612  0.143657  1
  Si  Si14  1  0.330612  0.143657  0.936577  1
  Si  Si15  1  0.143657  0.936577  0.330612  1
  Ir  Ir16  1  0.078781  0.421219  0.750000  1
  Ir  Ir17  1  0.250000  0.926382  0.573618  1
  Ir  Ir18  1  0.573618  0.250000  0.926382  1
  Ir  Ir19  1  0.926382  0.573618  0.250000  1
  Ir  Ir20  1  0.421219  0.750000  0.078781  1
  Ir  Ir21  1  0.750000  0.078781  0.421219  1
