# generated using pymatgen
data_Er2FeCoSi2C
_symmetry_space_group_name_H-M   'P 1'
_cell_length_a   5.57904985
_cell_length_b   5.57904952
_cell_length_c   6.73109396
_cell_angle_alpha   126.37342219
_cell_angle_beta   126.37341750
_cell_angle_gamma   40.60798648
_symmetry_Int_Tables_number   1
_chemical_formula_structural   Er2FeCoSi2C
_chemical_formula_sum   'Er2 Fe1 Co1 Si2 C1'
_cell_volume   105.64221787
_cell_formula_units_Z   1
loop_
 _symmetry_equiv_pos_site_id
 _symmetry_equiv_pos_as_xyz
  1  'x, y, z'
loop_
 _atom_site_type_symbol
 _atom_site_label
 _atom_site_symmetry_multiplicity
 _atom_site_fract_x
 _atom_site_fract_y
 _atom_site_fract_z
 _atom_site_occupancy
  Er  Er0  1  0.561323  0.561323  0.292810  1
  Er  Er1  1  0.438088  0.438088  0.706219  1
  Fe  Fe2  1  0.200641  0.200641  0.091044  1
  Co  Co3  1  0.797860  0.797860  0.907001  1
  Si  Si4  1  0.843228  0.843228  0.294667  1
  Si  Si5  1  0.156029  0.156029  0.705129  1
  C  C6  1  0.002832  0.002832  0.003132  1
