# generated using pymatgen
data_LiCe2DyIn3Pd2
_symmetry_space_group_name_H-M   'P 1'
_cell_length_a   7.78960591
_cell_length_b   7.78960674
_cell_length_c   3.92862200
_cell_angle_alpha   90.00000000
_cell_angle_beta   90.00000000
_cell_angle_gamma   120.35534958
_symmetry_Int_Tables_number   1
_chemical_formula_structural   LiCe2DyIn3Pd2
_chemical_formula_sum   'Li1 Ce2 Dy1 In3 Pd2'
_cell_volume   205.70063746
_cell_formula_units_Z   1
loop_
 _symmetry_equiv_pos_site_id
 _symmetry_equiv_pos_as_xyz
  1  'x, y, z'
loop_
 _atom_site_type_symbol
 _atom_site_label
 _atom_site_symmetry_multiplicity
 _atom_site_fract_x
 _atom_site_fract_y
 _atom_site_fract_z
 _atom_site_occupancy
  Li  Li0  1  0.000732  0.000732  0.500000  1
  Ce  Ce1  1  0.581070  0.000104  0.500000  1
  Ce  Ce2  1  0.000104  0.581070  0.500000  1
  Dy  Dy3  1  0.417571  0.417571  0.500000  1
  In  In4  1  0.249597  0.002555  0.000000  1
  In  In5  1  0.002555  0.249597  0.000000  1
  In  In6  1  0.747234  0.747234  0.000000  1
  Pd  Pd7  1  0.332957  0.668183  0.000000  1
  Pd  Pd8  1  0.668183  0.332957  0.000000  1
