# generated using pymatgen
data_Tl15SnO24
_symmetry_space_group_name_H-M   'P 1'
_cell_length_a   9.27832242
_cell_length_b   9.27832306
_cell_length_c   10.74609667
_cell_angle_alpha   54.91726613
_cell_angle_beta   54.91726489
_cell_angle_gamma   70.67093445
_symmetry_Int_Tables_number   1
_chemical_formula_structural   Tl15SnO24
_chemical_formula_sum   'Tl15 Sn1 O24'
_cell_volume   619.49664110
_cell_formula_units_Z   1
loop_
 _symmetry_equiv_pos_site_id
 _symmetry_equiv_pos_as_xyz
  1  'x, y, z'
loop_
 _atom_site_type_symbol
 _atom_site_label
 _atom_site_symmetry_multiplicity
 _atom_site_fract_x
 _atom_site_fract_y
 _atom_site_fract_z
 _atom_site_occupancy
  Tl  Tl0  1  0.498918  0.999757  0.250519  1
  Tl  Tl1  1  0.218470  0.719033  0.781000  1
  Tl  Tl2  1  0.280967  0.781530  0.219000  1
  Tl  Tl3  1  0.247123  0.248959  0.970699  1
  Tl  Tl4  1  0.250916  0.248004  0.466747  1
  Tl  Tl5  1  0.531981  0.468019  0.500000  1
  Tl  Tl6  1  0.000243  0.501082  0.749481  1
  Tl  Tl7  1  0.000422  0.495838  0.249713  1
  Tl  Tl8  1  0.504162  0.999578  0.750287  1
  Tl  Tl9  1  0.467915  0.532085  0.000000  1
  Tl  Tl10  1  0.751996  0.749084  0.533253  1
  Tl  Tl11  1  0.751041  0.752877  0.029301  1
  Tl  Tl12  1  0.784137  0.279730  0.716717  1
  Tl  Tl13  1  0.720270  0.215863  0.283283  1
  Tl  Tl14  1  0.967702  0.032298  0.000000  1
  Sn  Sn15  1  0.035499  0.964501  0.500000  1
  O  O16  1  0.236570  0.458732  0.019037  1
  O  O17  1  0.240238  0.044904  0.233963  1
  O  O18  1  0.041930  0.740181  0.480665  1
  O  O19  1  0.726592  0.037582  0.981324  1
  O  O20  1  0.534383  0.229031  0.758235  1
  O  O21  1  0.224489  0.533809  0.259657  1
  O  O22  1  0.541268  0.763430  0.980963  1
  O  O23  1  0.955096  0.759762  0.766037  1
  O  O24  1  0.269076  0.507761  0.708467  1
  O  O25  1  0.995536  0.208862  0.486841  1
  O  O26  1  0.228357  0.993427  0.989411  1
  O  O27  1  0.503032  0.268915  0.210421  1
  O  O28  1  0.791138  0.004464  0.513159  1
  O  O29  1  0.492239  0.730924  0.291533  1
  O  O30  1  0.731085  0.496968  0.789579  1
  O  O31  1  0.006573  0.771643  0.010589  1
  O  O32  1  0.043015  0.264907  0.709403  1
  O  O33  1  0.462591  0.229461  0.521112  1
  O  O34  1  0.770969  0.465617  0.241765  1
  O  O35  1  0.466191  0.775511  0.740343  1
  O  O36  1  0.259819  0.958070  0.519335  1
  O  O37  1  0.962418  0.273408  0.018676  1
  O  O38  1  0.770539  0.537409  0.478888  1
  O  O39  1  0.735093  0.956985  0.290597  1
