# generated using pymatgen
data_Cs7Na9(TiS4)4
_symmetry_space_group_name_H-M   'P 1'
_cell_length_a   7.14140016
_cell_length_b   9.95959500
_cell_length_c   14.71249900
_cell_angle_alpha   90.00000000
_cell_angle_beta   90.25032784
_cell_angle_gamma   90.00000000
_symmetry_Int_Tables_number   1
_chemical_formula_structural   Cs7Na9(TiS4)4
_chemical_formula_sum   'Cs7 Na9 Ti4 S16'
_cell_volume   1046.42317342
_cell_formula_units_Z   1
loop_
 _symmetry_equiv_pos_site_id
 _symmetry_equiv_pos_as_xyz
  1  'x, y, z'
loop_
 _atom_site_type_symbol
 _atom_site_label
 _atom_site_symmetry_multiplicity
 _atom_site_fract_x
 _atom_site_fract_y
 _atom_site_fract_z
 _atom_site_occupancy
  Cs  Cs0  1  0.011162  0.996479  0.000753  1
  Cs  Cs1  1  0.500011  0.001333  0.499748  1
  Cs  Cs2  1  0.011162  0.503521  0.000753  1
  Cs  Cs3  1  0.500011  0.498667  0.499748  1
  Cs  Cs4  1  0.014880  0.750000  0.437624  1
  Cs  Cs5  1  0.524896  0.250000  0.063298  1
  Cs  Cs6  1  0.981855  0.250000  0.566648  1
  Na  Na7  1  0.556316  0.750000  0.946943  1
  Na  Na8  1  0.810038  0.063653  0.252814  1
  Na  Na9  1  0.311679  0.932930  0.240044  1
  Na  Na10  1  0.184095  0.570679  0.748286  1
  Na  Na11  1  0.691905  0.433157  0.761168  1
  Na  Na12  1  0.184095  0.929321  0.748286  1
  Na  Na13  1  0.691905  0.066843  0.761168  1
  Na  Na14  1  0.810038  0.436347  0.252814  1
  Na  Na15  1  0.311679  0.567070  0.240044  1
  Ti  Ti16  1  0.772426  0.750000  0.696341  1
  Ti  Ti17  1  0.206167  0.250000  0.305032  1
  Ti  Ti18  1  0.701315  0.750000  0.185874  1
  Ti  Ti19  1  0.301264  0.250000  0.811091  1
  S  S20  1  0.983114  0.250000  0.813377  1
  S  S21  1  0.525355  0.250000  0.307846  1
  S  S22  1  0.456354  0.750000  0.682416  1
  S  S23  1  0.019537  0.750000  0.187800  1
  S  S24  1  0.594807  0.569502  0.109741  1
  S  S25  1  0.101731  0.434716  0.377311  1
  S  S26  1  0.402885  0.058316  0.880535  1
  S  S27  1  0.890030  0.932724  0.626047  1
  S  S28  1  0.402885  0.441684  0.880535  1
  S  S29  1  0.890030  0.567276  0.626047  1
  S  S30  1  0.594807  0.930498  0.109741  1
  S  S31  1  0.101731  0.065284  0.377311  1
  S  S32  1  0.572751  0.750000  0.328261  1
  S  S33  1  0.072702  0.250000  0.163784  1
  S  S34  1  0.427865  0.250000  0.668741  1
  S  S35  1  0.886517  0.750000  0.842034  1
