# generated using pymatgen
data_Sc5MnReBC6
_symmetry_space_group_name_H-M   'P 1'
_cell_length_a   7.80395789
_cell_length_b   7.80395794
_cell_length_c   3.21172000
_cell_angle_alpha   90.00000000
_cell_angle_beta   90.00000000
_cell_angle_gamma   121.09233410
_symmetry_Int_Tables_number   1
_chemical_formula_structural   Sc5MnReBC6
_chemical_formula_sum   'Sc5 Mn1 Re1 B1 C6'
_cell_volume   167.49884251
_cell_formula_units_Z   1
loop_
 _symmetry_equiv_pos_site_id
 _symmetry_equiv_pos_as_xyz
  1  'x, y, z'
loop_
 _atom_site_type_symbol
 _atom_site_label
 _atom_site_symmetry_multiplicity
 _atom_site_fract_x
 _atom_site_fract_y
 _atom_site_fract_z
 _atom_site_occupancy
  Sc  Sc0  1  0.083202  0.332492  0.500000  1
  Sc  Sc1  1  0.336883  0.086930  0.500000  1
  Sc  Sc2  1  0.501518  0.498482  0.000000  1
  Sc  Sc3  1  0.913070  0.663117  0.500000  1
  Sc  Sc4  1  0.667508  0.916798  0.500000  1
  Mn  Mn5  1  0.710428  0.289572  0.000000  1
  Re  Re6  1  0.283133  0.716867  0.000000  1
  B  B7  1  0.999724  0.000276  0.000000  1
  C  C8  1  0.990346  0.491626  0.000000  1
  C  C9  1  0.508374  0.009654  0.000000  1
  C  C10  1  0.190056  0.191148  0.000000  1
  C  C11  1  0.808852  0.809944  0.000000  1
  C  C12  1  0.627150  0.372850  0.500000  1
  C  C13  1  0.379757  0.620243  0.500000  1
