# generated using pymatgen
data_KSr2CaPd8
_symmetry_space_group_name_H-M   'P 1'
_cell_length_a   9.59728091
_cell_length_b   9.59728135
_cell_length_c   9.59728138
_cell_angle_alpha   33.93549171
_cell_angle_beta   33.93548728
_cell_angle_gamma   33.93548285
_symmetry_Int_Tables_number   1
_chemical_formula_structural   KSr2CaPd8
_chemical_formula_sum   'K1 Sr2 Ca1 Pd8'
_cell_volume   245.54476230
_cell_formula_units_Z   1
loop_
 _symmetry_equiv_pos_site_id
 _symmetry_equiv_pos_as_xyz
  1  'x, y, z'
loop_
 _atom_site_type_symbol
 _atom_site_label
 _atom_site_symmetry_multiplicity
 _atom_site_fract_x
 _atom_site_fract_y
 _atom_site_fract_z
 _atom_site_occupancy
  K  K0  1  0.563158  0.563158  0.563158  1
  Sr  Sr1  1  0.439849  0.439849  0.439849  1
  Sr  Sr2  1  0.935102  0.935102  0.935102  1
  Ca  Ca3  1  0.062420  0.062420  0.062420  1
  Pd  Pd4  1  0.749710  0.749710  0.749710  1
  Pd  Pd5  1  0.250212  0.250212  0.250212  1
  Pd  Pd6  1  0.004881  0.500922  0.500922  1
  Pd  Pd7  1  0.494448  0.999187  0.999187  1
  Pd  Pd8  1  0.500922  0.004881  0.500922  1
  Pd  Pd9  1  0.999187  0.494448  0.999187  1
  Pd  Pd10  1  0.500922  0.500922  0.004881  1
  Pd  Pd11  1  0.999187  0.999187  0.494448  1
