# generated using pymatgen
data_Tb12IrPd2Rh
_symmetry_space_group_name_H-M   'P 1'
_cell_length_a   6.41913408
_cell_length_b   7.15647246
_cell_length_c   9.60685900
_cell_angle_alpha   90.00000000
_cell_angle_beta   90.00000000
_cell_angle_gamma   90.16182765
_symmetry_Int_Tables_number   1
_chemical_formula_structural   Tb12IrPd2Rh
_chemical_formula_sum   'Tb12 Ir1 Pd2 Rh1'
_cell_volume   441.32155070
_cell_formula_units_Z   1
loop_
 _symmetry_equiv_pos_site_id
 _symmetry_equiv_pos_as_xyz
  1  'x, y, z'
loop_
 _atom_site_type_symbol
 _atom_site_label
 _atom_site_symmetry_multiplicity
 _atom_site_fract_x
 _atom_site_fract_y
 _atom_site_fract_z
 _atom_site_occupancy
  Tb  Tb0  1  0.324541  0.683886  0.059467  1
  Tb  Tb1  1  0.169274  0.175328  0.437821  1
  Tb  Tb2  1  0.670609  0.324931  0.562731  1
  Tb  Tb3  1  0.823536  0.815227  0.939484  1
  Tb  Tb4  1  0.670609  0.324931  0.937269  1
  Tb  Tb5  1  0.823536  0.815227  0.560516  1
  Tb  Tb6  1  0.324541  0.683886  0.440533  1
  Tb  Tb7  1  0.169274  0.175328  0.062179  1
  Tb  Tb8  1  0.873784  0.533731  0.250000  1
  Tb  Tb9  1  0.637580  0.026045  0.250000  1
  Tb  Tb10  1  0.138126  0.476402  0.750000  1
  Tb  Tb11  1  0.374931  0.965529  0.750000  1
  Ir  Ir12  1  0.556680  0.615632  0.750000  1
  Pd  Pd13  1  0.440733  0.388365  0.250000  1
  Pd  Pd14  1  0.944128  0.111587  0.750000  1
  Rh  Rh15  1  0.058115  0.883964  0.250000  1
