# generated using pymatgen
data_Cs2Np3NiO12
_symmetry_space_group_name_H-M   'P 1'
_cell_length_a   7.52280855
_cell_length_b   7.52280928
_cell_length_c   7.52280900
_cell_angle_alpha   63.91291153
_cell_angle_beta   63.91290879
_cell_angle_gamma   63.91290095
_symmetry_Int_Tables_number   1
_chemical_formula_structural   Cs2Np3NiO12
_chemical_formula_sum   'Cs2 Np3 Ni1 O12'
_cell_volume   327.00190042
_cell_formula_units_Z   1
loop_
 _symmetry_equiv_pos_site_id
 _symmetry_equiv_pos_as_xyz
  1  'x, y, z'
loop_
 _atom_site_type_symbol
 _atom_site_label
 _atom_site_symmetry_multiplicity
 _atom_site_fract_x
 _atom_site_fract_y
 _atom_site_fract_z
 _atom_site_occupancy
  Cs  Cs0  1  0.374436  0.374436  0.374436  1
  Cs  Cs1  1  0.625564  0.625564  0.625564  1
  Np  Np2  1  0.500000  0.000000  0.000000  1
  Np  Np3  1  0.000000  0.000000  0.500000  1
  Np  Np4  1  0.000000  0.500000  0.000000  1
  Ni  Ni5  1  0.000000  0.000000  0.000000  1
  O  O6  1  0.935581  0.318494  0.318494  1
  O  O7  1  0.315914  0.940517  0.940517  1
  O  O8  1  0.318494  0.318494  0.935581  1
  O  O9  1  0.940517  0.940517  0.315914  1
  O  O10  1  0.940517  0.315914  0.940517  1
  O  O11  1  0.318494  0.935581  0.318494  1
  O  O12  1  0.064419  0.681506  0.681506  1
  O  O13  1  0.684086  0.059483  0.059483  1
  O  O14  1  0.681506  0.681506  0.064419  1
  O  O15  1  0.059483  0.059483  0.684086  1
  O  O16  1  0.059483  0.684086  0.059483  1
  O  O17  1  0.681506  0.064419  0.681506  1
