# generated using pymatgen
data_Dy3Ho(AuCl6)4
_symmetry_space_group_name_H-M   'P 1'
_cell_length_a   7.77379734
_cell_length_b   9.89438257
_cell_length_c   14.06592800
_cell_angle_alpha   103.36752720
_cell_angle_beta   97.16945201
_cell_angle_gamma   112.57008870
_symmetry_Int_Tables_number   1
_chemical_formula_structural   Dy3Ho(AuCl6)4
_chemical_formula_sum   'Dy3 Ho1 Au4 Cl24'
_cell_volume   944.12201997
_cell_formula_units_Z   1
loop_
 _symmetry_equiv_pos_site_id
 _symmetry_equiv_pos_as_xyz
  1  'x, y, z'
loop_
 _atom_site_type_symbol
 _atom_site_label
 _atom_site_symmetry_multiplicity
 _atom_site_fract_x
 _atom_site_fract_y
 _atom_site_fract_z
 _atom_site_occupancy
  Dy  Dy0  1  0.579542  0.927719  0.622309  1
  Dy  Dy1  1  0.029057  0.685679  0.128063  1
  Dy  Dy2  1  0.420668  0.072473  0.377849  1
  Ho  Ho3  1  0.970642  0.314256  0.871779  1
  Au  Au4  1  0.292016  0.633296  0.764146  1
  Au  Au5  1  0.500027  0.500038  0.500029  1
  Au  Au6  1  0.707859  0.366539  0.235939  1
  Au  Au7  1  0.999997  0.000124  0.999878  1
  Cl  Cl8  1  0.783324  0.103923  0.970976  1
  Cl  Cl9  1  0.720730  0.149266  0.265274  1
  Cl  Cl10  1  0.279223  0.850656  0.734722  1
  Cl  Cl11  1  0.771342  0.790400  0.029977  1
  Cl  Cl12  1  0.619702  0.193133  0.744870  1
  Cl  Cl13  1  0.301655  0.411736  0.789055  1
  Cl  Cl14  1  0.697464  0.587950  0.211090  1
  Cl  Cl15  1  0.306070  0.629629  0.499352  1
  Cl  Cl16  1  0.228133  0.209870  0.969775  1
  Cl  Cl17  1  0.758892  0.734590  0.527196  1
  Cl  Cl18  1  0.217363  0.896805  0.028651  1
  Cl  Cl19  1  0.721171  0.047649  0.483684  1
  Cl  Cl20  1  0.606115  0.732603  0.747229  1
  Cl  Cl21  1  0.943105  0.061192  0.731696  1
  Cl  Cl22  1  0.241196  0.265528  0.472879  1
  Cl  Cl23  1  0.381430  0.807234  0.255512  1
  Cl  Cl24  1  0.976009  0.535971  0.777725  1
  Cl  Cl25  1  0.768198  0.436798  0.976764  1
  Cl  Cl26  1  0.231218  0.561508  0.022149  1
  Cl  Cl27  1  0.024042  0.463312  0.222601  1
  Cl  Cl28  1  0.393799  0.267342  0.252754  1
  Cl  Cl29  1  0.278962  0.952436  0.516439  1
  Cl  Cl30  1  0.693959  0.370400  0.500678  1
  Cl  Cl31  1  0.057090  0.939944  0.268960  1
