# generated using pymatgen
data_PrSm(Al5Cu6)2
_symmetry_space_group_name_H-M   'P 1'
_cell_length_a   10.38964336
_cell_length_b   8.21001876
_cell_length_c   7.90581608
_cell_angle_alpha   80.25996273
_cell_angle_beta   51.15277964
_cell_angle_gamma   48.58724919
_symmetry_Int_Tables_number   1
_chemical_formula_structural   PrSm(Al5Cu6)2
_chemical_formula_sum   'Pr1 Sm1 Al10 Cu12'
_cell_volume   357.33071028
_cell_formula_units_Z   1
loop_
 _symmetry_equiv_pos_site_id
 _symmetry_equiv_pos_as_xyz
  1  'x, y, z'
loop_
 _atom_site_type_symbol
 _atom_site_label
 _atom_site_symmetry_multiplicity
 _atom_site_fract_x
 _atom_site_fract_y
 _atom_site_fract_z
 _atom_site_occupancy
  Pr  Pr0  1  0.000000  0.000000  0.000000  1
  Sm  Sm1  1  0.250000  0.250000  0.250000  1
  Al  Al2  1  0.500000  0.500000  0.500000  1
  Al  Al3  1  0.750000  0.750000  0.750000  1
  Al  Al4  1  0.756083  0.070238  0.832134  1
  Al  Al5  1  0.832134  0.341547  0.756083  1
  Al  Al6  1  0.070238  0.756083  0.341547  1
  Al  Al7  1  0.341547  0.832134  0.070238  1
  Al  Al8  1  0.492019  0.180607  0.418618  1
  Al  Al9  1  0.418618  0.908754  0.492019  1
  Al  Al10  1  0.180607  0.492019  0.908754  1
  Al  Al11  1  0.908754  0.418618  0.180607  1
  Cu  Cu12  1  0.625702  0.124239  0.624290  1
  Cu  Cu13  1  0.624290  0.625769  0.625702  1
  Cu  Cu14  1  0.124239  0.625702  0.625769  1
  Cu  Cu15  1  0.625769  0.624290  0.124239  1
  Cu  Cu16  1  0.488062  0.436649  0.184409  1
  Cu  Cu17  1  0.184409  0.890880  0.488062  1
  Cu  Cu18  1  0.436649  0.488062  0.890880  1
  Cu  Cu19  1  0.890880  0.184409  0.436649  1
  Cu  Cu20  1  0.759930  0.814645  0.066398  1
  Cu  Cu21  1  0.066398  0.359028  0.759930  1
  Cu  Cu22  1  0.814645  0.759930  0.359028  1
  Cu  Cu23  1  0.359028  0.066398  0.814645  1
