# generated using pymatgen
data_Sc6Al13Fe7W3
_symmetry_space_group_name_H-M   'P 1'
_cell_length_a   8.60596694
_cell_length_b   8.60596788
_cell_length_c   8.60596717
_cell_angle_alpha   59.74142226
_cell_angle_beta   59.74141613
_cell_angle_gamma   59.74142227
_symmetry_Int_Tables_number   1
_chemical_formula_structural   Sc6Al13Fe7W3
_chemical_formula_sum   'Sc6 Al13 Fe7 W3'
_cell_volume   448.04985212
_cell_formula_units_Z   1
loop_
 _symmetry_equiv_pos_site_id
 _symmetry_equiv_pos_as_xyz
  1  'x, y, z'
loop_
 _atom_site_type_symbol
 _atom_site_label
 _atom_site_symmetry_multiplicity
 _atom_site_fract_x
 _atom_site_fract_y
 _atom_site_fract_z
 _atom_site_occupancy
  Sc  Sc0  1  0.707443  0.707443  0.288554  1
  Sc  Sc1  1  0.294456  0.708018  0.294456  1
  Sc  Sc2  1  0.708018  0.294456  0.294456  1
  Sc  Sc3  1  0.294456  0.294456  0.708018  1
  Sc  Sc4  1  0.707443  0.288554  0.707443  1
  Sc  Sc5  1  0.288554  0.707443  0.707443  1
  Al  Al6  1  0.881265  0.881265  0.881265  1
  Al  Al7  1  0.120185  0.120185  0.642906  1
  Al  Al8  1  0.120185  0.642906  0.120185  1
  Al  Al9  1  0.642906  0.120185  0.120185  1
  Al  Al10  1  0.120232  0.120232  0.120232  1
  Al  Al11  1  0.666615  0.666615  0.003904  1
  Al  Al12  1  0.666615  0.003904  0.666615  1
  Al  Al13  1  0.003904  0.666615  0.666615  1
  Al  Al14  1  0.661892  0.661892  0.661892  1
  Al  Al15  1  0.333182  0.333182  0.001145  1
  Al  Al16  1  0.333182  0.001145  0.333182  1
  Al  Al17  1  0.001145  0.333182  0.333182  1
  Al  Al18  1  0.334667  0.334667  0.334667  1
  Fe  Fe19  1  0.004524  0.004524  0.004524  1
  Fe  Fe20  1  0.995415  0.995415  0.493036  1
  Fe  Fe21  1  0.506151  0.992767  0.506151  1
  Fe  Fe22  1  0.992767  0.506151  0.506151  1
  Fe  Fe23  1  0.506151  0.506151  0.992767  1
  Fe  Fe24  1  0.995415  0.493036  0.995415  1
  Fe  Fe25  1  0.493036  0.995415  0.995415  1
  W  W26  1  0.879119  0.879119  0.361961  1
  W  W27  1  0.879119  0.361961  0.879119  1
  W  W28  1  0.361961  0.879119  0.879119  1
