# generated using pymatgen
data_Ho12In2Tc3Ni
_symmetry_space_group_name_H-M   'P 1'
_cell_length_a   8.45851999
_cell_length_b   8.45852090
_cell_length_c   8.45852097
_cell_angle_alpha   112.66461627
_cell_angle_beta   111.85608578
_cell_angle_gamma   104.02748569
_symmetry_Int_Tables_number   1
_chemical_formula_structural   Ho12In2Tc3Ni
_chemical_formula_sum   'Ho12 In2 Tc3 Ni1'
_cell_volume   462.72699141
_cell_formula_units_Z   1
loop_
 _symmetry_equiv_pos_site_id
 _symmetry_equiv_pos_as_xyz
  1  'x, y, z'
loop_
 _atom_site_type_symbol
 _atom_site_label
 _atom_site_symmetry_multiplicity
 _atom_site_fract_x
 _atom_site_fract_y
 _atom_site_fract_z
 _atom_site_occupancy
  Ho  Ho0  1  0.446680  0.245404  0.201278  1
  Ho  Ho1  1  0.552082  0.755381  0.796700  1
  Ho  Ho2  1  0.044126  0.245404  0.798722  1
  Ho  Ho3  1  0.958680  0.755381  0.203300  1
  Ho  Ho4  1  0.189009  0.285978  0.469126  1
  Ho  Ho5  1  0.816853  0.719883  0.530874  1
  Ho  Ho6  1  0.189009  0.719883  0.903031  1
  Ho  Ho7  1  0.816853  0.285978  0.096969  1
  Ho  Ho8  1  0.329826  0.647695  0.317869  1
  Ho  Ho9  1  0.668130  0.350048  0.681918  1
  Ho  Ho10  1  0.329826  0.011956  0.682131  1
  Ho  Ho11  1  0.668130  0.986212  0.318082  1
  In  In12  1  0.501474  0.501474  0.000000  1
  In  In13  1  0.998907  0.998907  0.000000  1
  Tc  Tc14  1  0.325526  0.003121  0.322405  1
  Tc  Tc15  1  0.680717  0.003121  0.677595  1
  Tc  Tc16  1  0.108591  0.608591  0.500000  1
  Ni  Ni17  1  0.875581  0.375581  0.500000  1
