# generated using pymatgen
data_Y5Mo3P12Ir7Ru9
_symmetry_space_group_name_H-M   'P 1'
_cell_length_a   12.63324000
_cell_length_b   12.63323970
_cell_length_c   3.99037900
_cell_angle_alpha   90.00000000
_cell_angle_beta   90.00000000
_cell_angle_gamma   119.99999556
_symmetry_Int_Tables_number   1
_chemical_formula_structural   Y5Mo3P12Ir7Ru9
_chemical_formula_sum   'Y5 Mo3 P12 Ir7 Ru9'
_cell_volume   551.53652751
_cell_formula_units_Z   1
loop_
 _symmetry_equiv_pos_site_id
 _symmetry_equiv_pos_as_xyz
  1  'x, y, z'
loop_
 _atom_site_type_symbol
 _atom_site_label
 _atom_site_symmetry_multiplicity
 _atom_site_fract_x
 _atom_site_fract_y
 _atom_site_fract_z
 _atom_site_occupancy
  Y  Y0  1  0.000000  0.187274  0.500000  1
  Y  Y1  1  0.812726  0.812726  0.500000  1
  Y  Y2  1  0.187274  0.000000  0.500000  1
  Y  Y3  1  0.666667  0.333333  0.000000  1
  Y  Y4  1  0.333333  0.666667  0.000000  1
  Mo  Mo5  1  0.000000  0.556675  0.000000  1
  Mo  Mo6  1  0.443325  0.443325  0.000000  1
  Mo  Mo7  1  0.556675  0.000000  0.000000  1
  P  P8  1  0.000000  0.817808  0.000000  1
  P  P9  1  0.182192  0.182192  0.000000  1
  P  P10  1  0.817808  0.000000  0.000000  1
  P  P11  1  0.684387  0.165691  0.500000  1
  P  P12  1  0.834309  0.518696  0.500000  1
  P  P13  1  0.481304  0.315613  0.500000  1
  P  P14  1  0.165691  0.684387  0.500000  1
  P  P15  1  0.518696  0.834309  0.500000  1
  P  P16  1  0.315613  0.481304  0.500000  1
  P  P17  1  0.000000  0.371149  0.000000  1
  P  P18  1  0.628851  0.628851  0.000000  1
  P  P19  1  0.371149  0.000000  0.000000  1
  Ir  Ir20  1  0.808944  0.181963  0.000000  1
  Ir  Ir21  1  0.818037  0.626981  0.000000  1
  Ir  Ir22  1  0.373019  0.191056  0.000000  1
  Ir  Ir23  1  0.181963  0.808944  0.000000  1
  Ir  Ir24  1  0.626981  0.818037  0.000000  1
  Ir  Ir25  1  0.191056  0.373019  0.000000  1
  Ir  Ir26  1  0.000000  0.000000  0.000000  1
  Ru  Ru27  1  0.000000  0.718339  0.500000  1
  Ru  Ru28  1  0.281661  0.281661  0.500000  1
  Ru  Ru29  1  0.718339  0.000000  0.500000  1
  Ru  Ru30  1  0.871171  0.358682  0.500000  1
  Ru  Ru31  1  0.641318  0.512489  0.500000  1
  Ru  Ru32  1  0.487511  0.128829  0.500000  1
  Ru  Ru33  1  0.358682  0.871171  0.500000  1
  Ru  Ru34  1  0.512489  0.641318  0.500000  1
  Ru  Ru35  1  0.128829  0.487511  0.500000  1
