# generated using pymatgen
data_Li2ErThSi4
_symmetry_space_group_name_H-M   'P 1'
_cell_length_a   3.83009800
_cell_length_b   7.67964728
_cell_length_c   10.28637273
_cell_angle_alpha   90.01466178
_cell_angle_beta   90.00000000
_cell_angle_gamma   90.00000000
_symmetry_Int_Tables_number   1
_chemical_formula_structural   Li2ErThSi4
_chemical_formula_sum   'Li4 Er2 Th2 Si8'
_cell_volume   302.56131772
_cell_formula_units_Z   2
loop_
 _symmetry_equiv_pos_site_id
 _symmetry_equiv_pos_as_xyz
  1  'x, y, z'
loop_
 _atom_site_type_symbol
 _atom_site_label
 _atom_site_symmetry_multiplicity
 _atom_site_fract_x
 _atom_site_fract_y
 _atom_site_fract_z
 _atom_site_occupancy
  Li  Li0  1  0.250000  0.990658  0.390293  1
  Li  Li1  1  0.750000  0.009342  0.609707  1
  Li  Li2  1  0.250000  0.489933  0.103256  1
  Li  Li3  1  0.750000  0.510067  0.896744  1
  Er  Er4  1  0.250000  0.132047  0.863736  1
  Er  Er5  1  0.750000  0.867953  0.136264  1
  Th  Th6  1  0.250000  0.640669  0.637768  1
  Th  Th7  1  0.750000  0.359331  0.362232  1
  Si  Si8  1  0.750000  0.260686  0.063143  1
  Si  Si9  1  0.250000  0.739314  0.936857  1
  Si  Si10  1  0.750000  0.771251  0.427545  1
  Si  Si11  1  0.250000  0.228749  0.572455  1
  Si  Si12  1  0.750000  0.842912  0.821870  1
  Si  Si13  1  0.250000  0.157088  0.178130  1
  Si  Si14  1  0.750000  0.335633  0.686807  1
  Si  Si15  1  0.250000  0.664367  0.313193  1
