# generated using pymatgen
data_Yb10Cu3Hg2Pd
_symmetry_space_group_name_H-M   'P 1'
_cell_length_a   8.93198300
_cell_length_b   8.93198311
_cell_length_c   8.94419952
_cell_angle_alpha   128.82815887
_cell_angle_beta   128.82810598
_cell_angle_gamma   75.18564879
_symmetry_Int_Tables_number   1
_chemical_formula_structural   Yb10Cu3Hg2Pd
_chemical_formula_sum   'Yb10 Cu3 Hg2 Pd1'
_cell_volume   421.80911584
_cell_formula_units_Z   1
loop_
 _symmetry_equiv_pos_site_id
 _symmetry_equiv_pos_as_xyz
  1  'x, y, z'
loop_
 _atom_site_type_symbol
 _atom_site_label
 _atom_site_symmetry_multiplicity
 _atom_site_fract_x
 _atom_site_fract_y
 _atom_site_fract_z
 _atom_site_occupancy
  Yb  Yb0  1  0.499096  0.499777  0.998873  1
  Yb  Yb1  1  0.999776  0.999096  0.998872  1
  Yb  Yb2  1  0.529129  0.029128  0.834376  1
  Yb  Yb3  1  0.193302  0.693302  0.162383  1
  Yb  Yb4  1  0.030246  0.196124  0.501691  1
  Yb  Yb5  1  0.696124  0.530246  0.501690  1
  Yb  Yb6  1  0.469082  0.969082  0.162383  1
  Yb  Yb7  1  0.805247  0.305246  0.834376  1
  Yb  Yb8  1  0.971444  0.805567  0.501690  1
  Yb  Yb9  1  0.305567  0.471444  0.501691  1
  Cu  Cu10  1  0.876459  0.376458  0.252916  1
  Cu  Cu11  1  0.618099  0.881827  0.499925  1
  Cu  Cu12  1  0.381825  0.118100  0.499925  1
  Hg  Hg13  1  0.250383  0.250383  0.000767  1
  Hg  Hg14  1  0.750383  0.750383  0.000767  1
  Pd  Pd15  1  0.123838  0.623837  0.747677  1
