# generated using pymatgen
data_Tb2Er3In4PtAu
_symmetry_space_group_name_H-M   'P 1'
_cell_length_a   3.63719200
_cell_length_b   8.16117553
_cell_length_c   18.32201200
_cell_angle_alpha   90.06067678
_cell_angle_beta   90.00000000
_cell_angle_gamma   90.00000000
_symmetry_Int_Tables_number   1
_chemical_formula_structural   Tb2Er3In4PtAu
_chemical_formula_sum   'Tb4 Er6 In8 Pt2 Au2'
_cell_volume   543.86594507
_cell_formula_units_Z   2
loop_
 _symmetry_equiv_pos_site_id
 _symmetry_equiv_pos_as_xyz
  1  'x, y, z'
loop_
 _atom_site_type_symbol
 _atom_site_label
 _atom_site_symmetry_multiplicity
 _atom_site_fract_x
 _atom_site_fract_y
 _atom_site_fract_z
 _atom_site_occupancy
  Tb  Tb0  1  0.000000  0.120192  0.419142  1
  Tb  Tb1  1  0.000000  0.879808  0.580858  1
  Tb  Tb2  1  0.000000  0.000000  0.000000  1
  Tb  Tb3  1  0.000000  0.500000  0.500000  1
  Er  Er4  1  0.000000  0.384847  0.915487  1
  Er  Er5  1  0.000000  0.615153  0.084513  1
  Er  Er6  1  0.000000  0.252698  0.217352  1
  Er  Er7  1  0.000000  0.747302  0.782648  1
  Er  Er8  1  0.000000  0.268699  0.721367  1
  Er  Er9  1  0.000000  0.731301  0.278633  1
  In  In10  1  0.500000  0.424101  0.351908  1
  In  In11  1  0.500000  0.575899  0.648092  1
  In  In12  1  0.500000  0.077960  0.852551  1
  In  In13  1  0.500000  0.922040  0.147449  1
  In  In14  1  0.500000  0.293034  0.065917  1
  In  In15  1  0.500000  0.706966  0.934083  1
  In  In16  1  0.500000  0.209871  0.567267  1
  In  In17  1  0.500000  0.790129  0.432733  1
  Pt  Pt18  1  0.500000  0.473276  0.803652  1
  Pt  Pt19  1  0.500000  0.526724  0.196348  1
  Au  Au20  1  0.500000  0.026847  0.301391  1
  Au  Au21  1  0.500000  0.973153  0.698609  1
