# generated using pymatgen
data_Nd4Mn4Al3AgO20
_symmetry_space_group_name_H-M   'P 1'
_cell_length_a   5.76732000
_cell_length_b   7.55650852
_cell_length_c   8.68661803
_cell_angle_alpha   89.09176257
_cell_angle_beta   90.00000000
_cell_angle_gamma   90.00000000
_symmetry_Int_Tables_number   1
_chemical_formula_structural   Nd4Mn4Al3AgO20
_chemical_formula_sum   'Nd4 Mn4 Al3 Ag1 O20'
_cell_volume   378.52222438
_cell_formula_units_Z   1
loop_
 _symmetry_equiv_pos_site_id
 _symmetry_equiv_pos_as_xyz
  1  'x, y, z'
loop_
 _atom_site_type_symbol
 _atom_site_label
 _atom_site_symmetry_multiplicity
 _atom_site_fract_x
 _atom_site_fract_y
 _atom_site_fract_z
 _atom_site_occupancy
  Nd  Nd0  1  0.000000  0.370801  0.672223  1
  Nd  Nd1  1  0.000000  0.635254  0.328375  1
  Nd  Nd2  1  0.000000  0.854262  0.828686  1
  Nd  Nd3  1  0.000000  0.146312  0.170025  1
  Mn  Mn4  1  0.259312  0.505837  0.003757  1
  Mn  Mn5  1  0.745970  0.997452  0.493420  1
  Mn  Mn6  1  0.740688  0.505837  0.003757  1
  Mn  Mn7  1  0.254030  0.997452  0.493420  1
  Al  Al8  1  0.500000  0.889242  0.146645  1
  Al  Al9  1  0.500000  0.608855  0.639992  1
  Al  Al10  1  0.500000  0.392493  0.362655  1
  Ag  Ag11  1  0.500000  0.065909  0.843697  1
  O  O12  1  0.256862  0.901613  0.289293  1
  O  O13  1  0.232503  0.097029  0.696112  1
  O  O14  1  0.743166  0.405557  0.214734  1
  O  O15  1  0.741893  0.602946  0.789074  1
  O  O16  1  0.767497  0.097029  0.696112  1
  O  O17  1  0.743138  0.901613  0.289293  1
  O  O18  1  0.258107  0.602946  0.789074  1
  O  O19  1  0.256834  0.405557  0.214734  1
  O  O20  1  0.500000  0.359359  0.947292  1
  O  O21  1  0.500000  0.665352  0.069962  1
  O  O22  1  0.500000  0.841482  0.565535  1
  O  O23  1  0.500000  0.158486  0.430439  1
  O  O24  1  0.275098  0.992359  0.011043  1
  O  O25  1  0.713420  0.499577  0.502151  1
  O  O26  1  0.724902  0.992359  0.011043  1
  O  O27  1  0.286580  0.499577  0.502151  1
  O  O28  1  0.000000  0.155844  0.443690  1
  O  O29  1  0.000000  0.839955  0.547356  1
  O  O30  1  0.000000  0.662083  0.054537  1
  O  O31  1  0.000000  0.349575  0.949722  1
