# generated using pymatgen
data_Sc4GaOsRu6
_symmetry_space_group_name_H-M   'P 1'
_cell_length_a   5.21493970
_cell_length_b   5.12755294
_cell_length_c   8.58877500
_cell_angle_alpha   90.00000000
_cell_angle_beta   90.00000000
_cell_angle_gamma   119.88007387
_symmetry_Int_Tables_number   1
_chemical_formula_structural   Sc4GaOsRu6
_chemical_formula_sum   'Sc4 Ga1 Os1 Ru6'
_cell_volume   199.13374388
_cell_formula_units_Z   1
loop_
 _symmetry_equiv_pos_site_id
 _symmetry_equiv_pos_as_xyz
  1  'x, y, z'
loop_
 _atom_site_type_symbol
 _atom_site_label
 _atom_site_symmetry_multiplicity
 _atom_site_fract_x
 _atom_site_fract_y
 _atom_site_fract_z
 _atom_site_occupancy
  Sc  Sc0  1  0.330809  0.663613  0.430928  1
  Sc  Sc1  1  0.667988  0.334537  0.562072  1
  Sc  Sc2  1  0.667988  0.334537  0.937928  1
  Sc  Sc3  1  0.330809  0.663613  0.069072  1
  Ga  Ga4  1  0.169379  0.336284  0.750000  1
  Os  Os5  1  0.829774  0.178339  0.250000  1
  Ru  Ru6  1  0.178883  0.831471  0.750000  1
  Ru  Ru7  1  0.351681  0.175210  0.250000  1
  Ru  Ru8  1  0.838690  0.673253  0.250000  1
  Ru  Ru9  1  0.654661  0.829107  0.750000  1
  Ru  Ru10  1  0.989668  0.990019  0.000304  1
  Ru  Ru11  1  0.989668  0.990019  0.499696  1
