# generated using pymatgen
data_DyY(Tm2Os)2
_symmetry_space_group_name_H-M   'P 1'
_cell_length_a   7.38875004
_cell_length_b   8.92177100
_cell_length_c   6.27124101
_cell_angle_alpha   90.00000000
_cell_angle_beta   89.82300790
_cell_angle_gamma   90.00000000
_symmetry_Int_Tables_number   1
_chemical_formula_structural   DyY(Tm2Os)2
_chemical_formula_sum   'Dy2 Y2 Tm8 Os4'
_cell_volume   413.40284958
_cell_formula_units_Z   2
loop_
 _symmetry_equiv_pos_site_id
 _symmetry_equiv_pos_as_xyz
  1  'x, y, z'
loop_
 _atom_site_type_symbol
 _atom_site_label
 _atom_site_symmetry_multiplicity
 _atom_site_fract_x
 _atom_site_fract_y
 _atom_site_fract_z
 _atom_site_occupancy
  Dy  Dy0  1  0.039217  0.250000  0.628958  1
  Dy  Dy1  1  0.960783  0.750000  0.371042  1
  Y  Y2  1  0.460884  0.750000  0.128091  1
  Y  Y3  1  0.539116  0.250000  0.871909  1
  Tm  Tm4  1  0.174714  0.062661  0.165323  1
  Tm  Tm5  1  0.825286  0.937339  0.834677  1
  Tm  Tm6  1  0.325907  0.937178  0.666260  1
  Tm  Tm7  1  0.825286  0.562661  0.834677  1
  Tm  Tm8  1  0.674093  0.062822  0.333740  1
  Tm  Tm9  1  0.174714  0.437339  0.165323  1
  Tm  Tm10  1  0.674093  0.437178  0.333740  1
  Tm  Tm11  1  0.325907  0.562822  0.666260  1
  Os  Os12  1  0.381891  0.250000  0.457369  1
  Os  Os13  1  0.618109  0.750000  0.542631  1
  Os  Os14  1  0.116142  0.750000  0.957629  1
  Os  Os15  1  0.883858  0.250000  0.042371  1
