# generated using pymatgen
data_Dy5Ho5(In2Bi)2
_symmetry_space_group_name_H-M   'P 1'
_cell_length_a   9.03683521
_cell_length_b   9.03844696
_cell_length_c   6.61147900
_cell_angle_alpha   90.00000000
_cell_angle_beta   90.00000000
_cell_angle_gamma   120.00590557
_symmetry_Int_Tables_number   1
_chemical_formula_structural   Dy5Ho5(In2Bi)2
_chemical_formula_sum   'Dy5 Ho5 In4 Bi2'
_cell_volume   467.64208059
_cell_formula_units_Z   1
loop_
 _symmetry_equiv_pos_site_id
 _symmetry_equiv_pos_as_xyz
  1  'x, y, z'
loop_
 _atom_site_type_symbol
 _atom_site_label
 _atom_site_symmetry_multiplicity
 _atom_site_fract_x
 _atom_site_fract_y
 _atom_site_fract_z
 _atom_site_occupancy
  Dy  Dy0  1  0.768722  0.760430  0.750000  1
  Dy  Dy1  1  0.231278  0.991709  0.750000  1
  Dy  Dy2  1  0.000000  0.242874  0.750000  1
  Dy  Dy3  1  0.237849  0.238183  0.250000  1
  Dy  Dy4  1  0.762151  0.000334  0.250000  1
  Ho  Ho5  1  0.670868  0.337993  0.006428  1
  Ho  Ho6  1  0.329132  0.667126  0.006428  1
  Ho  Ho7  1  0.329132  0.667126  0.493572  1
  Ho  Ho8  1  0.670868  0.337993  0.493572  1
  Ho  Ho9  1  0.000000  0.760261  0.250000  1
  In  In10  1  0.000000  0.598696  0.750000  1
  In  In11  1  0.604689  0.606404  0.250000  1
  In  In12  1  0.395311  0.001715  0.250000  1
  In  In13  1  0.000000  0.395660  0.250000  1
  Bi  Bi14  1  0.395025  0.394262  0.750000  1
  Bi  Bi15  1  0.604975  0.999236  0.750000  1
