# generated using pymatgen
data_Na(Sc7Te9)2
_symmetry_space_group_name_H-M   'P 1'
_cell_length_a   12.57516300
_cell_length_b   12.57516408
_cell_length_c   6.80513800
_cell_angle_alpha   90.00000000
_cell_angle_beta   90.00000000
_cell_angle_gamma   120.00000504
_symmetry_Int_Tables_number   1
_chemical_formula_structural   Na(Sc7Te9)2
_chemical_formula_sum   'Na1 Sc14 Te18'
_cell_volume   931.95475793
_cell_formula_units_Z   1
loop_
 _symmetry_equiv_pos_site_id
 _symmetry_equiv_pos_as_xyz
  1  'x, y, z'
loop_
 _atom_site_type_symbol
 _atom_site_label
 _atom_site_symmetry_multiplicity
 _atom_site_fract_x
 _atom_site_fract_y
 _atom_site_fract_z
 _atom_site_occupancy
  Na  Na0  1  0.000000  0.000000  0.000000  1
  Sc  Sc1  1  0.000000  0.337987  0.500000  1
  Sc  Sc2  1  0.337987  0.000000  0.500000  1
  Sc  Sc3  1  0.662013  0.662013  0.500000  1
  Sc  Sc4  1  0.000000  0.662013  0.500000  1
  Sc  Sc5  1  0.662013  0.000000  0.500000  1
  Sc  Sc6  1  0.337987  0.337987  0.500000  1
  Sc  Sc7  1  0.328097  0.328097  0.000000  1
  Sc  Sc8  1  0.000000  0.671903  0.000000  1
  Sc  Sc9  1  0.671903  0.000000  0.000000  1
  Sc  Sc10  1  0.671903  0.671903  0.000000  1
  Sc  Sc11  1  0.000000  0.328097  0.000000  1
  Sc  Sc12  1  0.328097  0.000000  0.000000  1
  Sc  Sc13  1  0.333333  0.666667  0.504643  1
  Sc  Sc14  1  0.666667  0.333333  0.495357  1
  Te  Te15  1  0.225119  0.774881  0.247256  1
  Te  Te16  1  0.549761  0.774881  0.247256  1
  Te  Te17  1  0.225119  0.450239  0.247256  1
  Te  Te18  1  0.774881  0.549761  0.752744  1
  Te  Te19  1  0.774881  0.225119  0.752744  1
  Te  Te20  1  0.450239  0.225119  0.752744  1
  Te  Te21  1  0.114313  0.557157  0.759099  1
  Te  Te22  1  0.442843  0.557157  0.759099  1
  Te  Te23  1  0.442843  0.885687  0.759099  1
  Te  Te24  1  0.557157  0.442843  0.240901  1
  Te  Te25  1  0.885687  0.442843  0.240901  1
  Te  Te26  1  0.557157  0.114313  0.240901  1
  Te  Te27  1  0.114174  0.228348  0.740472  1
  Te  Te28  1  0.771652  0.885826  0.740472  1
  Te  Te29  1  0.114174  0.885826  0.740472  1
  Te  Te30  1  0.885826  0.771652  0.259528  1
  Te  Te31  1  0.885826  0.114174  0.259528  1
  Te  Te32  1  0.228348  0.114174  0.259528  1
