# generated using pymatgen
data_NpWC2
_symmetry_space_group_name_H-M   'P 1'
_cell_length_a   3.23360000
_cell_length_b   5.65998500
_cell_length_c   10.94747000
_cell_angle_alpha   90.00000000
_cell_angle_beta   90.00000000
_cell_angle_gamma   90.00000000
_symmetry_Int_Tables_number   1
_chemical_formula_structural   NpWC2
_chemical_formula_sum   'Np4 W4 C8'
_cell_volume   200.36199170
_cell_formula_units_Z   4
loop_
 _symmetry_equiv_pos_site_id
 _symmetry_equiv_pos_as_xyz
  1  'x, y, z'
loop_
 _atom_site_type_symbol
 _atom_site_label
 _atom_site_symmetry_multiplicity
 _atom_site_fract_x
 _atom_site_fract_y
 _atom_site_fract_z
 _atom_site_occupancy
  Np  Np0  1  0.250000  0.080393  0.859188  1
  Np  Np1  1  0.250000  0.580393  0.640812  1
  Np  Np2  1  0.750000  0.919607  0.140812  1
  Np  Np3  1  0.750000  0.419607  0.359188  1
  W  W4  1  0.250000  0.418330  0.103520  1
  W  W5  1  0.250000  0.918330  0.396480  1
  W  W6  1  0.750000  0.581670  0.896480  1
  W  W7  1  0.750000  0.081670  0.603520  1
  C  C8  1  0.250000  0.163081  0.245276  1
  C  C9  1  0.250000  0.663081  0.254724  1
  C  C10  1  0.750000  0.836919  0.754724  1
  C  C11  1  0.750000  0.336919  0.745276  1
  C  C12  1  0.250000  0.747808  0.992065  1
  C  C13  1  0.250000  0.247808  0.507935  1
  C  C14  1  0.750000  0.252192  0.007935  1
  C  C15  1  0.750000  0.752192  0.492065  1
