# generated using pymatgen
data_Th2Sc3SiSb3
_symmetry_space_group_name_H-M   'P 1'
_cell_length_a   7.80108100
_cell_length_b   7.74309300
_cell_length_c   14.76729500
_cell_angle_alpha   90.00000000
_cell_angle_beta   90.00000000
_cell_angle_gamma   90.00000000
_symmetry_Int_Tables_number   1
_chemical_formula_structural   Th2Sc3SiSb3
_chemical_formula_sum   'Th8 Sc12 Si4 Sb12'
_cell_volume   892.01100708
_cell_formula_units_Z   4
loop_
 _symmetry_equiv_pos_site_id
 _symmetry_equiv_pos_as_xyz
  1  'x, y, z'
loop_
 _atom_site_type_symbol
 _atom_site_label
 _atom_site_symmetry_multiplicity
 _atom_site_fract_x
 _atom_site_fract_y
 _atom_site_fract_z
 _atom_site_occupancy
  Th  Th0  1  0.017489  0.683700  0.601948  1
  Th  Th1  1  0.982511  0.316300  0.398052  1
  Th  Th2  1  0.482511  0.183700  0.398052  1
  Th  Th3  1  0.982511  0.316300  0.101948  1
  Th  Th4  1  0.517489  0.816300  0.601948  1
  Th  Th5  1  0.017489  0.683700  0.898052  1
  Th  Th6  1  0.517489  0.816300  0.898052  1
  Th  Th7  1  0.482511  0.183700  0.101948  1
  Sc  Sc8  1  0.177072  0.988486  0.750000  1
  Sc  Sc9  1  0.822928  0.011514  0.250000  1
  Sc  Sc10  1  0.322928  0.488486  0.250000  1
  Sc  Sc11  1  0.677072  0.511514  0.750000  1
  Sc  Sc12  1  0.349625  0.362599  0.627565  1
  Sc  Sc13  1  0.650375  0.637401  0.372435  1
  Sc  Sc14  1  0.150375  0.862599  0.372435  1
  Sc  Sc15  1  0.650375  0.637401  0.127565  1
  Sc  Sc16  1  0.849625  0.137401  0.627565  1
  Sc  Sc17  1  0.349625  0.362599  0.872435  1
  Sc  Sc18  1  0.849625  0.137401  0.872435  1
  Sc  Sc19  1  0.150375  0.862599  0.127565  1
  Si  Si20  1  0.323821  0.649545  0.750000  1
  Si  Si21  1  0.676179  0.350455  0.250000  1
  Si  Si22  1  0.176179  0.149545  0.250000  1
  Si  Si23  1  0.823821  0.850455  0.750000  1
  Sb  Sb24  1  0.044085  0.366266  0.750000  1
  Sb  Sb25  1  0.955915  0.633734  0.250000  1
  Sb  Sb26  1  0.455915  0.866266  0.250000  1
  Sb  Sb27  1  0.544085  0.133734  0.750000  1
  Sb  Sb28  1  0.198758  0.055325  0.546691  1
  Sb  Sb29  1  0.801242  0.944675  0.453309  1
  Sb  Sb30  1  0.301242  0.555325  0.453309  1
  Sb  Sb31  1  0.801242  0.944675  0.046691  1
  Sb  Sb32  1  0.698758  0.444675  0.546691  1
  Sb  Sb33  1  0.198758  0.055325  0.953309  1
  Sb  Sb34  1  0.698758  0.444675  0.953309  1
  Sb  Sb35  1  0.301242  0.555325  0.046691  1
