# generated using pymatgen
data_SmTh3(Pd2Pb)2
_symmetry_space_group_name_H-M   'P 1'
_cell_length_a   8.02800216
_cell_length_b   8.02800182
_cell_length_c   3.82149000
_cell_angle_alpha   90.00000000
_cell_angle_beta   90.00000000
_cell_angle_gamma   89.45671337
_symmetry_Int_Tables_number   1
_chemical_formula_structural   SmTh3(Pd2Pb)2
_chemical_formula_sum   'Sm1 Th3 Pd4 Pb2'
_cell_volume   246.27943364
_cell_formula_units_Z   1
loop_
 _symmetry_equiv_pos_site_id
 _symmetry_equiv_pos_as_xyz
  1  'x, y, z'
loop_
 _atom_site_type_symbol
 _atom_site_label
 _atom_site_symmetry_multiplicity
 _atom_site_fract_x
 _atom_site_fract_y
 _atom_site_fract_z
 _atom_site_occupancy
  Sm  Sm0  1  0.674460  0.174460  0.500000  1
  Th  Th1  1  0.328682  0.828682  0.500000  1
  Th  Th2  1  0.825582  0.673357  0.500000  1
  Th  Th3  1  0.173357  0.325582  0.500000  1
  Pd  Pd4  1  0.369789  0.122798  0.000000  1
  Pd  Pd5  1  0.880032  0.380032  0.000000  1
  Pd  Pd6  1  0.128314  0.628314  0.000000  1
  Pd  Pd7  1  0.622798  0.869789  0.000000  1
  Pb  Pb8  1  0.994436  0.002549  0.000000  1
  Pb  Pb9  1  0.502549  0.494436  0.000000  1
