# generated using pymatgen
data_La5Pr(ScBi5)2
_symmetry_space_group_name_H-M   'P 1'
_cell_length_a   9.85267037
_cell_length_b   9.84802044
_cell_length_c   6.63825500
_cell_angle_alpha   89.99987821
_cell_angle_beta   90.00005496
_cell_angle_gamma   119.98439040
_symmetry_Int_Tables_number   1
_chemical_formula_structural   La5Pr(ScBi5)2
_chemical_formula_sum   'La5 Pr1 Sc2 Bi10'
_cell_volume   557.89921082
_cell_formula_units_Z   1
loop_
 _symmetry_equiv_pos_site_id
 _symmetry_equiv_pos_as_xyz
  1  'x, y, z'
loop_
 _atom_site_type_symbol
 _atom_site_label
 _atom_site_symmetry_multiplicity
 _atom_site_fract_x
 _atom_site_fract_y
 _atom_site_fract_z
 _atom_site_occupancy
  La  La0  1  0.381106  0.381096  0.250005  1
  La  La1  1  0.381373  0.999978  0.750019  1
  La  La2  1  0.618627  0.618605  0.750019  1
  La  La3  1  0.618894  0.999991  0.250005  1
  La  La4  1  0.000000  0.381648  0.749981  1
  Pr  Pr5  1  0.000000  0.619666  0.249996  1
  Sc  Sc6  1  0.000000  0.999872  0.000010  1
  Sc  Sc7  1  0.000000  0.999866  0.499981  1
  Bi  Bi8  1  0.000000  0.260326  0.249997  1
  Bi  Bi9  1  0.332363  0.666587  0.499276  1
  Bi  Bi10  1  0.667640  0.334226  0.000719  1
  Bi  Bi11  1  0.332360  0.666587  0.000719  1
  Bi  Bi12  1  0.260135  0.259932  0.749996  1
  Bi  Bi13  1  0.739865  0.999797  0.749996  1
  Bi  Bi14  1  0.000000  0.739753  0.749996  1
  Bi  Bi15  1  0.740267  0.739057  0.250004  1
  Bi  Bi16  1  0.259733  0.998790  0.250004  1
  Bi  Bi17  1  0.667637  0.334223  0.499276  1
