# generated using pymatgen
data_TbDy3Mn9Fe11P12
_symmetry_space_group_name_H-M   'P 1'
_cell_length_a   3.64328700
_cell_length_b   10.32953363
_cell_length_c   12.14086939
_cell_angle_alpha   89.67945967
_cell_angle_beta   90.00000000
_cell_angle_gamma   90.00000000
_symmetry_Int_Tables_number   1
_chemical_formula_structural   TbDy3Mn9Fe11P12
_chemical_formula_sum   'Tb1 Dy3 Mn9 Fe11 P12'
_cell_volume   456.89571870
_cell_formula_units_Z   1
loop_
 _symmetry_equiv_pos_site_id
 _symmetry_equiv_pos_as_xyz
  1  'x, y, z'
loop_
 _atom_site_type_symbol
 _atom_site_label
 _atom_site_symmetry_multiplicity
 _atom_site_fract_x
 _atom_site_fract_y
 _atom_site_fract_z
 _atom_site_occupancy
  Tb  Tb0  1  0.250000  0.580876  0.710383  1
  Dy  Dy1  1  0.250000  0.915983  0.211037  1
  Dy  Dy2  1  0.750000  0.423475  0.291545  1
  Dy  Dy3  1  0.750000  0.080748  0.788651  1
  Mn  Mn4  1  0.250000  0.705120  0.991550  1
  Mn  Mn5  1  0.250000  0.795458  0.491860  1
  Mn  Mn6  1  0.750000  0.292799  0.011411  1
  Mn  Mn7  1  0.750000  0.206177  0.507543  1
  Mn  Mn8  1  0.250000  0.410333  0.492044  1
  Mn  Mn9  1  0.250000  0.089876  0.989673  1
  Mn  Mn10  1  0.750000  0.592146  0.509965  1
  Mn  Mn11  1  0.750000  0.904549  0.008081  1
  Mn  Mn12  1  0.250000  0.218172  0.174151  1
  Fe  Fe13  1  0.250000  0.278672  0.671703  1
  Fe  Fe14  1  0.750000  0.778711  0.827776  1
  Fe  Fe15  1  0.750000  0.721474  0.328808  1
  Fe  Fe16  1  0.250000  0.878249  0.694903  1
  Fe  Fe17  1  0.250000  0.623069  0.195839  1
  Fe  Fe18  1  0.750000  0.126753  0.300286  1
  Fe  Fe19  1  0.750000  0.376464  0.805415  1
  Fe  Fe20  1  0.250000  0.462310  0.935977  1
  Fe  Fe21  1  0.250000  0.038316  0.434197  1
  Fe  Fe22  1  0.750000  0.537406  0.063891  1
  Fe  Fe23  1  0.750000  0.963530  0.563293  1
  P  P24  1  0.250000  0.425951  0.113057  1
  P  P25  1  0.250000  0.076916  0.611844  1
  P  P26  1  0.750000  0.575773  0.886953  1
  P  P27  1  0.750000  0.924093  0.386754  1
  P  P28  1  0.250000  0.269146  0.861224  1
  P  P29  1  0.250000  0.235242  0.367611  1
  P  P30  1  0.750000  0.729843  0.138919  1
  P  P31  1  0.750000  0.770465  0.638773  1
  P  P32  1  0.250000  0.604922  0.381813  1
  P  P33  1  0.250000  0.896297  0.880190  1
  P  P34  1  0.750000  0.395964  0.619615  1
  P  P35  1  0.750000  0.094725  0.113264  1
