# generated using pymatgen
data_Dy2YEr9Os4
_symmetry_space_group_name_H-M   'P 1'
_cell_length_a   6.28077638
_cell_length_b   7.38014983
_cell_length_c   8.99227100
_cell_angle_alpha   90.00000000
_cell_angle_beta   90.00000000
_cell_angle_gamma   89.83914038
_symmetry_Int_Tables_number   1
_chemical_formula_structural   Dy2YEr9Os4
_chemical_formula_sum   'Dy2 Y1 Er9 Os4'
_cell_volume   416.81773144
_cell_formula_units_Z   1
loop_
 _symmetry_equiv_pos_site_id
 _symmetry_equiv_pos_as_xyz
  1  'x, y, z'
loop_
 _atom_site_type_symbol
 _atom_site_label
 _atom_site_symmetry_multiplicity
 _atom_site_fract_x
 _atom_site_fract_y
 _atom_site_fract_z
 _atom_site_occupancy
  Dy  Dy0  1  0.630286  0.039072  0.250000  1
  Dy  Dy1  1  0.130446  0.460954  0.750000  1
  Y  Y2  1  0.870935  0.537991  0.250000  1
  Er  Er3  1  0.332617  0.675890  0.062584  1
  Er  Er4  1  0.168070  0.174235  0.437789  1
  Er  Er5  1  0.666906  0.324504  0.563048  1
  Er  Er6  1  0.831609  0.825359  0.936735  1
  Er  Er7  1  0.666906  0.324504  0.936952  1
  Er  Er8  1  0.831609  0.825359  0.563265  1
  Er  Er9  1  0.332617  0.675890  0.437416  1
  Er  Er10  1  0.168070  0.174235  0.062211  1
  Er  Er11  1  0.369360  0.960818  0.750000  1
  Os  Os12  1  0.042080  0.884265  0.250000  1
  Os  Os13  1  0.457300  0.382527  0.250000  1
  Os  Os14  1  0.960694  0.116595  0.750000  1
  Os  Os15  1  0.540497  0.617804  0.750000  1
