# generated using pymatgen
data_Li2Tb3YAs4
_symmetry_space_group_name_H-M   'P 1'
_cell_length_a   4.18586100
_cell_length_b   4.18586178
_cell_length_c   14.22201000
_cell_angle_alpha   90.00000000
_cell_angle_beta   90.00000000
_cell_angle_gamma   120.00001753
_symmetry_Int_Tables_number   1
_chemical_formula_structural   Li2Tb3YAs4
_chemical_formula_sum   'Li2 Tb3 Y1 As4'
_cell_volume   215.80486007
_cell_formula_units_Z   1
loop_
 _symmetry_equiv_pos_site_id
 _symmetry_equiv_pos_as_xyz
  1  'x, y, z'
loop_
 _atom_site_type_symbol
 _atom_site_label
 _atom_site_symmetry_multiplicity
 _atom_site_fract_x
 _atom_site_fract_y
 _atom_site_fract_z
 _atom_site_occupancy
  Li  Li0  1  0.000000  0.000000  0.250102  1
  Li  Li1  1  0.000000  0.000000  0.750031  1
  Tb  Tb2  1  0.666667  0.333333  0.610608  1
  Tb  Tb3  1  0.666667  0.333333  0.889449  1
  Tb  Tb4  1  0.333333  0.666667  0.110649  1
  Y  Y5  1  0.333333  0.666667  0.389426  1
  As  As6  1  0.000000  0.000000  0.499715  1
  As  As7  1  0.000000  0.000000  0.999983  1
  As  As8  1  0.333333  0.666667  0.749914  1
  As  As9  1  0.666667  0.333333  0.250123  1
