# generated using pymatgen
data_Tb4Dy3Y13(CoBi2)4
_symmetry_space_group_name_H-M   'P 1'
_cell_length_a   8.05683571
_cell_length_b   8.85181915
_cell_length_c   12.43793434
_cell_angle_alpha   89.95907055
_cell_angle_beta   90.02878001
_cell_angle_gamma   90.01129968
_symmetry_Int_Tables_number   1
_chemical_formula_structural   Tb4Dy3Y13(CoBi2)4
_chemical_formula_sum   'Tb4 Dy3 Y13 Co4 Bi8'
_cell_volume   887.04392506
_cell_formula_units_Z   1
loop_
 _symmetry_equiv_pos_site_id
 _symmetry_equiv_pos_as_xyz
  1  'x, y, z'
loop_
 _atom_site_type_symbol
 _atom_site_label
 _atom_site_symmetry_multiplicity
 _atom_site_fract_x
 _atom_site_fract_y
 _atom_site_fract_z
 _atom_site_occupancy
  Tb  Tb0  1  0.823701  0.033880  0.062674  1
  Tb  Tb1  1  0.676173  0.466292  0.562660  1
  Tb  Tb2  1  0.823288  0.466086  0.062735  1
  Tb  Tb3  1  0.176650  0.534070  0.937219  1
  Dy  Dy4  1  0.324724  0.965746  0.437376  1
  Dy  Dy5  1  0.175643  0.965959  0.937351  1
  Dy  Dy6  1  0.324381  0.534052  0.437346  1
  Y  Y7  1  0.847866  0.750079  0.801138  1
  Y  Y8  1  0.152391  0.249968  0.198793  1
  Y  Y9  1  0.347768  0.250083  0.698594  1
  Y  Y10  1  0.651725  0.750046  0.301483  1
  Y  Y11  1  0.378828  0.749998  0.690416  1
  Y  Y12  1  0.620823  0.249809  0.309435  1
  Y  Y13  1  0.879044  0.250043  0.809140  1
  Y  Y14  1  0.121311  0.750179  0.190917  1
  Y  Y15  1  0.956061  0.749701  0.502026  1
  Y  Y16  1  0.045118  0.250273  0.497745  1
  Y  Y17  1  0.455271  0.249883  0.997880  1
  Y  Y18  1  0.544337  0.750092  0.002118  1
  Y  Y19  1  0.676458  0.034128  0.563215  1
  Co  Co20  1  0.558064  0.749199  0.507991  1
  Co  Co21  1  0.440153  0.250231  0.491528  1
  Co  Co22  1  0.059394  0.249728  0.991518  1
  Co  Co23  1  0.941269  0.750315  0.008339  1
  Bi  Bi24  1  0.570964  0.492310  0.825724  1
  Bi  Bi25  1  0.428972  0.507763  0.174459  1
  Bi  Bi26  1  0.070852  0.507825  0.674308  1
  Bi  Bi27  1  0.429037  0.992250  0.174395  1
  Bi  Bi28  1  0.929358  0.492244  0.325723  1
  Bi  Bi29  1  0.570596  0.007735  0.825649  1
  Bi  Bi30  1  0.929447  0.007730  0.325900  1
  Bi  Bi31  1  0.070332  0.992303  0.674204  1
