# generated using pymatgen
data_Y4Co16Re4Si11P
_symmetry_space_group_name_H-M   'P 1'
_cell_length_a   3.74550800
_cell_length_b   10.51691347
_cell_length_c   11.98653582
_cell_angle_alpha   90.06191992
_cell_angle_beta   90.00000000
_cell_angle_gamma   90.00000000
_symmetry_Int_Tables_number   1
_chemical_formula_structural   Y4Co16Re4Si11P
_chemical_formula_sum   'Y4 Co16 Re4 Si11 P1'
_cell_volume   472.16355697
_cell_formula_units_Z   1
loop_
 _symmetry_equiv_pos_site_id
 _symmetry_equiv_pos_as_xyz
  1  'x, y, z'
loop_
 _atom_site_type_symbol
 _atom_site_label
 _atom_site_symmetry_multiplicity
 _atom_site_fract_x
 _atom_site_fract_y
 _atom_site_fract_z
 _atom_site_occupancy
  Y  Y0  1  0.250000  0.920255  0.203130  1
  Y  Y1  1  0.750000  0.080348  0.796030  1
  Y  Y2  1  0.750000  0.420415  0.298033  1
  Y  Y3  1  0.250000  0.581453  0.705081  1
  Co  Co4  1  0.250000  0.094373  0.989287  1
  Co  Co5  1  0.750000  0.905517  0.010014  1
  Co  Co6  1  0.750000  0.594960  0.507760  1
  Co  Co7  1  0.250000  0.409872  0.487864  1
  Co  Co8  1  0.250000  0.286268  0.673915  1
  Co  Co9  1  0.750000  0.713439  0.325696  1
  Co  Co10  1  0.750000  0.784403  0.825091  1
  Co  Co11  1  0.250000  0.214860  0.174963  1
  Co  Co12  1  0.250000  0.615415  0.202111  1
  Co  Co13  1  0.750000  0.384478  0.802058  1
  Co  Co14  1  0.750000  0.115539  0.301537  1
  Co  Co15  1  0.250000  0.883400  0.697116  1
  Co  Co16  1  0.250000  0.031873  0.433738  1
  Co  Co17  1  0.750000  0.966108  0.565223  1
  Co  Co18  1  0.750000  0.533414  0.067906  1
  Co  Co19  1  0.250000  0.466827  0.935244  1
  Re  Re20  1  0.250000  0.794978  0.488225  1
  Re  Re21  1  0.750000  0.201315  0.508784  1
  Re  Re22  1  0.750000  0.299897  0.008614  1
  Re  Re23  1  0.250000  0.700531  0.992629  1
  Si  Si24  1  0.250000  0.082925  0.614723  1
  Si  Si25  1  0.750000  0.916628  0.384380  1
  Si  Si26  1  0.750000  0.582810  0.886129  1
  Si  Si27  1  0.250000  0.416894  0.116310  1
  Si  Si28  1  0.250000  0.230376  0.365551  1
  Si  Si29  1  0.750000  0.768833  0.633900  1
  Si  Si30  1  0.750000  0.731929  0.134646  1
  Si  Si31  1  0.250000  0.269029  0.865231  1
  Si  Si32  1  0.250000  0.900659  0.892147  1
  Si  Si33  1  0.750000  0.098898  0.106895  1
  Si  Si34  1  0.750000  0.402348  0.607505  1
  P  P35  1  0.250000  0.598732  0.392535  1
