# generated using pymatgen
data_Sc3Zn2SbRh6
_symmetry_space_group_name_H-M   'P 1'
_cell_length_a   4.47985200
_cell_length_b   6.31393900
_cell_length_c   13.38472301
_cell_angle_alpha   89.99581054
_cell_angle_beta   89.99952159
_cell_angle_gamma   90.00153870
_symmetry_Int_Tables_number   1
_chemical_formula_structural   Sc3Zn2SbRh6
_chemical_formula_sum   'Sc6 Zn4 Sb2 Rh12'
_cell_volume   378.59374589
_cell_formula_units_Z   2
loop_
 _symmetry_equiv_pos_site_id
 _symmetry_equiv_pos_as_xyz
  1  'x, y, z'
loop_
 _atom_site_type_symbol
 _atom_site_label
 _atom_site_symmetry_multiplicity
 _atom_site_fract_x
 _atom_site_fract_y
 _atom_site_fract_z
 _atom_site_occupancy
  Sc  Sc0  1  0.999997  0.500008  0.993298  1
  Sc  Sc1  1  0.499914  0.999997  0.173230  1
  Sc  Sc2  1  0.999907  0.500001  0.343162  1
  Sc  Sc3  1  0.500003  0.000000  0.504089  1
  Sc  Sc4  1  0.000124  0.500008  0.662523  1
  Sc  Sc5  1  0.500087  0.999988  0.823645  1
  Zn  Zn6  1  0.999881  0.000004  0.335187  1
  Zn  Zn7  1  0.499998  0.499994  0.500134  1
  Zn  Zn8  1  0.000099  0.000002  0.666506  1
  Zn  Zn9  1  0.500090  0.499998  0.831427  1
  Sb  Sb10  1  0.999995  0.000009  0.996583  1
  Sb  Sb11  1  0.499919  0.500002  0.170121  1
  Rh  Rh12  1  0.499990  0.250876  0.999695  1
  Rh  Rh13  1  0.500030  0.749114  0.999688  1
  Rh  Rh14  1  0.999923  0.249585  0.167133  1
  Rh  Rh15  1  0.999859  0.750446  0.167136  1
  Rh  Rh16  1  0.499892  0.246972  0.335372  1
  Rh  Rh17  1  0.499928  0.753025  0.335383  1
  Rh  Rh18  1  0.999984  0.247951  0.500915  1
  Rh  Rh19  1  0.000012  0.752039  0.500928  1
  Rh  Rh20  1  0.500097  0.251954  0.665713  1
  Rh  Rh21  1  0.500086  0.748027  0.665705  1
  Rh  Rh22  1  0.000095  0.253175  0.831216  1
  Rh  Rh23  1  0.000082  0.746819  0.831207  1
