# generated using pymatgen
data_Eu3Al12Ir3Ru
_symmetry_space_group_name_H-M   'P 1'
_cell_length_a   8.90046200
_cell_length_b   8.90046046
_cell_length_c   9.66973600
_cell_angle_alpha   90.00000000
_cell_angle_beta   90.00000000
_cell_angle_gamma   119.99999828
_symmetry_Int_Tables_number   1
_chemical_formula_structural   Eu3Al12Ir3Ru
_chemical_formula_sum   'Eu6 Al24 Ir6 Ru2'
_cell_volume   663.39207977
_cell_formula_units_Z   2
loop_
 _symmetry_equiv_pos_site_id
 _symmetry_equiv_pos_as_xyz
  1  'x, y, z'
loop_
 _atom_site_type_symbol
 _atom_site_label
 _atom_site_symmetry_multiplicity
 _atom_site_fract_x
 _atom_site_fract_y
 _atom_site_fract_z
 _atom_site_occupancy
  Eu  Eu0  1  0.192580  0.385160  0.250000  1
  Eu  Eu1  1  0.807420  0.614840  0.750000  1
  Eu  Eu2  1  0.614840  0.807420  0.250000  1
  Eu  Eu3  1  0.385160  0.192580  0.750000  1
  Eu  Eu4  1  0.192580  0.807420  0.250000  1
  Eu  Eu5  1  0.807420  0.192580  0.750000  1
  Al  Al6  1  0.333333  0.666667  0.006202  1
  Al  Al7  1  0.666667  0.333333  0.993798  1
  Al  Al8  1  0.666667  0.333333  0.506202  1
  Al  Al9  1  0.333333  0.666667  0.493798  1
  Al  Al10  1  0.161275  0.322547  0.577354  1
  Al  Al11  1  0.838725  0.677453  0.422646  1
  Al  Al12  1  0.677453  0.838725  0.577354  1
  Al  Al13  1  0.838725  0.677453  0.077354  1
  Al  Al14  1  0.322547  0.161275  0.422646  1
  Al  Al15  1  0.161275  0.322547  0.922646  1
  Al  Al16  1  0.161275  0.838725  0.577354  1
  Al  Al17  1  0.322547  0.161275  0.077354  1
  Al  Al18  1  0.838725  0.161275  0.422646  1
  Al  Al19  1  0.677453  0.838725  0.922646  1
  Al  Al20  1  0.838725  0.161275  0.077354  1
  Al  Al21  1  0.161275  0.838725  0.922646  1
  Al  Al22  1  0.563213  0.126426  0.250000  1
  Al  Al23  1  0.436787  0.873574  0.750000  1
  Al  Al24  1  0.873574  0.436787  0.250000  1
  Al  Al25  1  0.126426  0.563213  0.750000  1
  Al  Al26  1  0.563213  0.436787  0.250000  1
  Al  Al27  1  0.436787  0.563213  0.750000  1
  Al  Al28  1  0.000000  0.000000  0.250000  1
  Al  Al29  1  0.000000  0.000000  0.750000  1
  Ir  Ir30  1  0.500000  0.000000  0.000000  1
  Ir  Ir31  1  0.000000  0.500000  0.000000  1
  Ir  Ir32  1  0.500000  0.000000  0.500000  1
  Ir  Ir33  1  0.500000  0.500000  0.000000  1
  Ir  Ir34  1  0.000000  0.500000  0.500000  1
  Ir  Ir35  1  0.500000  0.500000  0.500000  1
  Ru  Ru36  1  0.000000  0.000000  0.000000  1
  Ru  Ru37  1  0.000000  0.000000  0.500000  1
