# generated using pymatgen
data_LaTh(Zn10Ni)2
_symmetry_space_group_name_H-M   'P 1'
_cell_length_a   8.33144622
_cell_length_b   8.33144674
_cell_length_c   8.30980500
_cell_angle_alpha   99.92015378
_cell_angle_beta   99.92015440
_cell_angle_gamma   131.08272476
_symmetry_Int_Tables_number   1
_chemical_formula_structural   LaTh(Zn10Ni)2
_chemical_formula_sum   'La1 Th1 Zn20 Ni2'
_cell_volume   395.35242372
_cell_formula_units_Z   1
loop_
 _symmetry_equiv_pos_site_id
 _symmetry_equiv_pos_as_xyz
  1  'x, y, z'
loop_
 _atom_site_type_symbol
 _atom_site_label
 _atom_site_symmetry_multiplicity
 _atom_site_fract_x
 _atom_site_fract_y
 _atom_site_fract_z
 _atom_site_occupancy
  La  La0  1  0.996279  0.003721  0.000000  1
  Th  Th1  1  0.253896  0.746104  0.500000  1
  Zn  Zn2  1  0.892187  0.567169  0.080731  1
  Zn  Zn3  1  0.624323  0.873783  0.249201  1
  Zn  Zn4  1  0.431322  0.505235  0.323483  1
  Zn  Zn5  1  0.494765  0.568678  0.676517  1
  Zn  Zn6  1  0.432831  0.107813  0.919269  1
  Zn  Zn7  1  0.753360  0.180162  0.821296  1
  Zn  Zn8  1  0.485709  0.817688  0.913555  1
  Zn  Zn9  1  0.509366  0.490634  0.000000  1
  Zn  Zn10  1  0.761408  0.932726  0.584808  1
  Zn  Zn11  1  0.741194  0.258806  0.500000  1
  Zn  Zn12  1  0.057677  0.649266  0.828414  1
  Zn  Zn13  1  0.126217  0.375677  0.750799  1
  Zn  Zn14  1  0.358546  0.181741  0.419738  1
  Zn  Zn15  1  0.818259  0.641454  0.580262  1
  Zn  Zn16  1  0.901016  0.808223  0.331133  1
  Zn  Zn17  1  0.191777  0.098984  0.668867  1
  Zn  Zn18  1  0.067274  0.238592  0.415192  1
  Zn  Zn19  1  0.350734  0.942323  0.171586  1
  Zn  Zn20  1  0.819838  0.246640  0.178704  1
  Zn  Zn21  1  0.182312  0.514291  0.086445  1
  Ni  Ni22  1  0.625560  0.375850  0.249625  1
  Ni  Ni23  1  0.624150  0.374440  0.750375  1
