# generated using pymatgen
data_TbHo15In4(IrPd)2
_symmetry_space_group_name_H-M   'P 1'
_cell_length_a   9.63012334
_cell_length_b   9.65717744
_cell_length_c   9.65560412
_cell_angle_alpha   60.33267355
_cell_angle_beta   60.14984887
_cell_angle_gamma   60.13300122
_symmetry_Int_Tables_number   1
_chemical_formula_structural   TbHo15In4(IrPd)2
_chemical_formula_sum   'Tb1 Ho15 In4 Ir2 Pd2'
_cell_volume   637.90534857
_cell_formula_units_Z   1
loop_
 _symmetry_equiv_pos_site_id
 _symmetry_equiv_pos_as_xyz
  1  'x, y, z'
loop_
 _atom_site_type_symbol
 _atom_site_label
 _atom_site_symmetry_multiplicity
 _atom_site_fract_x
 _atom_site_fract_y
 _atom_site_fract_z
 _atom_site_occupancy
  Tb  Tb0  1  0.438334  0.432893  0.064162  1
  Ho  Ho1  1  0.647977  0.641497  0.059204  1
  Ho  Ho2  1  0.185799  0.808754  0.194421  1
  Ho  Ho3  1  0.059641  0.434853  0.058846  1
  Ho  Ho4  1  0.190447  0.810011  0.809040  1
  Ho  Ho5  1  0.064738  0.435202  0.436109  1
  Ho  Ho6  1  0.810007  0.189140  0.189325  1
  Ho  Ho7  1  0.657210  0.650331  0.650777  1
  Ho  Ho8  1  0.811836  0.194872  0.808789  1
  Ho  Ho9  1  0.186500  0.194329  0.808028  1
  Ho  Ho10  1  0.050871  0.647033  0.646309  1
  Ho  Ho11  1  0.438498  0.060397  0.061061  1
  Ho  Ho12  1  0.060738  0.059481  0.434810  1
  Ho  Ho13  1  0.648345  0.059159  0.641624  1
  Ho  Ho14  1  0.811456  0.809003  0.194685  1
  Ho  Ho15  1  0.440004  0.062191  0.434432  1
  In  In16  1  0.415112  0.416687  0.416882  1
  In  In17  1  0.416856  0.419297  0.748285  1
  In  In18  1  0.417413  0.749470  0.418333  1
  In  In19  1  0.750000  0.417693  0.418216  1
  Ir  Ir20  1  0.858875  0.427258  0.862270  1
  Ir  Ir21  1  0.857437  0.862802  0.427223  1
  Pd  Pd22  1  0.428824  0.860159  0.860006  1
  Pd  Pd23  1  0.853085  0.857492  0.857168  1
