# generated using pymatgen
data_Y2LuIn3Ag2Rh
_symmetry_space_group_name_H-M   'P 1'
_cell_length_a   8.02361449
_cell_length_b   8.03816272
_cell_length_c   3.66691200
_cell_angle_alpha   90.00000000
_cell_angle_beta   90.00000000
_cell_angle_gamma   120.15869448
_symmetry_Int_Tables_number   1
_chemical_formula_structural   Y2LuIn3Ag2Rh
_chemical_formula_sum   'Y2 Lu1 In3 Ag2 Rh1'
_cell_volume   204.48490709
_cell_formula_units_Z   1
loop_
 _symmetry_equiv_pos_site_id
 _symmetry_equiv_pos_as_xyz
  1  'x, y, z'
loop_
 _atom_site_type_symbol
 _atom_site_label
 _atom_site_symmetry_multiplicity
 _atom_site_fract_x
 _atom_site_fract_y
 _atom_site_fract_z
 _atom_site_occupancy
  Y  Y0  1  0.417157  0.386887  0.500000  1
  Y  Y1  1  0.615018  0.030766  0.500000  1
  Lu  Lu2  1  0.963343  0.579302  0.500000  1
  In  In3  1  0.008706  0.278944  0.000000  1
  In  In4  1  0.270304  0.991539  0.000000  1
  In  In5  1  0.721888  0.729440  0.000000  1
  Ag  Ag6  1  0.329284  0.666337  0.000000  1
  Ag  Ag7  1  0.000406  0.997718  0.500000  1
  Rh  Rh8  1  0.673894  0.339068  0.000000  1
