# generated using pymatgen
data_Yb3(SiRh)2
_symmetry_space_group_name_H-M   'P 1'
_cell_length_a   5.68257500
_cell_length_b   7.58962900
_cell_length_c   13.32777200
_cell_angle_alpha   90.00000000
_cell_angle_beta   90.00000000
_cell_angle_gamma   90.00000000
_symmetry_Int_Tables_number   1
_chemical_formula_structural   Yb3(SiRh)2
_chemical_formula_sum   'Yb12 Si8 Rh8'
_cell_volume   574.80862747
_cell_formula_units_Z   4
loop_
 _symmetry_equiv_pos_site_id
 _symmetry_equiv_pos_as_xyz
  1  'x, y, z'
loop_
 _atom_site_type_symbol
 _atom_site_label
 _atom_site_symmetry_multiplicity
 _atom_site_fract_x
 _atom_site_fract_y
 _atom_site_fract_z
 _atom_site_occupancy
  Yb  Yb0  1  0.142940  0.604218  0.097414  1
  Yb  Yb1  1  0.142940  0.895782  0.902586  1
  Yb  Yb2  1  0.857060  0.104218  0.402586  1
  Yb  Yb3  1  0.857060  0.395782  0.597414  1
  Yb  Yb4  1  0.857060  0.395782  0.902586  1
  Yb  Yb5  1  0.857060  0.104218  0.097414  1
  Yb  Yb6  1  0.142940  0.895782  0.597414  1
  Yb  Yb7  1  0.142940  0.604218  0.402586  1
  Yb  Yb8  1  0.364904  0.264164  0.250000  1
  Yb  Yb9  1  0.364904  0.235836  0.750000  1
  Yb  Yb10  1  0.635096  0.764164  0.250000  1
  Yb  Yb11  1  0.635096  0.735836  0.750000  1
  Si  Si12  1  0.845652  0.412324  0.250000  1
  Si  Si13  1  0.845652  0.087676  0.750000  1
  Si  Si14  1  0.154348  0.912324  0.250000  1
  Si  Si15  1  0.154348  0.587676  0.750000  1
  Si  Si16  1  0.398028  0.250000  0.000000  1
  Si  Si17  1  0.601972  0.750000  0.500000  1
  Si  Si18  1  0.601972  0.750000  0.000000  1
  Si  Si19  1  0.398028  0.250000  0.500000  1
  Rh  Rh20  1  0.637572  0.471095  0.091546  1
  Rh  Rh21  1  0.637572  0.028905  0.908454  1
  Rh  Rh22  1  0.362428  0.971095  0.408454  1
  Rh  Rh23  1  0.362428  0.528905  0.591546  1
  Rh  Rh24  1  0.362428  0.528905  0.908454  1
  Rh  Rh25  1  0.362428  0.971095  0.091546  1
  Rh  Rh26  1  0.637572  0.028905  0.591546  1
  Rh  Rh27  1  0.637572  0.471095  0.408454  1
