# generated using pymatgen
data_AcLa3(Zn5Ge)2
_symmetry_space_group_name_H-M   'P 1'
_cell_length_a   8.61029273
_cell_length_b   8.61029250
_cell_length_c   9.13020800
_cell_angle_alpha   88.98812234
_cell_angle_beta   91.01187764
_cell_angle_gamma   149.42146971
_symmetry_Int_Tables_number   1
_chemical_formula_structural   AcLa3(Zn5Ge)2
_chemical_formula_sum   'Ac1 La3 Zn10 Ge2'
_cell_volume   344.28771468
_cell_formula_units_Z   1
loop_
 _symmetry_equiv_pos_site_id
 _symmetry_equiv_pos_as_xyz
  1  'x, y, z'
loop_
 _atom_site_type_symbol
 _atom_site_label
 _atom_site_symmetry_multiplicity
 _atom_site_fract_x
 _atom_site_fract_y
 _atom_site_fract_z
 _atom_site_occupancy
  Ac  Ac0  1  0.000000  0.000000  0.500000  1
  La  La1  1  0.203960  0.796040  0.247236  1
  La  La2  1  0.796040  0.203960  0.752764  1
  La  La3  1  0.000000  0.000000  0.000000  1
  Zn  Zn4  1  0.811042  0.188958  0.393464  1
  Zn  Zn5  1  0.188958  0.811042  0.606536  1
  Zn  Zn6  1  0.816459  0.183541  0.112876  1
  Zn  Zn7  1  0.183541  0.816459  0.887124  1
  Zn  Zn8  1  0.653978  0.346022  0.478305  1
  Zn  Zn9  1  0.346022  0.653978  0.521695  1
  Zn  Zn10  1  0.655146  0.344854  0.016715  1
  Zn  Zn11  1  0.344854  0.655146  0.983285  1
  Zn  Zn12  1  0.403000  0.597000  0.250847  1
  Zn  Zn13  1  0.597000  0.403000  0.749153  1
  Ge  Ge14  1  0.559499  0.440501  0.242153  1
  Ge  Ge15  1  0.440501  0.559499  0.757847  1
