# generated using pymatgen
data_Pr2Cd4SnPb
_symmetry_space_group_name_H-M   'P 1'
_cell_length_a   4.96951600
_cell_length_b   4.60924400
_cell_length_c   9.28457100
_cell_angle_alpha   90.00000000
_cell_angle_beta   90.00000000
_cell_angle_gamma   90.00000000
_symmetry_Int_Tables_number   1
_chemical_formula_structural   Pr2Cd4SnPb
_chemical_formula_sum   'Pr2 Cd4 Sn1 Pb1'
_cell_volume   212.66970757
_cell_formula_units_Z   1
loop_
 _symmetry_equiv_pos_site_id
 _symmetry_equiv_pos_as_xyz
  1  'x, y, z'
loop_
 _atom_site_type_symbol
 _atom_site_label
 _atom_site_symmetry_multiplicity
 _atom_site_fract_x
 _atom_site_fract_y
 _atom_site_fract_z
 _atom_site_occupancy
  Pr  Pr0  1  0.000000  0.000000  0.995970  1
  Pr  Pr1  1  0.000000  0.000000  0.503730  1
  Cd  Cd2  1  0.500000  0.500000  0.997474  1
  Cd  Cd3  1  0.500000  0.500000  0.502827  1
  Cd  Cd4  1  0.500000  0.000000  0.252505  1
  Cd  Cd5  1  0.500000  0.000000  0.747973  1
  Sn  Sn6  1  0.000000  0.500000  0.749303  1
  Pb  Pb7  1  0.000000  0.500000  0.250218  1
