# generated using pymatgen
data_Dy3Er7OsRu3
_symmetry_space_group_name_H-M   'P 1'
_cell_length_a   6.30022971
_cell_length_b   7.28363266
_cell_length_c   8.40810927
_cell_angle_alpha   96.77841944
_cell_angle_beta   112.07859429
_cell_angle_gamma   90.06040441
_symmetry_Int_Tables_number   1
_chemical_formula_structural   Dy3Er7OsRu3
_chemical_formula_sum   'Dy3 Er7 Os1 Ru3'
_cell_volume   354.61036585
_cell_formula_units_Z   1
loop_
 _symmetry_equiv_pos_site_id
 _symmetry_equiv_pos_as_xyz
  1  'x, y, z'
loop_
 _atom_site_type_symbol
 _atom_site_label
 _atom_site_symmetry_multiplicity
 _atom_site_fract_x
 _atom_site_fract_y
 _atom_site_fract_z
 _atom_site_occupancy
  Dy  Dy0  1  0.791575  0.583220  0.813017  1
  Dy  Dy1  1  0.976342  0.915823  0.184630  1
  Dy  Dy2  1  0.208556  0.415613  0.186558  1
  Er  Er3  1  0.022972  0.084260  0.813739  1
  Er  Er4  1  0.206279  0.684961  0.565841  1
  Er  Er5  1  0.640028  0.816131  0.436281  1
  Er  Er6  1  0.794751  0.315321  0.434649  1
  Er  Er7  1  0.359224  0.184490  0.565007  1
  Er  Er8  1  0.419543  0.750121  0.999248  1
  Er  Er9  1  0.580474  0.249992  0.999860  1
  Os  Os10  1  0.602023  0.924186  0.780278  1
  Ru  Ru11  1  0.823142  0.576420  0.221081  1
  Ru  Ru12  1  0.397901  0.076332  0.220439  1
  Ru  Ru13  1  0.177190  0.423128  0.779372  1
