# generated using pymatgen
data_Ca2CdN
_symmetry_space_group_name_H-M   'P 1'
_cell_length_a   10.54861423
_cell_length_b   10.54861440
_cell_length_c   5.11371700
_cell_angle_alpha   90.00000000
_cell_angle_beta   90.00000000
_cell_angle_gamma   161.43629174
_symmetry_Int_Tables_number   1
_chemical_formula_structural   Ca2CdN
_chemical_formula_sum   'Ca4 Cd2 N2'
_cell_volume   181.15258638
_cell_formula_units_Z   2
loop_
 _symmetry_equiv_pos_site_id
 _symmetry_equiv_pos_as_xyz
  1  'x, y, z'
loop_
 _atom_site_type_symbol
 _atom_site_label
 _atom_site_symmetry_multiplicity
 _atom_site_fract_x
 _atom_site_fract_y
 _atom_site_fract_z
 _atom_site_occupancy
  Ca  Ca0  1  0.219739  0.780261  0.750000  1
  Ca  Ca1  1  0.780261  0.219739  0.250000  1
  Ca  Ca2  1  0.375989  0.624011  0.750000  1
  Ca  Ca3  1  0.624011  0.375989  0.250000  1
  Cd  Cd4  1  0.040758  0.959242  0.750000  1
  Cd  Cd5  1  0.959242  0.040758  0.250000  1
  N  N6  1  0.799596  0.200404  0.750000  1
  N  N7  1  0.200404  0.799596  0.250000  1
