# generated using pymatgen
data_CeLu6Pa(ReB6)4
_symmetry_space_group_name_H-M   'P 1'
_cell_length_a   3.65788500
_cell_length_b   9.08650882
_cell_length_c   11.45199728
_cell_angle_alpha   90.15937841
_cell_angle_beta   90.00000000
_cell_angle_gamma   90.00000000
_symmetry_Int_Tables_number   1
_chemical_formula_structural   CeLu6Pa(ReB6)4
_chemical_formula_sum   'Ce1 Lu6 Pa1 Re4 B24'
_cell_volume   380.63319125
_cell_formula_units_Z   1
loop_
 _symmetry_equiv_pos_site_id
 _symmetry_equiv_pos_as_xyz
  1  'x, y, z'
loop_
 _atom_site_type_symbol
 _atom_site_label
 _atom_site_symmetry_multiplicity
 _atom_site_fract_x
 _atom_site_fract_y
 _atom_site_fract_z
 _atom_site_occupancy
  Ce  Ce0  1  0.000000  0.680265  0.586679  1
  Lu  Lu1  1  0.000000  0.823340  0.084963  1
  Lu  Lu2  1  0.000000  0.176150  0.914255  1
  Lu  Lu3  1  0.000000  0.943735  0.371960  1
  Lu  Lu4  1  0.000000  0.055014  0.628680  1
  Lu  Lu5  1  0.000000  0.443526  0.126376  1
  Lu  Lu6  1  0.000000  0.556859  0.872352  1
  Pa  Pa7  1  0.000000  0.321041  0.413911  1
  Re  Re8  1  0.000000  0.636356  0.320827  1
  Re  Re9  1  0.000000  0.361502  0.677745  1
  Re  Re10  1  0.000000  0.140522  0.181066  1
  Re  Re11  1  0.000000  0.861486  0.821315  1
  B  B12  1  0.500000  0.553290  0.431196  1
  B  B13  1  0.500000  0.444799  0.567655  1
  B  B14  1  0.500000  0.053587  0.066509  1
  B  B15  1  0.500000  0.947079  0.934465  1
  B  B16  1  0.500000  0.750929  0.417402  1
  B  B17  1  0.500000  0.248715  0.581575  1
  B  B18  1  0.500000  0.249530  0.079498  1
  B  B19  1  0.500000  0.750515  0.920508  1
  B  B20  1  0.500000  0.792993  0.264068  1
  B  B21  1  0.500000  0.206732  0.735984  1
  B  B22  1  0.500000  0.292271  0.233552  1
  B  B23  1  0.500000  0.708289  0.767197  1
  B  B24  1  0.500000  0.631143  0.183226  1
  B  B25  1  0.500000  0.368970  0.815958  1
  B  B26  1  0.500000  0.130661  0.314620  1
  B  B27  1  0.500000  0.870473  0.686504  1
  B  B28  1  0.500000  0.981315  0.211725  1
  B  B29  1  0.500000  0.019126  0.788858  1
  B  B30  1  0.500000  0.482091  0.285944  1
  B  B31  1  0.500000  0.517123  0.714134  1
  B  B32  1  0.500000  0.601557  0.028003  1
  B  B33  1  0.500000  0.398347  0.971257  1
  B  B34  1  0.500000  0.104201  0.471430  1
  B  B35  1  0.500000  0.896466  0.528602  1
