# generated using pymatgen
data_La8Zn8PdRh7
_symmetry_space_group_name_H-M   'P 1'
_cell_length_a   4.06276000
_cell_length_b   7.52602155
_cell_length_c   16.67908031
_cell_angle_alpha   90.04467165
_cell_angle_beta   90.00000000
_cell_angle_gamma   90.00000000
_symmetry_Int_Tables_number   1
_chemical_formula_structural   La8Zn8PdRh7
_chemical_formula_sum   'La8 Zn8 Pd1 Rh7'
_cell_volume   509.98639850
_cell_formula_units_Z   1
loop_
 _symmetry_equiv_pos_site_id
 _symmetry_equiv_pos_as_xyz
  1  'x, y, z'
loop_
 _atom_site_type_symbol
 _atom_site_label
 _atom_site_symmetry_multiplicity
 _atom_site_fract_x
 _atom_site_fract_y
 _atom_site_fract_z
 _atom_site_occupancy
  La  La0  1  0.750000  0.326052  0.439454  1
  La  La1  1  0.250000  0.045224  0.713806  1
  La  La2  1  0.250000  0.558490  0.781686  1
  La  La3  1  0.250000  0.671521  0.557584  1
  La  La4  1  0.750000  0.824713  0.061148  1
  La  La5  1  0.250000  0.169786  0.945959  1
  La  La6  1  0.750000  0.451998  0.217979  1
  La  La7  1  0.750000  0.951727  0.283265  1
  Zn  Zn8  1  0.250000  0.126647  0.150722  1
  Zn  Zn9  1  0.250000  0.998344  0.440311  1
  Zn  Zn10  1  0.750000  0.872836  0.850701  1
  Zn  Zn11  1  0.750000  0.000403  0.557627  1
  Zn  Zn12  1  0.250000  0.499026  0.060140  1
  Zn  Zn13  1  0.750000  0.375217  0.647867  1
  Zn  Zn14  1  0.750000  0.502691  0.941314  1
  Zn  Zn15  1  0.250000  0.627406  0.350243  1
  Pd  Pd16  1  0.750000  0.258870  0.814645  1
  Rh  Rh17  1  0.250000  0.243537  0.314341  1
  Rh  Rh18  1  0.250000  0.742639  0.934733  1
  Rh  Rh19  1  0.250000  0.240487  0.565793  1
  Rh  Rh20  1  0.250000  0.743146  0.186366  1
  Rh  Rh21  1  0.750000  0.756954  0.433569  1
  Rh  Rh22  1  0.750000  0.256209  0.065654  1
  Rh  Rh23  1  0.750000  0.756079  0.685091  1
