# generated using pymatgen
data_Sc8Cr11Si16Ir
_symmetry_space_group_name_H-M   'P 1'
_cell_length_a   6.52632629
_cell_length_b   6.52632653
_cell_length_c   12.05662142
_cell_angle_alpha   90.06784172
_cell_angle_beta   89.93216037
_cell_angle_gamma   89.81103771
_symmetry_Int_Tables_number   1
_chemical_formula_structural   Sc8Cr11Si16Ir
_chemical_formula_sum   'Sc8 Cr11 Si16 Ir1'
_cell_volume   513.52339442
_cell_formula_units_Z   1
loop_
 _symmetry_equiv_pos_site_id
 _symmetry_equiv_pos_as_xyz
  1  'x, y, z'
loop_
 _atom_site_type_symbol
 _atom_site_label
 _atom_site_symmetry_multiplicity
 _atom_site_fract_x
 _atom_site_fract_y
 _atom_site_fract_z
 _atom_site_occupancy
  Sc  Sc0  1  0.001024  0.663146  0.029250  1
  Sc  Sc1  1  0.836924  0.500786  0.279758  1
  Sc  Sc2  1  0.161263  0.499283  0.778377  1
  Sc  Sc3  1  0.500786  0.836924  0.720242  1
  Sc  Sc4  1  0.499283  0.161263  0.221623  1
  Sc  Sc5  1  0.998808  0.338259  0.528990  1
  Sc  Sc6  1  0.663146  0.001024  0.970750  1
  Sc  Sc7  1  0.338259  0.998808  0.471010  1
  Cr  Cr8  1  0.167785  0.831877  0.249080  1
  Cr  Cr9  1  0.831877  0.167785  0.750920  1
  Cr  Cr10  1  0.668375  0.668375  0.500000  1
  Cr  Cr11  1  0.989237  0.166588  0.127315  1
  Cr  Cr12  1  0.335187  0.496099  0.375153  1
  Cr  Cr13  1  0.671606  0.504134  0.875304  1
  Cr  Cr14  1  0.496099  0.335187  0.624847  1
  Cr  Cr15  1  0.504134  0.671606  0.124696  1
  Cr  Cr16  1  0.003420  0.834458  0.626146  1
  Cr  Cr17  1  0.166588  0.989237  0.872685  1
  Cr  Cr18  1  0.834458  0.003420  0.373854  1
  Si  Si19  1  0.282323  0.962452  0.065181  1
  Si  Si20  1  0.534423  0.787468  0.316366  1
  Si  Si21  1  0.467644  0.211242  0.813872  1
  Si  Si22  1  0.787468  0.534423  0.683634  1
  Si  Si23  1  0.211242  0.467644  0.186128  1
  Si  Si24  1  0.712855  0.034702  0.565794  1
  Si  Si25  1  0.962452  0.282323  0.934819  1
  Si  Si26  1  0.034702  0.712855  0.434206  1
  Si  Si27  1  0.700636  0.381174  0.067668  1
  Si  Si28  1  0.124553  0.196985  0.316554  1
  Si  Si29  1  0.875299  0.801961  0.816017  1
  Si  Si30  1  0.196985  0.124553  0.683446  1
  Si  Si31  1  0.801961  0.875299  0.183983  1
  Si  Si32  1  0.302250  0.624605  0.566228  1
  Si  Si33  1  0.381174  0.700636  0.932332  1
  Si  Si34  1  0.624605  0.302250  0.433772  1
  Ir  Ir35  1  0.331172  0.331172  0.000000  1
