# generated using pymatgen
data_Yb5SiBi2
_symmetry_space_group_name_H-M   'P 1'
_cell_length_a   12.82902700
_cell_length_b   9.57767400
_cell_length_c   8.05976400
_cell_angle_alpha   90.00000000
_cell_angle_beta   90.00000000
_cell_angle_gamma   90.00000000
_symmetry_Int_Tables_number   1
_chemical_formula_structural   Yb5SiBi2
_chemical_formula_sum   'Yb20 Si4 Bi8'
_cell_volume   990.32124320
_cell_formula_units_Z   4
loop_
 _symmetry_equiv_pos_site_id
 _symmetry_equiv_pos_as_xyz
  1  'x, y, z'
loop_
 _atom_site_type_symbol
 _atom_site_label
 _atom_site_symmetry_multiplicity
 _atom_site_fract_x
 _atom_site_fract_y
 _atom_site_fract_z
 _atom_site_occupancy
  Yb  Yb0  1  0.072603  0.528164  0.824185  1
  Yb  Yb1  1  0.572603  0.971836  0.675815  1
  Yb  Yb2  1  0.927397  0.028164  0.175815  1
  Yb  Yb3  1  0.427397  0.471836  0.324185  1
  Yb  Yb4  1  0.927397  0.471836  0.175815  1
  Yb  Yb5  1  0.427397  0.028164  0.324185  1
  Yb  Yb6  1  0.072603  0.971836  0.824185  1
  Yb  Yb7  1  0.572603  0.528164  0.675815  1
  Yb  Yb8  1  0.000427  0.750000  0.440810  1
  Yb  Yb9  1  0.500427  0.750000  0.059190  1
  Yb  Yb10  1  0.999573  0.250000  0.559190  1
  Yb  Yb11  1  0.499573  0.250000  0.940810  1
  Yb  Yb12  1  0.216333  0.750000  0.169238  1
  Yb  Yb13  1  0.716333  0.750000  0.330762  1
  Yb  Yb14  1  0.783667  0.250000  0.830762  1
  Yb  Yb15  1  0.283667  0.250000  0.669238  1
  Yb  Yb16  1  0.302934  0.750000  0.642824  1
  Yb  Yb17  1  0.802934  0.750000  0.857176  1
  Yb  Yb18  1  0.697066  0.250000  0.357176  1
  Yb  Yb19  1  0.197066  0.250000  0.142824  1
  Si  Si20  1  0.491329  0.750000  0.439730  1
  Si  Si21  1  0.991329  0.750000  0.060270  1
  Si  Si22  1  0.508671  0.250000  0.560270  1
  Si  Si23  1  0.008671  0.250000  0.939730  1
  Bi  Bi24  1  0.331227  0.507819  0.938398  1
  Bi  Bi25  1  0.831227  0.992181  0.561602  1
  Bi  Bi26  1  0.668773  0.007819  0.061602  1
  Bi  Bi27  1  0.168773  0.492181  0.438398  1
  Bi  Bi28  1  0.668773  0.492181  0.061602  1
  Bi  Bi29  1  0.168773  0.007819  0.438398  1
  Bi  Bi30  1  0.331227  0.992181  0.938398  1
  Bi  Bi31  1  0.831227  0.507819  0.561602  1
