# generated using pymatgen
data_BaAc3(PPt3)8
_symmetry_space_group_name_H-M   'P 1'
_cell_length_a   8.60124508
_cell_length_b   8.60124511
_cell_length_c   8.60124600
_cell_angle_alpha   89.89269914
_cell_angle_beta   89.89269914
_cell_angle_gamma   89.89270489
_symmetry_Int_Tables_number   1
_chemical_formula_structural   BaAc3(PPt3)8
_chemical_formula_sum   'Ba1 Ac3 P8 Pt24'
_cell_volume   636.32902541
_cell_formula_units_Z   1
loop_
 _symmetry_equiv_pos_site_id
 _symmetry_equiv_pos_as_xyz
  1  'x, y, z'
loop_
 _atom_site_type_symbol
 _atom_site_label
 _atom_site_symmetry_multiplicity
 _atom_site_fract_x
 _atom_site_fract_y
 _atom_site_fract_z
 _atom_site_occupancy
  Ba  Ba0  1  0.000000  0.000000  0.000000  1
  Ac  Ac1  1  0.500000  0.500000  0.000000  1
  Ac  Ac2  1  0.500000  0.000000  0.500000  1
  Ac  Ac3  1  0.000000  0.500000  0.500000  1
  P  P4  1  0.804417  0.304440  0.193045  1
  P  P5  1  0.193045  0.804417  0.304440  1
  P  P6  1  0.694757  0.694757  0.694757  1
  P  P7  1  0.304440  0.193045  0.804417  1
  P  P8  1  0.195583  0.695560  0.806955  1
  P  P9  1  0.806955  0.195583  0.695560  1
  P  P10  1  0.305243  0.305243  0.305243  1
  P  P11  1  0.695560  0.806955  0.195583  1
  Pt  Pt12  1  0.420529  0.842686  0.156820  1
  Pt  Pt13  1  0.578225  0.343484  0.343447  1
  Pt  Pt14  1  0.077156  0.160850  0.652197  1
  Pt  Pt15  1  0.922534  0.653777  0.839796  1
  Pt  Pt16  1  0.156820  0.420529  0.842686  1
  Pt  Pt17  1  0.343447  0.578225  0.343484  1
  Pt  Pt18  1  0.652197  0.077156  0.160850  1
  Pt  Pt19  1  0.839796  0.922534  0.653777  1
  Pt  Pt20  1  0.842686  0.156820  0.420529  1
  Pt  Pt21  1  0.343484  0.343447  0.578225  1
  Pt  Pt22  1  0.160850  0.652197  0.077156  1
  Pt  Pt23  1  0.653777  0.839796  0.922534  1
  Pt  Pt24  1  0.579471  0.157314  0.843180  1
  Pt  Pt25  1  0.421775  0.656516  0.656553  1
  Pt  Pt26  1  0.922844  0.839150  0.347803  1
  Pt  Pt27  1  0.077466  0.346223  0.160204  1
  Pt  Pt28  1  0.843180  0.579471  0.157314  1
  Pt  Pt29  1  0.656553  0.421775  0.656516  1
  Pt  Pt30  1  0.347803  0.922844  0.839150  1
  Pt  Pt31  1  0.160204  0.077466  0.346223  1
  Pt  Pt32  1  0.157314  0.843180  0.579471  1
  Pt  Pt33  1  0.656516  0.656553  0.421775  1
  Pt  Pt34  1  0.839150  0.347803  0.922844  1
  Pt  Pt35  1  0.346223  0.160204  0.077466  1
