# generated using pymatgen
data_Tm8NbSi16Mo11
_symmetry_space_group_name_H-M   'P 1'
_cell_length_a   6.73585457
_cell_length_b   6.93630032
_cell_length_c   12.90092100
_cell_angle_alpha   90.00000000
_cell_angle_beta   90.00000000
_cell_angle_gamma   90.23662832
_symmetry_Int_Tables_number   1
_chemical_formula_structural   Tm8NbSi16Mo11
_chemical_formula_sum   'Tm8 Nb1 Si16 Mo11'
_cell_volume   602.75053290
_cell_formula_units_Z   1
loop_
 _symmetry_equiv_pos_site_id
 _symmetry_equiv_pos_as_xyz
  1  'x, y, z'
loop_
 _atom_site_type_symbol
 _atom_site_label
 _atom_site_symmetry_multiplicity
 _atom_site_fract_x
 _atom_site_fract_y
 _atom_site_fract_z
 _atom_site_occupancy
  Tm  Tm0  1  0.498966  0.331257  0.093866  1
  Tm  Tm1  1  0.995476  0.170131  0.406221  1
  Tm  Tm2  1  0.503093  0.668115  0.594266  1
  Tm  Tm3  1  0.004218  0.832172  0.906081  1
  Tm  Tm4  1  0.503093  0.668115  0.905734  1
  Tm  Tm5  1  0.004218  0.832172  0.593919  1
  Tm  Tm6  1  0.498966  0.331257  0.406134  1
  Tm  Tm7  1  0.995476  0.170131  0.093779  1
  Nb  Nb8  1  0.837515  0.503763  0.250000  1
  Si  Si9  1  0.803162  0.632435  0.750000  1
  Si  Si10  1  0.302621  0.869164  0.750000  1
  Si  Si11  1  0.203618  0.365167  0.250000  1
  Si  Si12  1  0.697530  0.127005  0.250000  1
  Si  Si13  1  0.533802  0.368293  0.750000  1
  Si  Si14  1  0.035315  0.132076  0.750000  1
  Si  Si15  1  0.461353  0.631465  0.250000  1
  Si  Si16  1  0.966503  0.873980  0.250000  1
  Si  Si17  1  0.660865  0.039647  0.546963  1
  Si  Si18  1  0.161524  0.458054  0.953418  1
  Si  Si19  1  0.337500  0.959902  0.046764  1
  Si  Si20  1  0.837878  0.542168  0.457092  1
  Si  Si21  1  0.337500  0.959902  0.453236  1
  Si  Si22  1  0.837878  0.542168  0.042908  1
  Si  Si23  1  0.660865  0.039647  0.953037  1
  Si  Si24  1  0.161524  0.458054  0.546582  1
  Mo  Mo25  1  0.667609  0.996121  0.750000  1
  Mo  Mo26  1  0.165337  0.501620  0.750000  1
  Mo  Mo27  1  0.332263  0.001906  0.250000  1
  Mo  Mo28  1  0.829037  0.335900  0.625923  1
  Mo  Mo29  1  0.331374  0.165345  0.874832  1
  Mo  Mo30  1  0.169517  0.663255  0.124206  1
  Mo  Mo31  1  0.667235  0.832557  0.375894  1
  Mo  Mo32  1  0.169517  0.663255  0.375794  1
  Mo  Mo33  1  0.667235  0.832557  0.124106  1
  Mo  Mo34  1  0.829037  0.335900  0.874077  1
  Mo  Mo35  1  0.331374  0.165345  0.625168  1
