# generated using pymatgen
data_Y7Ho3Si5Pb
_symmetry_space_group_name_H-M   'P 1'
_cell_length_a   8.52711701
_cell_length_b   8.56121948
_cell_length_c   6.41333300
_cell_angle_alpha   89.99706030
_cell_angle_beta   90.00250728
_cell_angle_gamma   119.87356594
_symmetry_Int_Tables_number   1
_chemical_formula_structural   Y7Ho3Si5Pb
_chemical_formula_sum   'Y7 Ho3 Si5 Pb1'
_cell_volume   405.97956328
_cell_formula_units_Z   1
loop_
 _symmetry_equiv_pos_site_id
 _symmetry_equiv_pos_as_xyz
  1  'x, y, z'
loop_
 _atom_site_type_symbol
 _atom_site_label
 _atom_site_symmetry_multiplicity
 _atom_site_fract_x
 _atom_site_fract_y
 _atom_site_fract_z
 _atom_site_occupancy
  Y  Y0  1  0.988164  0.746778  0.750105  1
  Y  Y1  1  0.998024  0.243171  0.249776  1
  Y  Y2  1  0.754940  0.756657  0.249816  1
  Y  Y3  1  0.765989  0.000030  0.750108  1
  Y  Y4  1  0.241353  0.252992  0.750241  1
  Y  Y5  1  0.241385  0.000055  0.249867  1
  Y  Y6  1  0.331214  0.656417  0.496400  1
  Ho  Ho7  1  0.675047  0.343874  0.003609  1
  Ho  Ho8  1  0.675076  0.343922  0.496350  1
  Ho  Ho9  1  0.331150  0.656076  0.003566  1
  Si  Si10  1  0.394145  0.391975  0.249328  1
  Si  Si11  1  0.001023  0.607399  0.249424  1
  Si  Si12  1  0.997701  0.394478  0.750580  1
  Si  Si13  1  0.603731  0.604962  0.750583  1
  Si  Si14  1  0.605778  0.000484  0.249516  1
  Pb  Pb15  1  0.395283  0.000728  0.750733  1
