# generated using pymatgen
data_Li2Mn3Co6Ni3As7
_symmetry_space_group_name_H-M   'P 1'
_cell_length_a   9.46225200
_cell_length_b   9.46225234
_cell_length_c   3.60840300
_cell_angle_alpha   90.00000000
_cell_angle_beta   90.00000000
_cell_angle_gamma   119.99999882
_symmetry_Int_Tables_number   1
_chemical_formula_structural   Li2Mn3Co6Ni3As7
_chemical_formula_sum   'Li2 Mn3 Co6 Ni3 As7'
_cell_volume   279.79162315
_cell_formula_units_Z   1
loop_
 _symmetry_equiv_pos_site_id
 _symmetry_equiv_pos_as_xyz
  1  'x, y, z'
loop_
 _atom_site_type_symbol
 _atom_site_label
 _atom_site_symmetry_multiplicity
 _atom_site_fract_x
 _atom_site_fract_y
 _atom_site_fract_z
 _atom_site_occupancy
  Li  Li0  1  0.333333  0.666667  0.000000  1
  Li  Li1  1  0.000000  0.000000  0.500000  1
  Mn  Mn2  1  0.764554  0.559726  0.500000  1
  Mn  Mn3  1  0.440274  0.204828  0.500000  1
  Mn  Mn4  1  0.795172  0.235446  0.500000  1
  Co  Co5  1  0.278402  0.381793  0.500000  1
  Co  Co6  1  0.618207  0.896608  0.500000  1
  Co  Co7  1  0.103392  0.721598  0.500000  1
  Co  Co8  1  0.504530  0.448106  0.000000  1
  Co  Co9  1  0.551894  0.056424  0.000000  1
  Co  Co10  1  0.943576  0.495470  0.000000  1
  Ni  Ni11  1  0.724054  0.759519  0.000000  1
  Ni  Ni12  1  0.240481  0.964535  0.000000  1
  Ni  Ni13  1  0.035465  0.275946  0.000000  1
  As  As14  1  0.968490  0.757234  0.000000  1
  As  As15  1  0.242766  0.211256  0.000000  1
  As  As16  1  0.788744  0.031510  0.000000  1
  As  As17  1  0.666667  0.333333  0.000000  1
  As  As18  1  0.530233  0.620936  0.500000  1
  As  As19  1  0.379064  0.909296  0.500000  1
  As  As20  1  0.090704  0.469767  0.500000  1
