# generated using pymatgen
data_Nd2P7IrRu11
_symmetry_space_group_name_H-M   'P 1'
_cell_length_a   9.44581901
_cell_length_b   9.49134860
_cell_length_c   3.98295000
_cell_angle_alpha   90.00000000
_cell_angle_beta   90.00000000
_cell_angle_gamma   119.70481355
_symmetry_Int_Tables_number   1
_chemical_formula_structural   Nd2P7IrRu11
_chemical_formula_sum   'Nd2 P7 Ir1 Ru11'
_cell_volume   310.16098538
_cell_formula_units_Z   1
loop_
 _symmetry_equiv_pos_site_id
 _symmetry_equiv_pos_as_xyz
  1  'x, y, z'
loop_
 _atom_site_type_symbol
 _atom_site_label
 _atom_site_symmetry_multiplicity
 _atom_site_fract_x
 _atom_site_fract_y
 _atom_site_fract_z
 _atom_site_occupancy
  Nd  Nd0  1  0.667825  0.334730  0.500000  1
  Nd  Nd1  1  0.331530  0.663398  0.000000  1
  P  P2  1  0.602555  0.711225  0.500000  1
  P  P3  1  0.999202  0.999550  0.000000  1
  P  P4  1  0.280604  0.884962  0.500000  1
  P  P5  1  0.111829  0.396199  0.500000  1
  P  P6  1  0.890013  0.579363  0.000000  1
  P  P7  1  0.423557  0.311538  0.000000  1
  P  P8  1  0.694232  0.116540  0.000000  1
  Ir  Ir9  1  0.555182  0.945701  0.500000  1
  Ru  Ru10  1  0.389412  0.438495  0.500000  1
  Ru  Ru11  1  0.911821  0.122271  0.500000  1
  Ru  Ru12  1  0.208572  0.085985  0.500000  1
  Ru  Ru13  1  0.878745  0.794844  0.500000  1
  Ru  Ru14  1  0.728733  0.893474  0.000000  1
  Ru  Ru15  1  0.109588  0.839014  0.000000  1
  Ru  Ru16  1  0.161462  0.268336  0.000000  1
  Ru  Ru17  1  0.426906  0.066698  0.000000  1
  Ru  Ru18  1  0.936778  0.360216  0.000000  1
  Ru  Ru19  1  0.641903  0.578079  0.000000  1
  Ru  Ru20  1  0.049549  0.609381  0.500000  1
