# generated using pymatgen
data_Ho4Tm4Re3B24Ir
_symmetry_space_group_name_H-M   'P 1'
_cell_length_a   3.64869400
_cell_length_b   9.11948825
_cell_length_c   11.50147207
_cell_angle_alpha   90.11739491
_cell_angle_beta   90.00000000
_cell_angle_gamma   90.00000000
_symmetry_Int_Tables_number   1
_chemical_formula_structural   Ho4Tm4Re3B24Ir
_chemical_formula_sum   'Ho4 Tm4 Re3 B24 Ir1'
_cell_volume   382.70173216
_cell_formula_units_Z   1
loop_
 _symmetry_equiv_pos_site_id
 _symmetry_equiv_pos_as_xyz
  1  'x, y, z'
loop_
 _atom_site_type_symbol
 _atom_site_label
 _atom_site_symmetry_multiplicity
 _atom_site_fract_x
 _atom_site_fract_y
 _atom_site_fract_z
 _atom_site_occupancy
  Ho  Ho0  1  0.000000  0.317724  0.415598  1
  Ho  Ho1  1  0.000000  0.678914  0.591358  1
  Ho  Ho2  1  0.000000  0.826803  0.081416  1
  Ho  Ho3  1  0.000000  0.177743  0.912580  1
  Tm  Tm4  1  0.000000  0.944312  0.370646  1
  Tm  Tm5  1  0.000000  0.055861  0.628857  1
  Tm  Tm6  1  0.000000  0.440972  0.128022  1
  Tm  Tm7  1  0.000000  0.556663  0.871675  1
  Re  Re8  1  0.000000  0.362417  0.677956  1
  Re  Re9  1  0.000000  0.138634  0.180348  1
  Re  Re10  1  0.000000  0.861447  0.820545  1
  B  B11  1  0.500000  0.553845  0.433764  1
  B  B12  1  0.500000  0.446716  0.566624  1
  B  B13  1  0.500000  0.053409  0.066643  1
  B  B14  1  0.500000  0.947063  0.932697  1
  B  B15  1  0.500000  0.749795  0.420087  1
  B  B16  1  0.500000  0.249761  0.580960  1
  B  B17  1  0.500000  0.249780  0.081172  1
  B  B18  1  0.500000  0.750915  0.918971  1
  B  B19  1  0.500000  0.791687  0.265124  1
  B  B20  1  0.500000  0.207944  0.734182  1
  B  B21  1  0.500000  0.292212  0.235097  1
  B  B22  1  0.500000  0.707672  0.765859  1
  B  B23  1  0.500000  0.631291  0.183948  1
  B  B24  1  0.500000  0.369725  0.814592  1
  B  B25  1  0.500000  0.130445  0.315255  1
  B  B26  1  0.500000  0.868879  0.685030  1
  B  B27  1  0.500000  0.982379  0.212436  1
  B  B28  1  0.500000  0.017894  0.786670  1
  B  B29  1  0.500000  0.482473  0.287562  1
  B  B30  1  0.500000  0.518610  0.712728  1
  B  B31  1  0.500000  0.602667  0.029006  1
  B  B32  1  0.500000  0.398307  0.972198  1
  B  B33  1  0.500000  0.100850  0.471523  1
  B  B34  1  0.500000  0.896260  0.527973  1
  Ir  Ir35  1  0.000000  0.637935  0.320898  1
