# generated using pymatgen
data_Rb2Zr(Si2O5)3
_symmetry_space_group_name_H-M   'P 1'
_cell_length_a   7.08764482
_cell_length_b   7.48368760
_cell_length_c   7.87131760
_cell_angle_alpha   99.42445977
_cell_angle_beta   105.66181161
_cell_angle_gamma   111.85744344
_symmetry_Int_Tables_number   1
_chemical_formula_structural   Rb2Zr(Si2O5)3
_chemical_formula_sum   'Rb2 Zr1 Si6 O15'
_cell_volume   356.42295125
_cell_formula_units_Z   1
loop_
 _symmetry_equiv_pos_site_id
 _symmetry_equiv_pos_as_xyz
  1  'x, y, z'
loop_
 _atom_site_type_symbol
 _atom_site_label
 _atom_site_symmetry_multiplicity
 _atom_site_fract_x
 _atom_site_fract_y
 _atom_site_fract_z
 _atom_site_occupancy
  Rb  Rb0  1  0.295313  0.704266  0.816400  1
  Rb  Rb1  1  0.704687  0.295734  0.183600  1
  Zr  Zr2  1  0.000000  0.000000  0.000000  1
  Si  Si3  1  0.704578  0.819519  0.269207  1
  Si  Si4  1  0.295422  0.180481  0.730793  1
  Si  Si5  1  0.152160  0.834148  0.371200  1
  Si  Si6  1  0.847840  0.165852  0.628800  1
  Si  Si7  1  0.324819  0.506381  0.319075  1
  Si  Si8  1  0.675181  0.493619  0.680925  1
  O  O9  1  0.467533  0.620032  0.200154  1
  O  O10  1  0.532467  0.379968  0.799846  1
  O  O11  1  0.214359  0.646331  0.395101  1
  O  O12  1  0.785641  0.353669  0.604899  1
  O  O13  1  0.862834  0.711225  0.808959  1
  O  O14  1  0.137166  0.288775  0.191041  1
  O  O15  1  0.892929  0.745518  0.353870  1
  O  O16  1  0.107071  0.254482  0.646130  1
  O  O17  1  0.737413  0.905416  0.098941  1
  O  O18  1  0.500000  0.500000  0.500000  1
  O  O19  1  0.295513  0.010757  0.569985  1
  O  O20  1  0.704487  0.989243  0.430015  1
  O  O21  1  0.819089  0.091969  0.804161  1
  O  O22  1  0.180911  0.908031  0.195839  1
  O  O23  1  0.262587  0.094584  0.901059  1
