# generated using pymatgen
data_Dy20FeBi8Ir3
_symmetry_space_group_name_H-M   'P 1'
_cell_length_a   8.02400960
_cell_length_b   9.00405500
_cell_length_c   12.52500873
_cell_angle_alpha   90.00000000
_cell_angle_beta   90.14619783
_cell_angle_gamma   90.00000000
_symmetry_Int_Tables_number   1
_chemical_formula_structural   Dy20FeBi8Ir3
_chemical_formula_sum   'Dy20 Fe1 Bi8 Ir3'
_cell_volume   904.91169810
_cell_formula_units_Z   1
loop_
 _symmetry_equiv_pos_site_id
 _symmetry_equiv_pos_as_xyz
  1  'x, y, z'
loop_
 _atom_site_type_symbol
 _atom_site_label
 _atom_site_symmetry_multiplicity
 _atom_site_fract_x
 _atom_site_fract_y
 _atom_site_fract_z
 _atom_site_occupancy
  Dy  Dy0  1  0.656123  0.750000  0.698951  1
  Dy  Dy1  1  0.339814  0.250000  0.292874  1
  Dy  Dy2  1  0.160544  0.250000  0.793542  1
  Dy  Dy3  1  0.838507  0.750000  0.207913  1
  Dy  Dy4  1  0.122730  0.750000  0.806948  1
  Dy  Dy5  1  0.874916  0.250000  0.192627  1
  Dy  Dy6  1  0.623406  0.250000  0.692978  1
  Dy  Dy7  1  0.381383  0.750000  0.312402  1
  Dy  Dy8  1  0.556299  0.750000  0.996982  1
  Dy  Dy9  1  0.448590  0.250000  0.001464  1
  Dy  Dy10  1  0.057052  0.250000  0.502056  1
  Dy  Dy11  1  0.946814  0.750000  0.497669  1
  Dy  Dy12  1  0.824772  0.456870  0.933082  1
  Dy  Dy13  1  0.176626  0.541935  0.066864  1
  Dy  Dy14  1  0.323715  0.546442  0.565200  1
  Dy  Dy15  1  0.176626  0.958065  0.066864  1
  Dy  Dy16  1  0.671923  0.467698  0.437363  1
  Dy  Dy17  1  0.824772  0.043130  0.933082  1
  Dy  Dy18  1  0.671923  0.032302  0.437363  1
  Dy  Dy19  1  0.323715  0.953558  0.565200  1
  Fe  Fe20  1  0.571488  0.750000  0.489599  1
  Bi  Bi21  1  0.931753  0.009086  0.672306  1
  Bi  Bi22  1  0.067478  0.991420  0.327235  1
  Bi  Bi23  1  0.432691  0.990518  0.826400  1
  Bi  Bi24  1  0.067478  0.508580  0.327235  1
  Bi  Bi25  1  0.566969  0.008114  0.173318  1
  Bi  Bi26  1  0.931753  0.490914  0.672306  1
  Bi  Bi27  1  0.566969  0.491886  0.173318  1
  Bi  Bi28  1  0.432691  0.509482  0.826400  1
  Ir  Ir29  1  0.929521  0.750000  0.991695  1
  Ir  Ir30  1  0.072422  0.250000  0.009937  1
  Ir  Ir31  1  0.428536  0.250000  0.508824  1
