# generated using pymatgen
data_Nd6TmAs12Rh17
_symmetry_space_group_name_H-M   'P 1'
_cell_length_a   4.05207400
_cell_length_b   11.53946600
_cell_length_c   13.21160600
_cell_angle_alpha   90.00000000
_cell_angle_beta   90.00000000
_cell_angle_gamma   90.00000000
_symmetry_Int_Tables_number   1
_chemical_formula_structural   Nd6TmAs12Rh17
_chemical_formula_sum   'Nd6 Tm1 As12 Rh17'
_cell_volume   617.75844830
_cell_formula_units_Z   1
loop_
 _symmetry_equiv_pos_site_id
 _symmetry_equiv_pos_as_xyz
  1  'x, y, z'
loop_
 _atom_site_type_symbol
 _atom_site_label
 _atom_site_symmetry_multiplicity
 _atom_site_fract_x
 _atom_site_fract_y
 _atom_site_fract_z
 _atom_site_occupancy
  Nd  Nd0  1  0.000000  0.500000  0.523343  1
  Nd  Nd1  1  0.500000  0.000000  0.475441  1
  Nd  Nd2  1  0.500000  0.819012  0.207631  1
  Nd  Nd3  1  0.500000  0.180988  0.207631  1
  Nd  Nd4  1  0.000000  0.683783  0.797972  1
  Nd  Nd5  1  0.000000  0.316217  0.797972  1
  Tm  Tm6  1  0.500000  0.500000  0.153153  1
  As  As7  1  0.500000  0.500000  0.880247  1
  As  As8  1  0.000000  0.000000  0.121881  1
  As  As9  1  0.500000  0.500000  0.360405  1
  As  As10  1  0.000000  0.000000  0.646070  1
  As  As11  1  0.500000  0.314324  0.618486  1
  As  As12  1  0.500000  0.685676  0.618486  1
  As  As13  1  0.000000  0.187172  0.385036  1
  As  As14  1  0.000000  0.812828  0.385036  1
  As  As15  1  0.500000  0.853902  0.886684  1
  As  As16  1  0.500000  0.146098  0.886684  1
  As  As17  1  0.000000  0.664544  0.107001  1
  As  As18  1  0.000000  0.335456  0.107001  1
  Rh  Rh19  1  0.000000  0.000000  0.828957  1
  Rh  Rh20  1  0.500000  0.500000  0.701642  1
  Rh  Rh21  1  0.000000  0.000000  0.301189  1
  Rh  Rh22  1  0.000000  0.500000  0.984679  1
  Rh  Rh23  1  0.500000  0.000000  0.021541  1
  Rh  Rh24  1  0.500000  0.327151  0.991459  1
  Rh  Rh25  1  0.500000  0.672849  0.991459  1
  Rh  Rh26  1  0.000000  0.161543  0.001317  1
  Rh  Rh27  1  0.000000  0.838457  0.001317  1
  Rh  Rh28  1  0.500000  0.291769  0.434285  1
  Rh  Rh29  1  0.500000  0.708231  0.434285  1
  Rh  Rh30  1  0.000000  0.204276  0.571435  1
  Rh  Rh31  1  0.000000  0.795724  0.571435  1
  Rh  Rh32  1  0.500000  0.877773  0.704845  1
  Rh  Rh33  1  0.500000  0.122227  0.704845  1
  Rh  Rh34  1  0.000000  0.624724  0.294577  1
  Rh  Rh35  1  0.000000  0.375276  0.294577  1
