# generated using pymatgen
data_SrPd2(SO4)4
_symmetry_space_group_name_H-M   'P 1'
_cell_length_a   6.66077647
_cell_length_b   6.66077614
_cell_length_c   9.03696098
_cell_angle_alpha   73.95404295
_cell_angle_beta   73.95404378
_cell_angle_gamma   87.78506612
_symmetry_Int_Tables_number   1
_chemical_formula_structural   SrPd2(SO4)4
_chemical_formula_sum   'Sr1 Pd2 S4 O16'
_cell_volume   369.99186459
_cell_formula_units_Z   1
loop_
 _symmetry_equiv_pos_site_id
 _symmetry_equiv_pos_as_xyz
  1  'x, y, z'
loop_
 _atom_site_type_symbol
 _atom_site_label
 _atom_site_symmetry_multiplicity
 _atom_site_fract_x
 _atom_site_fract_y
 _atom_site_fract_z
 _atom_site_occupancy
  Sr  Sr0  1  0.000000  0.000000  0.000000  1
  Pd  Pd1  1  0.000000  0.000000  0.500000  1
  Pd  Pd2  1  0.500000  0.500000  0.500000  1
  S  S3  1  0.088986  0.592921  0.734257  1
  S  S4  1  0.592921  0.088986  0.734257  1
  S  S5  1  0.911014  0.407079  0.265743  1
  S  S6  1  0.407079  0.911014  0.265743  1
  O  O7  1  0.327498  0.631944  0.663206  1
  O  O8  1  0.631944  0.327498  0.663206  1
  O  O9  1  0.672502  0.368056  0.336794  1
  O  O10  1  0.368056  0.672502  0.336794  1
  O  O11  1  0.026647  0.705178  0.855084  1
  O  O12  1  0.705178  0.026647  0.855084  1
  O  O13  1  0.973353  0.294822  0.144916  1
  O  O14  1  0.294822  0.973353  0.144916  1
  O  O15  1  0.996281  0.689783  0.592739  1
  O  O16  1  0.689783  0.996281  0.592739  1
  O  O17  1  0.003719  0.310217  0.407261  1
  O  O18  1  0.310217  0.003719  0.407261  1
  O  O19  1  0.033590  0.371143  0.786137  1
  O  O20  1  0.371143  0.033590  0.786137  1
  O  O21  1  0.966410  0.628857  0.213863  1
  O  O22  1  0.628857  0.966410  0.213863  1
