# generated using pymatgen
data_Dy3Ho4ThSb20
_symmetry_space_group_name_H-M   'P 1'
_cell_length_a   4.23904900
_cell_length_b   13.21060415
_cell_length_c   14.68569100
_cell_angle_alpha   78.00319710
_cell_angle_beta   90.00000000
_cell_angle_gamma   90.00000000
_symmetry_Int_Tables_number   1
_chemical_formula_structural   Dy3Ho4ThSb20
_chemical_formula_sum   'Dy3 Ho4 Th1 Sb20'
_cell_volume   804.44257310
_cell_formula_units_Z   1
loop_
 _symmetry_equiv_pos_site_id
 _symmetry_equiv_pos_as_xyz
  1  'x, y, z'
loop_
 _atom_site_type_symbol
 _atom_site_label
 _atom_site_symmetry_multiplicity
 _atom_site_fract_x
 _atom_site_fract_y
 _atom_site_fract_z
 _atom_site_occupancy
  Dy  Dy0  1  0.750000  0.328058  0.424467  1
  Dy  Dy1  1  0.250000  0.953214  0.356554  1
  Dy  Dy2  1  0.750000  0.049529  0.641215  1
  Ho  Ho3  1  0.250000  0.391738  0.773211  1
  Ho  Ho4  1  0.750000  0.604967  0.226537  1
  Ho  Ho5  1  0.250000  0.662447  0.857934  1
  Ho  Ho6  1  0.750000  0.337849  0.143942  1
  Th  Th7  1  0.250000  0.671193  0.573154  1
  Sb  Sb8  1  0.250000  0.144330  0.779293  1
  Sb  Sb9  1  0.750000  0.855763  0.220901  1
  Sb  Sb10  1  0.250000  0.140466  0.482367  1
  Sb  Sb11  1  0.750000  0.861848  0.515836  1
  Sb  Sb12  1  0.250000  0.153423  0.170595  1
  Sb  Sb13  1  0.750000  0.847656  0.831110  1
  Sb  Sb14  1  0.250000  0.420495  0.976342  1
  Sb  Sb15  1  0.750000  0.579841  0.023108  1
  Sb  Sb16  1  0.750000  0.030492  0.909351  1
  Sb  Sb17  1  0.250000  0.970641  0.092221  1
  Sb  Sb18  1  0.750000  0.139202  0.320205  1
  Sb  Sb19  1  0.250000  0.863168  0.683726  1
  Sb  Sb20  1  0.750000  0.279230  0.938782  1
  Sb  Sb21  1  0.250000  0.721066  0.061290  1
  Sb  Sb22  1  0.750000  0.285467  0.656231  1
  Sb  Sb23  1  0.250000  0.713949  0.342532  1
  Sb  Sb24  1  0.750000  0.575429  0.736795  1
  Sb  Sb25  1  0.250000  0.423816  0.264573  1
  Sb  Sb26  1  0.750000  0.569083  0.444300  1
  Sb  Sb27  1  0.250000  0.425638  0.553427  1
