# generated using pymatgen
data_Dy2Re2B4Ru3
_symmetry_space_group_name_H-M   'P 1'
_cell_length_a   3.09438500
_cell_length_b   8.77978902
_cell_length_c   10.23329602
_cell_angle_alpha   89.99953610
_cell_angle_beta   90.00000000
_cell_angle_gamma   90.00000000
_symmetry_Int_Tables_number   1
_chemical_formula_structural   Dy2Re2B4Ru3
_chemical_formula_sum   'Dy4 Re4 B8 Ru6'
_cell_volume   278.01867169
_cell_formula_units_Z   2
loop_
 _symmetry_equiv_pos_site_id
 _symmetry_equiv_pos_as_xyz
  1  'x, y, z'
loop_
 _atom_site_type_symbol
 _atom_site_label
 _atom_site_symmetry_multiplicity
 _atom_site_fract_x
 _atom_site_fract_y
 _atom_site_fract_z
 _atom_site_occupancy
  Dy  Dy0  1  0.500000  0.841462  0.181843  1
  Dy  Dy1  1  0.500000  0.158538  0.818157  1
  Dy  Dy2  1  0.500000  0.658553  0.681818  1
  Dy  Dy3  1  0.500000  0.341447  0.318182  1
  Re  Re4  1  0.000000  0.658362  0.954234  1
  Re  Re5  1  0.000000  0.341638  0.045766  1
  Re  Re6  1  0.000000  0.841643  0.454218  1
  Re  Re7  1  0.000000  0.158357  0.545782  1
  B  B8  1  0.500000  0.965960  0.587651  1
  B  B9  1  0.500000  0.034040  0.412349  1
  B  B10  1  0.500000  0.846573  0.903233  1
  B  B11  1  0.500000  0.153427  0.096767  1
  B  B12  1  0.500000  0.653415  0.403208  1
  B  B13  1  0.500000  0.346585  0.596792  1
  B  B14  1  0.500000  0.465994  0.912340  1
  B  B15  1  0.500000  0.534006  0.087660  1
  Ru  Ru16  1  0.000000  0.000000  0.000000  1
  Ru  Ru17  1  0.000000  0.405789  0.759460  1
  Ru  Ru18  1  0.000000  0.594211  0.240540  1
  Ru  Ru19  1  0.000000  0.500000  0.500000  1
  Ru  Ru20  1  0.000000  0.905756  0.740553  1
  Ru  Ru21  1  0.000000  0.094244  0.259447  1
