# generated using pymatgen
data_CeU(SiIr)4
_symmetry_space_group_name_H-M   'P 1'
_cell_length_a   4.15033900
_cell_length_b   4.15033900
_cell_length_c   9.89520400
_cell_angle_alpha   90.00000000
_cell_angle_beta   90.00000000
_cell_angle_gamma   90.00000000
_symmetry_Int_Tables_number   1
_chemical_formula_structural   CeU(SiIr)4
_chemical_formula_sum   'Ce1 U1 Si4 Ir4'
_cell_volume   170.44799416
_cell_formula_units_Z   1
loop_
 _symmetry_equiv_pos_site_id
 _symmetry_equiv_pos_as_xyz
  1  'x, y, z'
loop_
 _atom_site_type_symbol
 _atom_site_label
 _atom_site_symmetry_multiplicity
 _atom_site_fract_x
 _atom_site_fract_y
 _atom_site_fract_z
 _atom_site_occupancy
  Ce  Ce0  1  0.000000  0.500000  0.255856  1
  U  U1  1  0.500000  0.000000  0.742698  1
  Si  Si2  1  0.000000  0.500000  0.868446  1
  Si  Si3  1  0.500000  0.000000  0.130691  1
  Si  Si4  1  0.500000  0.500000  0.502834  1
  Si  Si5  1  0.000000  0.000000  0.502834  1
  Ir  Ir6  1  0.500000  0.000000  0.374605  1
  Ir  Ir7  1  0.000000  0.500000  0.629247  1
  Ir  Ir8  1  0.500000  0.500000  0.996394  1
  Ir  Ir9  1  0.000000  0.000000  0.996394  1
