# generated using pymatgen
data_Ni2IO6
_symmetry_space_group_name_H-M   'P 1'
_cell_length_a   4.65175500
_cell_length_b   4.64870200
_cell_length_c   9.10619000
_cell_angle_alpha   90.00000000
_cell_angle_beta   90.00000000
_cell_angle_gamma   90.00000000
_symmetry_Int_Tables_number   1
_chemical_formula_structural   Ni2IO6
_chemical_formula_sum   'Ni4 I2 O12'
_cell_volume   196.91792364
_cell_formula_units_Z   2
loop_
 _symmetry_equiv_pos_site_id
 _symmetry_equiv_pos_as_xyz
  1  'x, y, z'
loop_
 _atom_site_type_symbol
 _atom_site_label
 _atom_site_symmetry_multiplicity
 _atom_site_fract_x
 _atom_site_fract_y
 _atom_site_fract_z
 _atom_site_occupancy
  Ni  Ni0  1  0.000000  0.000000  0.334655  1
  Ni  Ni1  1  0.500000  0.500000  0.165345  1
  Ni  Ni2  1  0.000000  0.000000  0.665345  1
  Ni  Ni3  1  0.500000  0.500000  0.834655  1
  I  I4  1  0.500000  0.500000  0.500000  1
  I  I5  1  0.000000  0.000000  0.000000  1
  O  O6  1  0.688922  0.689225  0.658371  1
  O  O7  1  0.311078  0.310775  0.658371  1
  O  O8  1  0.811078  0.189225  0.841629  1
  O  O9  1  0.188922  0.810775  0.841629  1
  O  O10  1  0.311078  0.310775  0.341629  1
  O  O11  1  0.688922  0.689225  0.341629  1
  O  O12  1  0.188922  0.810775  0.158371  1
  O  O13  1  0.811078  0.189225  0.158371  1
  O  O14  1  0.706842  0.706831  0.000000  1
  O  O15  1  0.293158  0.293169  0.000000  1
  O  O16  1  0.793158  0.206831  0.500000  1
  O  O17  1  0.206842  0.793169  0.500000  1
