# generated using pymatgen
data_La6Pt16Pb
_symmetry_space_group_name_H-M   'P 1'
_cell_length_a   9.60924733
_cell_length_b   9.60924690
_cell_length_c   9.57584800
_cell_angle_alpha   131.57788608
_cell_angle_beta   131.57789178
_cell_angle_gamma   70.91988070
_symmetry_Int_Tables_number   1
_chemical_formula_structural   La6Pt16Pb
_chemical_formula_sum   'La6 Pt16 Pb1'
_cell_volume   484.50223797
_cell_formula_units_Z   1
loop_
 _symmetry_equiv_pos_site_id
 _symmetry_equiv_pos_as_xyz
  1  'x, y, z'
loop_
 _atom_site_type_symbol
 _atom_site_label
 _atom_site_symmetry_multiplicity
 _atom_site_fract_x
 _atom_site_fract_y
 _atom_site_fract_z
 _atom_site_occupancy
  La  La0  1  0.681421  0.681421  0.580157  1
  La  La1  1  0.896619  0.319961  0.002205  1
  La  La2  1  0.766053  0.244791  0.502455  1
  La  La3  1  0.486616  0.486616  0.983721  1
  La  La4  1  0.319961  0.896619  0.002205  1
  La  La5  1  0.244791  0.766053  0.502455  1
  Pt  Pt6  1  0.437641  0.192980  0.007460  1
  Pt  Pt7  1  0.683939  0.933422  0.490238  1
  Pt  Pt8  1  0.933422  0.683939  0.490238  1
  Pt  Pt9  1  0.192980  0.437641  0.007460  1
  Pt  Pt10  1  0.317449  0.806849  0.253256  1
  Pt  Pt11  1  0.936950  0.675855  0.000991  1
  Pt  Pt12  1  0.802038  0.802038  0.238876  1
  Pt  Pt13  1  0.064359  0.560818  0.753430  1
  Pt  Pt14  1  0.061574  0.061574  0.742501  1
  Pt  Pt15  1  0.675855  0.936950  0.000991  1
  Pt  Pt16  1  0.564645  0.564645  0.755229  1
  Pt  Pt17  1  0.806849  0.317449  0.253256  1
  Pt  Pt18  1  0.560818  0.064359  0.753430  1
  Pt  Pt19  1  0.194131  0.447356  0.510195  1
  Pt  Pt20  1  0.327311  0.327311  0.267915  1
  Pt  Pt21  1  0.447356  0.194131  0.510195  1
  Pb  Pb22  1  0.097221  0.097221  0.391139  1
