# generated using pymatgen
data_Sc3SiTc2As2Ru
_symmetry_space_group_name_H-M   'P 1'
_cell_length_a   6.95592908
_cell_length_b   6.92856539
_cell_length_c   3.46818200
_cell_angle_alpha   90.00000000
_cell_angle_beta   90.00000000
_cell_angle_gamma   119.86995714
_symmetry_Int_Tables_number   1
_chemical_formula_structural   Sc3SiTc2As2Ru
_chemical_formula_sum   'Sc3 Si1 Tc2 As2 Ru1'
_cell_volume   144.94344702
_cell_formula_units_Z   1
loop_
 _symmetry_equiv_pos_site_id
 _symmetry_equiv_pos_as_xyz
  1  'x, y, z'
loop_
 _atom_site_type_symbol
 _atom_site_label
 _atom_site_symmetry_multiplicity
 _atom_site_fract_x
 _atom_site_fract_y
 _atom_site_fract_z
 _atom_site_occupancy
  Sc  Sc0  1  0.399529  0.398178  0.500000  1
  Sc  Sc1  1  0.600471  0.998650  0.500000  1
  Sc  Sc2  1  0.000000  0.602512  0.500000  1
  Si  Si3  1  0.000000  0.999630  0.500000  1
  Tc  Tc4  1  0.750356  0.750805  0.000000  1
  Tc  Tc5  1  0.249644  0.000449  0.000000  1
  As  As6  1  0.666038  0.333241  0.000000  1
  As  As7  1  0.333962  0.667205  0.000000  1
  Ru  Ru8  1  0.000000  0.249329  0.000000  1
