# generated using pymatgen
data_TaZnNi20B6Sb
_symmetry_space_group_name_H-M   'P 1'
_cell_length_a   7.48089596
_cell_length_b   7.48128064
_cell_length_c   7.48012857
_cell_angle_alpha   60.00600175
_cell_angle_beta   60.00235302
_cell_angle_gamma   60.00310673
_symmetry_Int_Tables_number   1
_chemical_formula_structural   TaZnNi20B6Sb
_chemical_formula_sum   'Ta1 Zn1 Ni20 B6 Sb1'
_cell_volume   296.04739323
_cell_formula_units_Z   1
loop_
 _symmetry_equiv_pos_site_id
 _symmetry_equiv_pos_as_xyz
  1  'x, y, z'
loop_
 _atom_site_type_symbol
 _atom_site_label
 _atom_site_symmetry_multiplicity
 _atom_site_fract_x
 _atom_site_fract_y
 _atom_site_fract_z
 _atom_site_occupancy
  Ta  Ta0  1  0.750094  0.749898  0.750061  1
  Zn  Zn1  1  0.999956  0.000203  0.999852  1
  Ni  Ni2  1  0.996534  0.996405  0.663548  1
  Ni  Ni3  1  0.383983  0.848119  0.383989  1
  Ni  Ni4  1  0.663573  0.343584  0.996518  1
  Ni  Ni5  1  0.996272  0.343569  0.663833  1
  Ni  Ni6  1  0.664024  0.996304  0.996237  1
  Ni  Ni7  1  0.996310  0.996510  0.343401  1
  Ni  Ni8  1  0.663754  0.996464  0.343463  1
  Ni  Ni9  1  0.996349  0.343579  0.996459  1
  Ni  Ni10  1  0.996346  0.663963  0.343379  1
  Ni  Ni11  1  0.343382  0.996319  0.996319  1
  Ni  Ni12  1  0.996388  0.663794  0.996332  1
  Ni  Ni13  1  0.343458  0.996415  0.663632  1
  Ni  Ni14  1  0.383882  0.383889  0.383866  1
  Ni  Ni15  1  0.343470  0.663756  0.996345  1
  Ni  Ni16  1  0.615364  0.153840  0.615437  1
  Ni  Ni17  1  0.383916  0.383876  0.848342  1
  Ni  Ni18  1  0.848215  0.383964  0.383955  1
  Ni  Ni19  1  0.615472  0.615282  0.615397  1
  Ni  Ni20  1  0.153949  0.615228  0.615369  1
  Ni  Ni21  1  0.615362  0.615279  0.153980  1
  B  B22  1  0.729000  0.728984  0.271075  1
  B  B23  1  0.729171  0.270952  0.729159  1
  B  B24  1  0.270996  0.728944  0.271061  1
  B  B25  1  0.729164  0.270946  0.270716  1
  B  B26  1  0.270926  0.729066  0.729075  1
  B  B27  1  0.270787  0.271017  0.729094  1
  Sb  Sb28  1  0.249906  0.249848  0.250111  1
