# generated using pymatgen
data_Eu2Al20Ir3Os
_symmetry_space_group_name_H-M   'P 1'
_cell_length_a   6.90981455
_cell_length_b   6.91994359
_cell_length_c   9.21831117
_cell_angle_alpha   89.92663380
_cell_angle_beta   89.88836045
_cell_angle_gamma   96.79845462
_symmetry_Int_Tables_number   1
_chemical_formula_structural   Eu2Al20Ir3Os
_chemical_formula_sum   'Eu2 Al20 Ir3 Os1'
_cell_volume   437.67782352
_cell_formula_units_Z   1
loop_
 _symmetry_equiv_pos_site_id
 _symmetry_equiv_pos_as_xyz
  1  'x, y, z'
loop_
 _atom_site_type_symbol
 _atom_site_label
 _atom_site_symmetry_multiplicity
 _atom_site_fract_x
 _atom_site_fract_y
 _atom_site_fract_z
 _atom_site_occupancy
  Eu  Eu0  1  0.624071  0.376978  0.750252  1
  Eu  Eu1  1  0.375929  0.623022  0.249748  1
  Al  Al2  1  0.276996  0.017911  0.750220  1
  Al  Al3  1  0.018016  0.279562  0.252542  1
  Al  Al4  1  0.723004  0.982089  0.249780  1
  Al  Al5  1  0.981984  0.720438  0.747458  1
  Al  Al6  1  0.878501  0.122308  0.949532  1
  Al  Al7  1  0.121499  0.877692  0.050468  1
  Al  Al8  1  0.878965  0.124258  0.549114  1
  Al  Al9  1  0.121035  0.875742  0.450886  1
  Al  Al10  1  0.646371  0.914758  0.749698  1
  Al  Al11  1  0.914396  0.645419  0.250853  1
  Al  Al12  1  0.353629  0.085242  0.250302  1
  Al  Al13  1  0.085604  0.354581  0.749147  1
  Al  Al14  1  0.341627  0.658896  0.896389  1
  Al  Al15  1  0.658373  0.341104  0.103611  1
  Al  Al16  1  0.340810  0.657305  0.601633  1
  Al  Al17  1  0.659190  0.342695  0.398367  1
  Al  Al18  1  0.723780  0.723261  0.999956  1
  Al  Al19  1  0.723640  0.721917  0.501255  1
  Al  Al20  1  0.276220  0.276739  0.000044  1
  Al  Al21  1  0.276360  0.278083  0.498745  1
  Ir  Ir22  1  0.500000  0.000000  0.000000  1
  Ir  Ir23  1  0.000000  0.500000  0.000000  1
  Ir  Ir24  1  0.500000  0.000000  0.500000  1
  Os  Os25  1  0.000000  0.500000  0.500000  1
