# generated using pymatgen
data_Lu5In2Te
_symmetry_space_group_name_H-M   'P 1'
_cell_length_a   6.37709601
_cell_length_b   8.80124728
_cell_length_c   8.79539503
_cell_angle_alpha   119.91146991
_cell_angle_beta   90.00194314
_cell_angle_gamma   89.99980165
_symmetry_Int_Tables_number   1
_chemical_formula_structural   Lu5In2Te
_chemical_formula_sum   'Lu10 In4 Te2'
_cell_volume   427.89764666
_cell_formula_units_Z   2
loop_
 _symmetry_equiv_pos_site_id
 _symmetry_equiv_pos_as_xyz
  1  'x, y, z'
loop_
 _atom_site_type_symbol
 _atom_site_label
 _atom_site_symmetry_multiplicity
 _atom_site_fract_x
 _atom_site_fract_y
 _atom_site_fract_z
 _atom_site_occupancy
  Lu  Lu0  1  0.495855  0.331753  0.668875  1
  Lu  Lu1  1  0.495654  0.667969  0.336331  1
  Lu  Lu2  1  0.004343  0.667951  0.336419  1
  Lu  Lu3  1  0.004583  0.331890  0.668878  1
  Lu  Lu4  1  0.749940  0.231972  0.992004  1
  Lu  Lu5  1  0.749966  0.769091  0.760904  1
  Lu  Lu6  1  0.750056  0.999874  0.234863  1
  Lu  Lu7  1  0.249785  0.766058  0.002548  1
  Lu  Lu8  1  0.249835  0.232436  0.234504  1
  Lu  Lu9  1  0.249903  0.000150  0.765019  1
  In  In10  1  0.749969  0.000941  0.596193  1
  In  In11  1  0.250161  0.396309  0.004475  1
  In  In12  1  0.249938  0.603861  0.608382  1
  In  In13  1  0.249790  0.000911  0.398035  1
  Te  Te14  1  0.750112  0.609547  0.002750  1
  Te  Te15  1  0.750115  0.389290  0.389819  1
