# generated using pymatgen
data_Li2Ni9P7Pd3
_symmetry_space_group_name_H-M   'P 1'
_cell_length_a   9.13719100
_cell_length_b   9.13719080
_cell_length_c   3.64614300
_cell_angle_alpha   90.00000000
_cell_angle_beta   90.00000000
_cell_angle_gamma   120.00000436
_symmetry_Int_Tables_number   1
_chemical_formula_structural   Li2Ni9P7Pd3
_chemical_formula_sum   'Li2 Ni9 P7 Pd3'
_cell_volume   263.62689040
_cell_formula_units_Z   1
loop_
 _symmetry_equiv_pos_site_id
 _symmetry_equiv_pos_as_xyz
  1  'x, y, z'
loop_
 _atom_site_type_symbol
 _atom_site_label
 _atom_site_symmetry_multiplicity
 _atom_site_fract_x
 _atom_site_fract_y
 _atom_site_fract_z
 _atom_site_occupancy
  Li  Li0  1  0.333333  0.666667  0.000000  1
  Li  Li1  1  0.666667  0.333333  0.500000  1
  Ni  Ni2  1  0.714342  0.881189  0.000000  1
  Ni  Ni3  1  0.166847  0.285658  0.000000  1
  Ni  Ni4  1  0.118811  0.833153  0.000000  1
  Ni  Ni5  1  0.629774  0.567264  0.000000  1
  Ni  Ni6  1  0.937490  0.370226  0.000000  1
  Ni  Ni7  1  0.432736  0.062510  0.000000  1
  Ni  Ni8  1  0.558441  0.947632  0.500000  1
  Ni  Ni9  1  0.389191  0.441559  0.500000  1
  Ni  Ni10  1  0.052368  0.610809  0.500000  1
  P  P11  1  0.579517  0.709482  0.500000  1
  P  P12  1  0.129965  0.420483  0.500000  1
  P  P13  1  0.290518  0.870035  0.500000  1
  P  P14  1  0.000000  0.000000  0.000000  1
  P  P15  1  0.878248  0.573280  0.000000  1
  P  P16  1  0.695032  0.121752  0.000000  1
  P  P17  1  0.426720  0.304968  0.000000  1
  Pd  Pd18  1  0.871903  0.775387  0.500000  1
  Pd  Pd19  1  0.903484  0.128097  0.500000  1
  Pd  Pd20  1  0.224613  0.096516  0.500000  1
