# generated using pymatgen
data_Y8Co3Si12Pt
_symmetry_space_group_name_H-M   'P 1'
_cell_length_a   8.05000300
_cell_length_b   8.05000266
_cell_length_c   8.02452100
_cell_angle_alpha   90.00000000
_cell_angle_beta   90.00000000
_cell_angle_gamma   119.99999727
_symmetry_Int_Tables_number   1
_chemical_formula_structural   Y8Co3Si12Pt
_chemical_formula_sum   'Y8 Co3 Si12 Pt1'
_cell_volume   450.34135263
_cell_formula_units_Z   1
loop_
 _symmetry_equiv_pos_site_id
 _symmetry_equiv_pos_as_xyz
  1  'x, y, z'
loop_
 _atom_site_type_symbol
 _atom_site_label
 _atom_site_symmetry_multiplicity
 _atom_site_fract_x
 _atom_site_fract_y
 _atom_site_fract_z
 _atom_site_occupancy
  Y  Y0  1  0.000000  0.000000  0.248077  1
  Y  Y1  1  0.000000  0.000000  0.752882  1
  Y  Y2  1  0.014485  0.507242  0.246080  1
  Y  Y3  1  0.492758  0.507242  0.246080  1
  Y  Y4  1  0.503529  0.007061  0.752072  1
  Y  Y5  1  0.492758  0.985515  0.246080  1
  Y  Y6  1  0.503529  0.496471  0.752072  1
  Y  Y7  1  0.992939  0.496471  0.752072  1
  Co  Co8  1  0.333333  0.666667  0.969488  1
  Co  Co9  1  0.333333  0.666667  0.530417  1
  Co  Co10  1  0.666667  0.333333  0.027661  1
  Si  Si11  1  0.171223  0.342446  0.999493  1
  Si  Si12  1  0.657554  0.828777  0.999493  1
  Si  Si13  1  0.173144  0.346288  0.498760  1
  Si  Si14  1  0.344415  0.172207  0.000111  1
  Si  Si15  1  0.171223  0.828777  0.999493  1
  Si  Si16  1  0.653712  0.826856  0.498760  1
  Si  Si17  1  0.827793  0.655585  0.000111  1
  Si  Si18  1  0.327454  0.163728  0.501832  1
  Si  Si19  1  0.173144  0.826856  0.498760  1
  Si  Si20  1  0.836272  0.672546  0.501832  1
  Si  Si21  1  0.827793  0.172207  0.000111  1
  Si  Si22  1  0.836272  0.163728  0.501832  1
  Pt  Pt23  1  0.666667  0.333333  0.476435  1
