# generated using pymatgen
data_La2Tb3Os2
_symmetry_space_group_name_H-M   'P 1'
_cell_length_a   6.54354493
_cell_length_b   7.37937291
_cell_length_c   8.76204202
_cell_angle_alpha   96.66148893
_cell_angle_beta   111.92563714
_cell_angle_gamma   89.99999592
_symmetry_Int_Tables_number   1
_chemical_formula_structural   La2Tb3Os2
_chemical_formula_sum   'La4 Tb6 Os4'
_cell_volume   389.41142626
_cell_formula_units_Z   2
loop_
 _symmetry_equiv_pos_site_id
 _symmetry_equiv_pos_as_xyz
  1  'x, y, z'
loop_
 _atom_site_type_symbol
 _atom_site_label
 _atom_site_symmetry_multiplicity
 _atom_site_fract_x
 _atom_site_fract_y
 _atom_site_fract_z
 _atom_site_occupancy
  La  La0  1  0.982076  0.913365  0.193136  1
  La  La1  1  0.788939  0.586635  0.806864  1
  La  La2  1  0.017924  0.086635  0.806864  1
  La  La3  1  0.211061  0.413365  0.193136  1
  Tb  Tb4  1  0.636988  0.815999  0.432116  1
  Tb  Tb5  1  0.204872  0.684001  0.567884  1
  Tb  Tb6  1  0.363012  0.184001  0.567884  1
  Tb  Tb7  1  0.795128  0.315999  0.432116  1
  Tb  Tb8  1  0.430124  0.750000  0.000000  1
  Tb  Tb9  1  0.569876  0.250000  0.000000  1
  Os  Os10  1  0.822414  0.577692  0.223259  1
  Os  Os11  1  0.599155  0.922308  0.776741  1
  Os  Os12  1  0.177586  0.422308  0.776741  1
  Os  Os13  1  0.400845  0.077692  0.223259  1
