# generated using pymatgen
data_HgSb14
_symmetry_space_group_name_H-M   'P 1'
_cell_length_a   4.33858059
_cell_length_b   4.33858100
_cell_length_c   27.37579600
_cell_angle_alpha   91.43916835
_cell_angle_beta   91.43916849
_cell_angle_gamma   62.37725002
_symmetry_Int_Tables_number   1
_chemical_formula_structural   HgSb14
_chemical_formula_sum   'Hg1 Sb14'
_cell_volume   456.37115830
_cell_formula_units_Z   1
loop_
 _symmetry_equiv_pos_site_id
 _symmetry_equiv_pos_as_xyz
  1  'x, y, z'
loop_
 _atom_site_type_symbol
 _atom_site_label
 _atom_site_symmetry_multiplicity
 _atom_site_fract_x
 _atom_site_fract_y
 _atom_site_fract_z
 _atom_site_occupancy
  Hg  Hg0  1  0.000000  0.000000  0.800000  1
  Sb  Sb1  1  0.666805  0.666805  0.058489  1
  Sb  Sb2  1  0.665885  0.665885  0.272736  1
  Sb  Sb3  1  0.669725  0.669725  0.461654  1
  Sb  Sb4  1  0.665948  0.665948  0.674741  1
  Sb  Sb5  1  0.666111  0.666111  0.870245  1
  Sb  Sb6  1  0.330275  0.330275  0.138346  1
  Sb  Sb7  1  0.334115  0.334115  0.327264  1
  Sb  Sb8  1  0.333195  0.333195  0.541511  1
  Sb  Sb9  1  0.333889  0.333889  0.729755  1
  Sb  Sb10  1  0.334052  0.334052  0.925259  1
  Sb  Sb11  1  0.999179  0.999179  0.003793  1
  Sb  Sb12  1  0.998463  0.998463  0.192941  1
  Sb  Sb13  1  0.001537  0.001537  0.407059  1
  Sb  Sb14  1  0.000821  0.000821  0.596207  1
