# generated using pymatgen
data_HoEr3Tm(In2Ni)2
_symmetry_space_group_name_H-M   'P 1'
_cell_length_a   3.56218700
_cell_length_b   7.96713704
_cell_length_c   17.82785640
_cell_angle_alpha   89.97111870
_cell_angle_beta   90.00000000
_cell_angle_gamma   90.00000000
_symmetry_Int_Tables_number   1
_chemical_formula_structural   HoEr3Tm(In2Ni)2
_chemical_formula_sum   'Ho2 Er6 Tm2 In8 Ni4'
_cell_volume   505.96220142
_cell_formula_units_Z   2
loop_
 _symmetry_equiv_pos_site_id
 _symmetry_equiv_pos_as_xyz
  1  'x, y, z'
loop_
 _atom_site_type_symbol
 _atom_site_label
 _atom_site_symmetry_multiplicity
 _atom_site_fract_x
 _atom_site_fract_y
 _atom_site_fract_z
 _atom_site_occupancy
  Ho  Ho0  1  0.000000  0.500000  0.500000  1
  Ho  Ho1  1  0.000000  0.000000  0.000000  1
  Er  Er2  1  0.000000  0.745535  0.278634  1
  Er  Er3  1  0.000000  0.254465  0.721366  1
  Er  Er4  1  0.000000  0.754452  0.778090  1
  Er  Er5  1  0.000000  0.245548  0.221910  1
  Er  Er6  1  0.000000  0.617099  0.088220  1
  Er  Er7  1  0.000000  0.382901  0.911780  1
  Tm  Tm8  1  0.000000  0.882881  0.588371  1
  Tm  Tm9  1  0.000000  0.117119  0.411629  1
  In  In10  1  0.500000  0.705497  0.930853  1
  In  In11  1  0.500000  0.294503  0.069147  1
  In  In12  1  0.500000  0.796362  0.431540  1
  In  In13  1  0.500000  0.203638  0.568460  1
  In  In14  1  0.500000  0.574185  0.651803  1
  In  In15  1  0.500000  0.425815  0.348197  1
  In  In16  1  0.500000  0.927116  0.152317  1
  In  In17  1  0.500000  0.072884  0.847683  1
  Ni  Ni18  1  0.500000  0.523628  0.195531  1
  Ni  Ni19  1  0.500000  0.476372  0.804469  1
  Ni  Ni20  1  0.500000  0.975589  0.694738  1
  Ni  Ni21  1  0.500000  0.024411  0.305262  1
