# generated using pymatgen
data_Ac2HgO2
_symmetry_space_group_name_H-M   'P 1'
_cell_length_a   7.38596230
_cell_length_b   7.38596216
_cell_length_c   7.38596200
_cell_angle_alpha   146.41142961
_cell_angle_beta   146.41142798
_cell_angle_gamma   48.23605257
_symmetry_Int_Tables_number   1
_chemical_formula_structural   Ac2HgO2
_chemical_formula_sum   'Ac2 Hg1 O2'
_cell_volume   122.80505287
_cell_formula_units_Z   1
loop_
 _symmetry_equiv_pos_site_id
 _symmetry_equiv_pos_as_xyz
  1  'x, y, z'
loop_
 _atom_site_type_symbol
 _atom_site_label
 _atom_site_symmetry_multiplicity
 _atom_site_fract_x
 _atom_site_fract_y
 _atom_site_fract_z
 _atom_site_occupancy
  Ac  Ac0  1  0.342656  0.342656  0.000000  1
  Ac  Ac1  1  0.657344  0.657344  0.000000  1
  Hg  Hg2  1  0.000000  0.000000  0.000000  1
  O  O3  1  0.749999  0.250000  0.499999  1
  O  O4  1  0.250000  0.749999  0.499999  1
