# generated using pymatgen
data_Cs3MoRuBr9
_symmetry_space_group_name_H-M   'P 1'
_cell_length_a   7.90377700
_cell_length_b   7.90377704
_cell_length_c   18.96731100
_cell_angle_alpha   90.00000000
_cell_angle_beta   90.00000000
_cell_angle_gamma   119.99999566
_symmetry_Int_Tables_number   1
_chemical_formula_structural   Cs3MoRuBr9
_chemical_formula_sum   'Cs6 Mo2 Ru2 Br18'
_cell_volume   1026.13800967
_cell_formula_units_Z   2
loop_
 _symmetry_equiv_pos_site_id
 _symmetry_equiv_pos_as_xyz
  1  'x, y, z'
loop_
 _atom_site_type_symbol
 _atom_site_label
 _atom_site_symmetry_multiplicity
 _atom_site_fract_x
 _atom_site_fract_y
 _atom_site_fract_z
 _atom_site_occupancy
  Cs  Cs0  1  0.666667  0.333333  0.933718  1
  Cs  Cs1  1  0.333333  0.666667  0.433718  1
  Cs  Cs2  1  0.666667  0.333333  0.570676  1
  Cs  Cs3  1  0.333333  0.666667  0.070676  1
  Cs  Cs4  1  0.000000  0.000000  0.747215  1
  Cs  Cs5  1  0.000000  0.000000  0.247215  1
  Mo  Mo6  1  0.666667  0.333333  0.323537  1
  Mo  Mo7  1  0.333333  0.666667  0.823537  1
  Ru  Ru8  1  0.333333  0.666667  0.676652  1
  Ru  Ru9  1  0.666667  0.333333  0.176652  1
  Br  Br10  1  0.816635  0.633271  0.098867  1
  Br  Br11  1  0.183365  0.816635  0.598867  1
  Br  Br12  1  0.633271  0.816635  0.598867  1
  Br  Br13  1  0.366729  0.183365  0.098867  1
  Br  Br14  1  0.816635  0.183365  0.098867  1
  Br  Br15  1  0.180374  0.360748  0.902865  1
  Br  Br16  1  0.180374  0.819626  0.902865  1
  Br  Br17  1  0.183365  0.366729  0.598867  1
  Br  Br18  1  0.639252  0.819626  0.902865  1
  Br  Br19  1  0.360748  0.180374  0.402865  1
  Br  Br20  1  0.819626  0.639252  0.402865  1
  Br  Br21  1  0.819626  0.180374  0.402865  1
  Br  Br22  1  0.507606  0.015212  0.247668  1
  Br  Br23  1  0.492394  0.507606  0.747668  1
  Br  Br24  1  0.015212  0.507606  0.747668  1
  Br  Br25  1  0.984788  0.492394  0.247668  1
  Br  Br26  1  0.507606  0.492394  0.247668  1
  Br  Br27  1  0.492394  0.984788  0.747668  1
