# generated using pymatgen
data_PrCd3Ir2(RhO7)2
_symmetry_space_group_name_H-M   'P 1'
_cell_length_a   7.23413687
_cell_length_b   7.32463083
_cell_length_c   7.22954900
_cell_angle_alpha   60.42849507
_cell_angle_beta   60.02098146
_cell_angle_gamma   60.51959512
_symmetry_Int_Tables_number   1
_chemical_formula_structural   PrCd3Ir2(RhO7)2
_chemical_formula_sum   'Pr1 Cd3 Ir2 Rh2 O14'
_cell_volume   272.84300835
_cell_formula_units_Z   1
loop_
 _symmetry_equiv_pos_site_id
 _symmetry_equiv_pos_as_xyz
  1  'x, y, z'
loop_
 _atom_site_type_symbol
 _atom_site_label
 _atom_site_symmetry_multiplicity
 _atom_site_fract_x
 _atom_site_fract_y
 _atom_site_fract_z
 _atom_site_occupancy
  Pr  Pr0  1  0.125000  0.625000  0.125000  1
  Cd  Cd1  1  0.125000  0.125000  0.625000  1
  Cd  Cd2  1  0.125000  0.125000  0.125000  1
  Cd  Cd3  1  0.625000  0.125000  0.125000  1
  Ir  Ir4  1  0.125000  0.625000  0.625000  1
  Ir  Ir5  1  0.625000  0.125000  0.625000  1
  Rh  Rh6  1  0.625000  0.625000  0.625000  1
  Rh  Rh7  1  0.625000  0.625000  0.125000  1
  O  O8  1  0.955927  0.543400  0.550026  1
  O  O9  1  0.305748  0.308087  0.693083  1
  O  O10  1  0.955927  0.543400  0.950648  1
  O  O11  1  0.702681  0.299539  0.305634  1
  O  O12  1  0.545765  0.541222  0.956507  1
  O  O13  1  0.547319  0.950461  0.557854  1
  O  O14  1  0.547319  0.950461  0.944366  1
  O  O15  1  0.255515  0.230659  0.256912  1
  O  O16  1  0.294073  0.706600  0.699974  1
  O  O17  1  0.702681  0.299539  0.692146  1
  O  O18  1  0.994485  0.019341  0.993088  1
  O  O19  1  0.944252  0.941913  0.556917  1
  O  O20  1  0.294073  0.706600  0.299352  1
  O  O21  1  0.704235  0.708778  0.293493  1
