# generated using pymatgen
data_LiCe(AsRh)2
_symmetry_space_group_name_H-M   'P 1'
_cell_length_a   4.18949900
_cell_length_b   7.26791615
_cell_length_c   6.80498383
_cell_angle_alpha   90.03355428
_cell_angle_beta   90.00000000
_cell_angle_gamma   90.00000000
_symmetry_Int_Tables_number   1
_chemical_formula_structural   LiCe(AsRh)2
_chemical_formula_sum   'Li2 Ce2 As4 Rh4'
_cell_volume   207.20442349
_cell_formula_units_Z   2
loop_
 _symmetry_equiv_pos_site_id
 _symmetry_equiv_pos_as_xyz
  1  'x, y, z'
loop_
 _atom_site_type_symbol
 _atom_site_label
 _atom_site_symmetry_multiplicity
 _atom_site_fract_x
 _atom_site_fract_y
 _atom_site_fract_z
 _atom_site_occupancy
  Li  Li0  1  0.250000  0.748707  0.502931  1
  Li  Li1  1  0.750000  0.251293  0.497069  1
  Ce  Ce2  1  0.750000  0.250053  0.998951  1
  Ce  Ce3  1  0.250000  0.749947  0.001049  1
  As  As4  1  0.250000  0.415881  0.733908  1
  As  As5  1  0.750000  0.584119  0.266092  1
  As  As6  1  0.750000  0.916823  0.735059  1
  As  As7  1  0.250000  0.083177  0.264941  1
  Rh  Rh8  1  0.250000  0.417573  0.361565  1
  Rh  Rh9  1  0.750000  0.582427  0.638435  1
  Rh  Rh10  1  0.750000  0.917491  0.363155  1
  Rh  Rh11  1  0.250000  0.082509  0.636845  1
