# generated using pymatgen
data_Yb4P6SN12
_symmetry_space_group_name_H-M   'P 1'
_cell_length_a   7.52136296
_cell_length_b   7.52136261
_cell_length_c   7.52136300
_cell_angle_alpha   109.47122168
_cell_angle_beta   109.47122074
_cell_angle_gamma   109.47121766
_symmetry_Int_Tables_number   1
_chemical_formula_structural   Yb4P6SN12
_chemical_formula_sum   'Yb4 P6 S1 N12'
_cell_volume   327.54256256
_cell_formula_units_Z   1
loop_
 _symmetry_equiv_pos_site_id
 _symmetry_equiv_pos_as_xyz
  1  'x, y, z'
loop_
 _atom_site_type_symbol
 _atom_site_label
 _atom_site_symmetry_multiplicity
 _atom_site_fract_x
 _atom_site_fract_y
 _atom_site_fract_z
 _atom_site_occupancy
  Yb  Yb0  1  0.638939  0.000000  0.000000  1
  Yb  Yb1  1  0.000000  0.000000  0.638939  1
  Yb  Yb2  1  0.000000  0.638939  0.000000  1
  Yb  Yb3  1  0.361061  0.361061  0.361061  1
  P  P4  1  0.250000  0.750000  0.500000  1
  P  P5  1  0.750000  0.250000  0.500000  1
  P  P6  1  0.750000  0.500000  0.250000  1
  P  P7  1  0.250000  0.500000  0.750000  1
  P  P8  1  0.500000  0.750000  0.250000  1
  P  P9  1  0.500000  0.250000  0.750000  1
  S  S10  1  0.000000  0.000000  0.000000  1
  N  N11  1  0.698297  0.297550  0.297550  1
  N  N12  1  0.297550  0.698297  0.297550  1
  N  N13  1  0.301703  0.599253  0.599253  1
  N  N14  1  0.599253  0.599253  0.301703  1
  N  N15  1  0.400747  0.702450  0.000000  1
  N  N16  1  0.000000  0.702450  0.400747  1
  N  N17  1  0.599253  0.301703  0.599253  1
  N  N18  1  0.702450  0.000000  0.400747  1
  N  N19  1  0.400747  0.000000  0.702450  1
  N  N20  1  0.702450  0.400747  0.000000  1
  N  N21  1  0.297550  0.297550  0.698297  1
  N  N22  1  0.000000  0.400747  0.702450  1
