# generated using pymatgen
data_Sr12Ge12PdAu11
_symmetry_space_group_name_H-M   'P 1'
_cell_length_a   4.66155300
_cell_length_b   8.00161307
_cell_length_c   23.17779049
_cell_angle_alpha   90.01783562
_cell_angle_beta   90.00000000
_cell_angle_gamma   90.00000000
_symmetry_Int_Tables_number   1
_chemical_formula_structural   Sr12Ge12PdAu11
_chemical_formula_sum   'Sr12 Ge12 Pd1 Au11'
_cell_volume   864.53023128
_cell_formula_units_Z   1
loop_
 _symmetry_equiv_pos_site_id
 _symmetry_equiv_pos_as_xyz
  1  'x, y, z'
loop_
 _atom_site_type_symbol
 _atom_site_label
 _atom_site_symmetry_multiplicity
 _atom_site_fract_x
 _atom_site_fract_y
 _atom_site_fract_z
 _atom_site_occupancy
  Sr  Sr0  1  0.750000  0.208675  0.499858  1
  Sr  Sr1  1  0.250000  0.795139  0.166168  1
  Sr  Sr2  1  0.250000  0.790213  0.503454  1
  Sr  Sr3  1  0.250000  0.795768  0.832395  1
  Sr  Sr4  1  0.250000  0.704861  0.333039  1
  Sr  Sr5  1  0.750000  0.203132  0.833244  1
  Sr  Sr6  1  0.750000  0.286482  0.998628  1
  Sr  Sr7  1  0.750000  0.294672  0.666166  1
  Sr  Sr8  1  0.750000  0.294997  0.334249  1
  Sr  Sr9  1  0.250000  0.707429  0.664754  1
  Sr  Sr10  1  0.250000  0.713221  0.000963  1
  Sr  Sr11  1  0.750000  0.205144  0.167228  1
  Ge  Ge12  1  0.250000  0.403120  0.566607  1
  Ge  Ge13  1  0.250000  0.082019  0.393510  1
  Ge  Ge14  1  0.250000  0.089198  0.066833  1
  Ge  Ge15  1  0.250000  0.416691  0.893249  1
  Ge  Ge16  1  0.750000  0.583563  0.106314  1
  Ge  Ge17  1  0.250000  0.417840  0.773787  1
  Ge  Ge18  1  0.750000  0.581448  0.225919  1
  Ge  Ge19  1  0.750000  0.588529  0.434201  1
  Ge  Ge20  1  0.750000  0.911036  0.934162  1
  Ge  Ge21  1  0.250000  0.081963  0.274175  1
  Ge  Ge22  1  0.750000  0.927242  0.605877  1
  Ge  Ge23  1  0.750000  0.918278  0.725298  1
  Pd  Pd24  1  0.250000  0.086019  0.596177  1
  Au  Au25  1  0.250000  0.085406  0.736822  1
  Au  Au26  1  0.750000  0.585412  0.904435  1
  Au  Au27  1  0.750000  0.913107  0.404593  1
  Au  Au28  1  0.750000  0.582489  0.567622  1
  Au  Au29  1  0.750000  0.586130  0.762030  1
  Au  Au30  1  0.250000  0.418087  0.433220  1
  Au  Au31  1  0.250000  0.414182  0.237852  1
  Au  Au32  1  0.750000  0.917297  0.067799  1
  Au  Au33  1  0.250000  0.414207  0.095236  1
  Au  Au34  1  0.250000  0.082716  0.931722  1
  Au  Au35  1  0.750000  0.914289  0.262415  1
