# generated using pymatgen
data_Yb4Pr16Sn9Bi7
_symmetry_space_group_name_H-M   'P 1'
_cell_length_a   8.41386831
_cell_length_b   8.44951107
_cell_length_c   16.32926950
_cell_angle_alpha   90.08321715
_cell_angle_beta   89.65682163
_cell_angle_gamma   89.94585350
_symmetry_Int_Tables_number   1
_chemical_formula_structural   Yb4Pr16Sn9Bi7
_chemical_formula_sum   'Yb4 Pr16 Sn9 Bi7'
_cell_volume   1160.87537985
_cell_formula_units_Z   1
loop_
 _symmetry_equiv_pos_site_id
 _symmetry_equiv_pos_as_xyz
  1  'x, y, z'
loop_
 _atom_site_type_symbol
 _atom_site_label
 _atom_site_symmetry_multiplicity
 _atom_site_fract_x
 _atom_site_fract_y
 _atom_site_fract_z
 _atom_site_occupancy
  Yb  Yb0  1  0.782151  0.500120  0.748870  1
  Yb  Yb1  1  0.282189  0.998701  0.748840  1
  Yb  Yb2  1  0.217696  0.500058  0.253852  1
  Yb  Yb3  1  0.716922  0.001121  0.251934  1
  Pr  Pr4  1  0.612374  0.163100  0.620881  1
  Pr  Pr5  1  0.109787  0.335415  0.879361  1
  Pr  Pr6  1  0.390698  0.835652  0.120968  1
  Pr  Pr7  1  0.892413  0.662948  0.379722  1
  Pr  Pr8  1  0.386025  0.832439  0.379854  1
  Pr  Pr9  1  0.890521  0.664498  0.120819  1
  Pr  Pr10  1  0.610590  0.163360  0.878405  1
  Pr  Pr11  1  0.114046  0.338719  0.619206  1
  Pr  Pr12  1  0.455395  0.673878  0.606382  1
  Pr  Pr13  1  0.955463  0.823416  0.889743  1
  Pr  Pr14  1  0.544286  0.323118  0.110061  1
  Pr  Pr15  1  0.041485  0.182249  0.392189  1
  Pr  Pr16  1  0.534069  0.326167  0.393448  1
  Pr  Pr17  1  0.044422  0.177698  0.110057  1
  Pr  Pr18  1  0.455530  0.676979  0.890205  1
  Pr  Pr19  1  0.962305  0.819177  0.606623  1
  Sn  Sn20  1  0.225379  0.527586  0.457578  1
  Sn  Sn21  1  0.411829  0.380301  0.750116  1
  Sn  Sn22  1  0.912886  0.118786  0.748742  1
  Sn  Sn23  1  0.589093  0.619731  0.250054  1
  Sn  Sn24  1  0.088265  0.882251  0.249900  1
  Sn  Sn25  1  0.659123  0.860105  0.748634  1
  Sn  Sn26  1  0.158799  0.637617  0.749720  1
  Sn  Sn27  1  0.340423  0.137961  0.250518  1
  Sn  Sn28  1  0.839435  0.362611  0.250461  1
  Bi  Bi29  1  0.727326  0.974485  0.457149  1
  Bi  Bi30  1  0.228874  0.522265  0.044113  1
  Bi  Bi31  1  0.271689  0.022238  0.956316  1
  Bi  Bi32  1  0.773749  0.473008  0.542525  1
  Bi  Bi33  1  0.274741  0.026707  0.542797  1
  Bi  Bi34  1  0.771247  0.477435  0.956158  1
  Bi  Bi35  1  0.728772  0.978100  0.043800  1
