# generated using pymatgen
data_GeB12Se
_symmetry_space_group_name_H-M   'P 1'
_cell_length_a   5.34549062
_cell_length_b   5.34549157
_cell_length_c   5.34549186
_cell_angle_alpha   70.65266855
_cell_angle_beta   70.65266178
_cell_angle_gamma   70.65267438
_symmetry_Int_Tables_number   1
_chemical_formula_structural   GeB12Se
_chemical_formula_sum   'Ge1 B12 Se1'
_cell_volume   131.70141890
_cell_formula_units_Z   1
loop_
 _symmetry_equiv_pos_site_id
 _symmetry_equiv_pos_as_xyz
  1  'x, y, z'
loop_
 _atom_site_type_symbol
 _atom_site_label
 _atom_site_symmetry_multiplicity
 _atom_site_fract_x
 _atom_site_fract_y
 _atom_site_fract_z
 _atom_site_occupancy
  Ge  Ge0  1  0.610638  0.610638  0.610638  1
  B  B1  1  0.014521  0.014521  0.325190  1
  B  B2  1  0.325190  0.014521  0.014521  1
  B  B3  1  0.271415  0.820630  0.820630  1
  B  B4  1  0.820630  0.820630  0.271415  1
  B  B5  1  0.820630  0.271415  0.820630  1
  B  B6  1  0.173762  0.731830  0.173762  1
  B  B7  1  0.731830  0.173762  0.173762  1
  B  B8  1  0.173762  0.173762  0.731830  1
  B  B9  1  0.675493  0.983326  0.983326  1
  B  B10  1  0.983326  0.983326  0.675493  1
  B  B11  1  0.983326  0.675493  0.983326  1
  B  B12  1  0.014521  0.325190  0.014521  1
  Se  Se13  1  0.400958  0.400958  0.400958  1
