# generated using pymatgen
data_Y7Tm(OsI4)2
_symmetry_space_group_name_H-M   'P 1'
_cell_length_a   11.42048691
_cell_length_b   11.42589655
_cell_length_c   6.19078320
_cell_angle_alpha   90.01005357
_cell_angle_beta   90.04526982
_cell_angle_gamma   88.35888518
_symmetry_Int_Tables_number   1
_chemical_formula_structural   Y7Tm(OsI4)2
_chemical_formula_sum   'Y7 Tm1 Os2 I8'
_cell_volume   807.49936176
_cell_formula_units_Z   1
loop_
 _symmetry_equiv_pos_site_id
 _symmetry_equiv_pos_as_xyz
  1  'x, y, z'
loop_
 _atom_site_type_symbol
 _atom_site_label
 _atom_site_symmetry_multiplicity
 _atom_site_fract_x
 _atom_site_fract_y
 _atom_site_fract_z
 _atom_site_occupancy
  Y  Y0  1  0.083625  0.802022  0.499177  1
  Y  Y1  1  0.078297  0.195780  0.000256  1
  Y  Y2  1  0.195453  0.078821  0.500314  1
  Y  Y3  1  0.921270  0.804399  0.999670  1
  Y  Y4  1  0.914720  0.198289  0.500717  1
  Y  Y5  1  0.197911  0.916023  0.000911  1
  Y  Y6  1  0.803199  0.922182  0.499608  1
  Tm  Tm7  1  0.807688  0.081683  0.998890  1
  Os  Os8  1  0.999572  0.000237  0.249933  1
  Os  Os9  1  0.999821  0.999999  0.749972  1
  I  I10  1  0.644032  0.152494  0.509819  1
  I  I11  1  0.857868  0.648680  0.505458  1
  I  I12  1  0.351222  0.141896  0.994582  1
  I  I13  1  0.141913  0.351395  0.494558  1
  I  I14  1  0.648900  0.859729  0.005285  1
  I  I15  1  0.355426  0.847720  0.490758  1
  I  I16  1  0.152341  0.644649  0.009344  1
  I  I17  1  0.846741  0.354001  0.990748  1
