# generated using pymatgen
data_Zr10SiGe5C
_symmetry_space_group_name_H-M   'P 1'
_cell_length_a   8.06087514
_cell_length_b   8.06347905
_cell_length_c   5.67382900
_cell_angle_alpha   89.99818824
_cell_angle_beta   90.00090237
_cell_angle_gamma   120.01067886
_symmetry_Int_Tables_number   1
_chemical_formula_structural   Zr10SiGe5C
_chemical_formula_sum   'Zr10 Si1 Ge5 C1'
_cell_volume   319.34843115
_cell_formula_units_Z   1
loop_
 _symmetry_equiv_pos_site_id
 _symmetry_equiv_pos_as_xyz
  1  'x, y, z'
loop_
 _atom_site_type_symbol
 _atom_site_label
 _atom_site_symmetry_multiplicity
 _atom_site_fract_x
 _atom_site_fract_y
 _atom_site_fract_z
 _atom_site_occupancy
  Zr  Zr0  1  0.000000  0.757618  0.260248  1
  Zr  Zr1  1  0.237392  0.240639  0.260359  1
  Zr  Zr2  1  0.762608  0.003247  0.260359  1
  Zr  Zr3  1  0.000000  0.240940  0.739805  1
  Zr  Zr4  1  0.760456  0.760694  0.739110  1
  Zr  Zr5  1  0.239544  0.000238  0.739110  1
  Zr  Zr6  1  0.330953  0.664735  0.001075  1
  Zr  Zr7  1  0.669047  0.333781  0.001075  1
  Zr  Zr8  1  0.668888  0.334119  0.498957  1
  Zr  Zr9  1  0.331112  0.665232  0.498957  1
  Si  Si10  1  0.000000  0.396717  0.248624  1
  Ge  Ge11  1  0.603533  0.603881  0.248235  1
  Ge  Ge12  1  0.396467  0.000348  0.248235  1
  Ge  Ge13  1  0.000000  0.602683  0.752128  1
  Ge  Ge14  1  0.397270  0.396541  0.751823  1
  Ge  Ge15  1  0.602730  0.999272  0.751823  1
  C  C16  1  0.000000  0.999315  0.500079  1
