# generated using pymatgen
data_La4Nd4ReTc3C8
_symmetry_space_group_name_H-M   'P 1'
_cell_length_a   5.41782000
_cell_length_b   6.75220710
_cell_length_c   10.28563310
_cell_angle_alpha   90.04073491
_cell_angle_beta   90.00000000
_cell_angle_gamma   90.00000000
_symmetry_Int_Tables_number   1
_chemical_formula_structural   La4Nd4ReTc3C8
_chemical_formula_sum   'La4 Nd4 Re1 Tc3 C8'
_cell_volume   376.27143088
_cell_formula_units_Z   1
loop_
 _symmetry_equiv_pos_site_id
 _symmetry_equiv_pos_as_xyz
  1  'x, y, z'
loop_
 _atom_site_type_symbol
 _atom_site_label
 _atom_site_symmetry_multiplicity
 _atom_site_fract_x
 _atom_site_fract_y
 _atom_site_fract_z
 _atom_site_occupancy
  La  La0  1  0.250000  0.472465  0.787413  1
  La  La1  1  0.750000  0.026268  0.288368  1
  La  La2  1  0.250000  0.973781  0.710375  1
  La  La3  1  0.750000  0.525622  0.211060  1
  Nd  Nd4  1  0.250000  0.815987  0.051595  1
  Nd  Nd5  1  0.750000  0.683313  0.551834  1
  Nd  Nd6  1  0.250000  0.316069  0.447660  1
  Nd  Nd7  1  0.750000  0.185219  0.947620  1
  Re  Re8  1  0.750000  0.729869  0.856714  1
  Tc  Tc9  1  0.250000  0.270016  0.143707  1
  Tc  Tc10  1  0.750000  0.230257  0.643984  1
  Tc  Tc11  1  0.250000  0.770228  0.355879  1
  C  C12  1  0.250000  0.686766  0.533714  1
  C  C13  1  0.750000  0.813478  0.035807  1
  C  C14  1  0.250000  0.186621  0.965950  1
  C  C15  1  0.750000  0.313118  0.466392  1
  C  C16  1  0.250000  0.034695  0.257844  1
  C  C17  1  0.750000  0.466795  0.759453  1
  C  C18  1  0.250000  0.535017  0.241726  1
  C  C19  1  0.750000  0.964416  0.742903  1
