# generated using pymatgen
data_Pr10Nd2FeIrI17
_symmetry_space_group_name_H-M   'P 1'
_cell_length_a   10.13449856
_cell_length_b   12.14708938
_cell_length_c   12.18603282
_cell_angle_alpha   93.43532265
_cell_angle_beta   104.74911969
_cell_angle_gamma   114.39402339
_symmetry_Int_Tables_number   1
_chemical_formula_structural   Pr10Nd2FeIrI17
_chemical_formula_sum   'Pr10 Nd2 Fe1 Ir1 I17'
_cell_volume   1297.80250513
_cell_formula_units_Z   1
loop_
 _symmetry_equiv_pos_site_id
 _symmetry_equiv_pos_as_xyz
  1  'x, y, z'
loop_
 _atom_site_type_symbol
 _atom_site_label
 _atom_site_symmetry_multiplicity
 _atom_site_fract_x
 _atom_site_fract_y
 _atom_site_fract_z
 _atom_site_occupancy
  Pr  Pr0  1  0.649648  0.241576  0.283109  1
  Pr  Pr1  1  0.010082  0.192212  0.413816  1
  Pr  Pr2  1  0.225389  0.669308  0.991848  1
  Pr  Pr3  1  0.260776  0.989355  0.892681  1
  Pr  Pr4  1  0.357966  0.759939  0.714062  1
  Pr  Pr5  1  0.940537  0.486540  0.675977  1
  Pr  Pr6  1  0.745352  0.020025  0.111325  1
  Pr  Pr7  1  0.146715  0.286511  0.152045  1
  Pr  Pr8  1  0.778692  0.328501  0.015359  1
  Pr  Pr9  1  0.845497  0.712218  0.849972  1
  Nd  Nd10  1  0.051743  0.503434  0.319278  1
  Nd  Nd11  1  0.989237  0.811314  0.580413  1
  Fe  Fe12  1  0.896022  0.262021  0.214466  1
  Ir  Ir13  1  0.104129  0.738489  0.785100  1
  I  I14  1  0.787939  0.529890  0.418671  1
  I  I15  1  0.643689  0.419633  0.760526  1
  I  I16  1  0.843782  0.895792  0.326766  1
  I  I17  1  0.324727  0.212686  0.368672  1
  I  I18  1  0.154902  0.102527  0.673713  1
  I  I19  1  0.586693  0.052336  0.844547  1
  I  I20  1  0.756642  0.184601  0.537687  1
  I  I21  1  0.548931  0.708470  0.953502  1
  I  I22  1  0.355333  0.580214  0.241652  1
  I  I23  1  0.213474  0.471989  0.580727  1
  I  I24  1  0.054817  0.368385  0.897614  1
  I  I25  1  0.451477  0.291680  0.046456  1
  I  I26  1  0.999576  0.999454  0.999505  1
  I  I27  1  0.240242  0.813023  0.461362  1
  I  I28  1  0.413201  0.947512  0.155348  1
  I  I29  1  0.675676  0.788120  0.630341  1
  I  I30  1  0.947111  0.632246  0.103462  1
