# generated using pymatgen
data_Tb4Dy2Al24Os3Ru5
_symmetry_space_group_name_H-M   'P 1'
_cell_length_a   8.84340015
_cell_length_b   8.83140533
_cell_length_c   9.59935104
_cell_angle_alpha   89.97922250
_cell_angle_beta   89.95643920
_cell_angle_gamma   120.30578804
_symmetry_Int_Tables_number   1
_chemical_formula_structural   Tb4Dy2Al24Os3Ru5
_chemical_formula_sum   'Tb4 Dy2 Al24 Os3 Ru5'
_cell_volume   647.25415418
_cell_formula_units_Z   1
loop_
 _symmetry_equiv_pos_site_id
 _symmetry_equiv_pos_as_xyz
  1  'x, y, z'
loop_
 _atom_site_type_symbol
 _atom_site_label
 _atom_site_symmetry_multiplicity
 _atom_site_fract_x
 _atom_site_fract_y
 _atom_site_fract_z
 _atom_site_occupancy
  Tb  Tb0  1  0.192169  0.805423  0.250812  1
  Tb  Tb1  1  0.195330  0.387813  0.250646  1
  Tb  Tb2  1  0.613047  0.803976  0.250263  1
  Tb  Tb3  1  0.807889  0.194542  0.749193  1
  Dy  Dy4  1  0.804363  0.611741  0.749291  1
  Dy  Dy5  1  0.387435  0.196382  0.749746  1
  Al  Al6  1  0.562012  0.437434  0.249826  1
  Al  Al7  1  0.561801  0.121892  0.249854  1
  Al  Al8  1  0.875957  0.436922  0.249417  1
  Al  Al9  1  0.438201  0.562357  0.750175  1
  Al  Al10  1  0.438136  0.878350  0.750152  1
  Al  Al11  1  0.123796  0.563179  0.750620  1
  Al  Al12  1  0.325643  0.162830  0.423177  1
  Al  Al13  1  0.837503  0.162462  0.423971  1
  Al  Al14  1  0.836940  0.673816  0.423962  1
  Al  Al15  1  0.674436  0.837066  0.577322  1
  Al  Al16  1  0.162377  0.837695  0.576376  1
  Al  Al17  1  0.163125  0.326089  0.576540  1
  Al  Al18  1  0.674474  0.837249  0.922756  1
  Al  Al19  1  0.162514  0.837949  0.923524  1
  Al  Al20  1  0.163236  0.325965  0.923122  1
  Al  Al21  1  0.325636  0.162674  0.076734  1
  Al  Al22  1  0.837351  0.162167  0.076145  1
  Al  Al23  1  0.836868  0.673935  0.076354  1
  Al  Al24  1  0.665738  0.333057  0.515949  1
  Al  Al25  1  0.334144  0.666963  0.484528  1
  Al  Al26  1  0.333615  0.666782  0.015660  1
  Al  Al27  1  0.666352  0.333292  0.983843  1
  Al  Al28  1  0.000463  0.999474  0.249985  1
  Al  Al29  1  0.999811  0.000295  0.750014  1
  Os  Os30  1  0.500090  0.499885  0.500298  1
  Os  Os31  1  0.999790  0.500027  0.500234  1
  Os  Os32  1  0.500111  0.499889  0.999704  1
  Ru  Ru33  1  0.999966  0.000019  0.500045  1
  Ru  Ru34  1  0.999985  0.000029  0.999969  1
  Ru  Ru35  1  0.499916  0.000159  0.500205  1
  Ru  Ru36  1  0.499969  0.000200  0.999785  1
  Ru  Ru37  1  0.999811  0.500020  0.999803  1
