# generated using pymatgen
data_Tb2Er3Co2
_symmetry_space_group_name_H-M   'P 1'
_cell_length_a   6.26097191
_cell_length_b   6.86427259
_cell_length_c   8.51608561
_cell_angle_alpha   96.42706243
_cell_angle_beta   111.56747099
_cell_angle_gamma   90.00000183
_symmetry_Int_Tables_number   1
_chemical_formula_structural   Tb2Er3Co2
_chemical_formula_sum   'Tb4 Er6 Co4'
_cell_volume   337.89625370
_cell_formula_units_Z   2
loop_
 _symmetry_equiv_pos_site_id
 _symmetry_equiv_pos_as_xyz
  1  'x, y, z'
loop_
 _atom_site_type_symbol
 _atom_site_label
 _atom_site_symmetry_multiplicity
 _atom_site_fract_x
 _atom_site_fract_y
 _atom_site_fract_z
 _atom_site_occupancy
  Tb  Tb0  1  0.791024  0.586406  0.809569  1
  Tb  Tb1  1  0.981455  0.913594  0.190431  1
  Tb  Tb2  1  0.208976  0.413594  0.190431  1
  Tb  Tb3  1  0.018545  0.086406  0.809569  1
  Er  Er4  1  0.213481  0.684372  0.567965  1
  Er  Er5  1  0.645515  0.815628  0.432035  1
  Er  Er6  1  0.786519  0.315628  0.432035  1
  Er  Er7  1  0.354485  0.184372  0.567965  1
  Er  Er8  1  0.427891  0.750000  0.000000  1
  Er  Er9  1  0.572109  0.250000  0.000000  1
  Co  Co10  1  0.598174  0.928404  0.776694  1
  Co  Co11  1  0.821480  0.571596  0.223306  1
  Co  Co12  1  0.401826  0.071596  0.223306  1
  Co  Co13  1  0.178520  0.428404  0.776694  1
