# generated using pymatgen
data_Tb13Pr7(SnBi)8
_symmetry_space_group_name_H-M   'P 1'
_cell_length_a   8.30431040
_cell_length_b   8.34343078
_cell_length_c   15.75626197
_cell_angle_alpha   90.00078385
_cell_angle_beta   90.21116591
_cell_angle_gamma   89.94594120
_symmetry_Int_Tables_number   1
_chemical_formula_structural   Tb13Pr7(SnBi)8
_chemical_formula_sum   'Tb13 Pr7 Sn8 Bi8'
_cell_volume   1091.68738433
_cell_formula_units_Z   1
loop_
 _symmetry_equiv_pos_site_id
 _symmetry_equiv_pos_as_xyz
  1  'x, y, z'
loop_
 _atom_site_type_symbol
 _atom_site_label
 _atom_site_symmetry_multiplicity
 _atom_site_fract_x
 _atom_site_fract_y
 _atom_site_fract_z
 _atom_site_occupancy
  Tb  Tb0  1  0.364434  0.839306  0.873889  1
  Tb  Tb1  1  0.862861  0.659482  0.627136  1
  Tb  Tb2  1  0.635861  0.159881  0.373326  1
  Tb  Tb3  1  0.133887  0.339793  0.126345  1
  Tb  Tb4  1  0.634081  0.160386  0.126033  1
  Tb  Tb5  1  0.136428  0.340216  0.373434  1
  Tb  Tb6  1  0.364366  0.840576  0.627865  1
  Tb  Tb7  1  0.865268  0.660401  0.873681  1
  Tb  Tb8  1  0.529350  0.324625  0.894015  1
  Tb  Tb9  1  0.194029  0.498024  0.750099  1
  Tb  Tb10  1  0.694364  0.002877  0.750423  1
  Tb  Tb11  1  0.805869  0.502035  0.249582  1
  Tb  Tb12  1  0.305491  0.997469  0.250031  1
  Pr  Pr13  1  0.025633  0.178993  0.603512  1
  Pr  Pr14  1  0.474779  0.678728  0.397679  1
  Pr  Pr15  1  0.972994  0.821879  0.102118  1
  Pr  Pr16  1  0.473960  0.677742  0.102557  1
  Pr  Pr17  1  0.975068  0.821517  0.397786  1
  Pr  Pr18  1  0.524645  0.321516  0.601817  1
  Pr  Pr19  1  0.025823  0.178056  0.897638  1
  Sn  Sn20  1  0.559945  0.623432  0.751034  1
  Sn  Sn21  1  0.060082  0.874970  0.750451  1
  Sn  Sn22  1  0.439552  0.374811  0.249722  1
  Sn  Sn23  1  0.939477  0.125112  0.249767  1
  Sn  Sn24  1  0.334287  0.146491  0.752238  1
  Sn  Sn25  1  0.829088  0.355855  0.750933  1
  Sn  Sn26  1  0.669368  0.856086  0.249880  1
  Sn  Sn27  1  0.168803  0.643946  0.249804  1
  Bi  Bi28  1  0.290194  0.038032  0.042801  1
  Bi  Bi29  1  0.791167  0.461228  0.457249  1
  Bi  Bi30  1  0.709104  0.961542  0.543096  1
  Bi  Bi31  1  0.215055  0.532338  0.956288  1
  Bi  Bi32  1  0.707370  0.964390  0.956612  1
  Bi  Bi33  1  0.208328  0.539778  0.542925  1
  Bi  Bi34  1  0.291170  0.039025  0.457898  1
  Bi  Bi35  1  0.787816  0.459463  0.040331  1
