# generated using pymatgen
data_LiZn21NiIr3
_symmetry_space_group_name_H-M   'P 1'
_cell_length_a   7.85242710
_cell_length_b   7.90680503
_cell_length_c   7.90680505
_cell_angle_alpha   109.62630857
_cell_angle_beta   109.31780402
_cell_angle_gamma   109.31779720
_symmetry_Int_Tables_number   1
_chemical_formula_structural   LiZn21NiIr3
_chemical_formula_sum   'Li1 Zn21 Ni1 Ir3'
_cell_volume   378.60960771
_cell_formula_units_Z   1
loop_
 _symmetry_equiv_pos_site_id
 _symmetry_equiv_pos_as_xyz
  1  'x, y, z'
loop_
 _atom_site_type_symbol
 _atom_site_label
 _atom_site_symmetry_multiplicity
 _atom_site_fract_x
 _atom_site_fract_y
 _atom_site_fract_z
 _atom_site_occupancy
  Li  Li0  1  0.213431  0.999326  0.999326  1
  Zn  Zn1  1  0.007729  0.211180  0.003382  1
  Zn  Zn2  1  0.007729  0.003382  0.211180  1
  Zn  Zn3  1  0.806586  0.802069  0.802069  1
  Zn  Zn4  1  0.993180  0.643022  0.643022  1
  Zn  Zn5  1  0.355177  0.004316  0.351536  1
  Zn  Zn6  1  0.355177  0.351536  0.004316  1
  Zn  Zn7  1  0.003428  0.356736  0.356736  1
  Zn  Zn8  1  0.636757  0.989014  0.637733  1
  Zn  Zn9  1  0.636757  0.637733  0.989014  1
  Zn  Zn10  1  0.347534  0.738634  0.998923  1
  Zn  Zn11  1  0.610345  0.267684  0.267684  1
  Zn  Zn12  1  0.347534  0.998923  0.738634  1
  Zn  Zn13  1  0.735046  0.347992  0.999502  1
  Zn  Zn14  1  0.997255  0.348999  0.734570  1
  Zn  Zn15  1  0.268048  0.613083  0.269951  1
  Zn  Zn16  1  0.268048  0.269951  0.613083  1
  Zn  Zn17  1  0.997255  0.734570  0.348999  1
  Zn  Zn18  1  0.735046  0.999502  0.347992  1
  Zn  Zn19  1  0.643615  0.644424  0.390334  1
  Zn  Zn20  1  0.392894  0.646175  0.646175  1
  Zn  Zn21  1  0.643615  0.390334  0.644424  1
  Ni  Ni22  1  0.345249  0.347430  0.347430  1
  Ir  Ir23  1  0.650886  0.002347  0.002347  1
  Ir  Ir24  1  0.000840  0.648770  0.002867  1
  Ir  Ir25  1  0.000840  0.002867  0.648770  1
