# generated using pymatgen
data_Eu3C3Br2
_symmetry_space_group_name_H-M   'P 1'
_cell_length_a   7.62503621
_cell_length_b   7.62503508
_cell_length_c   11.96609600
_cell_angle_alpha   90.00000000
_cell_angle_beta   90.00000000
_cell_angle_gamma   149.19583094
_symmetry_Int_Tables_number   1
_chemical_formula_structural   Eu3C3Br2
_chemical_formula_sum   'Eu6 C6 Br4'
_cell_volume   356.28338100
_cell_formula_units_Z   2
loop_
 _symmetry_equiv_pos_site_id
 _symmetry_equiv_pos_as_xyz
  1  'x, y, z'
loop_
 _atom_site_type_symbol
 _atom_site_label
 _atom_site_symmetry_multiplicity
 _atom_site_fract_x
 _atom_site_fract_y
 _atom_site_fract_z
 _atom_site_occupancy
  Eu  Eu0  1  0.661306  0.338694  0.558370  1
  Eu  Eu1  1  0.338694  0.661306  0.441630  1
  Eu  Eu2  1  0.338694  0.661306  0.058370  1
  Eu  Eu3  1  0.661306  0.338694  0.941630  1
  Eu  Eu4  1  0.130084  0.869916  0.250000  1
  Eu  Eu5  1  0.869916  0.130084  0.750000  1
  C  C6  1  0.265942  0.734058  0.638317  1
  C  C7  1  0.734058  0.265942  0.361683  1
  C  C8  1  0.734058  0.265942  0.138317  1
  C  C9  1  0.265942  0.734058  0.861683  1
  C  C10  1  0.743864  0.256136  0.250000  1
  C  C11  1  0.256136  0.743864  0.750000  1
  Br  Br12  1  0.526382  0.473618  0.750000  1
  Br  Br13  1  0.473618  0.526382  0.250000  1
  Br  Br14  1  0.000000  0.000000  0.000000  1
  Br  Br15  1  0.000000  0.000000  0.500000  1
