# generated using pymatgen
data_Dy2Ho2ReOs7
_symmetry_space_group_name_H-M   'P 1'
_cell_length_a   5.29679902
_cell_length_b   5.29679983
_cell_length_c   8.84067000
_cell_angle_alpha   89.99819872
_cell_angle_beta   90.00180209
_cell_angle_gamma   118.30645291
_symmetry_Int_Tables_number   1
_chemical_formula_structural   Dy2Ho2ReOs7
_chemical_formula_sum   'Dy2 Ho2 Re1 Os7'
_cell_volume   218.37558697
_cell_formula_units_Z   1
loop_
 _symmetry_equiv_pos_site_id
 _symmetry_equiv_pos_as_xyz
  1  'x, y, z'
loop_
 _atom_site_type_symbol
 _atom_site_label
 _atom_site_symmetry_multiplicity
 _atom_site_fract_x
 _atom_site_fract_y
 _atom_site_fract_z
 _atom_site_occupancy
  Dy  Dy0  1  0.330603  0.669397  0.435921  1
  Dy  Dy1  1  0.665891  0.334109  0.566083  1
  Ho  Ho2  1  0.666259  0.333741  0.934066  1
  Ho  Ho3  1  0.330734  0.669266  0.064056  1
  Re  Re4  1  0.834039  0.165961  0.249518  1
  Os  Os5  1  0.992395  0.007605  0.499949  1
  Os  Os6  1  0.993104  0.006896  0.999916  1
  Os  Os7  1  0.828045  0.649548  0.249453  1
  Os  Os8  1  0.350452  0.171955  0.249453  1
  Os  Os9  1  0.176319  0.823681  0.750357  1
  Os  Os10  1  0.171866  0.339707  0.750614  1
  Os  Os11  1  0.660293  0.828134  0.750614  1
