# generated using pymatgen
data_Pr2DyY4FeI12
_symmetry_space_group_name_H-M   'P 1'
_cell_length_a   9.89014452
_cell_length_b   9.85238026
_cell_length_c   9.91231522
_cell_angle_alpha   106.84424188
_cell_angle_beta   106.63737597
_cell_angle_gamma   107.49981009
_symmetry_Int_Tables_number   1
_chemical_formula_structural   Pr2DyY4FeI12
_chemical_formula_sum   'Pr2 Dy1 Y4 Fe1 I12'
_cell_volume   804.48349830
_cell_formula_units_Z   1
loop_
 _symmetry_equiv_pos_site_id
 _symmetry_equiv_pos_as_xyz
  1  'x, y, z'
loop_
 _atom_site_type_symbol
 _atom_site_label
 _atom_site_symmetry_multiplicity
 _atom_site_fract_x
 _atom_site_fract_y
 _atom_site_fract_z
 _atom_site_occupancy
  Pr  Pr0  1  0.591794  0.786180  0.521644  1
  Pr  Pr1  1  0.408196  0.213752  0.478161  1
  Dy  Dy2  1  0.477962  0.406648  0.209451  1
  Y  Y3  1  0.793203  0.524964  0.593464  1
  Y  Y4  1  0.522170  0.593639  0.791697  1
  Y  Y5  1  0.206778  0.474971  0.406296  1
  Y  Y6  1  0.000052  0.000031  0.999999  1
  Fe  Fe7  1  0.500023  0.499931  0.499586  1
  I  I8  1  0.736800  0.191313  0.578824  1
  I  I9  1  0.970239  0.886630  0.667315  1
  I  I10  1  0.570265  0.718772  0.172391  1
  I  I11  1  0.115553  0.338651  0.040282  1
  I  I12  1  0.663471  0.961818  0.891699  1
  I  I13  1  0.884573  0.661256  0.959740  1
  I  I14  1  0.029735  0.113359  0.332706  1
  I  I15  1  0.818544  0.428459  0.277594  1
  I  I16  1  0.336422  0.038243  0.108219  1
  I  I17  1  0.263224  0.808710  0.421213  1
  I  I18  1  0.181288  0.571544  0.722305  1
  I  I19  1  0.429706  0.281129  0.827413  1
