# generated using pymatgen
data_NdLu5(BiO7)2
_symmetry_space_group_name_H-M   'P 1'
_cell_length_a   6.49738339
_cell_length_b   6.48146117
_cell_length_c   7.61508464
_cell_angle_alpha   107.04530560
_cell_angle_beta   89.85247353
_cell_angle_gamma   99.12700770
_symmetry_Int_Tables_number   1
_chemical_formula_structural   NdLu5(BiO7)2
_chemical_formula_sum   'Nd1 Lu5 Bi2 O14'
_cell_volume   302.39392181
_cell_formula_units_Z   1
loop_
 _symmetry_equiv_pos_site_id
 _symmetry_equiv_pos_as_xyz
  1  'x, y, z'
loop_
 _atom_site_type_symbol
 _atom_site_label
 _atom_site_symmetry_multiplicity
 _atom_site_fract_x
 _atom_site_fract_y
 _atom_site_fract_z
 _atom_site_occupancy
  Nd  Nd0  1  0.257257  0.519645  0.382294  1
  Lu  Lu1  1  0.467448  0.007965  0.250418  1
  Lu  Lu2  1  0.536804  0.992079  0.749528  1
  Lu  Lu3  1  0.277471  0.539108  0.883337  1
  Lu  Lu4  1  0.725472  0.463465  0.114240  1
  Lu  Lu5  1  0.725454  0.469439  0.615885  1
  Bi  Bi6  1  0.997212  0.001818  0.501950  1
  Bi  Bi7  1  0.999645  0.997684  0.998709  1
  O  O8  1  0.459008  0.656474  0.157499  1
  O  O9  1  0.551548  0.345086  0.832065  1
  O  O10  1  0.304086  0.919319  0.949057  1
  O  O11  1  0.696839  0.082129  0.048779  1
  O  O12  1  0.301631  0.931580  0.517856  1
  O  O13  1  0.695562  0.076799  0.489067  1
  O  O14  1  0.555043  0.359806  0.343366  1
  O  O15  1  0.462794  0.638326  0.665416  1
  O  O16  1  0.926192  0.661125  0.962081  1
  O  O17  1  0.078838  0.336771  0.038384  1
  O  O18  1  0.062982  0.356951  0.628083  1
  O  O19  1  0.917985  0.653475  0.373069  1
  O  O20  1  0.866229  0.894388  0.723326  1
  O  O21  1  0.134500  0.096570  0.275591  1
