# generated using pymatgen
data_Er7HfGaPd24
_symmetry_space_group_name_H-M   'P 1'
_cell_length_a   8.29563953
_cell_length_b   8.29563953
_cell_length_c   8.29563953
_cell_angle_alpha   90.20118970
_cell_angle_beta   90.20118970
_cell_angle_gamma   89.79881030
_symmetry_Int_Tables_number   1
_chemical_formula_structural   Er7HfGaPd24
_chemical_formula_sum   'Er7 Hf1 Ga1 Pd24'
_cell_volume   570.87576040
_cell_formula_units_Z   1
loop_
 _symmetry_equiv_pos_site_id
 _symmetry_equiv_pos_as_xyz
  1  'x, y, z'
loop_
 _atom_site_type_symbol
 _atom_site_label
 _atom_site_symmetry_multiplicity
 _atom_site_fract_x
 _atom_site_fract_y
 _atom_site_fract_z
 _atom_site_occupancy
  Er  Er0  1  0.252155  0.747988  0.252012  1
  Er  Er1  1  0.747988  0.252155  0.252012  1
  Er  Er2  1  0.747988  0.747988  0.747845  1
  Er  Er3  1  0.747523  0.747523  0.252477  1
  Er  Er4  1  0.748053  0.252399  0.747601  1
  Er  Er5  1  0.252399  0.748053  0.747601  1
  Er  Er6  1  0.252399  0.252399  0.251947  1
  Hf  Hf7  1  0.254289  0.254289  0.745711  1
  Ga  Ga8  1  0.998572  0.998572  0.001428  1
  Pd  Pd9  1  0.495222  0.495222  0.746892  1
  Pd  Pd10  1  0.495222  0.253108  0.504778  1
  Pd  Pd11  1  0.253108  0.495222  0.504778  1
  Pd  Pd12  1  0.499064  0.499064  0.252777  1
  Pd  Pd13  1  0.499064  0.747223  0.500936  1
  Pd  Pd14  1  0.747223  0.499064  0.500936  1
  Pd  Pd15  1  0.004581  0.004581  0.711128  1
  Pd  Pd16  1  0.004581  0.288872  0.995419  1
  Pd  Pd17  1  0.288872  0.004581  0.995419  1
  Pd  Pd18  1  0.000331  0.000331  0.291987  1
  Pd  Pd19  1  0.000331  0.708013  0.999669  1
  Pd  Pd20  1  0.708013  0.000331  0.999669  1
  Pd  Pd21  1  0.006080  0.496040  0.740225  1
  Pd  Pd22  1  0.496040  0.259775  0.993920  1
  Pd  Pd23  1  0.259775  0.006080  0.503960  1
  Pd  Pd24  1  0.006080  0.259775  0.503960  1
  Pd  Pd25  1  0.496040  0.006080  0.740225  1
  Pd  Pd26  1  0.259775  0.496040  0.993920  1
  Pd  Pd27  1  0.000729  0.498689  0.259803  1
  Pd  Pd28  1  0.498689  0.740197  0.999271  1
  Pd  Pd29  1  0.000729  0.740197  0.501311  1
  Pd  Pd30  1  0.498689  0.000729  0.259803  1
  Pd  Pd31  1  0.740197  0.000729  0.501311  1
  Pd  Pd32  1  0.740197  0.498689  0.999271  1
