# generated using pymatgen
data_Y8InGaPd23
_symmetry_space_group_name_H-M   'P 1'
_cell_length_a   8.47557900
_cell_length_b   8.49245100
_cell_length_c   8.25457800
_cell_angle_alpha   90.00000000
_cell_angle_beta   90.00000000
_cell_angle_gamma   90.00000000
_symmetry_Int_Tables_number   1
_chemical_formula_structural   Y8InGaPd23
_chemical_formula_sum   'Y8 In1 Ga1 Pd23'
_cell_volume   594.15164197
_cell_formula_units_Z   1
loop_
 _symmetry_equiv_pos_site_id
 _symmetry_equiv_pos_as_xyz
  1  'x, y, z'
loop_
 _atom_site_type_symbol
 _atom_site_label
 _atom_site_symmetry_multiplicity
 _atom_site_fract_x
 _atom_site_fract_y
 _atom_site_fract_z
 _atom_site_occupancy
  Y  Y0  1  0.265184  0.240381  0.749422  1
  Y  Y1  1  0.251446  0.746282  0.252015  1
  Y  Y2  1  0.748554  0.253718  0.252015  1
  Y  Y3  1  0.734816  0.759619  0.749422  1
  Y  Y4  1  0.748554  0.746282  0.252015  1
  Y  Y5  1  0.734816  0.240381  0.749422  1
  Y  Y6  1  0.265184  0.759619  0.749422  1
  Y  Y7  1  0.251446  0.253718  0.252015  1
  In  In8  1  0.000000  0.500000  0.732918  1
  Ga  Ga9  1  0.000000  0.000000  0.000673  1
  Pd  Pd10  1  0.500000  0.500000  0.747342  1
  Pd  Pd11  1  0.500000  0.252635  0.496602  1
  Pd  Pd12  1  0.256098  0.500000  0.505166  1
  Pd  Pd13  1  0.500000  0.500000  0.252466  1
  Pd  Pd14  1  0.500000  0.747365  0.496602  1
  Pd  Pd15  1  0.743902  0.500000  0.505166  1
  Pd  Pd16  1  0.000000  0.000000  0.706491  1
  Pd  Pd17  1  0.000000  0.288112  0.991736  1
  Pd  Pd18  1  0.288576  0.000000  0.004629  1
  Pd  Pd19  1  0.000000  0.000000  0.295107  1
  Pd  Pd20  1  0.000000  0.711888  0.991736  1
  Pd  Pd21  1  0.711424  0.000000  0.004629  1
  Pd  Pd22  1  0.500000  0.258014  0.003750  1
  Pd  Pd23  1  0.260927  0.000000  0.497170  1
  Pd  Pd24  1  0.000000  0.258515  0.505834  1
  Pd  Pd25  1  0.500000  0.000000  0.740652  1
  Pd  Pd26  1  0.260013  0.500000  0.995202  1
  Pd  Pd27  1  0.000000  0.500000  0.258270  1
  Pd  Pd28  1  0.500000  0.741986  0.003750  1
  Pd  Pd29  1  0.000000  0.741485  0.505834  1
  Pd  Pd30  1  0.500000  0.000000  0.260147  1
  Pd  Pd31  1  0.739073  0.000000  0.497170  1
  Pd  Pd32  1  0.739987  0.500000  0.995202  1
