# generated using pymatgen
data_Er3MnGaCo9B4
_symmetry_space_group_name_H-M   'P 1'
_cell_length_a   5.09113900
_cell_length_b   5.09113950
_cell_length_c   9.61469000
_cell_angle_alpha   90.00000000
_cell_angle_beta   90.00000000
_cell_angle_gamma   120.00000323
_symmetry_Int_Tables_number   1
_chemical_formula_structural   Er3MnGaCo9B4
_chemical_formula_sum   'Er3 Mn1 Ga1 Co9 B4'
_cell_volume   215.82207091
_cell_formula_units_Z   1
loop_
 _symmetry_equiv_pos_site_id
 _symmetry_equiv_pos_as_xyz
  1  'x, y, z'
loop_
 _atom_site_type_symbol
 _atom_site_label
 _atom_site_symmetry_multiplicity
 _atom_site_fract_x
 _atom_site_fract_y
 _atom_site_fract_z
 _atom_site_occupancy
  Er  Er0  1  0.000000  0.000000  0.000000  1
  Er  Er1  1  0.000000  0.000000  0.659488  1
  Er  Er2  1  0.000000  0.000000  0.340512  1
  Mn  Mn3  1  0.666667  0.333333  0.000000  1
  Ga  Ga4  1  0.333333  0.666667  0.000000  1
  Co  Co5  1  0.500149  0.499851  0.500000  1
  Co  Co6  1  0.500149  0.000297  0.500000  1
  Co  Co7  1  0.999703  0.499851  0.500000  1
  Co  Co8  1  0.500610  0.499390  0.792736  1
  Co  Co9  1  0.500610  0.001219  0.792736  1
  Co  Co10  1  0.998781  0.499390  0.792736  1
  Co  Co11  1  0.500610  0.499390  0.207264  1
  Co  Co12  1  0.500610  0.001219  0.207264  1
  Co  Co13  1  0.998781  0.499390  0.207264  1
  B  B14  1  0.666667  0.333333  0.650158  1
  B  B15  1  0.333333  0.666667  0.649861  1
  B  B16  1  0.333333  0.666667  0.350139  1
  B  B17  1  0.666667  0.333333  0.349842  1
