# generated using pymatgen
data_SrLa3Ti8O20
_symmetry_space_group_name_H-M   'P 1'
_cell_length_a   5.88484200
_cell_length_b   7.93081722
_cell_length_c   8.82535312
_cell_angle_alpha   89.85542176
_cell_angle_beta   90.00000000
_cell_angle_gamma   90.00000000
_symmetry_Int_Tables_number   1
_chemical_formula_structural   SrLa3Ti8O20
_chemical_formula_sum   'Sr1 La3 Ti8 O20'
_cell_volume   411.89209504
_cell_formula_units_Z   1
loop_
 _symmetry_equiv_pos_site_id
 _symmetry_equiv_pos_as_xyz
  1  'x, y, z'
loop_
 _atom_site_type_symbol
 _atom_site_label
 _atom_site_symmetry_multiplicity
 _atom_site_fract_x
 _atom_site_fract_y
 _atom_site_fract_z
 _atom_site_occupancy
  Sr  Sr0  1  0.000000  0.352600  0.671119  1
  La  La1  1  0.000000  0.643304  0.330307  1
  La  La2  1  0.000000  0.853434  0.827758  1
  La  La3  1  0.000000  0.146703  0.171481  1
  Ti  Ti4  1  0.500000  0.113756  0.858187  1
  Ti  Ti5  1  0.500000  0.882866  0.141641  1
  Ti  Ti6  1  0.500000  0.617522  0.639766  1
  Ti  Ti7  1  0.500000  0.387396  0.361067  1
  Ti  Ti8  1  0.254487  0.500070  0.997708  1
  Ti  Ti9  1  0.745407  0.000502  0.500097  1
  Ti  Ti10  1  0.745513  0.500070  0.997708  1
  Ti  Ti11  1  0.254593  0.000502  0.500097  1
  O  O12  1  0.260282  0.901206  0.290011  1
  O  O13  1  0.263091  0.087716  0.710924  1
  O  O14  1  0.739141  0.402999  0.210194  1
  O  O15  1  0.736107  0.604699  0.793051  1
  O  O16  1  0.736909  0.087716  0.710924  1
  O  O17  1  0.739718  0.901206  0.290011  1
  O  O18  1  0.263893  0.604699  0.793051  1
  O  O19  1  0.260859  0.402999  0.210194  1
  O  O20  1  0.500000  0.333295  0.920421  1
  O  O21  1  0.500000  0.665905  0.078110  1
  O  O22  1  0.500000  0.832098  0.571351  1
  O  O23  1  0.500000  0.168987  0.425905  1
  O  O24  1  0.284067  0.999950  0.001521  1
  O  O25  1  0.713844  0.506107  0.496957  1
  O  O26  1  0.715933  0.999950  0.001521  1
  O  O27  1  0.286156  0.506107  0.496957  1
  O  O28  1  0.000000  0.152715  0.443659  1
  O  O29  1  0.000000  0.841846  0.551178  1
  O  O30  1  0.000000  0.657665  0.052023  1
  O  O31  1  0.000000  0.343411  0.955101  1
