# generated using pymatgen
data_Tm4Zr5NbSi8
_symmetry_space_group_name_H-M   'P 1'
_cell_length_a   7.25479830
_cell_length_b   7.04551114
_cell_length_c   7.23621642
_cell_angle_alpha   72.05358797
_cell_angle_beta   89.97116354
_cell_angle_gamma   89.94336711
_symmetry_Int_Tables_number   1
_chemical_formula_structural   Tm4Zr5NbSi8
_chemical_formula_sum   'Tm4 Zr5 Nb1 Si8'
_cell_volume   351.87407345
_cell_formula_units_Z   1
loop_
 _symmetry_equiv_pos_site_id
 _symmetry_equiv_pos_as_xyz
  1  'x, y, z'
loop_
 _atom_site_type_symbol
 _atom_site_label
 _atom_site_symmetry_multiplicity
 _atom_site_fract_x
 _atom_site_fract_y
 _atom_site_fract_z
 _atom_site_occupancy
  Tm  Tm0  1  0.325226  0.572338  0.807049  1
  Tm  Tm1  1  0.828144  0.925047  0.193673  1
  Tm  Tm2  1  0.674774  0.427662  0.192951  1
  Tm  Tm3  1  0.171856  0.074953  0.806327  1
  Zr  Zr4  1  0.500000  0.000000  0.500000  1
  Zr  Zr5  1  0.820817  0.748203  0.748808  1
  Zr  Zr6  1  0.317600  0.748093  0.253290  1
  Zr  Zr7  1  0.179183  0.251797  0.251192  1
  Zr  Zr8  1  0.682400  0.251907  0.746710  1
  Nb  Nb9  1  0.000000  0.500000  0.500000  1
  Si  Si10  1  0.529785  0.869583  0.918704  1
  Si  Si11  1  0.028922  0.628491  0.085454  1
  Si  Si12  1  0.470215  0.130417  0.081296  1
  Si  Si13  1  0.971078  0.371509  0.914546  1
  Si  Si14  1  0.120660  0.868805  0.509449  1
  Si  Si15  1  0.625838  0.627192  0.489963  1
  Si  Si16  1  0.879340  0.131195  0.490551  1
  Si  Si17  1  0.374162  0.372808  0.510037  1
