# generated using pymatgen
data_Sc2Ta2Sb4IrRh3
_symmetry_space_group_name_H-M   'P 1'
_cell_length_a   6.26012424
_cell_length_b   4.42281100
_cell_length_c   8.87231915
_cell_angle_alpha   90.00000000
_cell_angle_beta   89.90325996
_cell_angle_gamma   90.00000000
_symmetry_Int_Tables_number   1
_chemical_formula_structural   Sc2Ta2Sb4IrRh3
_chemical_formula_sum   'Sc2 Ta2 Sb4 Ir1 Rh3'
_cell_volume   245.65062305
_cell_formula_units_Z   1
loop_
 _symmetry_equiv_pos_site_id
 _symmetry_equiv_pos_as_xyz
  1  'x, y, z'
loop_
 _atom_site_type_symbol
 _atom_site_label
 _atom_site_symmetry_multiplicity
 _atom_site_fract_x
 _atom_site_fract_y
 _atom_site_fract_z
 _atom_site_occupancy
  Sc  Sc0  1  0.006245  0.000000  0.376803  1
  Sc  Sc1  1  0.506946  0.500001  0.623311  1
  Ta  Ta2  1  0.495572  0.500001  0.123894  1
  Ta  Ta3  1  0.994189  0.000000  0.875866  1
  Sb  Sb4  1  0.993008  0.500001  0.130245  1
  Sb  Sb5  1  0.508155  0.000000  0.379487  1
  Sb  Sb6  1  0.009603  0.500001  0.622457  1
  Sb  Sb7  1  0.487285  0.000000  0.868240  1
  Ir  Ir8  1  0.736059  0.000000  0.112798  1
  Rh  Rh9  1  0.263953  0.500001  0.361916  1
  Rh  Rh10  1  0.763135  0.000000  0.638322  1
  Rh  Rh11  1  0.235853  0.500001  0.886656  1
