# generated using pymatgen
data_Tb12Co6Sb
_symmetry_space_group_name_H-M   'P 1'
_cell_length_a   8.38784068
_cell_length_b   8.38784051
_cell_length_c   8.38784100
_cell_angle_alpha   109.47122181
_cell_angle_beta   109.47122140
_cell_angle_gamma   109.47122028
_symmetry_Int_Tables_number   1
_chemical_formula_structural   Tb12Co6Sb
_chemical_formula_sum   'Tb12 Co6 Sb1'
_cell_volume   454.28524095
_cell_formula_units_Z   1
loop_
 _symmetry_equiv_pos_site_id
 _symmetry_equiv_pos_as_xyz
  1  'x, y, z'
loop_
 _atom_site_type_symbol
 _atom_site_label
 _atom_site_symmetry_multiplicity
 _atom_site_fract_x
 _atom_site_fract_y
 _atom_site_fract_z
 _atom_site_occupancy
  Tb  Tb0  1  0.804935  0.695568  0.500504  1
  Tb  Tb1  1  0.195065  0.304432  0.499496  1
  Tb  Tb2  1  0.195065  0.695568  0.890633  1
  Tb  Tb3  1  0.804935  0.304432  0.109367  1
  Tb  Tb4  1  0.695568  0.500504  0.804935  1
  Tb  Tb5  1  0.304432  0.499496  0.195065  1
  Tb  Tb6  1  0.695568  0.890633  0.195065  1
  Tb  Tb7  1  0.304432  0.109367  0.804935  1
  Tb  Tb8  1  0.500504  0.804935  0.695568  1
  Tb  Tb9  1  0.499496  0.195065  0.304432  1
  Tb  Tb10  1  0.109367  0.804935  0.304432  1
  Tb  Tb11  1  0.890633  0.195065  0.695568  1
  Co  Co12  1  0.886867  0.386867  0.500000  1
  Co  Co13  1  0.113133  0.613133  0.500000  1
  Co  Co14  1  0.386867  0.500000  0.886867  1
  Co  Co15  1  0.613133  0.500000  0.113133  1
  Co  Co16  1  0.500000  0.886867  0.386867  1
  Co  Co17  1  0.500000  0.113133  0.613133  1
  Sb  Sb18  1  0.000000  0.000000  0.000000  1
