# generated using pymatgen
data_Sr4Tb5Dy3Se16
_symmetry_space_group_name_H-M   'P 1'
_cell_length_a   4.16148200
_cell_length_b   12.66424302
_cell_length_c   15.05067103
_cell_angle_alpha   90.00674507
_cell_angle_beta   90.00000000
_cell_angle_gamma   90.00000000
_symmetry_Int_Tables_number   1
_chemical_formula_structural   Sr4Tb5Dy3Se16
_chemical_formula_sum   'Sr4 Tb5 Dy3 Se16'
_cell_volume   793.20075059
_cell_formula_units_Z   1
loop_
 _symmetry_equiv_pos_site_id
 _symmetry_equiv_pos_as_xyz
  1  'x, y, z'
loop_
 _atom_site_type_symbol
 _atom_site_label
 _atom_site_symmetry_multiplicity
 _atom_site_fract_x
 _atom_site_fract_y
 _atom_site_fract_z
 _atom_site_occupancy
  Sr  Sr0  1  0.250000  0.758589  0.664419  1
  Sr  Sr1  1  0.750000  0.741471  0.164458  1
  Sr  Sr2  1  0.250000  0.258554  0.835503  1
  Sr  Sr3  1  0.750000  0.241370  0.335639  1
  Tb  Tb4  1  0.250000  0.433604  0.609890  1
  Tb  Tb5  1  0.750000  0.066281  0.109899  1
  Tb  Tb6  1  0.250000  0.933600  0.890106  1
  Tb  Tb7  1  0.750000  0.566470  0.390219  1
  Tb  Tb8  1  0.250000  0.419706  0.098851  1
  Dy  Dy9  1  0.750000  0.080154  0.598892  1
  Dy  Dy10  1  0.250000  0.919832  0.401112  1
  Dy  Dy11  1  0.750000  0.580249  0.901011  1
  Se  Se12  1  0.250000  0.411874  0.421051  1
  Se  Se13  1  0.750000  0.088105  0.921034  1
  Se  Se14  1  0.250000  0.911907  0.078973  1
  Se  Se15  1  0.750000  0.588090  0.579010  1
  Se  Se16  1  0.250000  0.024443  0.715682  1
  Se  Se17  1  0.750000  0.475878  0.216302  1
  Se  Se18  1  0.250000  0.524464  0.784324  1
  Se  Se19  1  0.750000  0.975523  0.284334  1
  Se  Se20  1  0.250000  0.130943  0.472318  1
  Se  Se21  1  0.750000  0.368857  0.971646  1
  Se  Se22  1  0.250000  0.631504  0.027425  1
  Se  Se23  1  0.750000  0.869053  0.527685  1
  Se  Se24  1  0.250000  0.207550  0.174554  1
  Se  Se25  1  0.750000  0.291915  0.674311  1
  Se  Se26  1  0.250000  0.708105  0.325685  1
  Se  Se27  1  0.750000  0.791908  0.825665  1
