# generated using pymatgen
data_Cd3Bi(Os2O7)2
_symmetry_space_group_name_H-M   'P 1'
_cell_length_a   7.33154278
_cell_length_b   7.33154379
_cell_length_c   7.33154395
_cell_angle_alpha   59.53886356
_cell_angle_beta   59.53885556
_cell_angle_gamma   59.53886231
_symmetry_Int_Tables_number   1
_chemical_formula_structural   Cd3Bi(Os2O7)2
_chemical_formula_sum   'Cd3 Bi1 Os4 O14'
_cell_volume   275.73608159
_cell_formula_units_Z   1
loop_
 _symmetry_equiv_pos_site_id
 _symmetry_equiv_pos_as_xyz
  1  'x, y, z'
loop_
 _atom_site_type_symbol
 _atom_site_label
 _atom_site_symmetry_multiplicity
 _atom_site_fract_x
 _atom_site_fract_y
 _atom_site_fract_z
 _atom_site_occupancy
  Cd  Cd0  1  0.125000  0.625000  0.125000  1
  Cd  Cd1  1  0.125000  0.125000  0.625000  1
  Cd  Cd2  1  0.625000  0.125000  0.125000  1
  Bi  Bi3  1  0.125000  0.125000  0.125000  1
  Os  Os4  1  0.625000  0.625000  0.125000  1
  Os  Os5  1  0.625000  0.125000  0.625000  1
  Os  Os6  1  0.625000  0.625000  0.625000  1
  Os  Os7  1  0.125000  0.625000  0.625000  1
  O  O8  1  0.306750  0.691226  0.691226  1
  O  O9  1  0.301114  0.708952  0.301114  1
  O  O10  1  0.558774  0.943250  0.558774  1
  O  O11  1  0.301114  0.301114  0.708952  1
  O  O12  1  0.254863  0.254863  0.254863  1
  O  O13  1  0.691226  0.691226  0.306750  1
  O  O14  1  0.948886  0.948886  0.541048  1
  O  O15  1  0.708952  0.301114  0.301114  1
  O  O16  1  0.943250  0.558774  0.558774  1
  O  O17  1  0.995137  0.995137  0.995137  1
  O  O18  1  0.541048  0.948886  0.948886  1
  O  O19  1  0.948886  0.541048  0.948886  1
  O  O20  1  0.691226  0.306750  0.691226  1
  O  O21  1  0.558774  0.558774  0.943250  1
