# generated using pymatgen
data_LuScU2As6Ru7
_symmetry_space_group_name_H-M   'P 1'
_cell_length_a   7.19392813
_cell_length_b   7.15422332
_cell_length_c   7.15455228
_cell_angle_alpha   109.50964107
_cell_angle_beta   109.34175920
_cell_angle_gamma   109.33990491
_symmetry_Int_Tables_number   1
_chemical_formula_structural   LuScU2As6Ru7
_chemical_formula_sum   'Lu1 Sc1 U2 As6 Ru7'
_cell_volume   284.23286875
_cell_formula_units_Z   1
loop_
 _symmetry_equiv_pos_site_id
 _symmetry_equiv_pos_as_xyz
  1  'x, y, z'
loop_
 _atom_site_type_symbol
 _atom_site_label
 _atom_site_symmetry_multiplicity
 _atom_site_fract_x
 _atom_site_fract_y
 _atom_site_fract_z
 _atom_site_occupancy
  Lu  Lu0  1  0.000000  0.500000  0.000000  1
  Sc  Sc1  1  0.000000  0.000000  0.500000  1
  U  U2  1  0.500000  0.000000  0.000000  1
  U  U3  1  0.500000  0.500000  0.500000  1
  As  As4  1  0.305552  0.995252  0.313447  1
  As  As5  1  0.000000  0.309770  0.312703  1
  As  As6  1  0.000000  0.690230  0.687297  1
  As  As7  1  0.305552  0.310300  0.992104  1
  As  As8  1  0.694448  0.689700  0.007896  1
  As  As9  1  0.694448  0.004748  0.686553  1
  Ru  Ru10  1  0.748142  0.500183  0.253033  1
  Ru  Ru11  1  0.504537  0.752268  0.252268  1
  Ru  Ru12  1  0.495463  0.247732  0.747732  1
  Ru  Ru13  1  0.748142  0.247959  0.495109  1
  Ru  Ru14  1  0.251858  0.752041  0.504891  1
  Ru  Ru15  1  0.251858  0.499817  0.746967  1
  Ru  Ru16  1  0.000000  0.000000  0.000000  1
