# generated using pymatgen
data_Sm2Ga5PdRh2
_symmetry_space_group_name_H-M   'P 1'
_cell_length_a   8.66549767
_cell_length_b   8.66549807
_cell_length_c   5.76423786
_cell_angle_alpha   70.51924997
_cell_angle_beta   70.51924898
_cell_angle_gamma   95.69034474
_symmetry_Int_Tables_number   1
_chemical_formula_structural   Sm2Ga5PdRh2
_chemical_formula_sum   'Sm4 Ga10 Pd2 Rh4'
_cell_volume   373.77138560
_cell_formula_units_Z   2
loop_
 _symmetry_equiv_pos_site_id
 _symmetry_equiv_pos_as_xyz
  1  'x, y, z'
loop_
 _atom_site_type_symbol
 _atom_site_label
 _atom_site_symmetry_multiplicity
 _atom_site_fract_x
 _atom_site_fract_y
 _atom_site_fract_z
 _atom_site_occupancy
  Sm  Sm0  1  0.862722  0.587707  0.775462  1
  Sm  Sm1  1  0.412293  0.137278  0.724538  1
  Sm  Sm2  1  0.132883  0.408969  0.228735  1
  Sm  Sm3  1  0.591031  0.867117  0.271265  1
  Ga  Ga4  1  0.078752  0.258167  0.831220  1
  Ga  Ga5  1  0.741833  0.921248  0.668780  1
  Ga  Ga6  1  0.919115  0.736917  0.173144  1
  Ga  Ga7  1  0.263083  0.080885  0.326856  1
  Ga  Ga8  1  0.203457  0.796543  0.750000  1
  Ga  Ga9  1  0.794067  0.205933  0.250000  1
  Ga  Ga10  1  0.502925  0.497075  0.750000  1
  Ga  Ga11  1  0.501704  0.498296  0.250000  1
  Ga  Ga12  1  0.793094  0.206906  0.750000  1
  Ga  Ga13  1  0.204469  0.795531  0.250000  1
  Pd  Pd14  1  0.259607  0.555003  0.594753  1
  Pd  Pd15  1  0.444997  0.740393  0.905247  1
  Rh  Rh16  1  0.738592  0.444931  0.406148  1
  Rh  Rh17  1  0.555069  0.261408  0.093852  1
  Rh  Rh18  1  0.999727  0.000273  0.750000  1
  Rh  Rh19  1  0.000579  0.999421  0.250000  1
