# generated using pymatgen
data_EuCr4(AuO8)2
_symmetry_space_group_name_H-M   'P 1'
_cell_length_a   6.88772299
_cell_length_b   6.88890218
_cell_length_c   9.34136400
_cell_angle_alpha   74.75633012
_cell_angle_beta   74.69664922
_cell_angle_gamma   89.58758236
_symmetry_Int_Tables_number   1
_chemical_formula_structural   EuCr4(AuO8)2
_chemical_formula_sum   'Eu1 Cr4 Au2 O16'
_cell_volume   411.55670692
_cell_formula_units_Z   1
loop_
 _symmetry_equiv_pos_site_id
 _symmetry_equiv_pos_as_xyz
  1  'x, y, z'
loop_
 _atom_site_type_symbol
 _atom_site_label
 _atom_site_symmetry_multiplicity
 _atom_site_fract_x
 _atom_site_fract_y
 _atom_site_fract_z
 _atom_site_occupancy
  Eu  Eu0  1  0.000000  0.000000  0.000000  1
  Cr  Cr1  1  0.087244  0.592313  0.736786  1
  Cr  Cr2  1  0.592114  0.087221  0.736676  1
  Cr  Cr3  1  0.912756  0.407687  0.263214  1
  Cr  Cr4  1  0.407886  0.912779  0.263324  1
  Au  Au5  1  0.000000  0.000000  0.500000  1
  Au  Au6  1  0.500000  0.500000  0.500000  1
  O  O7  1  0.343688  0.628750  0.663267  1
  O  O8  1  0.628410  0.343612  0.663178  1
  O  O9  1  0.656312  0.371250  0.336733  1
  O  O10  1  0.371590  0.656388  0.336822  1
  O  O11  1  0.021827  0.714238  0.869038  1
  O  O12  1  0.714119  0.022024  0.868854  1
  O  O13  1  0.978173  0.285762  0.130962  1
  O  O14  1  0.285881  0.977976  0.131146  1
  O  O15  1  0.981043  0.696629  0.588493  1
  O  O16  1  0.696498  0.980980  0.588264  1
  O  O17  1  0.018957  0.303371  0.411507  1
  O  O18  1  0.303502  0.019020  0.411736  1
  O  O19  1  0.021859  0.350022  0.803538  1
  O  O20  1  0.349651  0.021823  0.803579  1
  O  O21  1  0.978141  0.649978  0.196462  1
  O  O22  1  0.650349  0.978177  0.196421  1
