# generated using pymatgen
data_VAg3F12
_symmetry_space_group_name_H-M   'P 1'
_cell_length_a   5.46997612
_cell_length_b   5.78354549
_cell_length_c   8.17066508
_cell_angle_alpha   94.42386968
_cell_angle_beta   86.64353604
_cell_angle_gamma   92.17469322
_symmetry_Int_Tables_number   1
_chemical_formula_structural   VAg3F12
_chemical_formula_sum   'V1 Ag3 F12'
_cell_volume   257.12862799
_cell_formula_units_Z   1
loop_
 _symmetry_equiv_pos_site_id
 _symmetry_equiv_pos_as_xyz
  1  'x, y, z'
loop_
 _atom_site_type_symbol
 _atom_site_label
 _atom_site_symmetry_multiplicity
 _atom_site_fract_x
 _atom_site_fract_y
 _atom_site_fract_z
 _atom_site_occupancy
  V  V0  1  0.500000  0.500000  0.000000  1
  Ag  Ag1  1  0.000000  0.000000  0.000000  1
  Ag  Ag2  1  0.500000  0.500000  0.500000  1
  Ag  Ag3  1  0.000000  0.000000  0.500000  1
  F  F4  1  0.935422  0.998368  0.748585  1
  F  F5  1  0.176814  0.340590  0.554276  1
  F  F6  1  0.243819  0.650999  0.929637  1
  F  F7  1  0.346798  0.497043  0.200586  1
  F  F8  1  0.350411  0.218448  0.940596  1
  F  F9  1  0.343108  0.804427  0.530804  1
  F  F10  1  0.656892  0.195573  0.469196  1
  F  F11  1  0.649589  0.781552  0.059404  1
  F  F12  1  0.653202  0.502957  0.799414  1
  F  F13  1  0.756181  0.349001  0.070363  1
  F  F14  1  0.823186  0.659410  0.445724  1
  F  F15  1  0.064578  0.001632  0.251415  1
