# generated using pymatgen
data_Na12VFe3S8(O4F)8
_symmetry_space_group_name_H-M   'P 1'
_cell_length_a   6.73968800
_cell_length_b   8.94933400
_cell_length_c   14.24180400
_cell_angle_alpha   90.00000000
_cell_angle_beta   90.00000000
_cell_angle_gamma   90.00000000
_symmetry_Int_Tables_number   1
_chemical_formula_structural   Na12VFe3S8(O4F)8
_chemical_formula_sum   'Na12 V1 Fe3 S8 O32 F8'
_cell_volume   859.00464766
_cell_formula_units_Z   1
loop_
 _symmetry_equiv_pos_site_id
 _symmetry_equiv_pos_as_xyz
  1  'x, y, z'
loop_
 _atom_site_type_symbol
 _atom_site_label
 _atom_site_symmetry_multiplicity
 _atom_site_fract_x
 _atom_site_fract_y
 _atom_site_fract_z
 _atom_site_occupancy
  Na  Na0  1  0.520772  0.664788  0.904592  1
  Na  Na1  1  0.020702  0.833696  0.595555  1
  Na  Na2  1  0.479298  0.166304  0.595555  1
  Na  Na3  1  0.979228  0.335212  0.904592  1
  Na  Na4  1  0.479502  0.334343  0.095073  1
  Na  Na5  1  0.979451  0.165794  0.404451  1
  Na  Na6  1  0.520549  0.834206  0.404451  1
  Na  Na7  1  0.020498  0.665657  0.095073  1
  Na  Na8  1  0.750000  0.000000  0.048769  1
  Na  Na9  1  0.250000  0.500000  0.451919  1
  Na  Na10  1  0.250000  0.000000  0.951974  1
  Na  Na11  1  0.750000  0.500000  0.548142  1
  V  V12  1  0.750000  0.000000  0.804935  1
  Fe  Fe13  1  0.250000  0.500000  0.694780  1
  Fe  Fe14  1  0.250000  0.000000  0.194171  1
  Fe  Fe15  1  0.750000  0.500000  0.305805  1
  S  S16  1  0.004532  0.691942  0.856563  1
  S  S17  1  0.503630  0.806712  0.643229  1
  S  S18  1  0.996370  0.193288  0.643229  1
  S  S19  1  0.495468  0.308058  0.856563  1
  S  S20  1  0.996365  0.306950  0.143364  1
  S  S21  1  0.496332  0.193008  0.356672  1
  S  S22  1  0.003668  0.806992  0.356672  1
  S  S23  1  0.503635  0.693050  0.143364  1
  O  O24  1  0.445947  0.445159  0.798522  1
  O  O25  1  0.947920  0.056299  0.702199  1
  O  O26  1  0.552080  0.943701  0.702199  1
  O  O27  1  0.054053  0.554841  0.798522  1
  O  O28  1  0.552324  0.556763  0.202167  1
  O  O29  1  0.052205  0.943335  0.297887  1
  O  O30  1  0.447795  0.056665  0.297887  1
  O  O31  1  0.947676  0.443237  0.202167  1
  O  O32  1  0.187069  0.765305  0.888603  1
  O  O33  1  0.686606  0.734397  0.611544  1
  O  O34  1  0.813394  0.265603  0.611544  1
  O  O35  1  0.312931  0.234695  0.888603  1
  O  O36  1  0.813625  0.233973  0.111677  1
  O  O37  1  0.313563  0.265883  0.388376  1
  O  O38  1  0.186437  0.734117  0.388376  1
  O  O39  1  0.686375  0.766027  0.111677  1
  O  O40  1  0.881059  0.640413  0.936012  1
  O  O41  1  0.380129  0.859236  0.564321  1
  O  O42  1  0.119871  0.140764  0.564321  1
  O  O43  1  0.618941  0.359587  0.936012  1
  O  O44  1  0.120178  0.358891  0.064344  1
  O  O45  1  0.620148  0.141064  0.435748  1
  O  O46  1  0.879852  0.858936  0.435748  1
  O  O47  1  0.379822  0.641109  0.064344  1
  O  O48  1  0.383975  0.704730  0.705546  1
  O  O49  1  0.885513  0.792119  0.793426  1
  O  O50  1  0.614487  0.207881  0.793426  1
  O  O51  1  0.116025  0.295270  0.705546  1
  O  O52  1  0.616144  0.295738  0.294580  1
  O  O53  1  0.116142  0.204201  0.205493  1
  O  O54  1  0.383858  0.795799  0.205493  1
  O  O55  1  0.883856  0.704262  0.294580  1
  F  F56  1  0.576636  0.927625  0.904518  1
  F  F57  1  0.076931  0.572384  0.595262  1
  F  F58  1  0.423069  0.427616  0.595262  1
  F  F59  1  0.923364  0.072375  0.904518  1
  F  F60  1  0.423511  0.072404  0.095128  1
  F  F61  1  0.923407  0.427378  0.404899  1
  F  F62  1  0.576593  0.572622  0.404899  1
  F  F63  1  0.076489  0.927596  0.095128  1
