# generated using pymatgen
data_Ac(SnIr)2
_symmetry_space_group_name_H-M   'P 1'
_cell_length_a   4.55388900
_cell_length_b   4.55388900
_cell_length_c   11.12489500
_cell_angle_alpha   90.00000000
_cell_angle_beta   90.00000000
_cell_angle_gamma   90.00000000
_symmetry_Int_Tables_number   1
_chemical_formula_structural   Ac(SnIr)2
_chemical_formula_sum   'Ac2 Sn4 Ir4'
_cell_volume   230.70701592
_cell_formula_units_Z   2
loop_
 _symmetry_equiv_pos_site_id
 _symmetry_equiv_pos_as_xyz
  1  'x, y, z'
loop_
 _atom_site_type_symbol
 _atom_site_label
 _atom_site_symmetry_multiplicity
 _atom_site_fract_x
 _atom_site_fract_y
 _atom_site_fract_z
 _atom_site_occupancy
  Ac  Ac0  1  0.000000  0.500000  0.751789  1
  Ac  Ac1  1  0.500000  0.000000  0.248211  1
  Sn  Sn2  1  0.000000  0.500000  0.127628  1
  Sn  Sn3  1  0.000000  0.000000  0.500000  1
  Sn  Sn4  1  0.500000  0.000000  0.872372  1
  Sn  Sn5  1  0.500000  0.500000  0.500000  1
  Ir  Ir6  1  0.000000  0.500000  0.365971  1
  Ir  Ir7  1  0.000000  0.000000  0.000000  1
  Ir  Ir8  1  0.500000  0.000000  0.634029  1
  Ir  Ir9  1  0.500000  0.500000  0.000000  1
