# generated using pymatgen
data_La2Dy3Si4
_symmetry_space_group_name_H-M   'P 1'
_cell_length_a   7.82409037
_cell_length_b   7.82487700
_cell_length_c   14.48494200
_cell_angle_alpha   90.00000000
_cell_angle_beta   89.98227835
_cell_angle_gamma   90.00000000
_symmetry_Int_Tables_number   1
_chemical_formula_structural   La2Dy3Si4
_chemical_formula_sum   'La8 Dy12 Si16'
_cell_volume   886.80496832
_cell_formula_units_Z   4
loop_
 _symmetry_equiv_pos_site_id
 _symmetry_equiv_pos_as_xyz
  1  'x, y, z'
loop_
 _atom_site_type_symbol
 _atom_site_label
 _atom_site_symmetry_multiplicity
 _atom_site_fract_x
 _atom_site_fract_y
 _atom_site_fract_z
 _atom_site_occupancy
  La  La0  1  0.991719  0.642815  0.042280  1
  La  La1  1  0.008265  0.357200  0.541256  1
  La  La2  1  0.642885  0.991372  0.958292  1
  La  La3  1  0.142702  0.507807  0.792105  1
  La  La4  1  0.857115  0.491372  0.291708  1
  La  La5  1  0.508281  0.142815  0.207720  1
  La  La6  1  0.491735  0.857200  0.708744  1
  La  La7  1  0.357298  0.007807  0.457895  1
  Dy  Dy8  1  0.360857  0.492123  0.374495  1
  Dy  Dy9  1  0.860900  0.007607  0.374640  1
  Dy  Dy10  1  0.992376  0.139175  0.125033  1
  Dy  Dy11  1  0.007953  0.860802  0.624843  1
  Dy  Dy12  1  0.639100  0.507607  0.875360  1
  Dy  Dy13  1  0.492047  0.360802  0.625157  1
  Dy  Dy14  1  0.507624  0.639175  0.124967  1
  Dy  Dy15  1  0.139143  0.992123  0.875505  1
  Dy  Dy16  1  0.682046  0.682980  0.500077  1
  Dy  Dy17  1  0.817954  0.182980  0.749923  1
  Dy  Dy18  1  0.182566  0.817960  0.249889  1
  Dy  Dy19  1  0.317434  0.317960  0.000111  1
  Si  Si20  1  0.065131  0.710857  0.437510  1
  Si  Si21  1  0.935709  0.289401  0.938395  1
  Si  Si22  1  0.710908  0.064931  0.561678  1
  Si  Si23  1  0.210572  0.435490  0.187640  1
  Si  Si24  1  0.789092  0.564931  0.688322  1
  Si  Si25  1  0.434869  0.210858  0.812490  1
  Si  Si26  1  0.564291  0.789401  0.311605  1
  Si  Si27  1  0.289429  0.935490  0.062360  1
  Si  Si28  1  0.847767  0.795670  0.808866  1
  Si  Si29  1  0.152973  0.203632  0.308235  1
  Si  Si30  1  0.795870  0.847464  0.191192  1
  Si  Si31  1  0.296175  0.652712  0.558284  1
  Si  Si32  1  0.704130  0.347464  0.058808  1
  Si  Si33  1  0.652233  0.295670  0.441134  1
  Si  Si34  1  0.347027  0.703632  0.941765  1
  Si  Si35  1  0.203825  0.152712  0.691716  1
