# generated using pymatgen
data_YbPr(Al5Cu6)2
_symmetry_space_group_name_H-M   'P 1'
_cell_length_a   10.35621681
_cell_length_b   8.19663614
_cell_length_c   7.86306800
_cell_angle_alpha   80.28064051
_cell_angle_beta   51.27062769
_cell_angle_gamma   48.44873897
_symmetry_Int_Tables_number   1
_chemical_formula_structural   YbPr(Al5Cu6)2
_chemical_formula_sum   'Yb1 Pr1 Al10 Cu12'
_cell_volume   353.33678325
_cell_formula_units_Z   1
loop_
 _symmetry_equiv_pos_site_id
 _symmetry_equiv_pos_as_xyz
  1  'x, y, z'
loop_
 _atom_site_type_symbol
 _atom_site_label
 _atom_site_symmetry_multiplicity
 _atom_site_fract_x
 _atom_site_fract_y
 _atom_site_fract_z
 _atom_site_occupancy
  Yb  Yb0  1  0.250000  0.250000  0.250000  1
  Pr  Pr1  1  0.000000  0.000000  0.000000  1
  Al  Al2  1  0.500000  0.500000  0.500000  1
  Al  Al3  1  0.750000  0.750000  0.750000  1
  Al  Al4  1  0.754841  0.071105  0.833921  1
  Al  Al5  1  0.833921  0.340133  0.754841  1
  Al  Al6  1  0.071105  0.754841  0.340133  1
  Al  Al7  1  0.340133  0.833921  0.071105  1
  Al  Al8  1  0.492380  0.180752  0.417295  1
  Al  Al9  1  0.417295  0.909573  0.492380  1
  Al  Al10  1  0.180752  0.492380  0.909573  1
  Al  Al11  1  0.909573  0.417295  0.180752  1
  Cu  Cu12  1  0.626648  0.122432  0.623864  1
  Cu  Cu13  1  0.623864  0.627057  0.626648  1
  Cu  Cu14  1  0.122432  0.626648  0.627057  1
  Cu  Cu15  1  0.627057  0.623864  0.122432  1
  Cu  Cu16  1  0.487598  0.437944  0.184755  1
  Cu  Cu17  1  0.184755  0.889702  0.487598  1
  Cu  Cu18  1  0.437944  0.487598  0.889702  1
  Cu  Cu19  1  0.889702  0.184755  0.437944  1
  Cu  Cu20  1  0.756928  0.816156  0.067945  1
  Cu  Cu21  1  0.067945  0.358972  0.756928  1
  Cu  Cu22  1  0.816156  0.756928  0.358972  1
  Cu  Cu23  1  0.358972  0.067945  0.816156  1
