# generated using pymatgen
data_DyHf(ZrPt6)2
_symmetry_space_group_name_H-M   'P 1'
_cell_length_a   5.75854100
_cell_length_b   5.75854056
_cell_length_c   9.38039700
_cell_angle_alpha   90.00000000
_cell_angle_beta   90.00000000
_cell_angle_gamma   120.00000826
_symmetry_Int_Tables_number   1
_chemical_formula_structural   DyHf(ZrPt6)2
_chemical_formula_sum   'Dy1 Hf1 Zr2 Pt12'
_cell_volume   269.38704613
_cell_formula_units_Z   1
loop_
 _symmetry_equiv_pos_site_id
 _symmetry_equiv_pos_as_xyz
  1  'x, y, z'
loop_
 _atom_site_type_symbol
 _atom_site_label
 _atom_site_symmetry_multiplicity
 _atom_site_fract_x
 _atom_site_fract_y
 _atom_site_fract_z
 _atom_site_occupancy
  Dy  Dy0  1  0.666667  0.333333  0.750000  1
  Hf  Hf1  1  0.333333  0.666667  0.250000  1
  Zr  Zr2  1  0.000000  0.000000  0.502268  1
  Zr  Zr3  1  0.000000  0.000000  0.997732  1
  Pt  Pt4  1  0.170781  0.341561  0.750000  1
  Pt  Pt5  1  0.004207  0.502104  0.005398  1
  Pt  Pt6  1  0.830828  0.661658  0.250000  1
  Pt  Pt7  1  0.338342  0.169172  0.250000  1
  Pt  Pt8  1  0.497896  0.502104  0.005398  1
  Pt  Pt9  1  0.830828  0.169172  0.250000  1
  Pt  Pt10  1  0.497896  0.502104  0.494602  1
  Pt  Pt11  1  0.497896  0.995793  0.494602  1
  Pt  Pt12  1  0.170781  0.829219  0.750000  1
  Pt  Pt13  1  0.658439  0.829219  0.750000  1
  Pt  Pt14  1  0.497896  0.995793  0.005398  1
  Pt  Pt15  1  0.004207  0.502104  0.494602  1
