# generated using pymatgen
data_Y3Mg2InSi2Pd
_symmetry_space_group_name_H-M   'P 1'
_cell_length_a   7.21975301
_cell_length_b   7.21975376
_cell_length_c   4.30922600
_cell_angle_alpha   90.00000000
_cell_angle_beta   90.00000000
_cell_angle_gamma   119.54460538
_symmetry_Int_Tables_number   1
_chemical_formula_structural   Y3Mg2InSi2Pd
_chemical_formula_sum   'Y3 Mg2 In1 Si2 Pd1'
_cell_volume   195.41113621
_cell_formula_units_Z   1
loop_
 _symmetry_equiv_pos_site_id
 _symmetry_equiv_pos_as_xyz
  1  'x, y, z'
loop_
 _atom_site_type_symbol
 _atom_site_label
 _atom_site_symmetry_multiplicity
 _atom_site_fract_x
 _atom_site_fract_y
 _atom_site_fract_z
 _atom_site_occupancy
  Y  Y0  1  0.414834  0.414834  0.500000  1
  Y  Y1  1  0.001085  0.582980  0.500000  1
  Y  Y2  1  0.582980  0.001085  0.500000  1
  Mg  Mg3  1  0.243034  0.000698  0.000000  1
  Mg  Mg4  1  0.000698  0.243034  0.000000  1
  In  In5  1  0.754500  0.754500  0.000000  1
  Si  Si6  1  0.665955  0.331566  0.000000  1
  Si  Si7  1  0.331566  0.665955  0.000000  1
  Pd  Pd8  1  0.005348  0.005348  0.500000  1
