# generated using pymatgen
data_Ti6N5
_symmetry_space_group_name_H-M   'P 1'
_cell_length_a   5.19830473
_cell_length_b   5.19830482
_cell_length_c   5.20993498
_cell_angle_alpha   99.63836553
_cell_angle_beta   99.63836442
_cell_angle_gamma   119.85381923
_symmetry_Int_Tables_number   1
_chemical_formula_structural   Ti6N5
_chemical_formula_sum   'Ti6 N5'
_cell_volume   115.08526005
_cell_formula_units_Z   1
loop_
 _symmetry_equiv_pos_site_id
 _symmetry_equiv_pos_as_xyz
  1  'x, y, z'
loop_
 _atom_site_type_symbol
 _atom_site_label
 _atom_site_symmetry_multiplicity
 _atom_site_fract_x
 _atom_site_fract_y
 _atom_site_fract_z
 _atom_site_occupancy
  Ti  Ti0  1  0.434738  0.084626  0.253510  1
  Ti  Ti1  1  0.084626  0.434738  0.253510  1
  Ti  Ti2  1  0.737243  0.737243  0.262852  1
  Ti  Ti3  1  0.262758  0.262758  0.737149  1
  Ti  Ti4  1  0.915375  0.565263  0.746489  1
  Ti  Ti5  1  0.565263  0.915375  0.746489  1
  N  N6  1  0.665880  0.334119  0.000000  1
  N  N7  1  0.334119  0.665880  0.000000  1
  N  N8  1  0.834513  0.165488  0.500000  1
  N  N9  1  0.500000  0.500000  0.500000  1
  N  N10  1  0.165488  0.834513  0.500000  1
