# generated using pymatgen
data_Li27Mg2Si8Ag
_symmetry_space_group_name_H-M   'P 1'
_cell_length_a   9.21579047
_cell_length_b   9.19893785
_cell_length_c   9.20821086
_cell_angle_alpha   109.30042047
_cell_angle_beta   109.40561054
_cell_angle_gamma   109.65292482
_symmetry_Int_Tables_number   1
_chemical_formula_structural   Li27Mg2Si8Ag
_chemical_formula_sum   'Li27 Mg2 Si8 Ag1'
_cell_volume   601.33053272
_cell_formula_units_Z   1
loop_
 _symmetry_equiv_pos_site_id
 _symmetry_equiv_pos_as_xyz
  1  'x, y, z'
loop_
 _atom_site_type_symbol
 _atom_site_label
 _atom_site_symmetry_multiplicity
 _atom_site_fract_x
 _atom_site_fract_y
 _atom_site_fract_z
 _atom_site_occupancy
  Li  Li0  1  0.259931  0.785719  0.717687  1
  Li  Li1  1  0.184635  0.961026  0.973821  1
  Li  Li2  1  0.987414  0.211730  0.026543  1
  Li  Li3  1  0.039207  0.012735  0.223412  1
  Li  Li4  1  0.789396  0.815400  0.776555  1
  Li  Li5  1  0.456043  0.735593  0.525066  1
  Li  Li6  1  0.211895  0.930976  0.472982  1
  Li  Li7  1  0.718312  0.345936  0.061296  1
  Li  Li8  1  0.965112  0.404465  0.874136  1
  Li  Li9  1  0.285336  0.657548  0.938208  1
  Li  Li10  1  0.531148  0.093177  0.128183  1
  Li  Li11  1  0.691165  0.858564  0.088599  1
  Li  Li12  1  0.481215  0.891787  0.332696  1
  Li  Li13  1  0.558882  0.148886  0.667002  1
  Li  Li14  1  0.768840  0.601624  0.909959  1
  Li  Li15  1  0.851914  0.519172  0.411093  1
  Li  Li16  1  0.399381  0.308356  0.167582  1
  Li  Li17  1  0.140763  0.230289  0.832245  1
  Li  Li18  1  0.108768  0.443207  0.588164  1
  Li  Li19  1  0.908851  0.036289  0.440792  1
  Li  Li20  1  0.343099  0.281051  0.627899  1
  Li  Li21  1  0.596373  0.467933  0.561610  1
  Li  Li22  1  0.653202  0.715160  0.373276  1
  Li  Li23  1  0.000093  0.875024  0.625786  1
  Li  Li24  1  0.249664  0.376687  0.375634  1
  Li  Li25  1  0.125541  0.750731  0.126032  1
  Li  Li26  1  0.624695  0.999580  0.874202  1
  Mg  Mg27  1  0.500622  0.498330  0.998466  1
  Mg  Mg28  1  0.749950  0.250762  0.501089  1
  Si  Si29  1  0.292542  0.536859  0.163661  1
  Si  Si30  1  0.374117  0.128299  0.836890  1
  Si  Si31  1  0.957020  0.622308  0.746835  1
  Si  Si32  1  0.877595  0.212906  0.254469  1
  Si  Si33  1  0.377611  0.123664  0.336282  1
  Si  Si34  1  0.787065  0.041501  0.664213  1
  Si  Si35  1  0.464626  0.625853  0.756733  1
  Si  Si36  1  0.873499  0.709160  0.247834  1
  Ag  Ag37  1  0.064479  0.541714  0.273068  1
