# generated using pymatgen
data_Zr15Ti(CoIr)4
_symmetry_space_group_name_H-M   'P 1'
_cell_length_a   8.67304003
_cell_length_b   8.66712919
_cell_length_c   8.66712888
_cell_angle_alpha   59.61712312
_cell_angle_beta   59.97743770
_cell_angle_gamma   59.97743961
_symmetry_Int_Tables_number   1
_chemical_formula_structural   Zr15Ti(CoIr)4
_chemical_formula_sum   'Zr15 Ti1 Co4 Ir4'
_cell_volume   459.18437021
_cell_formula_units_Z   1
loop_
 _symmetry_equiv_pos_site_id
 _symmetry_equiv_pos_as_xyz
  1  'x, y, z'
loop_
 _atom_site_type_symbol
 _atom_site_label
 _atom_site_symmetry_multiplicity
 _atom_site_fract_x
 _atom_site_fract_y
 _atom_site_fract_z
 _atom_site_occupancy
  Zr  Zr0  1  0.064815  0.645195  0.645195  1
  Zr  Zr1  1  0.643998  0.063718  0.648286  1
  Zr  Zr2  1  0.643998  0.648286  0.063718  1
  Zr  Zr3  1  0.644795  0.645195  0.645195  1
  Zr  Zr4  1  0.800943  0.806615  0.194971  1
  Zr  Zr5  1  0.197470  0.194971  0.806615  1
  Zr  Zr6  1  0.800943  0.194971  0.806615  1
  Zr  Zr7  1  0.197470  0.806615  0.194971  1
  Zr  Zr8  1  0.195031  0.804969  0.804969  1
  Zr  Zr9  1  0.803012  0.196988  0.196988  1
  Zr  Zr10  1  0.435808  0.433367  0.064152  1
  Zr  Zr11  1  0.066672  0.064152  0.433367  1
  Zr  Zr12  1  0.435808  0.064152  0.433367  1
  Zr  Zr13  1  0.066672  0.433367  0.064152  1
  Zr  Zr14  1  0.062520  0.437480  0.437480  1
  Ti  Ti15  1  0.437016  0.062984  0.062984  1
  Co  Co16  1  0.427252  0.856776  0.856776  1
  Co  Co17  1  0.857832  0.426496  0.857840  1
  Co  Co18  1  0.857832  0.857840  0.426496  1
  Co  Co19  1  0.859195  0.856776  0.856776  1
  Ir  Ir20  1  0.750239  0.416875  0.416875  1
  Ir  Ir21  1  0.417333  0.752864  0.412468  1
  Ir  Ir22  1  0.417333  0.412468  0.752864  1
  Ir  Ir23  1  0.416010  0.416875  0.416875  1
