# generated using pymatgen
data_Ti2AlFe(Co2B)2
_symmetry_space_group_name_H-M   'P 1'
_cell_length_a   8.50220600
_cell_length_b   8.50220600
_cell_length_c   2.94008700
_cell_angle_alpha   90.00000000
_cell_angle_beta   90.00000000
_cell_angle_gamma   90.00000000
_symmetry_Int_Tables_number   1
_chemical_formula_structural   Ti2AlFe(Co2B)2
_chemical_formula_sum   'Ti4 Al2 Fe2 Co8 B4'
_cell_volume   212.53155920
_cell_formula_units_Z   2
loop_
 _symmetry_equiv_pos_site_id
 _symmetry_equiv_pos_as_xyz
  1  'x, y, z'
loop_
 _atom_site_type_symbol
 _atom_site_label
 _atom_site_symmetry_multiplicity
 _atom_site_fract_x
 _atom_site_fract_y
 _atom_site_fract_z
 _atom_site_occupancy
  Ti  Ti0  1  0.826744  0.326744  0.000000  1
  Ti  Ti1  1  0.326744  0.173256  0.000000  1
  Ti  Ti2  1  0.673256  0.826744  0.000000  1
  Ti  Ti3  1  0.173256  0.673256  0.000000  1
  Al  Al4  1  0.000000  0.000000  0.000000  1
  Al  Al5  1  0.500000  0.500000  0.000000  1
  Fe  Fe6  1  0.500000  0.000000  0.500000  1
  Fe  Fe7  1  0.000000  0.500000  0.500000  1
  Co  Co8  1  0.072603  0.218465  0.500000  1
  Co  Co9  1  0.218465  0.927397  0.500000  1
  Co  Co10  1  0.781535  0.072603  0.500000  1
  Co  Co11  1  0.927397  0.781535  0.500000  1
  Co  Co12  1  0.427397  0.718465  0.500000  1
  Co  Co13  1  0.572603  0.281535  0.500000  1
  Co  Co14  1  0.718465  0.572603  0.500000  1
  Co  Co15  1  0.281535  0.427397  0.500000  1
  B  B16  1  0.622648  0.122648  0.000000  1
  B  B17  1  0.122648  0.377352  0.000000  1
  B  B18  1  0.877352  0.622648  0.000000  1
  B  B19  1  0.377352  0.877352  0.000000  1
