# generated using pymatgen
data_Nd12OsRu3
_symmetry_space_group_name_H-M   'P 1'
_cell_length_a   6.52697006
_cell_length_b   7.45860407
_cell_length_c   9.75110300
_cell_angle_alpha   90.00000000
_cell_angle_beta   90.00000000
_cell_angle_gamma   89.98423441
_symmetry_Int_Tables_number   1
_chemical_formula_structural   Nd12OsRu3
_chemical_formula_sum   'Nd12 Os1 Ru3'
_cell_volume   474.70401172
_cell_formula_units_Z   1
loop_
 _symmetry_equiv_pos_site_id
 _symmetry_equiv_pos_as_xyz
  1  'x, y, z'
loop_
 _atom_site_type_symbol
 _atom_site_label
 _atom_site_symmetry_multiplicity
 _atom_site_fract_x
 _atom_site_fract_y
 _atom_site_fract_z
 _atom_site_occupancy
  Nd  Nd0  1  0.326147  0.675805  0.067954  1
  Nd  Nd1  1  0.173557  0.175583  0.432346  1
  Nd  Nd2  1  0.673434  0.324319  0.567854  1
  Nd  Nd3  1  0.826993  0.824532  0.932815  1
  Nd  Nd4  1  0.673434  0.324319  0.932146  1
  Nd  Nd5  1  0.826993  0.824532  0.567185  1
  Nd  Nd6  1  0.326147  0.675805  0.432046  1
  Nd  Nd7  1  0.173557  0.175583  0.067654  1
  Nd  Nd8  1  0.856500  0.539950  0.250000  1
  Nd  Nd9  1  0.642927  0.040064  0.250000  1
  Nd  Nd10  1  0.143638  0.459663  0.750000  1
  Nd  Nd11  1  0.356575  0.959751  0.750000  1
  Os  Os12  1  0.050780  0.885676  0.250000  1
  Ru  Ru13  1  0.449724  0.386031  0.250000  1
  Ru  Ru14  1  0.949637  0.114386  0.750000  1
  Ru  Ru15  1  0.549955  0.613999  0.750000  1
