# generated using pymatgen
data_Pa2Ti2Pd11Pt
_symmetry_space_group_name_H-M   'P 1'
_cell_length_a   5.69116500
_cell_length_b   5.68672704
_cell_length_c   9.45995700
_cell_angle_alpha   90.00000000
_cell_angle_beta   90.00000000
_cell_angle_gamma   120.02582481
_symmetry_Int_Tables_number   1
_chemical_formula_structural   Pa2Ti2Pd11Pt
_chemical_formula_sum   'Pa2 Ti2 Pd11 Pt1'
_cell_volume   265.07592142
_cell_formula_units_Z   1
loop_
 _symmetry_equiv_pos_site_id
 _symmetry_equiv_pos_as_xyz
  1  'x, y, z'
loop_
 _atom_site_type_symbol
 _atom_site_label
 _atom_site_symmetry_multiplicity
 _atom_site_fract_x
 _atom_site_fract_y
 _atom_site_fract_z
 _atom_site_occupancy
  Pa  Pa0  1  0.334141  0.668282  0.250000  1
  Pa  Pa1  1  0.666606  0.333212  0.750000  1
  Ti  Ti2  1  0.998317  0.996635  0.498427  1
  Ti  Ti3  1  0.998317  0.996635  0.001573  1
  Pd  Pd4  1  0.499216  0.498740  0.500508  1
  Pd  Pd5  1  0.499779  0.999557  0.500772  1
  Pd  Pd6  1  0.999523  0.498740  0.500508  1
  Pd  Pd7  1  0.499216  0.498740  0.999492  1
  Pd  Pd8  1  0.499779  0.999557  0.999228  1
  Pd  Pd9  1  0.999523  0.498740  0.999492  1
  Pd  Pd10  1  0.332530  0.167825  0.250000  1
  Pd  Pd11  1  0.835294  0.167825  0.250000  1
  Pd  Pd12  1  0.165237  0.330474  0.750000  1
  Pd  Pd13  1  0.670544  0.835155  0.750000  1
  Pd  Pd14  1  0.164612  0.835155  0.750000  1
  Pt  Pt15  1  0.837363  0.674726  0.250000  1
