# generated using pymatgen
data_Tb3(CrC3)2
_symmetry_space_group_name_H-M   'P 1'
_cell_length_a   8.14906100
_cell_length_b   8.14906139
_cell_length_c   5.03528700
_cell_angle_alpha   90.00000000
_cell_angle_beta   90.00000000
_cell_angle_gamma   120.00000249
_symmetry_Int_Tables_number   1
_chemical_formula_structural   Tb3(CrC3)2
_chemical_formula_sum   'Tb6 Cr4 C12'
_cell_volume   289.58096314
_cell_formula_units_Z   2
loop_
 _symmetry_equiv_pos_site_id
 _symmetry_equiv_pos_as_xyz
  1  'x, y, z'
loop_
 _atom_site_type_symbol
 _atom_site_label
 _atom_site_symmetry_multiplicity
 _atom_site_fract_x
 _atom_site_fract_y
 _atom_site_fract_z
 _atom_site_occupancy
  Tb  Tb0  1  0.620688  0.685680  0.750000  1
  Tb  Tb1  1  0.935008  0.620688  0.250000  1
  Tb  Tb2  1  0.685680  0.064992  0.250000  1
  Tb  Tb3  1  0.314320  0.935008  0.750000  1
  Tb  Tb4  1  0.064992  0.379312  0.750000  1
  Tb  Tb5  1  0.379312  0.314320  0.250000  1
  Cr  Cr6  1  0.000000  0.000000  0.500000  1
  Cr  Cr7  1  0.000000  0.000000  0.000000  1
  Cr  Cr8  1  0.666667  0.333333  0.750000  1
  Cr  Cr9  1  0.333333  0.666667  0.250000  1
  C  C10  1  0.964264  0.775104  0.750000  1
  C  C11  1  0.189160  0.964264  0.250000  1
  C  C12  1  0.775104  0.810840  0.250000  1
  C  C13  1  0.224896  0.189160  0.750000  1
  C  C14  1  0.810840  0.035736  0.750000  1
  C  C15  1  0.035736  0.224896  0.250000  1
  C  C16  1  0.864956  0.579698  0.750000  1
  C  C17  1  0.285258  0.864956  0.250000  1
  C  C18  1  0.579698  0.714742  0.250000  1
  C  C19  1  0.420302  0.285258  0.750000  1
  C  C20  1  0.135044  0.420302  0.250000  1
  C  C21  1  0.714742  0.135044  0.750000  1
