# generated using pymatgen
data_VS2IO8
_symmetry_space_group_name_H-M   'P 1'
_cell_length_a   5.01383690
_cell_length_b   5.18207256
_cell_length_c   9.16556664
_cell_angle_alpha   101.12744641
_cell_angle_beta   105.83461221
_cell_angle_gamma   60.81055600
_symmetry_Int_Tables_number   1
_chemical_formula_structural   VS2IO8
_chemical_formula_sum   'V1 S2 I1 O8'
_cell_volume   199.50067010
_cell_formula_units_Z   1
loop_
 _symmetry_equiv_pos_site_id
 _symmetry_equiv_pos_as_xyz
  1  'x, y, z'
loop_
 _atom_site_type_symbol
 _atom_site_label
 _atom_site_symmetry_multiplicity
 _atom_site_fract_x
 _atom_site_fract_y
 _atom_site_fract_z
 _atom_site_occupancy
  V  V0  1  0.000000  0.000000  0.000000  1
  S  S1  1  0.278421  0.320907  0.817407  1
  S  S2  1  0.721579  0.679093  0.182593  1
  I  I3  1  0.000000  0.000000  0.500000  1
  O  O4  1  0.119960  0.335037  0.653480  1
  O  O5  1  0.880040  0.664963  0.346520  1
  O  O6  1  0.619690  0.114652  0.829445  1
  O  O7  1  0.380310  0.885348  0.170555  1
  O  O8  1  0.762900  0.376755  0.128054  1
  O  O9  1  0.237100  0.623245  0.871946  1
  O  O10  1  0.147238  0.220305  0.907211  1
  O  O11  1  0.852762  0.779695  0.092789  1
