# generated using pymatgen
data_CoSi3(NiW)4
_symmetry_space_group_name_H-M   'P 1'
_cell_length_a   4.73935335
_cell_length_b   4.74204944
_cell_length_c   7.60271600
_cell_angle_alpha   90.00000000
_cell_angle_beta   90.00000000
_cell_angle_gamma   120.20736430
_symmetry_Int_Tables_number   1
_chemical_formula_structural   CoSi3(NiW)4
_chemical_formula_sum   'Co1 Si3 Ni4 W4'
_cell_volume   147.66354580
_cell_formula_units_Z   1
loop_
 _symmetry_equiv_pos_site_id
 _symmetry_equiv_pos_as_xyz
  1  'x, y, z'
loop_
 _atom_site_type_symbol
 _atom_site_label
 _atom_site_symmetry_multiplicity
 _atom_site_fract_x
 _atom_site_fract_y
 _atom_site_fract_z
 _atom_site_occupancy
  Co  Co0  1  0.145022  0.320108  0.500000  1
  Si  Si1  1  0.629067  0.812050  0.500000  1
  Si  Si2  1  0.014586  0.009320  0.243617  1
  Si  Si3  1  0.014586  0.009320  0.756383  1
  Ni  Ni4  1  0.840181  0.175836  0.000000  1
  Ni  Ni5  1  0.840741  0.666592  0.000000  1
  Ni  Ni6  1  0.349638  0.176282  0.000000  1
  Ni  Ni7  1  0.150596  0.823390  0.500000  1
  W  W8  1  0.664123  0.330612  0.685889  1
  W  W9  1  0.343550  0.673058  0.813848  1
  W  W10  1  0.343550  0.673058  0.186152  1
  W  W11  1  0.664123  0.330612  0.314111  1
