# generated using pymatgen
data_Nd3SnPd2PtPb2
_symmetry_space_group_name_H-M   'P 1'
_cell_length_a   7.79452702
_cell_length_b   7.83510673
_cell_length_c   4.12622700
_cell_angle_alpha   90.00000000
_cell_angle_beta   90.00000000
_cell_angle_gamma   119.92975820
_symmetry_Int_Tables_number   1
_chemical_formula_structural   Nd3SnPd2PtPb2
_chemical_formula_sum   'Nd3 Sn1 Pd2 Pt1 Pb2'
_cell_volume   218.38630075
_cell_formula_units_Z   1
loop_
 _symmetry_equiv_pos_site_id
 _symmetry_equiv_pos_as_xyz
  1  'x, y, z'
loop_
 _atom_site_type_symbol
 _atom_site_label
 _atom_site_symmetry_multiplicity
 _atom_site_fract_x
 _atom_site_fract_y
 _atom_site_fract_z
 _atom_site_occupancy
  Nd  Nd0  1  0.998310  0.591036  0.000000  1
  Nd  Nd1  1  0.412038  0.404098  0.000000  1
  Nd  Nd2  1  0.590422  0.004620  0.000000  1
  Sn  Sn3  1  0.252495  0.996136  0.500000  1
  Pd  Pd4  1  0.012879  0.000153  0.000000  1
  Pd  Pd5  1  0.330084  0.673735  0.500000  1
  Pt  Pt6  1  0.655901  0.325778  0.500000  1
  Pb  Pb7  1  0.743483  0.747123  0.500000  1
  Pb  Pb8  1  0.004391  0.257320  0.500000  1
