# generated using pymatgen
data_Tm4Lu4Re(TcB8)3
_symmetry_space_group_name_H-M   'P 1'
_cell_length_a   3.62736100
_cell_length_b   9.07976587
_cell_length_c   11.44329200
_cell_angle_alpha   90.02555878
_cell_angle_beta   90.00000000
_cell_angle_gamma   90.00000000
_symmetry_Int_Tables_number   1
_chemical_formula_structural   Tm4Lu4Re(TcB8)3
_chemical_formula_sum   'Tm4 Lu4 Re1 Tc3 B24'
_cell_volume   376.89152006
_cell_formula_units_Z   1
loop_
 _symmetry_equiv_pos_site_id
 _symmetry_equiv_pos_as_xyz
  1  'x, y, z'
loop_
 _atom_site_type_symbol
 _atom_site_label
 _atom_site_symmetry_multiplicity
 _atom_site_fract_x
 _atom_site_fract_y
 _atom_site_fract_z
 _atom_site_occupancy
  Tm  Tm0  1  0.000000  0.323463  0.414196  1
  Tm  Tm1  1  0.000000  0.676782  0.585708  1
  Tm  Tm2  1  0.000000  0.823218  0.086072  1
  Tm  Tm3  1  0.000000  0.177151  0.914382  1
  Lu  Lu4  1  0.000000  0.942796  0.369560  1
  Lu  Lu5  1  0.000000  0.057869  0.629605  1
  Lu  Lu6  1  0.000000  0.442652  0.130479  1
  Lu  Lu7  1  0.000000  0.556306  0.869984  1
  Re  Re8  1  0.000000  0.861474  0.820294  1
  Tc  Tc9  1  0.000000  0.638773  0.320317  1
  Tc  Tc10  1  0.000000  0.361269  0.679662  1
  Tc  Tc11  1  0.000000  0.138679  0.179785  1
  B  B12  1  0.500000  0.553350  0.433345  1
  B  B13  1  0.500000  0.446908  0.566697  1
  B  B14  1  0.500000  0.053256  0.066806  1
  B  B15  1  0.500000  0.946924  0.933566  1
  B  B16  1  0.500000  0.750419  0.419118  1
  B  B17  1  0.500000  0.249945  0.580756  1
  B  B18  1  0.500000  0.250224  0.080929  1
  B  B19  1  0.500000  0.749175  0.919373  1
  B  B20  1  0.500000  0.792625  0.264657  1
  B  B21  1  0.500000  0.207422  0.735091  1
  B  B22  1  0.500000  0.292583  0.235411  1
  B  B23  1  0.500000  0.706946  0.764744  1
  B  B24  1  0.500000  0.630001  0.184551  1
  B  B25  1  0.500000  0.369720  0.815433  1
  B  B26  1  0.500000  0.130109  0.315504  1
  B  B27  1  0.500000  0.870081  0.684279  1
  B  B28  1  0.500000  0.980904  0.211948  1
  B  B29  1  0.500000  0.019459  0.787831  1
  B  B30  1  0.500000  0.480924  0.288085  1
  B  B31  1  0.500000  0.518921  0.712047  1
  B  B32  1  0.500000  0.598613  0.027639  1
  B  B33  1  0.500000  0.400708  0.972570  1
  B  B34  1  0.500000  0.099091  0.472179  1
  B  B35  1  0.500000  0.901261  0.527397  1
