# generated using pymatgen
data_YHo7(WO6)4
_symmetry_space_group_name_H-M   'P 1'
_cell_length_a   5.38255400
_cell_length_b   7.68846719
_cell_length_c   11.45385553
_cell_angle_alpha   75.44155152
_cell_angle_beta   90.00000000
_cell_angle_gamma   90.00000000
_symmetry_Int_Tables_number   1
_chemical_formula_structural   YHo7(WO6)4
_chemical_formula_sum   'Y1 Ho7 W4 O24'
_cell_volume   458.78228127
_cell_formula_units_Z   1
loop_
 _symmetry_equiv_pos_site_id
 _symmetry_equiv_pos_as_xyz
  1  'x, y, z'
loop_
 _atom_site_type_symbol
 _atom_site_label
 _atom_site_symmetry_multiplicity
 _atom_site_fract_x
 _atom_site_fract_y
 _atom_site_fract_z
 _atom_site_occupancy
  Y  Y0  1  0.684111  0.500000  0.750000  1
  Ho  Ho1  1  0.739092  0.000000  0.750000  1
  Ho  Ho2  1  0.261613  0.000000  0.250000  1
  Ho  Ho3  1  0.186247  0.795919  0.577606  1
  Ho  Ho4  1  0.814124  0.795467  0.078139  1
  Ho  Ho5  1  0.316199  0.500000  0.250000  1
  Ho  Ho6  1  0.186247  0.204081  0.922394  1
  Ho  Ho7  1  0.814124  0.204533  0.421861  1
  W  W8  1  0.254417  0.723636  0.885835  1
  W  W9  1  0.745513  0.723064  0.385250  1
  W  W10  1  0.254417  0.276364  0.614165  1
  W  W11  1  0.745513  0.276936  0.114750  1
  O  O12  1  0.040882  0.939880  0.895804  1
  O  O13  1  0.531572  0.848954  0.930977  1
  O  O14  1  0.958651  0.940148  0.394789  1
  O  O15  1  0.458652  0.790903  0.727450  1
  O  O16  1  0.468988  0.849288  0.430654  1
  O  O17  1  0.981373  0.711281  0.771120  1
  O  O18  1  0.540447  0.789752  0.227361  1
  O  O19  1  0.851768  0.634930  0.547962  1
  O  O20  1  0.360605  0.489547  0.886867  1
  O  O21  1  0.019171  0.709306  0.271430  1
  O  O22  1  0.360605  0.510453  0.613133  1
  O  O23  1  0.851768  0.365070  0.952038  1
  O  O24  1  0.149718  0.635446  0.048976  1
  O  O25  1  0.637364  0.489384  0.386036  1
  O  O26  1  0.981373  0.288719  0.728880  1
  O  O27  1  0.637364  0.510616  0.113964  1
  O  O28  1  0.149718  0.364554  0.451024  1
  O  O29  1  0.458652  0.209097  0.772550  1
  O  O30  1  0.019171  0.290694  0.228570  1
  O  O31  1  0.531572  0.151046  0.569023  1
  O  O32  1  0.540447  0.210248  0.272639  1
  O  O33  1  0.040882  0.060120  0.604196  1
  O  O34  1  0.468988  0.150712  0.069346  1
  O  O35  1  0.958651  0.059852  0.105211  1
