# generated using pymatgen
data_Tb2Dy10InGaCo4
_symmetry_space_group_name_H-M   'P 1'
_cell_length_a   8.32643807
_cell_length_b   8.32897851
_cell_length_c   8.34324379
_cell_angle_alpha   106.78846091
_cell_angle_beta   109.47160781
_cell_angle_gamma   112.14934118
_symmetry_Int_Tables_number   1
_chemical_formula_structural   Tb2Dy10InGaCo4
_chemical_formula_sum   'Tb2 Dy10 In1 Ga1 Co4'
_cell_volume   444.70632588
_cell_formula_units_Z   1
loop_
 _symmetry_equiv_pos_site_id
 _symmetry_equiv_pos_as_xyz
  1  'x, y, z'
loop_
 _atom_site_type_symbol
 _atom_site_label
 _atom_site_symmetry_multiplicity
 _atom_site_fract_x
 _atom_site_fract_y
 _atom_site_fract_z
 _atom_site_occupancy
  Tb  Tb0  1  0.299809  0.268340  0.568110  1
  Tb  Tb1  1  0.700191  0.731660  0.431890  1
  Dy  Dy2  1  0.299747  0.731887  0.031620  1
  Dy  Dy3  1  0.700253  0.268113  0.968380  1
  Dy  Dy4  1  0.186981  0.511777  0.324139  1
  Dy  Dy5  1  0.187617  0.862844  0.675880  1
  Dy  Dy6  1  0.813019  0.488223  0.675861  1
  Dy  Dy7  1  0.812383  0.137156  0.324120  1
  Dy  Dy8  1  0.398039  0.216474  0.181174  1
  Dy  Dy9  1  0.035239  0.216713  0.818803  1
  Dy  Dy10  1  0.964761  0.783287  0.181197  1
  Dy  Dy11  1  0.601961  0.783526  0.818826  1
  In  In12  1  0.500000  0.000000  0.500000  1
  Ga  Ga13  1  0.500000  0.500000  0.000000  1
  Co  Co14  1  0.157700  0.500202  0.657861  1
  Co  Co15  1  0.842300  0.499798  0.342139  1
  Co  Co16  1  0.999733  0.113712  0.113439  1
  Co  Co17  1  0.000267  0.886288  0.886561  1
