# generated using pymatgen
data_La4DyUSe10
_symmetry_space_group_name_H-M   'P 1'
_cell_length_a   7.95633100
_cell_length_b   8.51704900
_cell_length_c   12.56776500
_cell_angle_alpha   90.00000000
_cell_angle_beta   90.00000000
_cell_angle_gamma   90.00000000
_symmetry_Int_Tables_number   1
_chemical_formula_structural   La4DyUSe10
_chemical_formula_sum   'La8 Dy2 U2 Se20'
_cell_volume   851.64782104
_cell_formula_units_Z   2
loop_
 _symmetry_equiv_pos_site_id
 _symmetry_equiv_pos_as_xyz
  1  'x, y, z'
loop_
 _atom_site_type_symbol
 _atom_site_label
 _atom_site_symmetry_multiplicity
 _atom_site_fract_x
 _atom_site_fract_y
 _atom_site_fract_z
 _atom_site_occupancy
  La  La0  1  0.529551  0.502015  0.322850  1
  La  La1  1  0.970449  0.997985  0.822850  1
  La  La2  1  0.475061  0.997763  0.677170  1
  La  La3  1  0.024939  0.502237  0.177170  1
  La  La4  1  0.475061  0.502237  0.677170  1
  La  La5  1  0.024939  0.997763  0.177170  1
  La  La6  1  0.529551  0.997985  0.322850  1
  La  La7  1  0.970449  0.502015  0.822850  1
  Dy  Dy8  1  0.073577  0.750000  0.493674  1
  Dy  Dy9  1  0.426423  0.750000  0.993674  1
  U  U10  1  0.941010  0.250000  0.506201  1
  U  U11  1  0.558990  0.250000  0.006201  1
  Se  Se12  1  0.835086  0.966496  0.593457  1
  Se  Se13  1  0.664914  0.533504  0.093457  1
  Se  Se14  1  0.163882  0.454111  0.407305  1
  Se  Se15  1  0.336118  0.045889  0.907305  1
  Se  Se16  1  0.163882  0.045889  0.407305  1
  Se  Se17  1  0.336118  0.454111  0.907305  1
  Se  Se18  1  0.835086  0.533504  0.593457  1
  Se  Se19  1  0.664914  0.966496  0.093457  1
  Se  Se20  1  0.832279  0.750000  0.313950  1
  Se  Se21  1  0.667721  0.750000  0.813950  1
  Se  Se22  1  0.165688  0.250000  0.683083  1
  Se  Se23  1  0.334312  0.250000  0.183083  1
  Se  Se24  1  0.454843  0.750000  0.497179  1
  Se  Se25  1  0.045157  0.750000  0.997179  1
  Se  Se26  1  0.550335  0.250000  0.500469  1
  Se  Se27  1  0.949665  0.250000  0.000469  1
  Se  Se28  1  0.191106  0.750000  0.713525  1
  Se  Se29  1  0.308894  0.750000  0.213525  1
  Se  Se30  1  0.810827  0.250000  0.290354  1
  Se  Se31  1  0.689173  0.250000  0.790354  1
