# generated using pymatgen
data_La5Pr3Mg2IrRu
_symmetry_space_group_name_H-M   'P 1'
_cell_length_a   10.14500043
_cell_length_b   10.14500127
_cell_length_c   10.16667400
_cell_angle_alpha   59.92931320
_cell_angle_beta   59.92931048
_cell_angle_gamma   59.86205745
_symmetry_Int_Tables_number   1
_chemical_formula_structural   La5Pr3Mg2IrRu
_chemical_formula_sum   'La10 Pr6 Mg4 Ir2 Ru2'
_cell_volume   738.32809571
_cell_formula_units_Z   2
loop_
 _symmetry_equiv_pos_site_id
 _symmetry_equiv_pos_as_xyz
  1  'x, y, z'
loop_
 _atom_site_type_symbol
 _atom_site_label
 _atom_site_symmetry_multiplicity
 _atom_site_fract_x
 _atom_site_fract_y
 _atom_site_fract_z
 _atom_site_occupancy
  La  La0  1  0.344310  0.344310  0.346267  1
  La  La1  1  0.344310  0.344310  0.965116  1
  La  La2  1  0.343246  0.965724  0.345516  1
  La  La3  1  0.965724  0.343246  0.345516  1
  La  La4  1  0.814550  0.188820  0.188008  1
  La  La5  1  0.188820  0.814550  0.808622  1
  La  La6  1  0.188820  0.814550  0.188008  1
  La  La7  1  0.814550  0.188820  0.808622  1
  La  La8  1  0.188124  0.188124  0.811876  1
  La  La9  1  0.810763  0.810763  0.189237  1
  Pr  Pr10  1  0.936233  0.563035  0.563998  1
  Pr  Pr11  1  0.563035  0.936233  0.936734  1
  Pr  Pr12  1  0.563035  0.936233  0.563998  1
  Pr  Pr13  1  0.936233  0.563035  0.936734  1
  Pr  Pr14  1  0.563963  0.563963  0.936037  1
  Pr  Pr15  1  0.937038  0.937038  0.562962  1
  Mg  Mg16  1  0.578898  0.578898  0.578890  1
  Mg  Mg17  1  0.578898  0.578898  0.263314  1
  Mg  Mg18  1  0.578909  0.262945  0.579073  1
  Mg  Mg19  1  0.262945  0.578909  0.579073  1
  Ir  Ir20  1  0.140799  0.580408  0.139396  1
  Ir  Ir21  1  0.580408  0.140799  0.139396  1
  Ru  Ru22  1  0.138196  0.138196  0.136897  1
  Ru  Ru23  1  0.138196  0.138196  0.586711  1
