# generated using pymatgen
data_Er11TmCo4TcSn
_symmetry_space_group_name_H-M   'P 1'
_cell_length_a   8.21002882
_cell_length_b   8.21010008
_cell_length_c   8.21003027
_cell_angle_alpha   111.60394375
_cell_angle_beta   110.69761321
_cell_angle_gamma   106.16294622
_symmetry_Int_Tables_number   1
_chemical_formula_structural   Er11TmCo4TcSn
_chemical_formula_sum   'Er11 Tm1 Co4 Tc1 Sn1'
_cell_volume   424.92249413
_cell_formula_units_Z   1
loop_
 _symmetry_equiv_pos_site_id
 _symmetry_equiv_pos_as_xyz
  1  'x, y, z'
loop_
 _atom_site_type_symbol
 _atom_site_label
 _atom_site_symmetry_multiplicity
 _atom_site_fract_x
 _atom_site_fract_y
 _atom_site_fract_z
 _atom_site_occupancy
  Er  Er0  1  0.418155  0.221716  0.196314  1
  Er  Er1  1  0.581926  0.778223  0.803836  1
  Er  Er2  1  0.025402  0.221716  0.803560  1
  Er  Er3  1  0.974388  0.778223  0.196298  1
  Er  Er4  1  0.183552  0.279709  0.463416  1
  Er  Er5  1  0.816250  0.720284  0.536450  1
  Er  Er6  1  0.183834  0.720284  0.904033  1
  Er  Er7  1  0.816293  0.279709  0.096158  1
  Er  Er8  1  0.312152  0.617502  0.305349  1
  Er  Er9  1  0.687944  0.382532  0.694589  1
  Er  Er10  1  0.312058  0.006713  0.694656  1
  Tm  Tm11  1  0.687882  0.993361  0.305479  1
  Co  Co12  1  0.376605  0.000023  0.376404  1
  Co  Co13  1  0.623619  0.000023  0.623418  1
  Co  Co14  1  0.111694  0.611701  0.500007  1
  Co  Co15  1  0.888193  0.388137  0.499945  1
  Tc  Tc16  1  0.000007  0.000016  0.000008  1
  Sn  Sn17  1  0.500044  0.500124  0.000080  1
