# generated using pymatgen
data_Hf12Mn3Nb4Fe5N4
_symmetry_space_group_name_H-M   'P 1'
_cell_length_a   8.45264196
_cell_length_b   8.45264141
_cell_length_c   8.45264336
_cell_angle_alpha   60.03948079
_cell_angle_beta   60.03948560
_cell_angle_gamma   60.03948130
_symmetry_Int_Tables_number   1
_chemical_formula_structural   Hf12Mn3Nb4Fe5N4
_chemical_formula_sum   'Hf12 Mn3 Nb4 Fe5 N4'
_cell_volume   427.41618332
_cell_formula_units_Z   1
loop_
 _symmetry_equiv_pos_site_id
 _symmetry_equiv_pos_as_xyz
  1  'x, y, z'
loop_
 _atom_site_type_symbol
 _atom_site_label
 _atom_site_symmetry_multiplicity
 _atom_site_fract_x
 _atom_site_fract_y
 _atom_site_fract_z
 _atom_site_occupancy
  Hf  Hf0  1  0.812171  0.812171  0.187532  1
  Hf  Hf1  1  0.187562  0.187562  0.812802  1
  Hf  Hf2  1  0.812171  0.187532  0.812171  1
  Hf  Hf3  1  0.187562  0.812802  0.187562  1
  Hf  Hf4  1  0.187532  0.812171  0.812171  1
  Hf  Hf5  1  0.812802  0.187562  0.187562  1
  Hf  Hf6  1  0.437004  0.437004  0.062031  1
  Hf  Hf7  1  0.062934  0.062934  0.437169  1
  Hf  Hf8  1  0.437004  0.062031  0.437004  1
  Hf  Hf9  1  0.062934  0.437169  0.062934  1
  Hf  Hf10  1  0.062031  0.437004  0.437004  1
  Hf  Hf11  1  0.437169  0.062934  0.062934  1
  Mn  Mn12  1  0.743295  0.418833  0.418833  1
  Mn  Mn13  1  0.418833  0.743295  0.418833  1
  Mn  Mn14  1  0.418833  0.418833  0.743295  1
  Nb  Nb15  1  0.126123  0.624237  0.624237  1
  Nb  Nb16  1  0.624237  0.126123  0.624237  1
  Nb  Nb17  1  0.624237  0.624237  0.126123  1
  Nb  Nb18  1  0.625315  0.625315  0.625315  1
  Fe  Fe19  1  0.418347  0.418347  0.418347  1
  Fe  Fe20  1  0.507940  0.831185  0.831185  1
  Fe  Fe21  1  0.831185  0.507940  0.831185  1
  Fe  Fe22  1  0.831185  0.831185  0.507940  1
  Fe  Fe23  1  0.830914  0.830914  0.830914  1
  N  N24  1  0.624861  0.125435  0.125435  1
  N  N25  1  0.125435  0.624861  0.125435  1
  N  N26  1  0.125435  0.125435  0.624861  1
  N  N27  1  0.124946  0.124946  0.124946  1
