# generated using pymatgen
data_CePrNd4(Bi4Au3)2
_symmetry_space_group_name_H-M   'P 1'
_cell_length_a   9.04630195
_cell_length_b   9.05056579
_cell_length_c   9.04630168
_cell_angle_alpha   109.57224206
_cell_angle_beta   109.50735703
_cell_angle_gamma   109.31510719
_symmetry_Int_Tables_number   1
_chemical_formula_structural   CePrNd4(Bi4Au3)2
_chemical_formula_sum   'Ce1 Pr1 Nd4 Bi8 Au6'
_cell_volume   570.29001548
_cell_formula_units_Z   1
loop_
 _symmetry_equiv_pos_site_id
 _symmetry_equiv_pos_as_xyz
  1  'x, y, z'
loop_
 _atom_site_type_symbol
 _atom_site_label
 _atom_site_symmetry_multiplicity
 _atom_site_fract_x
 _atom_site_fract_y
 _atom_site_fract_z
 _atom_site_occupancy
  Ce  Ce0  1  0.625231  0.750000  0.375231  1
  Pr  Pr1  1  0.875041  0.250000  0.125041  1
  Nd  Nd2  1  0.250150  0.124798  0.874982  1
  Nd  Nd3  1  0.750184  0.375202  0.625352  1
  Nd  Nd4  1  0.125045  0.875142  0.249889  1
  Nd  Nd5  1  0.374747  0.624858  0.749903  1
  Bi  Bi6  1  0.677403  0.500164  0.999781  1
  Bi  Bi7  1  0.499618  0.999836  0.677239  1
  Bi  Bi8  1  0.999605  0.678007  0.500043  1
  Bi  Bi9  1  0.822035  0.821993  0.821599  1
  Bi  Bi10  1  0.499883  0.999648  0.177965  1
  Bi  Bi11  1  0.178316  0.500352  0.000235  1
  Bi  Bi12  1  0.000099  0.177476  0.500124  1
  Bi  Bi13  1  0.322648  0.322524  0.322623  1
  Au  Au14  1  0.374986  0.250000  0.624986  1
  Au  Au15  1  0.124996  0.750000  0.874996  1
  Au  Au16  1  0.251218  0.626257  0.375743  1
  Au  Au17  1  0.749486  0.873743  0.124961  1
  Au  Au18  1  0.624338  0.375595  0.250567  1
  Au  Au19  1  0.874973  0.124405  0.748743  1
