# generated using pymatgen
data_Hf20Zn2GaSb9
_symmetry_space_group_name_H-M   'P 1'
_cell_length_a   5.53044600
_cell_length_b   8.28212812
_cell_length_c   15.57592700
_cell_angle_alpha   90.00000000
_cell_angle_beta   90.00000000
_cell_angle_gamma   109.50434343
_symmetry_Int_Tables_number   1
_chemical_formula_structural   Hf20Zn2GaSb9
_chemical_formula_sum   'Hf20 Zn2 Ga1 Sb9'
_cell_volume   672.49784279
_cell_formula_units_Z   1
loop_
 _symmetry_equiv_pos_site_id
 _symmetry_equiv_pos_as_xyz
  1  'x, y, z'
loop_
 _atom_site_type_symbol
 _atom_site_label
 _atom_site_symmetry_multiplicity
 _atom_site_fract_x
 _atom_site_fract_y
 _atom_site_fract_z
 _atom_site_occupancy
  Hf  Hf0  1  0.429853  0.859088  0.356284  1
  Hf  Hf1  1  0.921383  0.858261  0.851329  1
  Hf  Hf2  1  0.063122  0.141739  0.148671  1
  Hf  Hf3  1  0.570767  0.140912  0.643716  1
  Hf  Hf4  1  0.654732  0.295403  0.072041  1
  Hf  Hf5  1  0.145132  0.289028  0.568362  1
  Hf  Hf6  1  0.856105  0.710972  0.431638  1
  Hf  Hf7  1  0.359330  0.704597  0.927959  1
  Hf  Hf8  1  0.845268  0.704597  0.072041  1
  Hf  Hf9  1  0.354868  0.710972  0.568362  1
  Hf  Hf10  1  0.643895  0.289028  0.431638  1
  Hf  Hf11  1  0.140670  0.295403  0.927959  1
  Hf  Hf12  1  0.070147  0.140912  0.356284  1
  Hf  Hf13  1  0.578617  0.141739  0.851329  1
  Hf  Hf14  1  0.436878  0.858261  0.148671  1
  Hf  Hf15  1  0.929233  0.859088  0.643716  1
  Hf  Hf16  1  0.501188  0.500809  0.250338  1
  Hf  Hf17  1  0.000379  0.499191  0.749662  1
  Hf  Hf18  1  0.998812  0.499191  0.250338  1
  Hf  Hf19  1  0.499621  0.500809  0.749662  1
  Zn  Zn20  1  0.750000  0.000000  0.000000  1
  Zn  Zn21  1  0.250000  0.000000  0.500000  1
  Ga  Ga22  1  0.750000  0.000000  0.500000  1
  Sb  Sb23  1  0.916728  0.828047  0.252220  1
  Sb  Sb24  1  0.411319  0.828047  0.747780  1
  Sb  Sb25  1  0.583272  0.171953  0.252220  1
  Sb  Sb26  1  0.088681  0.171953  0.747780  1
  Sb  Sb27  1  0.250000  0.500000  0.085831  1
  Sb  Sb28  1  0.750000  0.500000  0.585646  1
  Sb  Sb29  1  0.250000  0.500000  0.414354  1
  Sb  Sb30  1  0.750000  0.500000  0.914169  1
  Sb  Sb31  1  0.250000  0.000000  0.000000  1
