# generated using pymatgen
data_Nd4Si10RuPt5
_symmetry_space_group_name_H-M   'P 1'
_cell_length_a   8.26547155
_cell_length_b   8.26547232
_cell_length_c   8.26547229
_cell_angle_alpha   136.93414940
_cell_angle_beta   105.32993122
_cell_angle_gamma   90.28955836
_symmetry_Int_Tables_number   1
_chemical_formula_structural   Nd4Si10RuPt5
_chemical_formula_sum   'Nd4 Si10 Ru1 Pt5'
_cell_volume   354.62466979
_cell_formula_units_Z   1
loop_
 _symmetry_equiv_pos_site_id
 _symmetry_equiv_pos_as_xyz
  1  'x, y, z'
loop_
 _atom_site_type_symbol
 _atom_site_label
 _atom_site_symmetry_multiplicity
 _atom_site_fract_x
 _atom_site_fract_y
 _atom_site_fract_z
 _atom_site_occupancy
  Nd  Nd0  1  0.638049  0.871280  0.767902  1
  Nd  Nd1  1  0.361951  0.129853  0.233231  1
  Nd  Nd2  1  0.103378  0.370147  0.732098  1
  Nd  Nd3  1  0.896622  0.628720  0.266769  1
  Si  Si4  1  0.275388  0.025388  0.750000  1
  Si  Si5  1  0.728779  0.978779  0.250000  1
  Si  Si6  1  0.724612  0.474612  0.750000  1
  Si  Si7  1  0.271221  0.521221  0.250000  1
  Si  Si8  1  0.458615  0.601275  0.844450  1
  Si  Si9  1  0.541385  0.385836  0.142660  1
  Si  Si10  1  0.756825  0.114164  0.655550  1
  Si  Si11  1  0.243175  0.898725  0.357340  1
  Si  Si12  1  0.000000  0.750000  0.750000  1
  Si  Si13  1  0.000000  0.250000  0.250000  1
  Ru  Ru14  1  0.500000  0.250000  0.750000  1
  Pt  Pt15  1  0.248564  0.639045  0.613693  1
  Pt  Pt16  1  0.751436  0.365130  0.390482  1
  Pt  Pt17  1  0.025352  0.134870  0.886307  1
  Pt  Pt18  1  0.974648  0.860955  0.109518  1
  Pt  Pt19  1  0.500000  0.750000  0.250000  1
