# generated using pymatgen
data_Tb(NbS2)5
_symmetry_space_group_name_H-M   'P 1'
_cell_length_a   5.85156328
_cell_length_b   7.84129037
_cell_length_c   8.57850365
_cell_angle_alpha   114.16524722
_cell_angle_beta   96.70108237
_cell_angle_gamma   104.20949547
_symmetry_Int_Tables_number   1
_chemical_formula_structural   Tb(NbS2)5
_chemical_formula_sum   'Tb1 Nb5 S10'
_cell_volume   337.47559698
_cell_formula_units_Z   1
loop_
 _symmetry_equiv_pos_site_id
 _symmetry_equiv_pos_as_xyz
  1  'x, y, z'
loop_
 _atom_site_type_symbol
 _atom_site_label
 _atom_site_symmetry_multiplicity
 _atom_site_fract_x
 _atom_site_fract_y
 _atom_site_fract_z
 _atom_site_occupancy
  Tb  Tb0  1  0.667790  0.508840  0.993603  1
  Nb  Nb1  1  0.003108  0.997433  0.000697  1
  Nb  Nb2  1  0.599176  0.202881  0.202469  1
  Nb  Nb3  1  0.198181  0.399613  0.398637  1
  Nb  Nb4  1  0.799197  0.600062  0.602241  1
  Nb  Nb5  1  0.401285  0.796721  0.799020  1
  S  S6  1  0.236654  0.064717  0.290979  1
  S  S7  1  0.046875  0.658476  0.892899  1
  S  S8  1  0.835619  0.263396  0.488976  1
  S  S9  1  0.636282  0.869266  0.099434  1
  S  S10  1  0.427202  0.450795  0.683840  1
  S  S11  1  0.897515  0.543308  0.311470  1
  S  S12  1  0.698001  0.134793  0.907734  1
  S  S13  1  0.495877  0.735466  0.511447  1
  S  S14  1  0.292574  0.338120  0.106469  1
  S  S15  1  0.097466  0.933713  0.711686  1
