# generated using pymatgen
data_Sc4Al24NiPt8
_symmetry_space_group_name_H-M   'P 1'
_cell_length_a   7.44667244
_cell_length_b   7.43224835
_cell_length_c   13.00008043
_cell_angle_alpha   84.43775585
_cell_angle_beta   79.01090705
_cell_angle_gamma   60.11563907
_symmetry_Int_Tables_number   1
_chemical_formula_structural   Sc4Al24NiPt8
_chemical_formula_sum   'Sc4 Al24 Ni1 Pt8'
_cell_volume   612.38637590
_cell_formula_units_Z   1
loop_
 _symmetry_equiv_pos_site_id
 _symmetry_equiv_pos_as_xyz
  1  'x, y, z'
loop_
 _atom_site_type_symbol
 _atom_site_label
 _atom_site_symmetry_multiplicity
 _atom_site_fract_x
 _atom_site_fract_y
 _atom_site_fract_z
 _atom_site_occupancy
  Sc  Sc0  1  0.396924  0.164664  0.809102  1
  Sc  Sc1  1  0.603076  0.835336  0.190898  1
  Sc  Sc2  1  0.729728  0.498444  0.809269  1
  Sc  Sc3  1  0.270272  0.501556  0.190731  1
  Al  Al4  1  0.687592  0.826667  0.944378  1
  Al  Al5  1  0.312408  0.173333  0.055622  1
  Al  Al6  1  0.145903  0.833073  0.562734  1
  Al  Al7  1  0.854097  0.166927  0.437266  1
  Al  Al8  1  0.479392  0.167238  0.559879  1
  Al  Al9  1  0.520608  0.832762  0.440121  1
  Al  Al10  1  0.220625  0.167192  0.322526  1
  Al  Al11  1  0.779375  0.832808  0.677474  1
  Al  Al12  1  0.436083  0.503595  0.677529  1
  Al  Al13  1  0.563917  0.496405  0.322471  1
  Al  Al14  1  0.107029  0.162427  0.677034  1
  Al  Al15  1  0.892971  0.837573  0.322966  1
  Al  Al16  1  0.349595  0.495536  0.944481  1
  Al  Al17  1  0.650405  0.504464  0.055519  1
  Al  Al18  1  0.016384  0.179017  0.950537  1
  Al  Al19  1  0.983616  0.820983  0.049463  1
  Al  Al20  1  0.187255  0.499030  0.439738  1
  Al  Al21  1  0.812745  0.500970  0.560262  1
  Al  Al22  1  0.733246  0.165495  0.181836  1
  Al  Al23  1  0.266754  0.834505  0.818164  1
  Al  Al24  1  0.059417  0.616836  0.821045  1
  Al  Al25  1  0.940583  0.383164  0.178955  1
  Al  Al26  1  0.852872  0.042248  0.817676  1
  Al  Al27  1  0.147128  0.957752  0.182324  1
  Ni  Ni28  1  0.000000  0.500000  0.000000  1
  Pt  Pt29  1  0.119641  0.491707  0.639711  1
  Pt  Pt30  1  0.880359  0.508293  0.360289  1
  Pt  Pt31  1  0.657111  0.171278  0.999869  1
  Pt  Pt32  1  0.342889  0.828722  0.000131  1
  Pt  Pt33  1  0.537599  0.166656  0.359754  1
  Pt  Pt34  1  0.462401  0.833344  0.640246  1
  Pt  Pt35  1  0.777750  0.175659  0.638636  1
  Pt  Pt36  1  0.222250  0.824341  0.361364  1
