# generated using pymatgen
data_La2SmDy3Ta2O14
_symmetry_space_group_name_H-M   'P 1'
_cell_length_a   6.55702968
_cell_length_b   6.56436163
_cell_length_c   7.66033400
_cell_angle_alpha   90.00000000
_cell_angle_beta   90.00000000
_cell_angle_gamma   109.01222324
_symmetry_Int_Tables_number   1
_chemical_formula_structural   La2SmDy3Ta2O14
_chemical_formula_sum   'La2 Sm1 Dy3 Ta2 O14'
_cell_volume   311.73495727
_cell_formula_units_Z   1
loop_
 _symmetry_equiv_pos_site_id
 _symmetry_equiv_pos_as_xyz
  1  'x, y, z'
loop_
 _atom_site_type_symbol
 _atom_site_label
 _atom_site_symmetry_multiplicity
 _atom_site_fract_x
 _atom_site_fract_y
 _atom_site_fract_z
 _atom_site_occupancy
  La  La0  1  0.501936  0.501413  0.498907  1
  La  La1  1  0.501936  0.501413  0.001093  1
  Sm  Sm2  1  0.000312  0.465031  0.750000  1
  Dy  Dy3  1  0.532199  0.001417  0.750000  1
  Dy  Dy4  1  0.001081  0.534110  0.250000  1
  Dy  Dy5  1  0.467029  0.999132  0.250000  1
  Ta  Ta6  1  0.999992  0.000165  0.498822  1
  Ta  Ta7  1  0.999992  0.000165  0.001178  1
  O  O8  1  0.682376  0.936378  0.467350  1
  O  O9  1  0.930436  0.681143  0.526877  1
  O  O10  1  0.682376  0.936378  0.032650  1
  O  O11  1  0.930436  0.681143  0.973123  1
  O  O12  1  0.316545  0.063717  0.532765  1
  O  O13  1  0.066684  0.316135  0.464168  1
  O  O14  1  0.316545  0.063717  0.967235  1
  O  O15  1  0.066684  0.316135  0.035832  1
  O  O16  1  0.937824  0.060025  0.750000  1
  O  O17  1  0.064291  0.938469  0.250000  1
  O  O18  1  0.370359  0.640803  0.750000  1
  O  O19  1  0.637211  0.362072  0.250000  1
  O  O20  1  0.637701  0.355797  0.750000  1
  O  O21  1  0.356054  0.645242  0.250000  1
