# generated using pymatgen
data_Ce4ZnCu2SiRh9
_symmetry_space_group_name_H-M   'P 1'
_cell_length_a   7.17718824
_cell_length_b   7.17718829
_cell_length_c   7.30617629
_cell_angle_alpha   109.47858481
_cell_angle_beta   109.47858093
_cell_angle_gamma   109.97747472
_symmetry_Int_Tables_number   1
_chemical_formula_structural   Ce4ZnCu2SiRh9
_chemical_formula_sum   'Ce4 Zn1 Cu2 Si1 Rh9'
_cell_volume   287.83568314
_cell_formula_units_Z   1
loop_
 _symmetry_equiv_pos_site_id
 _symmetry_equiv_pos_as_xyz
  1  'x, y, z'
loop_
 _atom_site_type_symbol
 _atom_site_label
 _atom_site_symmetry_multiplicity
 _atom_site_fract_x
 _atom_site_fract_y
 _atom_site_fract_z
 _atom_site_occupancy
  Ce  Ce0  1  0.003727  0.996273  0.500000  1
  Ce  Ce1  1  0.028878  0.516031  0.018986  1
  Ce  Ce2  1  0.483969  0.971122  0.981014  1
  Ce  Ce3  1  0.483876  0.516124  0.500000  1
  Zn  Zn4  1  0.747289  0.252711  0.500000  1
  Cu  Cu5  1  0.746933  0.494475  0.246732  1
  Cu  Cu6  1  0.505525  0.253067  0.753268  1
  Si  Si7  1  0.999738  0.000262  0.000000  1
  Rh  Rh8  1  0.241166  0.483857  0.742663  1
  Rh  Rh9  1  0.242445  0.757555  0.500000  1
  Rh  Rh10  1  0.516143  0.758834  0.257337  1
  Rh  Rh11  1  0.731092  0.705809  0.000009  1
  Rh  Rh12  1  0.294769  0.027050  0.292377  1
  Rh  Rh13  1  0.972626  0.265320  0.267258  1
  Rh  Rh14  1  0.294191  0.268908  0.999991  1
  Rh  Rh15  1  0.734680  0.027374  0.732742  1
  Rh  Rh16  1  0.972950  0.705231  0.707623  1
