# generated using pymatgen
data_Tb2ErTh11Ir6
_symmetry_space_group_name_H-M   'P 1'
_cell_length_a   9.98558913
_cell_length_b   10.01267130
_cell_length_c   6.35554322
_cell_angle_alpha   90.33971851
_cell_angle_beta   89.74117758
_cell_angle_gamma   120.06629989
_symmetry_Int_Tables_number   1
_chemical_formula_structural   Tb2ErTh11Ir6
_chemical_formula_sum   'Tb2 Er1 Th11 Ir6'
_cell_volume   549.93087161
_cell_formula_units_Z   1
loop_
 _symmetry_equiv_pos_site_id
 _symmetry_equiv_pos_as_xyz
  1  'x, y, z'
loop_
 _atom_site_type_symbol
 _atom_site_label
 _atom_site_symmetry_multiplicity
 _atom_site_fract_x
 _atom_site_fract_y
 _atom_site_fract_z
 _atom_site_occupancy
  Tb  Tb0  1  0.078103  0.537851  0.300744  1
  Tb  Tb1  1  0.924129  0.463136  0.802598  1
  Er  Er2  1  0.459742  0.540134  0.296780  1
  Th  Th3  1  0.253493  0.128889  0.500950  1
  Th  Th4  1  0.543955  0.086217  0.792476  1
  Th  Th5  1  0.745058  0.872821  0.002078  1
  Th  Th6  1  0.664883  0.331368  0.292407  1
  Th  Th7  1  0.127299  0.869042  0.002072  1
  Th  Th8  1  0.456027  0.910340  0.289115  1
  Th  Th9  1  0.542842  0.458524  0.796299  1
  Th  Th10  1  0.873316  0.130694  0.504246  1
  Th  Th11  1  0.126577  0.256573  0.002223  1
  Th  Th12  1  0.869519  0.742818  0.500237  1
  Th  Th13  1  0.335144  0.667574  0.782989  1
  Ir  Ir14  1  0.809893  0.624414  0.056328  1
  Ir  Ir15  1  0.811975  0.187301  0.055477  1
  Ir  Ir16  1  0.626471  0.815184  0.549143  1
  Ir  Ir17  1  0.375348  0.189235  0.050831  1
  Ir  Ir18  1  0.186794  0.373277  0.553987  1
  Ir  Ir19  1  0.189432  0.814605  0.553021  1
