# generated using pymatgen
data_Dy17Y3(Hg3Ru)2
_symmetry_space_group_name_H-M   'P 1'
_cell_length_a   9.60798157
_cell_length_b   9.61071468
_cell_length_c   9.74538900
_cell_angle_alpha   90.00000000
_cell_angle_beta   90.00000000
_cell_angle_gamma   120.02974154
_symmetry_Int_Tables_number   1
_chemical_formula_structural   Dy17Y3(Hg3Ru)2
_chemical_formula_sum   'Dy17 Y3 Hg6 Ru2'
_cell_volume   779.08962726
_cell_formula_units_Z   1
loop_
 _symmetry_equiv_pos_site_id
 _symmetry_equiv_pos_as_xyz
  1  'x, y, z'
loop_
 _atom_site_type_symbol
 _atom_site_label
 _atom_site_symmetry_multiplicity
 _atom_site_fract_x
 _atom_site_fract_y
 _atom_site_fract_z
 _atom_site_occupancy
  Dy  Dy0  1  0.999993  0.000001  0.500199  1
  Dy  Dy1  1  0.999993  0.000001  0.999801  1
  Dy  Dy2  1  0.209484  0.790512  0.439620  1
  Dy  Dy3  1  0.209484  0.418976  0.439625  1
  Dy  Dy4  1  0.581000  0.790501  0.439632  1
  Dy  Dy5  1  0.790421  0.209578  0.560260  1
  Dy  Dy6  1  0.790413  0.580830  0.560250  1
  Dy  Dy7  1  0.419200  0.209601  0.560242  1
  Dy  Dy8  1  0.790421  0.209578  0.939740  1
  Dy  Dy9  1  0.790413  0.580830  0.939750  1
  Dy  Dy10  1  0.419200  0.209601  0.939758  1
  Dy  Dy11  1  0.209484  0.790512  0.060380  1
  Dy  Dy12  1  0.209484  0.418976  0.060375  1
  Dy  Dy13  1  0.581000  0.790501  0.060368  1
  Dy  Dy14  1  0.541183  0.458810  0.250000  1
  Dy  Dy15  1  0.541167  0.082361  0.250000  1
  Dy  Dy16  1  0.917623  0.458822  0.250000  1
  Y  Y17  1  0.458870  0.541129  0.750000  1
  Y  Y18  1  0.458881  0.917749  0.750000  1
  Y  Y19  1  0.082262  0.541126  0.750000  1
  Hg  Hg20  1  0.881496  0.118608  0.250000  1
  Hg  Hg21  1  0.881512  0.762882  0.250000  1
  Hg  Hg22  1  0.237108  0.118534  0.250000  1
  Hg  Hg23  1  0.118419  0.881502  0.750000  1
  Hg  Hg24  1  0.118403  0.236920  0.750000  1
  Hg  Hg25  1  0.763081  0.881559  0.750000  1
  Ru  Ru26  1  0.333384  0.666664  0.250000  1
  Ru  Ru27  1  0.666618  0.333336  0.750000  1
