# generated using pymatgen
data_Dy2Lu2B12OsRu
_symmetry_space_group_name_H-M   'P 1'
_cell_length_a   3.62170300
_cell_length_b   9.07496807
_cell_length_c   11.46344001
_cell_angle_alpha   89.93659130
_cell_angle_beta   90.00000000
_cell_angle_gamma   90.00000000
_symmetry_Int_Tables_number   1
_chemical_formula_structural   Dy2Lu2B12OsRu
_chemical_formula_sum   'Dy4 Lu4 B24 Os2 Ru2'
_cell_volume   376.76680756
_cell_formula_units_Z   2
loop_
 _symmetry_equiv_pos_site_id
 _symmetry_equiv_pos_as_xyz
  1  'x, y, z'
loop_
 _atom_site_type_symbol
 _atom_site_label
 _atom_site_symmetry_multiplicity
 _atom_site_fract_x
 _atom_site_fract_y
 _atom_site_fract_z
 _atom_site_occupancy
  Dy  Dy0  1  0.000000  0.321420  0.414189  1
  Dy  Dy1  1  0.000000  0.678580  0.585811  1
  Dy  Dy2  1  0.000000  0.821421  0.086138  1
  Dy  Dy3  1  0.000000  0.178579  0.913862  1
  Lu  Lu4  1  0.000000  0.944266  0.372761  1
  Lu  Lu5  1  0.000000  0.055734  0.627239  1
  Lu  Lu6  1  0.000000  0.443618  0.126959  1
  Lu  Lu7  1  0.000000  0.556382  0.873041  1
  B  B8  1  0.500000  0.554254  0.432791  1
  B  B9  1  0.500000  0.445746  0.567209  1
  B  B10  1  0.500000  0.054413  0.067131  1
  B  B11  1  0.500000  0.945587  0.932869  1
  B  B12  1  0.500000  0.749821  0.419371  1
  B  B13  1  0.500000  0.250179  0.580629  1
  B  B14  1  0.500000  0.249501  0.080412  1
  B  B15  1  0.500000  0.750499  0.919588  1
  B  B16  1  0.500000  0.791920  0.266005  1
  B  B17  1  0.500000  0.208080  0.733995  1
  B  B18  1  0.500000  0.291570  0.233774  1
  B  B19  1  0.500000  0.708430  0.766226  1
  B  B20  1  0.500000  0.630463  0.184481  1
  B  B21  1  0.500000  0.369537  0.815519  1
  B  B22  1  0.500000  0.130606  0.315556  1
  B  B23  1  0.500000  0.869394  0.684444  1
  B  B24  1  0.500000  0.982732  0.213553  1
  B  B25  1  0.500000  0.017268  0.786447  1
  B  B26  1  0.500000  0.482327  0.286314  1
  B  B27  1  0.500000  0.517673  0.713686  1
  B  B28  1  0.500000  0.604117  0.028698  1
  B  B29  1  0.500000  0.395883  0.971302  1
  B  B30  1  0.500000  0.103963  0.471332  1
  B  B31  1  0.500000  0.896037  0.528668  1
  Os  Os32  1  0.000000  0.638181  0.320407  1
  Os  Os33  1  0.000000  0.361819  0.679593  1
  Ru  Ru34  1  0.000000  0.138251  0.179843  1
  Ru  Ru35  1  0.000000  0.861749  0.820157  1
