# generated using pymatgen
data_TbMg2P4Ir7
_symmetry_space_group_name_H-M   'P 1'
_cell_length_a   7.53714899
_cell_length_b   7.53714849
_cell_length_c   9.11708573
_cell_angle_alpha   57.93229055
_cell_angle_beta   57.93229333
_cell_angle_gamma   29.73241604
_symmetry_Int_Tables_number   1
_chemical_formula_structural   TbMg2P4Ir7
_chemical_formula_sum   'Tb1 Mg2 P4 Ir7'
_cell_volume   214.64315000
_cell_formula_units_Z   1
loop_
 _symmetry_equiv_pos_site_id
 _symmetry_equiv_pos_as_xyz
  1  'x, y, z'
loop_
 _atom_site_type_symbol
 _atom_site_label
 _atom_site_symmetry_multiplicity
 _atom_site_fract_x
 _atom_site_fract_y
 _atom_site_fract_z
 _atom_site_occupancy
  Tb  Tb0  1  0.000000  0.000000  0.000000  1
  Mg  Mg1  1  0.667212  0.667212  0.341517  1
  Mg  Mg2  1  0.332788  0.332788  0.658483  1
  P  P3  1  0.330835  0.330835  0.276925  1
  P  P4  1  0.669165  0.669165  0.723075  1
  P  P5  1  0.888497  0.888497  0.816590  1
  P  P6  1  0.111503  0.111503  0.183410  1
  Ir  Ir7  1  0.299097  0.299097  0.059062  1
  Ir  Ir8  1  0.700903  0.700903  0.940938  1
  Ir  Ir9  1  0.503487  0.503487  0.728568  1
  Ir  Ir10  1  0.833143  0.833143  0.419336  1
  Ir  Ir11  1  0.496513  0.496513  0.271432  1
  Ir  Ir12  1  0.166857  0.166857  0.580664  1
  Ir  Ir13  1  0.000000  0.000000  0.500000  1
