# generated using pymatgen
data_Tb2Ce2U4TiSe17
_symmetry_space_group_name_H-M   'P 1'
_cell_length_a   8.22767153
_cell_length_b   8.22767178
_cell_length_c   10.93051127
_cell_angle_alpha   80.89851370
_cell_angle_beta   80.89851357
_cell_angle_gamma   65.72106816
_symmetry_Int_Tables_number   1
_chemical_formula_structural   Tb2Ce2U4TiSe17
_chemical_formula_sum   'Tb2 Ce2 U4 Ti1 Se17'
_cell_volume   662.42476393
_cell_formula_units_Z   1
loop_
 _symmetry_equiv_pos_site_id
 _symmetry_equiv_pos_as_xyz
  1  'x, y, z'
loop_
 _atom_site_type_symbol
 _atom_site_label
 _atom_site_symmetry_multiplicity
 _atom_site_fract_x
 _atom_site_fract_y
 _atom_site_fract_z
 _atom_site_occupancy
  Tb  Tb0  1  0.816015  0.305344  0.296384  1
  Tb  Tb1  1  0.305344  0.816015  0.296384  1
  Ce  Ce2  1  0.183928  0.695532  0.703867  1
  Ce  Ce3  1  0.695532  0.183928  0.703867  1
  U  U4  1  0.203828  0.203828  0.535729  1
  U  U5  1  0.798205  0.798205  0.459332  1
  U  U6  1  0.679156  0.679156  0.986697  1
  U  U7  1  0.318538  0.318538  0.016751  1
  Ti  Ti8  1  0.998828  0.998828  0.999318  1
  Se  Se9  1  0.825490  0.434229  0.534632  1
  Se  Se10  1  0.434229  0.825490  0.534632  1
  Se  Se11  1  0.175971  0.567042  0.462829  1
  Se  Se12  1  0.567042  0.175971  0.462829  1
  Se  Se13  1  0.056770  0.674208  0.977515  1
  Se  Se14  1  0.674208  0.056770  0.977515  1
  Se  Se15  1  0.942615  0.325382  0.023811  1
  Se  Se16  1  0.325382  0.942615  0.023811  1
  Se  Se17  1  0.063579  0.063579  0.772469  1
  Se  Se18  1  0.940818  0.940818  0.228431  1
  Se  Se19  1  0.213950  0.213950  0.274941  1
  Se  Se20  1  0.782860  0.782860  0.725467  1
  Se  Se21  1  0.298766  0.298766  0.755110  1
  Se  Se22  1  0.699947  0.699947  0.244471  1
  Se  Se23  1  0.521432  0.521432  0.837903  1
  Se  Se24  1  0.478377  0.478377  0.161545  1
  Se  Se25  1  0.999189  0.999189  0.503758  1
