# generated using pymatgen
data_TbTm15(HfIr3)4
_symmetry_space_group_name_H-M   'P 1'
_cell_length_a   10.73306480
_cell_length_b   10.71872684
_cell_length_c   6.20625865
_cell_angle_alpha   90.03770469
_cell_angle_beta   90.03638620
_cell_angle_gamma   90.02517536
_symmetry_Int_Tables_number   1
_chemical_formula_structural   TbTm15(HfIr3)4
_chemical_formula_sum   'Tb1 Tm15 Hf4 Ir12'
_cell_volume   713.99735372
_cell_formula_units_Z   1
loop_
 _symmetry_equiv_pos_site_id
 _symmetry_equiv_pos_as_xyz
  1  'x, y, z'
loop_
 _atom_site_type_symbol
 _atom_site_label
 _atom_site_symmetry_multiplicity
 _atom_site_fract_x
 _atom_site_fract_y
 _atom_site_fract_z
 _atom_site_occupancy
  Tb  Tb0  1  0.288787  0.086606  0.372088  1
  Tm  Tm1  1  0.290119  0.913656  0.873454  1
  Tm  Tm2  1  0.710259  0.085810  0.873521  1
  Tm  Tm3  1  0.710168  0.914154  0.373389  1
  Tm  Tm4  1  0.585856  0.789656  0.873366  1
  Tm  Tm5  1  0.586611  0.210166  0.373413  1
  Tm  Tm6  1  0.414741  0.789422  0.373531  1
  Tm  Tm7  1  0.414978  0.210372  0.873380  1
  Tm  Tm8  1  0.210054  0.414568  0.626872  1
  Tm  Tm9  1  0.210156  0.585667  0.126266  1
  Tm  Tm10  1  0.789870  0.414493  0.126431  1
  Tm  Tm11  1  0.789915  0.585605  0.626316  1
  Tm  Tm12  1  0.914362  0.709997  0.126483  1
  Tm  Tm13  1  0.914344  0.289964  0.626274  1
  Tm  Tm14  1  0.085632  0.710033  0.626765  1
  Tm  Tm15  1  0.084707  0.290595  0.125935  1
  Hf  Hf16  1  0.998920  0.999449  0.500746  1
  Hf  Hf17  1  0.999728  0.999737  0.000410  1
  Hf  Hf18  1  0.500290  0.500217  0.000056  1
  Hf  Hf19  1  0.500116  0.500033  0.500380  1
  Ir  Ir20  1  0.855341  0.144784  0.250185  1
  Ir  Ir21  1  0.855092  0.855152  0.749916  1
  Ir  Ir22  1  0.143510  0.145145  0.752252  1
  Ir  Ir23  1  0.143680  0.853989  0.249355  1
  Ir  Ir24  1  0.644836  0.355381  0.749987  1
  Ir  Ir25  1  0.644725  0.644718  0.250228  1
  Ir  Ir26  1  0.355598  0.356701  0.249251  1
  Ir  Ir27  1  0.355301  0.644716  0.749839  1
  Ir  Ir28  1  0.501184  0.999507  0.119281  1
  Ir  Ir29  1  0.501170  0.999515  0.621310  1
  Ir  Ir30  1  0.999954  0.499997  0.879564  1
  Ir  Ir31  1  0.999997  0.500194  0.379756  1
