# generated using pymatgen
data_Nd2HoEr5(CdPt)2
_symmetry_space_group_name_H-M   'P 1'
_cell_length_a   9.70054119
_cell_length_b   9.67887646
_cell_length_c   9.67887706
_cell_angle_alpha   60.14815159
_cell_angle_beta   59.92592738
_cell_angle_gamma   59.92592625
_symmetry_Int_Tables_number   1
_chemical_formula_structural   Nd2HoEr5(CdPt)2
_chemical_formula_sum   'Nd4 Ho2 Er10 Cd4 Pt4'
_cell_volume   642.57902011
_cell_formula_units_Z   2
loop_
 _symmetry_equiv_pos_site_id
 _symmetry_equiv_pos_as_xyz
  1  'x, y, z'
loop_
 _atom_site_type_symbol
 _atom_site_label
 _atom_site_symmetry_multiplicity
 _atom_site_fract_x
 _atom_site_fract_y
 _atom_site_fract_z
 _atom_site_occupancy
  Nd  Nd0  1  0.564923  0.935077  0.564923  1
  Nd  Nd1  1  0.935077  0.564923  0.935077  1
  Nd  Nd2  1  0.564923  0.564923  0.935077  1
  Nd  Nd3  1  0.935077  0.935077  0.564923  1
  Ho  Ho4  1  0.942501  0.557499  0.557499  1
  Ho  Ho5  1  0.557499  0.942501  0.942501  1
  Er  Er6  1  0.351816  0.350477  0.350477  1
  Er  Er7  1  0.350477  0.351816  0.947232  1
  Er  Er8  1  0.350477  0.947232  0.351816  1
  Er  Er9  1  0.947232  0.350477  0.350477  1
  Er  Er10  1  0.811607  0.188393  0.188393  1
  Er  Er11  1  0.188393  0.811607  0.811607  1
  Er  Er12  1  0.188776  0.811224  0.188776  1
  Er  Er13  1  0.811224  0.188776  0.811224  1
  Er  Er14  1  0.188776  0.188776  0.811224  1
  Er  Er15  1  0.811224  0.811224  0.188776  1
  Cd  Cd16  1  0.583176  0.578963  0.578963  1
  Cd  Cd17  1  0.578963  0.583176  0.258897  1
  Cd  Cd18  1  0.578963  0.258897  0.583176  1
  Cd  Cd19  1  0.258897  0.578963  0.578963  1
  Pt  Pt20  1  0.145525  0.141470  0.141470  1
  Pt  Pt21  1  0.141470  0.145525  0.571536  1
  Pt  Pt22  1  0.141470  0.571536  0.145525  1
  Pt  Pt23  1  0.571536  0.141470  0.141470  1
