# generated using pymatgen
data_DyHo7(AgRh)2
_symmetry_space_group_name_H-M   'P 1'
_cell_length_a   9.46573161
_cell_length_b   9.46617363
_cell_length_c   9.46383836
_cell_angle_alpha   60.42376793
_cell_angle_beta   60.43243973
_cell_angle_gamma   60.51148647
_symmetry_Int_Tables_number   1
_chemical_formula_structural   DyHo7(AgRh)2
_chemical_formula_sum   'Dy2 Ho14 Ag4 Rh4'
_cell_volume   605.80573585
_cell_formula_units_Z   2
loop_
 _symmetry_equiv_pos_site_id
 _symmetry_equiv_pos_as_xyz
  1  'x, y, z'
loop_
 _atom_site_type_symbol
 _atom_site_label
 _atom_site_symmetry_multiplicity
 _atom_site_fract_x
 _atom_site_fract_y
 _atom_site_fract_z
 _atom_site_occupancy
  Dy  Dy0  1  0.935591  0.935643  0.565609  1
  Dy  Dy1  1  0.564926  0.564827  0.934623  1
  Ho  Ho2  1  0.688388  0.688356  0.313108  1
  Ho  Ho3  1  0.147118  0.557781  0.146710  1
  Ho  Ho4  1  0.688044  0.313057  0.688109  1
  Ho  Ho5  1  0.146813  0.146861  0.147008  1
  Ho  Ho6  1  0.557650  0.147161  0.146753  1
  Ho  Ho7  1  0.687783  0.313011  0.313346  1
  Ho  Ho8  1  0.146798  0.146771  0.558593  1
  Ho  Ho9  1  0.312925  0.687776  0.313379  1
  Ho  Ho10  1  0.313061  0.688020  0.688099  1
  Ho  Ho11  1  0.935465  0.565098  0.564142  1
  Ho  Ho12  1  0.935810  0.565011  0.935536  1
  Ho  Ho13  1  0.565153  0.935386  0.564060  1
  Ho  Ho14  1  0.564960  0.935687  0.935557  1
  Ho  Ho15  1  0.312581  0.312583  0.688150  1
  Ag  Ag16  1  0.917562  0.917552  0.245366  1
  Ag  Ag17  1  0.245849  0.917537  0.917648  1
  Ag  Ag18  1  0.917290  0.917229  0.917550  1
  Ag  Ag19  1  0.917560  0.245789  0.917727  1
  Rh  Rh20  1  0.355468  0.355683  0.930396  1
  Rh  Rh21  1  0.355890  0.930637  0.355523  1
  Rh  Rh22  1  0.930722  0.355844  0.355390  1
  Rh  Rh23  1  0.356591  0.356698  0.357613  1
