# generated using pymatgen
data_YHoCo9As7Ru3
_symmetry_space_group_name_H-M   'P 1'
_cell_length_a   3.81121800
_cell_length_b   9.37403796
_cell_length_c   9.37403700
_cell_angle_alpha   120.00000013
_cell_angle_beta   90.00000000
_cell_angle_gamma   90.00000000
_symmetry_Int_Tables_number   1
_chemical_formula_structural   YHoCo9As7Ru3
_chemical_formula_sum   'Y1 Ho1 Co9 As7 Ru3'
_cell_volume   290.03325281
_cell_formula_units_Z   1
loop_
 _symmetry_equiv_pos_site_id
 _symmetry_equiv_pos_as_xyz
  1  'x, y, z'
loop_
 _atom_site_type_symbol
 _atom_site_label
 _atom_site_symmetry_multiplicity
 _atom_site_fract_x
 _atom_site_fract_y
 _atom_site_fract_z
 _atom_site_occupancy
  Y  Y0  1  0.500000  0.333333  0.666667  1
  Ho  Ho1  1  0.000000  0.666667  0.333333  1
  Co  Co2  1  0.000000  0.569124  0.941019  1
  Co  Co3  1  0.000000  0.371895  0.430876  1
  Co  Co4  1  0.000000  0.058981  0.628105  1
  Co  Co5  1  0.000000  0.875920  0.158292  1
  Co  Co6  1  0.000000  0.282372  0.124080  1
  Co  Co7  1  0.000000  0.841708  0.717628  1
  Co  Co8  1  0.500000  0.946484  0.382985  1
  Co  Co9  1  0.500000  0.436500  0.053516  1
  Co  Co10  1  0.500000  0.617015  0.563500  1
  As  As11  1  0.000000  0.000000  0.000000  1
  As  As12  1  0.500000  0.708193  0.117544  1
  As  As13  1  0.500000  0.409351  0.291807  1
  As  As14  1  0.500000  0.882456  0.590649  1
  As  As15  1  0.000000  0.587986  0.701434  1
  As  As16  1  0.000000  0.113448  0.412014  1
  As  As17  1  0.000000  0.298566  0.886552  1
  Ru  Ru18  1  0.500000  0.780565  0.900221  1
  Ru  Ru19  1  0.500000  0.119656  0.219435  1
  Ru  Ru20  1  0.500000  0.099779  0.880344  1
