# generated using pymatgen
data_Ho16Cd2TcNi3Hg2
_symmetry_space_group_name_H-M   'P 1'
_cell_length_a   9.54649178
_cell_length_b   9.54649177
_cell_length_c   9.54902319
_cell_angle_alpha   59.42898260
_cell_angle_beta   59.42898408
_cell_angle_gamma   59.48983734
_symmetry_Int_Tables_number   1
_chemical_formula_structural   Ho16Cd2TcNi3Hg2
_chemical_formula_sum   'Ho16 Cd2 Tc1 Ni3 Hg2'
_cell_volume   607.65291655
_cell_formula_units_Z   1
loop_
 _symmetry_equiv_pos_site_id
 _symmetry_equiv_pos_as_xyz
  1  'x, y, z'
loop_
 _atom_site_type_symbol
 _atom_site_label
 _atom_site_symmetry_multiplicity
 _atom_site_fract_x
 _atom_site_fract_y
 _atom_site_fract_z
 _atom_site_occupancy
  Ho  Ho0  1  0.346878  0.346878  0.347245  1
  Ho  Ho1  1  0.352971  0.352971  0.951839  1
  Ho  Ho2  1  0.354271  0.949573  0.353449  1
  Ho  Ho3  1  0.949573  0.354271  0.353449  1
  Ho  Ho4  1  0.810378  0.186922  0.188623  1
  Ho  Ho5  1  0.186597  0.810608  0.811104  1
  Ho  Ho6  1  0.186922  0.810378  0.188623  1
  Ho  Ho7  1  0.810608  0.186597  0.811104  1
  Ho  Ho8  1  0.187308  0.187308  0.810878  1
  Ho  Ho9  1  0.809731  0.809731  0.187842  1
  Ho  Ho10  1  0.935673  0.564800  0.565440  1
  Ho  Ho11  1  0.554786  0.938709  0.939869  1
  Ho  Ho12  1  0.564800  0.935673  0.565440  1
  Ho  Ho13  1  0.938709  0.554786  0.939869  1
  Ho  Ho14  1  0.564542  0.564542  0.937625  1
  Ho  Ho15  1  0.939239  0.939239  0.554973  1
  Cd  Cd16  1  0.579386  0.256836  0.579460  1
  Cd  Cd17  1  0.256836  0.579386  0.579460  1
  Tc  Tc18  1  0.143697  0.143697  0.144804  1
  Ni  Ni19  1  0.142765  0.142765  0.574211  1
  Ni  Ni20  1  0.142609  0.574927  0.143052  1
  Ni  Ni21  1  0.574927  0.142609  0.143052  1
  Hg  Hg22  1  0.583240  0.583240  0.584862  1
  Hg  Hg23  1  0.583552  0.583552  0.243726  1
