# generated using pymatgen
data_Ca21Ga8AgSn6
_symmetry_space_group_name_H-M   'P 1'
_cell_length_a   11.43758684
_cell_length_b   11.43758702
_cell_length_c   11.43758700
_cell_angle_alpha   60.00000295
_cell_angle_beta   60.00000242
_cell_angle_gamma   60.00000215
_symmetry_Int_Tables_number   1
_chemical_formula_structural   Ca21Ga8AgSn6
_chemical_formula_sum   'Ca21 Ga8 Ag1 Sn6'
_cell_volume   1058.00629840
_cell_formula_units_Z   1
loop_
 _symmetry_equiv_pos_site_id
 _symmetry_equiv_pos_as_xyz
  1  'x, y, z'
loop_
 _atom_site_type_symbol
 _atom_site_label
 _atom_site_symmetry_multiplicity
 _atom_site_fract_x
 _atom_site_fract_y
 _atom_site_fract_z
 _atom_site_occupancy
  Ca  Ca0  1  0.869612  0.869612  0.391163  1
  Ca  Ca1  1  0.608837  0.130388  0.130388  1
  Ca  Ca2  1  0.869612  0.391163  0.869612  1
  Ca  Ca3  1  0.130388  0.130388  0.130388  1
  Ca  Ca4  1  0.391163  0.869612  0.869612  1
  Ca  Ca5  1  0.869612  0.869612  0.869612  1
  Ca  Ca6  1  0.173441  0.826559  0.500000  1
  Ca  Ca7  1  0.826559  0.500000  0.500000  1
  Ca  Ca8  1  0.130388  0.130388  0.608837  1
  Ca  Ca9  1  0.826559  0.173441  0.500000  1
  Ca  Ca10  1  0.173441  0.500000  0.500000  1
  Ca  Ca11  1  0.130388  0.608837  0.130388  1
  Ca  Ca12  1  0.500000  0.500000  0.173441  1
  Ca  Ca13  1  0.500000  0.173441  0.826559  1
  Ca  Ca14  1  0.500000  0.826559  0.173441  1
  Ca  Ca15  1  0.500000  0.500000  0.826559  1
  Ca  Ca16  1  0.500000  0.173441  0.500000  1
  Ca  Ca17  1  0.173441  0.500000  0.826559  1
  Ca  Ca18  1  0.000000  0.000000  0.000000  1
  Ca  Ca19  1  0.500000  0.826559  0.500000  1
  Ca  Ca20  1  0.826559  0.500000  0.173441  1
  Ga  Ga21  1  0.690861  0.927417  0.690861  1
  Ga  Ga22  1  0.690861  0.690861  0.927417  1
  Ga  Ga23  1  0.690861  0.690861  0.690861  1
  Ga  Ga24  1  0.309139  0.072583  0.309139  1
  Ga  Ga25  1  0.927417  0.690861  0.690861  1
  Ga  Ga26  1  0.309139  0.309139  0.072583  1
  Ga  Ga27  1  0.072583  0.309139  0.309139  1
  Ga  Ga28  1  0.309139  0.309139  0.309139  1
  Ag  Ag29  1  0.500000  0.500000  0.500000  1
  Sn  Sn30  1  0.784576  0.215424  0.784576  1
  Sn  Sn31  1  0.784576  0.215424  0.215424  1
  Sn  Sn32  1  0.215424  0.784576  0.215424  1
  Sn  Sn33  1  0.215424  0.784576  0.784576  1
  Sn  Sn34  1  0.784576  0.784576  0.215424  1
  Sn  Sn35  1  0.215424  0.215424  0.784576  1
