# generated using pymatgen
data_Al2CdFe(PO5)2
_symmetry_space_group_name_H-M   'P 1'
_cell_length_a   5.64148554
_cell_length_b   7.32256771
_cell_length_c   10.83560900
_cell_angle_alpha   89.99896844
_cell_angle_beta   90.00184679
_cell_angle_gamma   97.71607885
_symmetry_Int_Tables_number   1
_chemical_formula_structural   Al2CdFe(PO5)2
_chemical_formula_sum   'Al4 Cd2 Fe2 P4 O20'
_cell_volume   443.56778513
_cell_formula_units_Z   2
loop_
 _symmetry_equiv_pos_site_id
 _symmetry_equiv_pos_as_xyz
  1  'x, y, z'
loop_
 _atom_site_type_symbol
 _atom_site_label
 _atom_site_symmetry_multiplicity
 _atom_site_fract_x
 _atom_site_fract_y
 _atom_site_fract_z
 _atom_site_occupancy
  Al  Al0  1  0.557818  0.360642  0.171046  1
  Al  Al1  1  0.942246  0.639369  0.671050  1
  Al  Al2  1  0.438562  0.641045  0.822343  1
  Al  Al3  1  0.061508  0.358944  0.322345  1
  Cd  Cd4  1  0.615859  0.013789  0.356084  1
  Cd  Cd5  1  0.884115  0.986259  0.856078  1
  Fe  Fe6  1  0.388463  0.980414  0.648172  1
  Fe  Fe7  1  0.111453  0.019591  0.148221  1
  P  P8  1  0.079613  0.770465  0.407883  1
  P  P9  1  0.420383  0.229511  0.907895  1
  P  P10  1  0.930662  0.222899  0.593762  1
  P  P11  1  0.569278  0.777128  0.093772  1
  O  O12  1  0.774872  0.280132  0.264682  1
  O  O13  1  0.725236  0.719857  0.764716  1
  O  O14  1  0.229074  0.731389  0.726642  1
  O  O15  1  0.271020  0.268583  0.226676  1
  O  O16  1  0.126176  0.600386  0.331969  1
  O  O17  1  0.373841  0.399596  0.831977  1
  O  O18  1  0.899980  0.396619  0.669276  1
  O  O19  1  0.600011  0.603403  0.169291  1
  O  O20  1  0.595016  0.288549  0.015750  1
  O  O21  1  0.905029  0.711438  0.515746  1
  O  O22  1  0.421836  0.725324  0.975597  1
  O  O23  1  0.078165  0.274656  0.475599  1
  O  O24  1  0.967312  0.904637  0.321776  1
  O  O25  1  0.532612  0.095315  0.821781  1
  O  O26  1  0.065926  0.094613  0.673087  1
  O  O27  1  0.434001  0.905425  0.173076  1
  O  O28  1  0.679404  0.122100  0.557691  1
  O  O29  1  0.820525  0.877927  0.057696  1
  O  O30  1  0.317528  0.865883  0.464149  1
  O  O31  1  0.182473  0.134112  0.964171  1
