# generated using pymatgen
data_Sc11TcIr2Os
_symmetry_space_group_name_H-M   'P 1'
_cell_length_a   9.47116463
_cell_length_b   9.47977143
_cell_length_c   9.47116485
_cell_angle_alpha   59.96993679
_cell_angle_beta   60.08356330
_cell_angle_gamma   59.96993824
_symmetry_Int_Tables_number   1
_chemical_formula_structural   Sc11TcIr2Os
_chemical_formula_sum   'Sc22 Tc2 Ir4 Os2'
_cell_volume   601.40277638
_cell_formula_units_Z   2
loop_
 _symmetry_equiv_pos_site_id
 _symmetry_equiv_pos_as_xyz
  1  'x, y, z'
loop_
 _atom_site_type_symbol
 _atom_site_label
 _atom_site_symmetry_multiplicity
 _atom_site_fract_x
 _atom_site_fract_y
 _atom_site_fract_z
 _atom_site_occupancy
  Sc  Sc0  1  0.844652  0.842175  0.844652  1
  Sc  Sc1  1  0.531505  0.156347  0.155800  1
  Sc  Sc2  1  0.155800  0.156347  0.531505  1
  Sc  Sc3  1  0.155348  0.531479  0.155348  1
  Sc  Sc4  1  0.844200  0.843653  0.468495  1
  Sc  Sc5  1  0.844652  0.468521  0.844652  1
  Sc  Sc6  1  0.468495  0.843653  0.844200  1
  Sc  Sc7  1  0.155348  0.157825  0.155348  1
  Sc  Sc8  1  0.197768  0.802232  0.197768  1
  Sc  Sc9  1  0.198016  0.801618  0.801984  1
  Sc  Sc10  1  0.801984  0.198382  0.198016  1
  Sc  Sc11  1  0.801984  0.801618  0.198016  1
  Sc  Sc12  1  0.198016  0.198382  0.801984  1
  Sc  Sc13  1  0.802232  0.197768  0.802232  1
  Sc  Sc14  1  0.383386  0.382662  0.383386  1
  Sc  Sc15  1  0.149507  0.616187  0.618120  1
  Sc  Sc16  1  0.616614  0.149436  0.616614  1
  Sc  Sc17  1  0.618120  0.616187  0.149507  1
  Sc  Sc18  1  0.383386  0.850564  0.383386  1
  Sc  Sc19  1  0.381880  0.383813  0.850493  1
  Sc  Sc20  1  0.850493  0.383813  0.381880  1
  Sc  Sc21  1  0.616614  0.617338  0.616614  1
  Tc  Tc22  1  0.500000  0.000000  0.500000  1
  Tc  Tc23  1  0.000000  0.000000  0.000000  1
  Ir  Ir24  1  0.500000  0.500000  0.000000  1
  Ir  Ir25  1  0.000000  0.000000  0.500000  1
  Ir  Ir26  1  0.000000  0.500000  0.500000  1
  Ir  Ir27  1  0.500000  0.000000  0.000000  1
  Os  Os28  1  0.000000  0.500000  0.000000  1
  Os  Os29  1  0.500000  0.500000  0.500000  1
