# generated using pymatgen
data_Pr8Cu3Si12Au
_symmetry_space_group_name_H-M   'P 1'
_cell_length_a   8.18325700
_cell_length_b   8.18325823
_cell_length_c   8.69285700
_cell_angle_alpha   90.00000000
_cell_angle_beta   90.00000000
_cell_angle_gamma   120.00000716
_symmetry_Int_Tables_number   1
_chemical_formula_structural   Pr8Cu3Si12Au
_chemical_formula_sum   'Pr8 Cu3 Si12 Au1'
_cell_volume   504.13352871
_cell_formula_units_Z   1
loop_
 _symmetry_equiv_pos_site_id
 _symmetry_equiv_pos_as_xyz
  1  'x, y, z'
loop_
 _atom_site_type_symbol
 _atom_site_label
 _atom_site_symmetry_multiplicity
 _atom_site_fract_x
 _atom_site_fract_y
 _atom_site_fract_z
 _atom_site_occupancy
  Pr  Pr0  1  0.498835  0.501165  0.747800  1
  Pr  Pr1  1  0.498971  0.501029  0.252255  1
  Pr  Pr2  1  0.002330  0.501165  0.747800  1
  Pr  Pr3  1  0.002060  0.501029  0.252255  1
  Pr  Pr4  1  0.498835  0.997670  0.747800  1
  Pr  Pr5  1  0.498971  0.997940  0.252255  1
  Pr  Pr6  1  0.000000  0.000000  0.748023  1
  Pr  Pr7  1  0.000000  0.000000  0.252146  1
  Cu  Cu8  1  0.333333  0.666667  0.999838  1
  Cu  Cu9  1  0.333333  0.666667  0.499589  1
  Cu  Cu10  1  0.666667  0.333333  0.499687  1
  Si  Si11  1  0.837382  0.162618  0.000353  1
  Si  Si12  1  0.169879  0.830121  0.999871  1
  Si  Si13  1  0.325236  0.162618  0.000353  1
  Si  Si14  1  0.168833  0.831167  0.499792  1
  Si  Si15  1  0.660242  0.830121  0.999871  1
  Si  Si16  1  0.830613  0.169387  0.500379  1
  Si  Si17  1  0.837382  0.674764  0.000353  1
  Si  Si18  1  0.662334  0.831167  0.499792  1
  Si  Si19  1  0.169879  0.339758  0.999871  1
  Si  Si20  1  0.338774  0.169387  0.500379  1
  Si  Si21  1  0.168833  0.337666  0.499792  1
  Si  Si22  1  0.830613  0.661226  0.500379  1
  Au  Au23  1  0.666667  0.333333  0.999368  1
