# generated using pymatgen
data_DyBeBOs
_symmetry_space_group_name_H-M   'P 1'
_cell_length_a   6.10018600
_cell_length_b   5.47127800
_cell_length_c   6.41932200
_cell_angle_alpha   90.00000000
_cell_angle_beta   90.00000000
_cell_angle_gamma   90.00000000
_symmetry_Int_Tables_number   1
_chemical_formula_structural   DyBeBOs
_chemical_formula_sum   'Dy4 Be4 B4 Os4'
_cell_volume   214.25009360
_cell_formula_units_Z   4
loop_
 _symmetry_equiv_pos_site_id
 _symmetry_equiv_pos_as_xyz
  1  'x, y, z'
loop_
 _atom_site_type_symbol
 _atom_site_label
 _atom_site_symmetry_multiplicity
 _atom_site_fract_x
 _atom_site_fract_y
 _atom_site_fract_z
 _atom_site_occupancy
  Dy  Dy0  1  0.000746  0.256721  0.349508  1
  Dy  Dy1  1  0.500746  0.243279  0.150492  1
  Dy  Dy2  1  0.999254  0.756721  0.650492  1
  Dy  Dy3  1  0.499254  0.743279  0.849508  1
  Be  Be4  1  0.364361  0.063726  0.542328  1
  Be  Be5  1  0.864361  0.436274  0.957672  1
  Be  Be6  1  0.635639  0.563726  0.457672  1
  Be  Be7  1  0.135639  0.936274  0.042328  1
  B  B8  1  0.641966  0.931739  0.446122  1
  B  B9  1  0.141966  0.568261  0.053878  1
  B  B10  1  0.358034  0.431739  0.553878  1
  B  B11  1  0.858034  0.068261  0.946122  1
  Os  Os12  1  0.174688  0.266108  0.813206  1
  Os  Os13  1  0.674688  0.233892  0.686794  1
  Os  Os14  1  0.825312  0.766108  0.186794  1
  Os  Os15  1  0.325312  0.733892  0.313206  1
