# generated using pymatgen
data_CaEr2Tm5(B6Ru)4
_symmetry_space_group_name_H-M   'P 1'
_cell_length_a   3.62483600
_cell_length_b   9.08263455
_cell_length_c   11.46777200
_cell_angle_alpha   89.91270552
_cell_angle_beta   90.00000000
_cell_angle_gamma   90.00000000
_symmetry_Int_Tables_number   1
_chemical_formula_structural   CaEr2Tm5(B6Ru)4
_chemical_formula_sum   'Ca1 Er2 Tm5 B24 Ru4'
_cell_volume   377.55371551
_cell_formula_units_Z   1
loop_
 _symmetry_equiv_pos_site_id
 _symmetry_equiv_pos_as_xyz
  1  'x, y, z'
loop_
 _atom_site_type_symbol
 _atom_site_label
 _atom_site_symmetry_multiplicity
 _atom_site_fract_x
 _atom_site_fract_y
 _atom_site_fract_z
 _atom_site_occupancy
  Ca  Ca0  1  0.000000  0.322272  0.413945  1
  Er  Er1  1  0.000000  0.676349  0.585050  1
  Er  Er2  1  0.000000  0.822103  0.086160  1
  Tm  Tm3  1  0.000000  0.178496  0.914693  1
  Tm  Tm4  1  0.000000  0.943898  0.371208  1
  Tm  Tm5  1  0.000000  0.057634  0.628268  1
  Tm  Tm6  1  0.000000  0.443095  0.129062  1
  Tm  Tm7  1  0.000000  0.556146  0.872459  1
  B  B8  1  0.500000  0.554864  0.432877  1
  B  B9  1  0.500000  0.446434  0.567920  1
  B  B10  1  0.500000  0.053215  0.065923  1
  B  B11  1  0.500000  0.945979  0.932793  1
  B  B12  1  0.500000  0.749190  0.419402  1
  B  B13  1  0.500000  0.251459  0.581771  1
  B  B14  1  0.500000  0.248058  0.079767  1
  B  B15  1  0.500000  0.751308  0.919779  1
  B  B16  1  0.500000  0.792040  0.265492  1
  B  B17  1  0.500000  0.209004  0.735133  1
  B  B18  1  0.500000  0.290150  0.233012  1
  B  B19  1  0.500000  0.708786  0.766086  1
  B  B20  1  0.500000  0.631933  0.185094  1
  B  B21  1  0.500000  0.368745  0.815967  1
  B  B22  1  0.500000  0.130163  0.313815  1
  B  B23  1  0.500000  0.868816  0.684819  1
  B  B24  1  0.500000  0.982407  0.211625  1
  B  B25  1  0.500000  0.017365  0.787425  1
  B  B26  1  0.500000  0.483918  0.287027  1
  B  B27  1  0.500000  0.517309  0.713219  1
  B  B28  1  0.500000  0.606901  0.029593  1
  B  B29  1  0.500000  0.393227  0.970888  1
  B  B30  1  0.500000  0.102329  0.471705  1
  B  B31  1  0.500000  0.895611  0.528833  1
  Ru  Ru32  1  0.000000  0.640398  0.319857  1
  Ru  Ru33  1  0.000000  0.361875  0.681441  1
  Ru  Ru34  1  0.000000  0.136374  0.177006  1
  Ru  Ru35  1  0.000000  0.862151  0.820884  1
