# generated using pymatgen
data_Tb4DyIrPt2
_symmetry_space_group_name_H-M   'P 1'
_cell_length_a   11.09658700
_cell_length_b   11.09658700
_cell_length_c   6.34855700
_cell_angle_alpha   90.00000000
_cell_angle_beta   90.00000000
_cell_angle_gamma   90.00000000
_symmetry_Int_Tables_number   1
_chemical_formula_structural   Tb4DyIrPt2
_chemical_formula_sum   'Tb16 Dy4 Ir4 Pt8'
_cell_volume   781.72476065
_cell_formula_units_Z   4
loop_
 _symmetry_equiv_pos_site_id
 _symmetry_equiv_pos_as_xyz
  1  'x, y, z'
loop_
 _atom_site_type_symbol
 _atom_site_label
 _atom_site_symmetry_multiplicity
 _atom_site_fract_x
 _atom_site_fract_y
 _atom_site_fract_z
 _atom_site_occupancy
  Tb  Tb0  1  0.294506  0.087882  0.374895  1
  Tb  Tb1  1  0.294506  0.912118  0.874895  1
  Tb  Tb2  1  0.705494  0.087882  0.874895  1
  Tb  Tb3  1  0.705494  0.912118  0.374895  1
  Tb  Tb4  1  0.587882  0.794506  0.874895  1
  Tb  Tb5  1  0.587882  0.205494  0.374895  1
  Tb  Tb6  1  0.412118  0.794506  0.374895  1
  Tb  Tb7  1  0.412118  0.205494  0.874895  1
  Tb  Tb8  1  0.205494  0.412118  0.625105  1
  Tb  Tb9  1  0.205494  0.587882  0.125105  1
  Tb  Tb10  1  0.794506  0.412118  0.125105  1
  Tb  Tb11  1  0.794506  0.587882  0.625105  1
  Tb  Tb12  1  0.912118  0.705494  0.125105  1
  Tb  Tb13  1  0.912118  0.294506  0.625105  1
  Tb  Tb14  1  0.087882  0.705494  0.625105  1
  Tb  Tb15  1  0.087882  0.294506  0.125105  1
  Dy  Dy16  1  0.000000  0.000000  0.500000  1
  Dy  Dy17  1  0.000000  0.000000  0.000000  1
  Dy  Dy18  1  0.500000  0.500000  0.000000  1
  Dy  Dy19  1  0.500000  0.500000  0.500000  1
  Ir  Ir20  1  0.500000  0.000000  0.120282  1
  Ir  Ir21  1  0.500000  0.000000  0.620282  1
  Ir  Ir22  1  0.000000  0.500000  0.879718  1
  Ir  Ir23  1  0.000000  0.500000  0.379718  1
  Pt  Pt24  1  0.846969  0.153031  0.250000  1
  Pt  Pt25  1  0.846969  0.846969  0.750000  1
  Pt  Pt26  1  0.153031  0.153031  0.750000  1
  Pt  Pt27  1  0.153031  0.846969  0.250000  1
  Pt  Pt28  1  0.653031  0.346969  0.750000  1
  Pt  Pt29  1  0.653031  0.653031  0.250000  1
  Pt  Pt30  1  0.346969  0.346969  0.250000  1
  Pt  Pt31  1  0.346969  0.653031  0.750000  1
