# generated using pymatgen
data_InCo2(Sb6Os)2
_symmetry_space_group_name_H-M   'P 1'
_cell_length_a   8.06237388
_cell_length_b   8.10441053
_cell_length_c   8.06237426
_cell_angle_alpha   109.56499612
_cell_angle_beta   109.17272049
_cell_angle_gamma   109.46455288
_symmetry_Int_Tables_number   1
_chemical_formula_structural   InCo2(Sb6Os)2
_chemical_formula_sum   'In1 Co2 Sb12 Os2'
_cell_volume   406.58296079
_cell_formula_units_Z   1
loop_
 _symmetry_equiv_pos_site_id
 _symmetry_equiv_pos_as_xyz
  1  'x, y, z'
loop_
 _atom_site_type_symbol
 _atom_site_label
 _atom_site_symmetry_multiplicity
 _atom_site_fract_x
 _atom_site_fract_y
 _atom_site_fract_z
 _atom_site_occupancy
  In  In0  1  0.000000  0.000000  0.000000  1
  Co  Co1  1  0.500000  0.500000  0.500000  1
  Co  Co2  1  0.000000  0.500000  0.000000  1
  Sb  Sb3  1  0.836390  0.658300  0.505218  1
  Sb  Sb4  1  0.163610  0.341700  0.494782  1
  Sb  Sb5  1  0.153082  0.658300  0.821910  1
  Sb  Sb6  1  0.846918  0.341700  0.178090  1
  Sb  Sb7  1  0.667666  0.507015  0.839349  1
  Sb  Sb8  1  0.332334  0.492985  0.160651  1
  Sb  Sb9  1  0.659356  0.815791  0.156434  1
  Sb  Sb10  1  0.340644  0.184209  0.843566  1
  Sb  Sb11  1  0.505613  0.836237  0.658185  1
  Sb  Sb12  1  0.494387  0.163763  0.341815  1
  Sb  Sb13  1  0.178052  0.836237  0.330624  1
  Sb  Sb14  1  0.821948  0.163763  0.669376  1
  Os  Os15  1  0.500000  0.000000  0.000000  1
  Os  Os16  1  0.000000  0.000000  0.500000  1
