# generated using pymatgen
data_Y4Tc2MoOs5
_symmetry_space_group_name_H-M   'P 1'
_cell_length_a   5.29654762
_cell_length_b   5.24442796
_cell_length_c   9.06187000
_cell_angle_alpha   90.00000000
_cell_angle_beta   90.00000000
_cell_angle_gamma   118.06064638
_symmetry_Int_Tables_number   1
_chemical_formula_structural   Y4Tc2MoOs5
_chemical_formula_sum   'Y4 Tc2 Mo1 Os5'
_cell_volume   222.12581041
_cell_formula_units_Z   1
loop_
 _symmetry_equiv_pos_site_id
 _symmetry_equiv_pos_as_xyz
  1  'x, y, z'
loop_
 _atom_site_type_symbol
 _atom_site_label
 _atom_site_symmetry_multiplicity
 _atom_site_fract_x
 _atom_site_fract_y
 _atom_site_fract_z
 _atom_site_occupancy
  Y  Y0  1  0.331169  0.669883  0.435052  1
  Y  Y1  1  0.668413  0.333277  0.565304  1
  Y  Y2  1  0.668413  0.333277  0.934696  1
  Y  Y3  1  0.331169  0.669883  0.064948  1
  Tc  Tc4  1  0.162751  0.834044  0.750000  1
  Tc  Tc5  1  0.170213  0.342955  0.750000  1
  Mo  Mo6  1  0.841079  0.159196  0.250000  1
  Os  Os7  1  0.000995  0.004312  0.501128  1
  Os  Os8  1  0.000995  0.004312  0.998872  1
  Os  Os9  1  0.825975  0.650463  0.250000  1
  Os  Os10  1  0.347943  0.172749  0.250000  1
  Os  Os11  1  0.650884  0.825651  0.750000  1
