# generated using pymatgen
data_Tb3LuSiI6
_symmetry_space_group_name_H-M   'P 1'
_cell_length_a   4.19424200
_cell_length_b   13.97874611
_cell_length_c   14.74670412
_cell_angle_alpha   89.98534041
_cell_angle_beta   90.00000000
_cell_angle_gamma   90.00000000
_symmetry_Int_Tables_number   1
_chemical_formula_structural   Tb3LuSiI6
_chemical_formula_sum   'Tb6 Lu2 Si2 I12'
_cell_volume   864.60283338
_cell_formula_units_Z   2
loop_
 _symmetry_equiv_pos_site_id
 _symmetry_equiv_pos_as_xyz
  1  'x, y, z'
loop_
 _atom_site_type_symbol
 _atom_site_label
 _atom_site_symmetry_multiplicity
 _atom_site_fract_x
 _atom_site_fract_y
 _atom_site_fract_z
 _atom_site_occupancy
  Tb  Tb0  1  0.500000  0.886750  0.651185  1
  Tb  Tb1  1  0.500000  0.614715  0.152857  1
  Tb  Tb2  1  0.500000  0.385142  0.847178  1
  Tb  Tb3  1  0.000000  0.890177  0.426420  1
  Tb  Tb4  1  0.000000  0.611780  0.924843  1
  Tb  Tb5  1  0.000000  0.387794  0.075572  1
  Lu  Lu6  1  0.500000  0.113193  0.349548  1
  Lu  Lu7  1  0.000000  0.109398  0.573713  1
  Si  Si8  1  0.500000  0.003820  0.500130  1
  Si  Si9  1  0.500000  0.499697  0.000080  1
  I  I10  1  0.500000  0.243285  0.164987  1
  I  I11  1  0.500000  0.755726  0.837444  1
  I  I12  1  0.500000  0.746056  0.338018  1
  I  I13  1  0.500000  0.250117  0.658957  1
  I  I14  1  0.000000  0.253981  0.414123  1
  I  I15  1  0.000000  0.740830  0.584708  1
  I  I16  1  0.000000  0.760106  0.085188  1
  I  I17  1  0.000000  0.239921  0.914980  1
  I  I18  1  0.000000  0.004079  0.242518  1
  I  I19  1  0.000000  0.004030  0.757549  1
  I  I20  1  0.000000  0.498731  0.260879  1
  I  I21  1  0.000000  0.500675  0.739124  1
