# generated using pymatgen
data_Y2Er4CrFeB14
_symmetry_space_group_name_H-M   'P 1'
_cell_length_a   7.99980725
_cell_length_b   7.99980800
_cell_length_c   9.29719900
_cell_angle_alpha   90.00000000
_cell_angle_beta   90.00000000
_cell_angle_gamma   155.30414365
_symmetry_Int_Tables_number   1
_chemical_formula_structural   Y2Er4CrFeB14
_chemical_formula_sum   'Y2 Er4 Cr1 Fe1 B14'
_cell_volume   248.58852199
_cell_formula_units_Z   1
loop_
 _symmetry_equiv_pos_site_id
 _symmetry_equiv_pos_as_xyz
  1  'x, y, z'
loop_
 _atom_site_type_symbol
 _atom_site_label
 _atom_site_symmetry_multiplicity
 _atom_site_fract_x
 _atom_site_fract_y
 _atom_site_fract_z
 _atom_site_occupancy
  Y  Y0  1  0.244148  0.755852  0.250000  1
  Y  Y1  1  0.756705  0.243295  0.750000  1
  Er  Er2  1  0.894810  0.105190  0.441463  1
  Er  Er3  1  0.104727  0.895273  0.559921  1
  Er  Er4  1  0.894810  0.105190  0.058537  1
  Er  Er5  1  0.104727  0.895273  0.940079  1
  Cr  Cr6  1  0.052503  0.947497  0.250000  1
  Fe  Fe7  1  0.946096  0.053904  0.750000  1
  B  B8  1  0.727662  0.272338  0.468303  1
  B  B9  1  0.273191  0.726809  0.533831  1
  B  B10  1  0.727662  0.272338  0.031697  1
  B  B11  1  0.273191  0.726809  0.966169  1
  B  B12  1  0.631259  0.368741  0.150903  1
  B  B13  1  0.370522  0.629478  0.847081  1
  B  B14  1  0.631259  0.368741  0.349097  1
  B  B15  1  0.370522  0.629478  0.652919  1
  B  B16  1  0.520465  0.479535  0.095849  1
  B  B17  1  0.478909  0.521091  0.902067  1
  B  B18  1  0.520465  0.479535  0.404151  1
  B  B19  1  0.478909  0.521091  0.597933  1
  B  B20  1  0.456595  0.543405  0.250000  1
  B  B21  1  0.540861  0.459139  0.750000  1
