# generated using pymatgen
data_ScCd3Pd2
_symmetry_space_group_name_H-M   'P 1'
_cell_length_a   8.71435273
_cell_length_b   8.71364445
_cell_length_c   8.71372802
_cell_angle_alpha   60.00676334
_cell_angle_beta   59.99992316
_cell_angle_gamma   60.00095013
_symmetry_Int_Tables_number   1
_chemical_formula_structural   ScCd3Pd2
_chemical_formula_sum   'Sc4 Cd12 Pd8'
_cell_volume   467.89567648
_cell_formula_units_Z   4
loop_
 _symmetry_equiv_pos_site_id
 _symmetry_equiv_pos_as_xyz
  1  'x, y, z'
loop_
 _atom_site_type_symbol
 _atom_site_label
 _atom_site_symmetry_multiplicity
 _atom_site_fract_x
 _atom_site_fract_y
 _atom_site_fract_z
 _atom_site_occupancy
  Sc  Sc0  1  0.125000  0.625000  0.625000  1
  Sc  Sc1  1  0.625000  0.125000  0.625000  1
  Sc  Sc2  1  0.625000  0.625000  0.125000  1
  Sc  Sc3  1  0.625000  0.625000  0.625000  1
  Cd  Cd4  1  0.813593  0.813607  0.186403  1
  Cd  Cd5  1  0.186396  0.186400  0.813591  1
  Cd  Cd6  1  0.813599  0.186403  0.813603  1
  Cd  Cd7  1  0.186402  0.813591  0.186400  1
  Cd  Cd8  1  0.186404  0.813604  0.813593  1
  Cd  Cd9  1  0.813588  0.186399  0.186395  1
  Cd  Cd10  1  0.436407  0.436393  0.063597  1
  Cd  Cd11  1  0.063604  0.063600  0.436409  1
  Cd  Cd12  1  0.436401  0.063597  0.436397  1
  Cd  Cd13  1  0.063598  0.436409  0.063600  1
  Cd  Cd14  1  0.063596  0.436396  0.436407  1
  Cd  Cd15  1  0.436412  0.063601  0.063605  1
  Pd  Pd16  1  0.763171  0.412287  0.412271  1
  Pd  Pd17  1  0.412275  0.763176  0.412274  1
  Pd  Pd18  1  0.412270  0.412286  0.763175  1
  Pd  Pd19  1  0.412279  0.412286  0.412272  1
  Pd  Pd20  1  0.486829  0.837713  0.837729  1
  Pd  Pd21  1  0.837725  0.486824  0.837726  1
  Pd  Pd22  1  0.837730  0.837714  0.486825  1
  Pd  Pd23  1  0.837721  0.837714  0.837728  1
