# generated using pymatgen
data_GdAlCu5
_symmetry_space_group_name_H-M   'P 1'
_cell_length_a   5.01452000
_cell_length_b   8.09572300
_cell_length_c   10.21246800
_cell_angle_alpha   90.00000000
_cell_angle_beta   90.00000000
_cell_angle_gamma   90.00000000
_symmetry_Int_Tables_number   1
_chemical_formula_structural   GdAlCu5
_chemical_formula_sum   'Gd4 Al4 Cu20'
_cell_volume   414.58703494
_cell_formula_units_Z   4
loop_
 _symmetry_equiv_pos_site_id
 _symmetry_equiv_pos_as_xyz
  1  'x, y, z'
loop_
 _atom_site_type_symbol
 _atom_site_label
 _atom_site_symmetry_multiplicity
 _atom_site_fract_x
 _atom_site_fract_y
 _atom_site_fract_z
 _atom_site_occupancy
  Gd  Gd0  1  0.250000  0.756740  0.059731  1
  Gd  Gd1  1  0.750000  0.243260  0.940269  1
  Gd  Gd2  1  0.750000  0.743260  0.559731  1
  Gd  Gd3  1  0.250000  0.256740  0.440269  1
  Al  Al4  1  0.250000  0.645520  0.356191  1
  Al  Al5  1  0.750000  0.354480  0.643809  1
  Al  Al6  1  0.750000  0.854480  0.856191  1
  Al  Al7  1  0.250000  0.145520  0.143809  1
  Cu  Cu8  1  0.250000  0.818111  0.753739  1
  Cu  Cu9  1  0.750000  0.181889  0.246261  1
  Cu  Cu10  1  0.750000  0.681889  0.253739  1
  Cu  Cu11  1  0.250000  0.318111  0.746261  1
  Cu  Cu12  1  0.505735  0.566007  0.805563  1
  Cu  Cu13  1  0.494265  0.433993  0.194437  1
  Cu  Cu14  1  0.494265  0.933993  0.305563  1
  Cu  Cu15  1  0.005735  0.433993  0.194437  1
  Cu  Cu16  1  0.505735  0.066007  0.694437  1
  Cu  Cu17  1  0.994265  0.566007  0.805563  1
  Cu  Cu18  1  0.994265  0.066007  0.694437  1
  Cu  Cu19  1  0.005735  0.933993  0.305563  1
  Cu  Cu20  1  0.250000  0.905975  0.515666  1
  Cu  Cu21  1  0.750000  0.094025  0.484334  1
  Cu  Cu22  1  0.750000  0.594025  0.015666  1
  Cu  Cu23  1  0.250000  0.405975  0.984334  1
  Cu  Cu24  1  0.250000  0.561316  0.590598  1
  Cu  Cu25  1  0.750000  0.438684  0.409402  1
  Cu  Cu26  1  0.750000  0.938684  0.090598  1
  Cu  Cu27  1  0.250000  0.061316  0.909402  1
