# generated using pymatgen
data_Tm6MnB14Os
_symmetry_space_group_name_H-M   'P 1'
_cell_length_a   7.92701123
_cell_length_b   7.92701138
_cell_length_c   9.21769800
_cell_angle_alpha   90.00000000
_cell_angle_beta   90.00000000
_cell_angle_gamma   154.87408296
_symmetry_Int_Tables_number   1
_chemical_formula_structural   Tm6MnB14Os
_chemical_formula_sum   'Tm6 Mn1 B14 Os1'
_cell_volume   245.94082647
_cell_formula_units_Z   1
loop_
 _symmetry_equiv_pos_site_id
 _symmetry_equiv_pos_as_xyz
  1  'x, y, z'
loop_
 _atom_site_type_symbol
 _atom_site_label
 _atom_site_symmetry_multiplicity
 _atom_site_fract_x
 _atom_site_fract_y
 _atom_site_fract_z
 _atom_site_occupancy
  Tm  Tm0  1  0.894437  0.105563  0.443534  1
  Tm  Tm1  1  0.104968  0.895032  0.563214  1
  Tm  Tm2  1  0.894437  0.105563  0.056466  1
  Tm  Tm3  1  0.104968  0.895032  0.936786  1
  Tm  Tm4  1  0.244812  0.755188  0.250000  1
  Tm  Tm5  1  0.758756  0.241244  0.750000  1
  Mn  Mn6  1  0.947416  0.052584  0.750000  1
  B  B7  1  0.727561  0.272439  0.466390  1
  B  B8  1  0.272134  0.727866  0.534501  1
  B  B9  1  0.727561  0.272439  0.033610  1
  B  B10  1  0.272134  0.727866  0.965499  1
  B  B11  1  0.632309  0.367691  0.149739  1
  B  B12  1  0.369591  0.630409  0.846675  1
  B  B13  1  0.632309  0.367691  0.350261  1
  B  B14  1  0.369591  0.630409  0.653325  1
  B  B15  1  0.519399  0.480601  0.094695  1
  B  B16  1  0.479175  0.520825  0.902138  1
  B  B17  1  0.519399  0.480601  0.405305  1
  B  B18  1  0.479175  0.520825  0.597862  1
  B  B19  1  0.453334  0.546666  0.250000  1
  B  B20  1  0.543258  0.456742  0.750000  1
  Os  Os21  1  0.053274  0.946726  0.250000  1
