# generated using pymatgen
data_Yb3Y5(B6Os)4
_symmetry_space_group_name_H-M   'P 1'
_cell_length_a   3.65252500
_cell_length_b   9.16976134
_cell_length_c   11.55545395
_cell_angle_alpha   89.91818092
_cell_angle_beta   90.00000000
_cell_angle_gamma   90.00000000
_symmetry_Int_Tables_number   1
_chemical_formula_structural   Yb3Y5(B6Os)4
_chemical_formula_sum   'Yb3 Y5 B24 Os4'
_cell_volume   387.02391141
_cell_formula_units_Z   1
loop_
 _symmetry_equiv_pos_site_id
 _symmetry_equiv_pos_as_xyz
  1  'x, y, z'
loop_
 _atom_site_type_symbol
 _atom_site_label
 _atom_site_symmetry_multiplicity
 _atom_site_fract_x
 _atom_site_fract_y
 _atom_site_fract_z
 _atom_site_occupancy
  Yb  Yb0  1  0.000000  0.325183  0.414298  1
  Yb  Yb1  1  0.000000  0.674860  0.585118  1
  Yb  Yb2  1  0.000000  0.823685  0.086512  1
  Y  Y3  1  0.000000  0.175772  0.914743  1
  Y  Y4  1  0.000000  0.941199  0.367767  1
  Y  Y5  1  0.000000  0.057833  0.630419  1
  Y  Y6  1  0.000000  0.443230  0.132148  1
  Y  Y7  1  0.000000  0.558496  0.868644  1
  B  B8  1  0.500000  0.553162  0.433215  1
  B  B9  1  0.500000  0.446405  0.567413  1
  B  B10  1  0.500000  0.053372  0.067035  1
  B  B11  1  0.500000  0.945763  0.933473  1
  B  B12  1  0.500000  0.747627  0.417702  1
  B  B13  1  0.500000  0.252187  0.582132  1
  B  B14  1  0.500000  0.248200  0.082142  1
  B  B15  1  0.500000  0.752436  0.918133  1
  B  B16  1  0.500000  0.790233  0.264490  1
  B  B17  1  0.500000  0.209329  0.735351  1
  B  B18  1  0.500000  0.290561  0.234821  1
  B  B19  1  0.500000  0.710505  0.765102  1
  B  B20  1  0.500000  0.631447  0.186647  1
  B  B21  1  0.500000  0.368849  0.814162  1
  B  B22  1  0.500000  0.131359  0.313104  1
  B  B23  1  0.500000  0.868922  0.685760  1
  B  B24  1  0.500000  0.983092  0.210448  1
  B  B25  1  0.500000  0.016491  0.788729  1
  B  B26  1  0.500000  0.484054  0.289442  1
  B  B27  1  0.500000  0.515980  0.711215  1
  B  B28  1  0.500000  0.600443  0.028004  1
  B  B29  1  0.500000  0.399311  0.972204  1
  B  B30  1  0.500000  0.097994  0.472094  1
  B  B31  1  0.500000  0.901760  0.526796  1
  Os  Os32  1  0.000000  0.638343  0.321492  1
  Os  Os33  1  0.000000  0.360554  0.679839  1
  Os  Os34  1  0.000000  0.137991  0.178487  1
  Os  Os35  1  0.000000  0.863372  0.820920  1
