# generated using pymatgen
data_Ta2Cr3Ga
_symmetry_space_group_name_H-M   'P 1'
_cell_length_a   4.86843000
_cell_length_b   4.86842995
_cell_length_c   8.28802000
_cell_angle_alpha   90.00000000
_cell_angle_beta   90.00000000
_cell_angle_gamma   120.00000033
_symmetry_Int_Tables_number   1
_chemical_formula_structural   Ta2Cr3Ga
_chemical_formula_sum   'Ta4 Cr6 Ga2'
_cell_volume   170.12152853
_cell_formula_units_Z   2
loop_
 _symmetry_equiv_pos_site_id
 _symmetry_equiv_pos_as_xyz
  1  'x, y, z'
loop_
 _atom_site_type_symbol
 _atom_site_label
 _atom_site_symmetry_multiplicity
 _atom_site_fract_x
 _atom_site_fract_y
 _atom_site_fract_z
 _atom_site_occupancy
  Ta  Ta0  1  0.333333  0.666667  0.433262  1
  Ta  Ta1  1  0.666667  0.333333  0.566738  1
  Ta  Ta2  1  0.666667  0.333333  0.933262  1
  Ta  Ta3  1  0.333333  0.666667  0.066738  1
  Cr  Cr4  1  0.825617  0.174383  0.250000  1
  Cr  Cr5  1  0.825617  0.651234  0.250000  1
  Cr  Cr6  1  0.348766  0.174383  0.250000  1
  Cr  Cr7  1  0.174383  0.825617  0.750000  1
  Cr  Cr8  1  0.174383  0.348766  0.750000  1
  Cr  Cr9  1  0.651234  0.825617  0.750000  1
  Ga  Ga10  1  0.000000  0.000000  0.500000  1
  Ga  Ga11  1  0.000000  0.000000  0.000000  1
