# generated using pymatgen
data_Dy6Er2Ti12Si15Sn
_symmetry_space_group_name_H-M   'P 1'
_cell_length_a   7.10750225
_cell_length_b   7.06925570
_cell_length_c   13.01231601
_cell_angle_alpha   89.98056979
_cell_angle_beta   89.74096858
_cell_angle_gamma   89.94909219
_symmetry_Int_Tables_number   1
_chemical_formula_structural   Dy6Er2Ti12Si15Sn
_chemical_formula_sum   'Dy6 Er2 Ti12 Si15 Sn1'
_cell_volume   653.79359953
_cell_formula_units_Z   1
loop_
 _symmetry_equiv_pos_site_id
 _symmetry_equiv_pos_as_xyz
  1  'x, y, z'
loop_
 _atom_site_type_symbol
 _atom_site_label
 _atom_site_symmetry_multiplicity
 _atom_site_fract_x
 _atom_site_fract_y
 _atom_site_fract_z
 _atom_site_occupancy
  Dy  Dy0  1  0.342554  0.999144  0.461504  1
  Dy  Dy1  1  0.505096  0.835356  0.718120  1
  Dy  Dy2  1  0.502712  0.159796  0.216797  1
  Dy  Dy3  1  0.841041  0.496792  0.282122  1
  Dy  Dy4  1  0.159267  0.510286  0.786056  1
  Dy  Dy5  1  0.662151  0.996529  0.968846  1
  Er  Er6  1  0.991401  0.348551  0.527546  1
  Er  Er7  1  0.000409  0.659191  0.034058  1
  Ti  Ti8  1  0.326761  0.326659  0.001292  1
  Ti  Ti9  1  0.174133  0.825563  0.249637  1
  Ti  Ti10  1  0.816251  0.175705  0.752023  1
  Ti  Ti11  1  0.672346  0.672818  0.499507  1
  Ti  Ti12  1  0.153044  0.008508  0.883686  1
  Ti  Ti13  1  0.492556  0.650384  0.126819  1
  Ti  Ti14  1  0.515044  0.353500  0.626660  1
  Ti  Ti15  1  0.654939  0.493175  0.875676  1
  Ti  Ti16  1  0.346452  0.509271  0.372632  1
  Ti  Ti17  1  0.846690  0.991554  0.375855  1
  Ti  Ti18  1  0.010742  0.151007  0.123058  1
  Ti  Ti19  1  0.978666  0.835592  0.618465  1
  Si  Si20  1  0.371467  0.702554  0.936320  1
  Si  Si21  1  0.627606  0.297826  0.433219  1
  Si  Si22  1  0.705035  0.370542  0.066536  1
  Si  Si23  1  0.295575  0.629527  0.565369  1
  Si  Si24  1  0.798771  0.869483  0.183935  1
  Si  Si25  1  0.128995  0.202551  0.314887  1
  Si  Si26  1  0.871324  0.800488  0.816049  1
  Si  Si27  1  0.292809  0.951201  0.067035  1
  Si  Si28  1  0.549608  0.788770  0.313575  1
  Si  Si29  1  0.458912  0.211218  0.820128  1
  Si  Si30  1  0.793317  0.544654  0.686604  1
  Si  Si31  1  0.209566  0.452820  0.184815  1
  Si  Si32  1  0.706556  0.049179  0.564527  1
  Si  Si33  1  0.953198  0.292284  0.935470  1
  Si  Si34  1  0.047082  0.710064  0.432734  1
  Sn  Sn35  1  0.197922  0.127463  0.678437  1
