# generated using pymatgen
data_Eu6AgRh
_symmetry_space_group_name_H-M   'P 1'
_cell_length_a   6.78748100
_cell_length_b   7.87943600
_cell_length_c   10.08654200
_cell_angle_alpha   90.00000000
_cell_angle_beta   90.00000000
_cell_angle_gamma   90.00000000
_symmetry_Int_Tables_number   1
_chemical_formula_structural   Eu6AgRh
_chemical_formula_sum   'Eu12 Ag2 Rh2'
_cell_volume   539.44361930
_cell_formula_units_Z   2
loop_
 _symmetry_equiv_pos_site_id
 _symmetry_equiv_pos_as_xyz
  1  'x, y, z'
loop_
 _atom_site_type_symbol
 _atom_site_label
 _atom_site_symmetry_multiplicity
 _atom_site_fract_x
 _atom_site_fract_y
 _atom_site_fract_z
 _atom_site_occupancy
  Eu  Eu0  1  0.346873  0.677142  0.044687  1
  Eu  Eu1  1  0.153127  0.177142  0.455313  1
  Eu  Eu2  1  0.671828  0.326934  0.575439  1
  Eu  Eu3  1  0.828172  0.826934  0.924561  1
  Eu  Eu4  1  0.671828  0.326934  0.924561  1
  Eu  Eu5  1  0.828172  0.826934  0.575439  1
  Eu  Eu6  1  0.346873  0.677142  0.455313  1
  Eu  Eu7  1  0.153127  0.177142  0.044687  1
  Eu  Eu8  1  0.869884  0.528087  0.250000  1
  Eu  Eu9  1  0.630116  0.028087  0.250000  1
  Eu  Eu10  1  0.149857  0.458166  0.750000  1
  Eu  Eu11  1  0.350143  0.958166  0.750000  1
  Ag  Ag12  1  0.068082  0.883840  0.250000  1
  Ag  Ag13  1  0.431918  0.383840  0.250000  1
  Rh  Rh14  1  0.960670  0.121754  0.750000  1
  Rh  Rh15  1  0.539330  0.621754  0.750000  1
