# generated using pymatgen
data_Pr5Nd(Er2Sn3)2
_symmetry_space_group_name_H-M   'P 1'
_cell_length_a   9.18616000
_cell_length_b   9.17828469
_cell_length_c   6.69161100
_cell_angle_alpha   90.00000000
_cell_angle_beta   90.00000000
_cell_angle_gamma   120.02838770
_symmetry_Int_Tables_number   1
_chemical_formula_structural   Pr5Nd(Er2Sn3)2
_chemical_formula_sum   'Pr5 Nd1 Er4 Sn6'
_cell_volume   488.46398211
_cell_formula_units_Z   1
loop_
 _symmetry_equiv_pos_site_id
 _symmetry_equiv_pos_as_xyz
  1  'x, y, z'
loop_
 _atom_site_type_symbol
 _atom_site_label
 _atom_site_symmetry_multiplicity
 _atom_site_fract_x
 _atom_site_fract_y
 _atom_site_fract_z
 _atom_site_occupancy
  Pr  Pr0  1  0.241714  0.000000  0.250000  1
  Pr  Pr1  1  0.241546  0.241554  0.750000  1
  Pr  Pr2  1  0.999991  0.758446  0.750000  1
  Pr  Pr3  1  0.999931  0.241473  0.250000  1
  Pr  Pr4  1  0.758458  0.758527  0.250000  1
  Nd  Nd5  1  0.758008  0.000000  0.750000  1
  Er  Er6  1  0.333413  0.666741  0.999931  1
  Er  Er7  1  0.666674  0.333259  0.500069  1
  Er  Er8  1  0.666674  0.333259  0.999931  1
  Er  Er9  1  0.333413  0.666741  0.500069  1
  Sn  Sn10  1  0.600451  0.000000  0.250000  1
  Sn  Sn11  1  0.600692  0.601228  0.750000  1
  Sn  Sn12  1  0.999464  0.398772  0.750000  1
  Sn  Sn13  1  0.999924  0.600384  0.250000  1
  Sn  Sn14  1  0.399540  0.399616  0.250000  1
  Sn  Sn15  1  0.400106  0.000000  0.750000  1
