# generated using pymatgen
data_Nb6Al8Ni3Ir
_symmetry_space_group_name_H-M   'P 1'
_cell_length_a   8.75847878
_cell_length_b   8.80140658
_cell_length_c   8.18341800
_cell_angle_alpha   90.00000000
_cell_angle_beta   90.00000000
_cell_angle_gamma   121.10600712
_symmetry_Int_Tables_number   1
_chemical_formula_structural   Nb6Al8Ni3Ir
_chemical_formula_sum   'Nb12 Al16 Ni6 Ir2'
_cell_volume   540.12873213
_cell_formula_units_Z   2
loop_
 _symmetry_equiv_pos_site_id
 _symmetry_equiv_pos_as_xyz
  1  'x, y, z'
loop_
 _atom_site_type_symbol
 _atom_site_label
 _atom_site_symmetry_multiplicity
 _atom_site_fract_x
 _atom_site_fract_y
 _atom_site_fract_z
 _atom_site_occupancy
  Nb  Nb0  1  0.330423  0.993572  0.065024  1
  Nb  Nb1  1  0.669577  0.006428  0.934976  1
  Nb  Nb2  1  0.997708  0.331308  0.067638  1
  Nb  Nb3  1  0.669577  0.006428  0.565024  1
  Nb  Nb4  1  0.997708  0.331308  0.432362  1
  Nb  Nb5  1  0.002292  0.668692  0.932362  1
  Nb  Nb6  1  0.330423  0.993572  0.434976  1
  Nb  Nb7  1  0.002292  0.668692  0.567638  1
  Nb  Nb8  1  0.667070  0.663107  0.067299  1
  Nb  Nb9  1  0.332930  0.336893  0.932701  1
  Nb  Nb10  1  0.332930  0.336893  0.567299  1
  Nb  Nb11  1  0.667070  0.663107  0.432701  1
  Al  Al12  1  0.344966  0.846016  0.750000  1
  Al  Al13  1  0.651276  0.503475  0.750000  1
  Al  Al14  1  0.655034  0.153984  0.250000  1
  Al  Al15  1  0.348724  0.496525  0.250000  1
  Al  Al16  1  0.843901  0.341555  0.750000  1
  Al  Al17  1  0.156099  0.658445  0.250000  1
  Al  Al18  1  0.341659  0.664630  0.507136  1
  Al  Al19  1  0.658341  0.335370  0.492864  1
  Al  Al20  1  0.658341  0.335370  0.007136  1
  Al  Al21  1  0.341659  0.664630  0.992864  1
  Al  Al22  1  0.182768  0.011253  0.750000  1
  Al  Al23  1  0.817232  0.988747  0.250000  1
  Al  Al24  1  0.010955  0.183534  0.750000  1
  Al  Al25  1  0.989045  0.816466  0.250000  1
  Al  Al26  1  0.821933  0.833706  0.750000  1
  Al  Al27  1  0.178067  0.166294  0.250000  1
  Ni  Ni28  1  0.166726  0.501080  0.750000  1
  Ni  Ni29  1  0.833274  0.498920  0.250000  1
  Ni  Ni30  1  0.506640  0.673910  0.750000  1
  Ni  Ni31  1  0.505271  0.172987  0.750000  1
  Ni  Ni32  1  0.493360  0.326090  0.250000  1
  Ni  Ni33  1  0.494729  0.827013  0.250000  1
  Ir  Ir34  1  0.000000  0.000000  0.500000  1
  Ir  Ir35  1  0.000000  0.000000  0.000000  1
