# generated using pymatgen
data_Al4Tc3GeAs
_symmetry_space_group_name_H-M   'P 1'
_cell_length_a   4.72399485
_cell_length_b   4.70950074
_cell_length_c   6.74616657
_cell_angle_alpha   89.41331116
_cell_angle_beta   90.11952691
_cell_angle_gamma   119.80855938
_symmetry_Int_Tables_number   1
_chemical_formula_structural   Al4Tc3GeAs
_chemical_formula_sum   'Al4 Tc3 Ge1 As1'
_cell_volume   130.22104248
_cell_formula_units_Z   1
loop_
 _symmetry_equiv_pos_site_id
 _symmetry_equiv_pos_as_xyz
  1  'x, y, z'
loop_
 _atom_site_type_symbol
 _atom_site_label
 _atom_site_symmetry_multiplicity
 _atom_site_fract_x
 _atom_site_fract_y
 _atom_site_fract_z
 _atom_site_occupancy
  Al  Al0  1  0.168922  0.833055  0.502543  1
  Al  Al1  1  0.330415  0.165564  0.167764  1
  Al  Al2  1  0.832282  0.665126  0.829271  1
  Al  Al3  1  0.829445  0.169776  0.502955  1
  Tc  Tc4  1  0.996723  0.497147  0.162910  1
  Tc  Tc5  1  0.502720  0.001434  0.840897  1
  Tc  Tc6  1  0.501637  0.499742  0.496486  1
  Ge  Ge7  1  0.167528  0.332630  0.826948  1
  As  As8  1  0.670714  0.835139  0.170226  1
