# generated using pymatgen
data_LuMn12
_symmetry_space_group_name_H-M   'P 1'
_cell_length_a   6.28511513
_cell_length_b   6.28511465
_cell_length_c   6.28511466
_cell_angle_alpha   98.02566639
_cell_angle_beta   98.02567440
_cell_angle_gamma   136.11779713
_symmetry_Int_Tables_number   1
_chemical_formula_structural   LuMn12
_chemical_formula_sum   'Lu1 Mn12'
_cell_volume   159.63583082
_cell_formula_units_Z   1
loop_
 _symmetry_equiv_pos_site_id
 _symmetry_equiv_pos_as_xyz
  1  'x, y, z'
loop_
 _atom_site_type_symbol
 _atom_site_label
 _atom_site_symmetry_multiplicity
 _atom_site_fract_x
 _atom_site_fract_y
 _atom_site_fract_z
 _atom_site_occupancy
  Lu  Lu0  1  0.000000  0.000000  0.000000  1
  Mn  Mn1  1  0.500000  0.271869  0.771869  1
  Mn  Mn2  1  0.500000  0.000000  0.000000  1
  Mn  Mn3  1  0.500000  0.500000  0.500000  1
  Mn  Mn4  1  0.000000  0.000000  0.500000  1
  Mn  Mn5  1  0.000000  0.500000  0.000000  1
  Mn  Mn6  1  0.000000  0.635634  0.635634  1
  Mn  Mn7  1  0.364366  0.000000  0.364366  1
  Mn  Mn8  1  0.635634  0.000000  0.635634  1
  Mn  Mn9  1  0.000000  0.364366  0.364366  1
  Mn  Mn10  1  0.500000  0.728131  0.228131  1
  Mn  Mn11  1  0.271869  0.500000  0.771869  1
  Mn  Mn12  1  0.728131  0.500000  0.228131  1
