# generated using pymatgen
data_TmZr3TiSi4Mo3
_symmetry_space_group_name_H-M   'P 1'
_cell_length_a   3.59827800
_cell_length_b   7.04425710
_cell_length_c   8.30812655
_cell_angle_alpha   89.76804208
_cell_angle_beta   90.00000000
_cell_angle_gamma   90.00000000
_symmetry_Int_Tables_number   1
_chemical_formula_structural   TmZr3TiSi4Mo3
_chemical_formula_sum   'Tm1 Zr3 Ti1 Si4 Mo3'
_cell_volume   210.58598106
_cell_formula_units_Z   1
loop_
 _symmetry_equiv_pos_site_id
 _symmetry_equiv_pos_as_xyz
  1  'x, y, z'
loop_
 _atom_site_type_symbol
 _atom_site_label
 _atom_site_symmetry_multiplicity
 _atom_site_fract_x
 _atom_site_fract_y
 _atom_site_fract_z
 _atom_site_occupancy
  Tm  Tm0  1  0.250000  0.044171  0.334194  1
  Zr  Zr1  1  0.250000  0.545171  0.164384  1
  Zr  Zr2  1  0.750000  0.954618  0.669143  1
  Zr  Zr3  1  0.750000  0.461815  0.829927  1
  Ti  Ti4  1  0.250000  0.124257  0.938568  1
  Si  Si5  1  0.250000  0.258274  0.639253  1
  Si  Si6  1  0.250000  0.754448  0.864875  1
  Si  Si7  1  0.750000  0.736026  0.362565  1
  Si  Si8  1  0.750000  0.248523  0.134882  1
  Mo  Mo9  1  0.250000  0.628710  0.561475  1
  Mo  Mo10  1  0.750000  0.868320  0.057672  1
  Mo  Mo11  1  0.750000  0.375668  0.443061  1
