# generated using pymatgen
data_LiTb8Sc11Si15As
_symmetry_space_group_name_H-M   'P 1'
_cell_length_a   7.09983207
_cell_length_b   7.39544363
_cell_length_c   14.04056839
_cell_angle_alpha   90.12898078
_cell_angle_beta   89.50198354
_cell_angle_gamma   90.17868963
_symmetry_Int_Tables_number   1
_chemical_formula_structural   LiTb8Sc11Si15As
_chemical_formula_sum   'Li1 Tb8 Sc11 Si15 As1'
_cell_volume   737.18655338
_cell_formula_units_Z   1
loop_
 _symmetry_equiv_pos_site_id
 _symmetry_equiv_pos_as_xyz
  1  'x, y, z'
loop_
 _atom_site_type_symbol
 _atom_site_label
 _atom_site_symmetry_multiplicity
 _atom_site_fract_x
 _atom_site_fract_y
 _atom_site_fract_z
 _atom_site_occupancy
  Li  Li0  1  0.161531  0.503891  0.752711  1
  Tb  Tb1  1  0.012190  0.174486  0.096881  1
  Tb  Tb2  1  0.988445  0.816848  0.900303  1
  Tb  Tb3  1  0.483185  0.674396  0.900545  1
  Tb  Tb4  1  0.991543  0.815030  0.598193  1
  Tb  Tb5  1  0.511893  0.325207  0.097256  1
  Tb  Tb6  1  0.008651  0.177554  0.403803  1
  Tb  Tb7  1  0.508684  0.323531  0.402066  1
  Tb  Tb8  1  0.489868  0.673882  0.599810  1
  Sc  Sc9  1  0.836675  0.497650  0.251595  1
  Sc  Sc10  1  0.338647  0.001435  0.250693  1
  Sc  Sc11  1  0.660204  0.998789  0.749737  1
  Sc  Sc12  1  0.331757  0.178978  0.627660  1
  Sc  Sc13  1  0.666389  0.825481  0.374235  1
  Sc  Sc14  1  0.162269  0.675881  0.375957  1
  Sc  Sc15  1  0.670283  0.823507  0.124869  1
  Sc  Sc16  1  0.842309  0.329184  0.624545  1
  Sc  Sc17  1  0.327409  0.181507  0.873461  1
  Sc  Sc18  1  0.835710  0.326084  0.873165  1
  Sc  Sc19  1  0.169984  0.679213  0.125455  1
  Si  Si20  1  0.031372  0.106110  0.748650  1
  Si  Si21  1  0.967836  0.884787  0.250144  1
  Si  Si22  1  0.462793  0.619535  0.249145  1
  Si  Si23  1  0.540769  0.382862  0.750449  1
  Si  Si24  1  0.287470  0.882526  0.749851  1
  Si  Si25  1  0.713192  0.126452  0.249613  1
  Si  Si26  1  0.211082  0.375221  0.249947  1
  Si  Si27  1  0.779505  0.625835  0.749608  1
  Si  Si28  1  0.820223  0.540142  0.458868  1
  Si  Si29  1  0.341789  0.964188  0.462870  1
  Si  Si30  1  0.845022  0.535278  0.039237  1
  Si  Si31  1  0.659658  0.035423  0.540642  1
  Si  Si32  1  0.157374  0.461604  0.965646  1
  Si  Si33  1  0.655944  0.034376  0.959172  1
  Si  Si34  1  0.346801  0.966009  0.038336  1
  As  As35  1  0.181544  0.457119  0.534882  1
