# generated using pymatgen
data_Gd2TaIr3
_symmetry_space_group_name_H-M   'P 1'
_cell_length_a   5.26887881
_cell_length_b   5.70332539
_cell_length_c   5.70332500
_cell_angle_alpha   59.99999645
_cell_angle_beta   57.23274923
_cell_angle_gamma   57.23275599
_symmetry_Int_Tables_number   1
_chemical_formula_structural   Gd2TaIr3
_chemical_formula_sum   'Gd2 Ta1 Ir3'
_cell_volume   115.86895588
_cell_formula_units_Z   1
loop_
 _symmetry_equiv_pos_site_id
 _symmetry_equiv_pos_as_xyz
  1  'x, y, z'
loop_
 _atom_site_type_symbol
 _atom_site_label
 _atom_site_symmetry_multiplicity
 _atom_site_fract_x
 _atom_site_fract_y
 _atom_site_fract_z
 _atom_site_occupancy
  Gd  Gd0  1  0.503189  0.498937  0.498937  1
  Gd  Gd1  1  0.746811  0.751063  0.751063  1
  Ta  Ta2  1  0.625000  0.125000  0.125000  1
  Ir  Ir3  1  0.125000  0.125000  0.125000  1
  Ir  Ir4  1  0.125000  0.625000  0.125000  1
  Ir  Ir5  1  0.125000  0.125000  0.625000  1
