# generated using pymatgen
data_Ti3MnBe(FeAs)2
_symmetry_space_group_name_H-M   'P 1'
_cell_length_a   6.29787545
_cell_length_b   6.33788402
_cell_length_c   3.40791200
_cell_angle_alpha   90.00000000
_cell_angle_beta   90.00000000
_cell_angle_gamma   120.21037543
_symmetry_Int_Tables_number   1
_chemical_formula_structural   Ti3MnBe(FeAs)2
_chemical_formula_sum   'Ti3 Mn1 Be1 Fe2 As2'
_cell_volume   117.55275089
_cell_formula_units_Z   1
loop_
 _symmetry_equiv_pos_site_id
 _symmetry_equiv_pos_as_xyz
  1  'x, y, z'
loop_
 _atom_site_type_symbol
 _atom_site_label
 _atom_site_symmetry_multiplicity
 _atom_site_fract_x
 _atom_site_fract_y
 _atom_site_fract_z
 _atom_site_occupancy
  Ti  Ti0  1  0.000000  0.391601  0.500000  1
  Ti  Ti1  1  0.610691  0.607146  0.500000  1
  Ti  Ti2  1  0.389309  0.996455  0.500000  1
  Mn  Mn3  1  0.000000  0.765656  0.000000  1
  Be  Be4  1  0.000000  0.004896  0.500000  1
  Fe  Fe5  1  0.235570  0.236371  0.000000  1
  Fe  Fe6  1  0.764430  0.000801  0.000000  1
  As  As7  1  0.335204  0.666140  0.000000  1
  As  As8  1  0.664796  0.330935  0.000000  1
