# generated using pymatgen
data_CeAl4Ga2Rh
_symmetry_space_group_name_H-M   'P 1'
_cell_length_a   4.26872900
_cell_length_b   4.26872900
_cell_length_c   8.31225100
_cell_angle_alpha   90.00000000
_cell_angle_beta   90.00000000
_cell_angle_gamma   90.00000000
_symmetry_Int_Tables_number   1
_chemical_formula_structural   CeAl4Ga2Rh
_chemical_formula_sum   'Ce1 Al4 Ga2 Rh1'
_cell_volume   151.46623069
_cell_formula_units_Z   1
loop_
 _symmetry_equiv_pos_site_id
 _symmetry_equiv_pos_as_xyz
  1  'x, y, z'
loop_
 _atom_site_type_symbol
 _atom_site_label
 _atom_site_symmetry_multiplicity
 _atom_site_fract_x
 _atom_site_fract_y
 _atom_site_fract_z
 _atom_site_occupancy
  Ce  Ce0  1  0.000000  0.000000  0.000000  1
  Al  Al1  1  0.500000  0.000000  0.666434  1
  Al  Al2  1  0.000000  0.500000  0.666434  1
  Al  Al3  1  0.000000  0.500000  0.333566  1
  Al  Al4  1  0.500000  0.000000  0.333566  1
  Ga  Ga5  1  0.500000  0.500000  0.145437  1
  Ga  Ga6  1  0.500000  0.500000  0.854563  1
  Rh  Rh7  1  0.000000  0.000000  0.500000  1
