# generated using pymatgen
data_Ta10GaSi5
_symmetry_space_group_name_H-M   'P 1'
_cell_length_a   6.58598900
_cell_length_b   7.57571979
_cell_length_c   6.58598900
_cell_angle_alpha   115.76476660
_cell_angle_beta   90.00000000
_cell_angle_gamma   115.76476660
_symmetry_Int_Tables_number   1
_chemical_formula_structural   Ta10GaSi5
_chemical_formula_sum   'Ta10 Ga1 Si5'
_cell_volume   259.17905357
_cell_formula_units_Z   1
loop_
 _symmetry_equiv_pos_site_id
 _symmetry_equiv_pos_as_xyz
  1  'x, y, z'
loop_
 _atom_site_type_symbol
 _atom_site_label
 _atom_site_symmetry_multiplicity
 _atom_site_fract_x
 _atom_site_fract_y
 _atom_site_fract_z
 _atom_site_occupancy
  Ta  Ta0  1  0.999628  0.999256  0.999628  1
  Ta  Ta1  1  0.500372  0.000744  0.500372  1
  Ta  Ta2  1  0.517121  0.700485  0.689334  1
  Ta  Ta3  1  0.183363  0.700485  0.011150  1
  Ta  Ta4  1  0.689334  0.700485  0.183363  1
  Ta  Ta5  1  0.011150  0.700485  0.517121  1
  Ta  Ta6  1  0.488850  0.299515  0.316637  1
  Ta  Ta7  1  0.810666  0.299515  0.982879  1
  Ta  Ta8  1  0.316637  0.299515  0.810666  1
  Ta  Ta9  1  0.982879  0.299515  0.488850  1
  Ga  Ga10  1  0.250000  0.500000  0.250000  1
  Si  Si11  1  0.750000  0.500000  0.750000  1
  Si  Si12  1  0.869475  0.000000  0.630525  1
  Si  Si13  1  0.130525  0.000000  0.369475  1
  Si  Si14  1  0.630525  0.000000  0.130525  1
  Si  Si15  1  0.369475  0.000000  0.869475  1
