# generated using pymatgen
data_Tm4Hf2SnO12
_symmetry_space_group_name_H-M   'P 1'
_cell_length_a   6.26802338
_cell_length_b   6.32001002
_cell_length_c   6.48508290
_cell_angle_alpha   100.01912092
_cell_angle_beta   98.53480706
_cell_angle_gamma   99.68212450
_symmetry_Int_Tables_number   1
_chemical_formula_structural   Tm4Hf2SnO12
_chemical_formula_sum   'Tm4 Hf2 Sn1 O12'
_cell_volume   245.16601457
_cell_formula_units_Z   1
loop_
 _symmetry_equiv_pos_site_id
 _symmetry_equiv_pos_as_xyz
  1  'x, y, z'
loop_
 _atom_site_type_symbol
 _atom_site_label
 _atom_site_symmetry_multiplicity
 _atom_site_fract_x
 _atom_site_fract_y
 _atom_site_fract_z
 _atom_site_occupancy
  Tm  Tm0  1  0.388827  0.698056  0.864814  1
  Tm  Tm1  1  0.695897  0.865484  0.390557  1
  Tm  Tm2  1  0.611173  0.301944  0.135186  1
  Tm  Tm3  1  0.304103  0.134516  0.609443  1
  Hf  Hf4  1  0.849130  0.397269  0.671584  1
  Hf  Hf5  1  0.150870  0.602731  0.328416  1
  Sn  Sn6  1  0.000000  0.000000  0.000000  1
  O  O7  1  0.028248  0.677174  0.887137  1
  O  O8  1  0.685868  0.933214  0.057853  1
  O  O9  1  0.920825  0.084892  0.692461  1
  O  O10  1  0.971752  0.322826  0.112863  1
  O  O11  1  0.314132  0.066786  0.942147  1
  O  O12  1  0.079175  0.915108  0.307539  1
  O  O13  1  0.588093  0.188073  0.433232  1
  O  O14  1  0.171982  0.427827  0.573091  1
  O  O15  1  0.415110  0.583433  0.179040  1
  O  O16  1  0.411907  0.811927  0.566768  1
  O  O17  1  0.828018  0.572173  0.426909  1
  O  O18  1  0.584890  0.416567  0.820960  1
