# generated using pymatgen
data_Sc10Cd3In5Pt4
_symmetry_space_group_name_H-M   'P 1'
_cell_length_a   3.49194700
_cell_length_b   7.73610323
_cell_length_c   17.55885600
_cell_angle_alpha   90.17775851
_cell_angle_beta   90.00000000
_cell_angle_gamma   90.00000000
_symmetry_Int_Tables_number   1
_chemical_formula_structural   Sc10Cd3In5Pt4
_chemical_formula_sum   'Sc10 Cd3 In5 Pt4'
_cell_volume   474.33375007
_cell_formula_units_Z   1
loop_
 _symmetry_equiv_pos_site_id
 _symmetry_equiv_pos_as_xyz
  1  'x, y, z'
loop_
 _atom_site_type_symbol
 _atom_site_label
 _atom_site_symmetry_multiplicity
 _atom_site_fract_x
 _atom_site_fract_y
 _atom_site_fract_z
 _atom_site_occupancy
  Sc  Sc0  1  0.000000  0.113304  0.414268  1
  Sc  Sc1  1  0.000000  0.885594  0.586279  1
  Sc  Sc2  1  0.000000  0.386719  0.914021  1
  Sc  Sc3  1  0.000000  0.618338  0.085803  1
  Sc  Sc4  1  0.000000  0.248891  0.220857  1
  Sc  Sc5  1  0.000000  0.749627  0.781399  1
  Sc  Sc6  1  0.000000  0.250553  0.719109  1
  Sc  Sc7  1  0.000000  0.748417  0.280347  1
  Sc  Sc8  1  0.000000  0.999611  0.998770  1
  Sc  Sc9  1  0.000000  0.500288  0.499971  1
  Cd  Cd10  1  0.500000  0.708942  0.935387  1
  Cd  Cd11  1  0.500000  0.209627  0.564293  1
  Cd  Cd12  1  0.500000  0.789489  0.435444  1
  In  In13  1  0.500000  0.423779  0.354525  1
  In  In14  1  0.500000  0.575593  0.645480  1
  In  In15  1  0.500000  0.075486  0.853656  1
  In  In16  1  0.500000  0.925143  0.146134  1
  In  In17  1  0.500000  0.293743  0.064391  1
  Pt  Pt18  1  0.500000  0.032971  0.304156  1
  Pt  Pt19  1  0.500000  0.965327  0.696142  1
  Pt  Pt20  1  0.500000  0.465192  0.803465  1
  Pt  Pt21  1  0.500000  0.533362  0.196105  1
