# generated using pymatgen
data_TbHo4Hf3(Co4P3)4
_symmetry_space_group_name_H-M   'P 1'
_cell_length_a   12.27411200
_cell_length_b   12.27411044
_cell_length_c   3.70608400
_cell_angle_alpha   90.00000000
_cell_angle_beta   90.00000000
_cell_angle_gamma   120.00000420
_symmetry_Int_Tables_number   1
_chemical_formula_structural   TbHo4Hf3(Co4P3)4
_chemical_formula_sum   'Tb1 Ho4 Hf3 Co16 P12'
_cell_volume   483.53284567
_cell_formula_units_Z   1
loop_
 _symmetry_equiv_pos_site_id
 _symmetry_equiv_pos_as_xyz
  1  'x, y, z'
loop_
 _atom_site_type_symbol
 _atom_site_label
 _atom_site_symmetry_multiplicity
 _atom_site_fract_x
 _atom_site_fract_y
 _atom_site_fract_z
 _atom_site_occupancy
  Tb  Tb0  1  0.666667  0.333333  0.000000  1
  Ho  Ho1  1  0.333333  0.666667  0.000000  1
  Ho  Ho2  1  0.817489  0.817476  0.500000  1
  Ho  Ho3  1  0.182524  0.000014  0.500000  1
  Ho  Ho4  1  0.999986  0.182511  0.500000  1
  Hf  Hf5  1  0.440913  0.441113  0.000000  1
  Hf  Hf6  1  0.558887  0.999800  0.000000  1
  Hf  Hf7  1  0.000200  0.559087  0.000000  1
  Co  Co8  1  0.876000  0.355916  0.500000  1
  Co  Co9  1  0.644084  0.520084  0.500000  1
  Co  Co10  1  0.479916  0.124000  0.500000  1
  Co  Co11  1  0.355958  0.875317  0.500000  1
  Co  Co12  1  0.519359  0.644042  0.500000  1
  Co  Co13  1  0.124683  0.480641  0.500000  1
  Co  Co14  1  0.804692  0.177947  0.000000  1
  Co  Co15  1  0.822053  0.626743  0.000000  1
  Co  Co16  1  0.373257  0.195308  0.000000  1
  Co  Co17  1  0.178195  0.804596  0.000000  1
  Co  Co18  1  0.626400  0.821805  0.000000  1
  Co  Co19  1  0.195404  0.373600  0.000000  1
  Co  Co20  1  0.278299  0.278439  0.500000  1
  Co  Co21  1  0.721561  0.999860  0.500000  1
  Co  Co22  1  0.000140  0.721701  0.500000  1
  Co  Co23  1  0.000000  0.000000  0.000000  1
  P  P24  1  0.692685  0.170971  0.500000  1
  P  P25  1  0.829029  0.521714  0.500000  1
  P  P26  1  0.478286  0.307315  0.500000  1
  P  P27  1  0.171651  0.692482  0.500000  1
  P  P28  1  0.520831  0.828349  0.500000  1
  P  P29  1  0.307518  0.479169  0.500000  1
  P  P30  1  0.177756  0.177845  0.000000  1
  P  P31  1  0.822155  0.999910  0.000000  1
  P  P32  1  0.000090  0.822244  0.000000  1
  P  P33  1  0.648314  0.648259  0.000000  1
  P  P34  1  0.351741  0.000055  0.000000  1
  P  P35  1  0.999945  0.351686  0.000000  1
