# generated using pymatgen
data_Nb5Ge3N
_symmetry_space_group_name_H-M   'P 1'
_cell_length_a   7.64112100
_cell_length_b   7.64112170
_cell_length_c   5.50351000
_cell_angle_alpha   90.00000000
_cell_angle_beta   90.00000000
_cell_angle_gamma   119.99999263
_symmetry_Int_Tables_number   1
_chemical_formula_structural   Nb5Ge3N
_chemical_formula_sum   'Nb10 Ge6 N2'
_cell_volume   278.28168078
_cell_formula_units_Z   2
loop_
 _symmetry_equiv_pos_site_id
 _symmetry_equiv_pos_as_xyz
  1  'x, y, z'
loop_
 _atom_site_type_symbol
 _atom_site_label
 _atom_site_symmetry_multiplicity
 _atom_site_fract_x
 _atom_site_fract_y
 _atom_site_fract_z
 _atom_site_occupancy
  Nb  Nb0  1  0.229261  0.000000  0.250000  1
  Nb  Nb1  1  0.770739  0.000000  0.750000  1
  Nb  Nb2  1  0.000000  0.229261  0.250000  1
  Nb  Nb3  1  0.000000  0.770739  0.750000  1
  Nb  Nb4  1  0.770739  0.770739  0.250000  1
  Nb  Nb5  1  0.229261  0.229261  0.750000  1
  Nb  Nb6  1  0.333333  0.666667  0.000000  1
  Nb  Nb7  1  0.666667  0.333333  0.000000  1
  Nb  Nb8  1  0.666667  0.333333  0.500000  1
  Nb  Nb9  1  0.333333  0.666667  0.500000  1
  Ge  Ge10  1  0.594401  0.000000  0.250000  1
  Ge  Ge11  1  0.405599  0.000000  0.750000  1
  Ge  Ge12  1  0.000000  0.594401  0.250000  1
  Ge  Ge13  1  0.000000  0.405599  0.750000  1
  Ge  Ge14  1  0.405599  0.405599  0.250000  1
  Ge  Ge15  1  0.594401  0.594401  0.750000  1
  N  N16  1  0.000000  0.000000  0.000000  1
  N  N17  1  0.000000  0.000000  0.500000  1
