# generated using pymatgen
data_Y6Ho(ErPb2)3
_symmetry_space_group_name_H-M   'P 1'
_cell_length_a   9.05044200
_cell_length_b   9.05044227
_cell_length_c   6.62566200
_cell_angle_alpha   90.00000000
_cell_angle_beta   90.00000000
_cell_angle_gamma   119.99999901
_symmetry_Int_Tables_number   1
_chemical_formula_structural   Y6Ho(ErPb2)3
_chemical_formula_sum   'Y6 Ho1 Er3 Pb6'
_cell_volume   470.00178269
_cell_formula_units_Z   1
loop_
 _symmetry_equiv_pos_site_id
 _symmetry_equiv_pos_as_xyz
  1  'x, y, z'
loop_
 _atom_site_type_symbol
 _atom_site_label
 _atom_site_symmetry_multiplicity
 _atom_site_fract_x
 _atom_site_fract_y
 _atom_site_fract_z
 _atom_site_occupancy
  Y  Y0  1  0.761342  0.761250  0.749916  1
  Y  Y1  1  0.238750  0.000092  0.749916  1
  Y  Y2  1  0.999908  0.238658  0.749916  1
  Y  Y3  1  0.238750  0.238658  0.250084  1
  Y  Y4  1  0.761342  0.000092  0.250084  1
  Y  Y5  1  0.999908  0.761250  0.250084  1
  Ho  Ho6  1  0.666667  0.333333  0.000000  1
  Er  Er7  1  0.333333  0.666667  0.000000  1
  Er  Er8  1  0.333333  0.666667  0.500000  1
  Er  Er9  1  0.666667  0.333333  0.500000  1
  Pb  Pb10  1  0.395087  0.395480  0.749566  1
  Pb  Pb11  1  0.604520  0.999607  0.749566  1
  Pb  Pb12  1  0.000393  0.604913  0.749566  1
  Pb  Pb13  1  0.604520  0.604913  0.250434  1
  Pb  Pb14  1  0.395087  0.999607  0.250434  1
  Pb  Pb15  1  0.000393  0.395480  0.250434  1
