# generated using pymatgen
data_ErTm3(GaRu)4
_symmetry_space_group_name_H-M   'P 1'
_cell_length_a   4.09698000
_cell_length_b   6.93039164
_cell_length_c   7.87458915
_cell_angle_alpha   89.99156607
_cell_angle_beta   90.00000000
_cell_angle_gamma   90.00000000
_symmetry_Int_Tables_number   1
_chemical_formula_structural   ErTm3(GaRu)4
_chemical_formula_sum   'Er1 Tm3 Ga4 Ru4'
_cell_volume   223.58853028
_cell_formula_units_Z   1
loop_
 _symmetry_equiv_pos_site_id
 _symmetry_equiv_pos_as_xyz
  1  'x, y, z'
loop_
 _atom_site_type_symbol
 _atom_site_label
 _atom_site_symmetry_multiplicity
 _atom_site_fract_x
 _atom_site_fract_y
 _atom_site_fract_z
 _atom_site_occupancy
  Er  Er0  1  0.750000  0.476905  0.315348  1
  Tm  Tm1  1  0.250000  0.523617  0.684624  1
  Tm  Tm2  1  0.250000  0.023666  0.816064  1
  Tm  Tm3  1  0.750000  0.976075  0.183941  1
  Ga  Ga4  1  0.750000  0.346088  0.932897  1
  Ga  Ga5  1  0.250000  0.153504  0.433249  1
  Ga  Ga6  1  0.250000  0.654101  0.066830  1
  Ga  Ga7  1  0.750000  0.846551  0.567050  1
  Ru  Ru8  1  0.750000  0.227652  0.620764  1
  Ru  Ru9  1  0.250000  0.772992  0.379810  1
  Ru  Ru10  1  0.750000  0.727827  0.879523  1
  Ru  Ru11  1  0.250000  0.271020  0.119899  1
