# generated using pymatgen
data_SrCo3Ni2P3
_symmetry_space_group_name_H-M   'P 1'
_cell_length_a   6.12441603
_cell_length_b   6.12441605
_cell_length_c   11.51081800
_cell_angle_alpha   90.00000000
_cell_angle_beta   90.00000000
_cell_angle_gamma   145.84042711
_symmetry_Int_Tables_number   1
_chemical_formula_structural   SrCo3Ni2P3
_chemical_formula_sum   'Sr2 Co6 Ni4 P6'
_cell_volume   242.42927141
_cell_formula_units_Z   2
loop_
 _symmetry_equiv_pos_site_id
 _symmetry_equiv_pos_as_xyz
  1  'x, y, z'
loop_
 _atom_site_type_symbol
 _atom_site_label
 _atom_site_symmetry_multiplicity
 _atom_site_fract_x
 _atom_site_fract_y
 _atom_site_fract_z
 _atom_site_occupancy
  Sr  Sr0  1  0.163531  0.836469  0.250000  1
  Sr  Sr1  1  0.840107  0.159893  0.750000  1
  Co  Co2  1  0.449127  0.550873  0.358297  1
  Co  Co3  1  0.449127  0.550873  0.141703  1
  Co  Co4  1  0.802700  0.197300  0.066877  1
  Co  Co5  1  0.194791  0.805209  0.936862  1
  Co  Co6  1  0.194791  0.805209  0.563138  1
  Co  Co7  1  0.802700  0.197300  0.433123  1
  Ni  Ni8  1  0.997388  0.002612  0.503165  1
  Ni  Ni9  1  0.997388  0.002612  0.996835  1
  Ni  Ni10  1  0.552803  0.447197  0.856617  1
  Ni  Ni11  1  0.552803  0.447197  0.643383  1
  P  P12  1  0.893896  0.106104  0.250000  1
  P  P13  1  0.117364  0.882636  0.750000  1
  P  P14  1  0.375962  0.624038  0.966662  1
  P  P15  1  0.619780  0.380220  0.038528  1
  P  P16  1  0.619780  0.380220  0.461472  1
  P  P17  1  0.375962  0.624038  0.533338  1
