# generated using pymatgen
data_Tb2MnFeCl2
_symmetry_space_group_name_H-M   'P 1'
_cell_length_a   3.77797900
_cell_length_b   3.77797943
_cell_length_c   11.34143200
_cell_angle_alpha   90.00000000
_cell_angle_beta   90.00000000
_cell_angle_gamma   120.00000497
_symmetry_Int_Tables_number   1
_chemical_formula_structural   Tb2MnFeCl2
_chemical_formula_sum   'Tb2 Mn1 Fe1 Cl2'
_cell_volume   140.19019248
_cell_formula_units_Z   1
loop_
 _symmetry_equiv_pos_site_id
 _symmetry_equiv_pos_as_xyz
  1  'x, y, z'
loop_
 _atom_site_type_symbol
 _atom_site_label
 _atom_site_symmetry_multiplicity
 _atom_site_fract_x
 _atom_site_fract_y
 _atom_site_fract_z
 _atom_site_occupancy
  Tb  Tb0  1  0.000000  0.000000  0.184980  1
  Tb  Tb1  1  0.000000  0.000000  0.815985  1
  Mn  Mn2  1  0.666667  0.333332  0.012462  1
  Fe  Fe3  1  0.333334  0.666667  0.985997  1
  Cl  Cl4  1  0.333334  0.666667  0.339931  1
  Cl  Cl5  1  0.666667  0.333332  0.660643  1
