# generated using pymatgen
data_PrHo2P4Pd7
_symmetry_space_group_name_H-M   'P 1'
_cell_length_a   7.95627395
_cell_length_b   7.95627462
_cell_length_c   9.50951090
_cell_angle_alpha   55.91832879
_cell_angle_beta   55.91832591
_cell_angle_gamma   29.28425389
_symmetry_Int_Tables_number   1
_chemical_formula_structural   PrHo2P4Pd7
_chemical_formula_sum   'Pr1 Ho2 P4 Pd7'
_cell_volume   240.03569742
_cell_formula_units_Z   1
loop_
 _symmetry_equiv_pos_site_id
 _symmetry_equiv_pos_as_xyz
  1  'x, y, z'
loop_
 _atom_site_type_symbol
 _atom_site_label
 _atom_site_symmetry_multiplicity
 _atom_site_fract_x
 _atom_site_fract_y
 _atom_site_fract_z
 _atom_site_occupancy
  Pr  Pr0  1  0.000000  0.000000  0.000000  1
  Ho  Ho1  1  0.679286  0.679286  0.324300  1
  Ho  Ho2  1  0.320714  0.320714  0.675700  1
  P  P3  1  0.337211  0.337211  0.259005  1
  P  P4  1  0.662789  0.662789  0.740995  1
  P  P5  1  0.892964  0.892964  0.816475  1
  P  P6  1  0.107036  0.107036  0.183525  1
  Pd  Pd7  1  0.304356  0.304356  0.030875  1
  Pd  Pd8  1  0.695644  0.695644  0.969125  1
  Pd  Pd9  1  0.509770  0.509770  0.711720  1
  Pd  Pd10  1  0.829921  0.829921  0.425841  1
  Pd  Pd11  1  0.490230  0.490230  0.288280  1
  Pd  Pd12  1  0.170079  0.170079  0.574159  1
  Pd  Pd13  1  0.000000  0.000000  0.500000  1
