# generated using pymatgen
data_Tb5Th7Pt12
_symmetry_space_group_name_H-M   'P 1'
_cell_length_a   4.55159100
_cell_length_b   5.80892650
_cell_length_c   21.78460978
_cell_angle_alpha   83.46095255
_cell_angle_beta   90.00000000
_cell_angle_gamma   90.00000000
_symmetry_Int_Tables_number   1
_chemical_formula_structural   Tb5Th7Pt12
_chemical_formula_sum   'Tb5 Th7 Pt12'
_cell_volume   572.23491589
_cell_formula_units_Z   1
loop_
 _symmetry_equiv_pos_site_id
 _symmetry_equiv_pos_as_xyz
  1  'x, y, z'
loop_
 _atom_site_type_symbol
 _atom_site_label
 _atom_site_symmetry_multiplicity
 _atom_site_fract_x
 _atom_site_fract_y
 _atom_site_fract_z
 _atom_site_occupancy
  Tb  Tb0  1  0.250000  0.675295  0.438069  1
  Tb  Tb1  1  0.750000  0.033000  0.728070  1
  Tb  Tb2  1  0.250000  0.965965  0.272547  1
  Tb  Tb3  1  0.750000  0.174037  0.893518  1
  Tb  Tb4  1  0.250000  0.825696  0.106798  1
  Th  Th5  1  0.750000  0.322369  0.061631  1
  Th  Th6  1  0.250000  0.677556  0.938676  1
  Th  Th7  1  0.750000  0.492700  0.227999  1
  Th  Th8  1  0.250000  0.506469  0.773366  1
  Th  Th9  1  0.750000  0.190633  0.393484  1
  Th  Th10  1  0.250000  0.805740  0.606587  1
  Th  Th11  1  0.750000  0.330160  0.559700  1
  Pt  Pt12  1  0.750000  0.824727  0.016879  1
  Pt  Pt13  1  0.250000  0.175293  0.983657  1
  Pt  Pt14  1  0.750000  0.994420  0.182375  1
  Pt  Pt15  1  0.250000  0.004771  0.817934  1
  Pt  Pt16  1  0.750000  0.732219  0.347379  1
  Pt  Pt17  1  0.250000  0.263523  0.651959  1
  Pt  Pt18  1  0.750000  0.834805  0.514489  1
  Pt  Pt19  1  0.250000  0.172289  0.483900  1
  Pt  Pt20  1  0.750000  0.573815  0.682750  1
  Pt  Pt21  1  0.250000  0.425459  0.317870  1
  Pt  Pt22  1  0.750000  0.667359  0.848333  1
  Pt  Pt23  1  0.250000  0.331701  0.152030  1
