# generated using pymatgen
data_Li3Pr4MgRh4
_symmetry_space_group_name_H-M   'P 1'
_cell_length_a   4.10242000
_cell_length_b   7.17169209
_cell_length_c   8.69100111
_cell_angle_alpha   90.01833356
_cell_angle_beta   90.00000000
_cell_angle_gamma   90.00000000
_symmetry_Int_Tables_number   1
_chemical_formula_structural   Li3Pr4MgRh4
_chemical_formula_sum   'Li3 Pr4 Mg1 Rh4'
_cell_volume   255.70047769
_cell_formula_units_Z   1
loop_
 _symmetry_equiv_pos_site_id
 _symmetry_equiv_pos_as_xyz
  1  'x, y, z'
loop_
 _atom_site_type_symbol
 _atom_site_label
 _atom_site_symmetry_multiplicity
 _atom_site_fract_x
 _atom_site_fract_y
 _atom_site_fract_z
 _atom_site_occupancy
  Li  Li0  1  0.250000  0.126729  0.947785  1
  Li  Li1  1  0.750000  0.873831  0.050897  1
  Li  Li2  1  0.250000  0.631692  0.555578  1
  Pr  Pr3  1  0.250000  0.039153  0.317524  1
  Pr  Pr4  1  0.750000  0.953562  0.679190  1
  Pr  Pr5  1  0.250000  0.546328  0.175563  1
  Pr  Pr6  1  0.750000  0.456213  0.822814  1
  Mg  Mg7  1  0.750000  0.374019  0.445361  1
  Rh  Rh8  1  0.750000  0.256332  0.133957  1
  Rh  Rh9  1  0.250000  0.745107  0.871719  1
  Rh  Rh10  1  0.750000  0.751697  0.371941  1
  Rh  Rh11  1  0.250000  0.245337  0.627669  1
