# generated using pymatgen
data_Tb8Dy4CoTc3
_symmetry_space_group_name_H-M   'P 1'
_cell_length_a   6.30227270
_cell_length_b   7.33119591
_cell_length_c   9.22712817
_cell_angle_alpha   90.00390974
_cell_angle_beta   90.07835040
_cell_angle_gamma   90.09969635
_symmetry_Int_Tables_number   1
_chemical_formula_structural   Tb8Dy4CoTc3
_chemical_formula_sum   'Tb8 Dy4 Co1 Tc3'
_cell_volume   426.32176469
_cell_formula_units_Z   1
loop_
 _symmetry_equiv_pos_site_id
 _symmetry_equiv_pos_as_xyz
  1  'x, y, z'
loop_
 _atom_site_type_symbol
 _atom_site_label
 _atom_site_symmetry_multiplicity
 _atom_site_fract_x
 _atom_site_fract_y
 _atom_site_fract_z
 _atom_site_occupancy
  Tb  Tb0  1  0.127954  0.458174  0.749927  1
  Tb  Tb1  1  0.669114  0.322459  0.934342  1
  Tb  Tb2  1  0.374045  0.958062  0.750090  1
  Tb  Tb3  1  0.857323  0.543557  0.250070  1
  Tb  Tb4  1  0.627119  0.048689  0.249966  1
  Tb  Tb5  1  0.167610  0.178568  0.436319  1
  Tb  Tb6  1  0.836506  0.822936  0.562827  1
  Tb  Tb7  1  0.167316  0.178136  0.063691  1
  Dy  Dy8  1  0.836758  0.823211  0.937349  1
  Dy  Dy9  1  0.668919  0.322617  0.565648  1
  Dy  Dy10  1  0.334648  0.673503  0.065318  1
  Dy  Dy11  1  0.334967  0.673062  0.434718  1
  Co  Co12  1  0.460562  0.386081  0.250320  1
  Tc  Tc13  1  0.539846  0.610788  0.750083  1
  Tc  Tc14  1  0.961330  0.112939  0.749825  1
  Tc  Tc15  1  0.035984  0.887219  0.249506  1
