# generated using pymatgen
data_Ho8SiGeI12
_symmetry_space_group_name_H-M   'P 1'
_cell_length_a   4.20035400
_cell_length_b   13.94971400
_cell_length_c   14.73480600
_cell_angle_alpha   89.99866624
_cell_angle_beta   90.00000000
_cell_angle_gamma   90.00000000
_symmetry_Int_Tables_number   1
_chemical_formula_structural   Ho8SiGeI12
_chemical_formula_sum   'Ho8 Si1 Ge1 I12'
_cell_volume   863.36734737
_cell_formula_units_Z   1
loop_
 _symmetry_equiv_pos_site_id
 _symmetry_equiv_pos_as_xyz
  1  'x, y, z'
loop_
 _atom_site_type_symbol
 _atom_site_label
 _atom_site_symmetry_multiplicity
 _atom_site_fract_x
 _atom_site_fract_y
 _atom_site_fract_z
 _atom_site_occupancy
  Ho  Ho0  1  0.500000  0.114469  0.346993  1
  Ho  Ho1  1  0.500000  0.885531  0.653007  1
  Ho  Ho2  1  0.500000  0.613723  0.152001  1
  Ho  Ho3  1  0.500000  0.386277  0.847999  1
  Ho  Ho4  1  0.000000  0.111621  0.574596  1
  Ho  Ho5  1  0.000000  0.888379  0.425404  1
  Ho  Ho6  1  0.000000  0.610679  0.926025  1
  Ho  Ho7  1  0.000000  0.389321  0.073975  1
  Si  Si8  1  0.500000  0.500000  0.000000  1
  Ge  Ge9  1  0.500000  0.000000  0.500000  1
  I  I10  1  0.500000  0.245413  0.161582  1
  I  I11  1  0.500000  0.754587  0.838418  1
  I  I12  1  0.500000  0.745467  0.338500  1
  I  I13  1  0.500000  0.254533  0.661500  1
  I  I14  1  0.000000  0.258395  0.413876  1
  I  I15  1  0.000000  0.741605  0.586124  1
  I  I16  1  0.000000  0.758408  0.086199  1
  I  I17  1  0.000000  0.241592  0.913801  1
  I  I18  1  0.000000  0.999382  0.240693  1
  I  I19  1  0.000000  0.000618  0.759307  1
  I  I20  1  0.000000  0.499449  0.259343  1
  I  I21  1  0.000000  0.500551  0.740657  1
