# generated using pymatgen
data_Cs10Ba2TaNbP8
_symmetry_space_group_name_H-M   'P 1'
_cell_length_a   11.01664178
_cell_length_b   11.01740739
_cell_length_c   8.37782824
_cell_angle_alpha   87.90522607
_cell_angle_beta   87.92092159
_cell_angle_gamma   121.02735219
_symmetry_Int_Tables_number   1
_chemical_formula_structural   Cs10Ba2TaNbP8
_chemical_formula_sum   'Cs10 Ba2 Ta1 Nb1 P8'
_cell_volume   868.97886776
_cell_formula_units_Z   1
loop_
 _symmetry_equiv_pos_site_id
 _symmetry_equiv_pos_as_xyz
  1  'x, y, z'
loop_
 _atom_site_type_symbol
 _atom_site_label
 _atom_site_symmetry_multiplicity
 _atom_site_fract_x
 _atom_site_fract_y
 _atom_site_fract_z
 _atom_site_occupancy
  Cs  Cs0  1  0.461703  0.526936  0.493087  1
  Cs  Cs1  1  0.067179  0.530331  0.498855  1
  Cs  Cs2  1  0.526937  0.461699  0.993116  1
  Cs  Cs3  1  0.530423  0.067365  0.999057  1
  Cs  Cs4  1  0.865705  0.140569  0.679746  1
  Cs  Cs5  1  0.290345  0.149469  0.720379  1
  Cs  Cs6  1  0.855893  0.715308  0.652485  1
  Cs  Cs7  1  0.140638  0.865710  0.179607  1
  Cs  Cs8  1  0.715199  0.855825  0.152328  1
  Cs  Cs9  1  0.149532  0.290389  0.220279  1
  Ba  Ba10  1  0.464351  0.935000  0.494626  1
  Ba  Ba11  1  0.934983  0.464276  0.994670  1
  Ta  Ta12  1  0.328975  0.671474  0.894512  1
  Nb  Nb13  1  0.671382  0.329010  0.394615  1
  P  P14  1  0.688876  0.338927  0.682918  1
  P  P15  1  0.338746  0.688600  0.181994  1
  P  P16  1  0.785167  0.204651  0.293030  1
  P  P17  1  0.422498  0.194965  0.334985  1
  P  P18  1  0.793630  0.567811  0.269858  1
  P  P19  1  0.205122  0.785004  0.793253  1
  P  P20  1  0.567210  0.793350  0.770098  1
  P  P21  1  0.195504  0.423331  0.835076  1
