# generated using pymatgen
data_Tb11Er(Cd3C)4
_symmetry_space_group_name_H-M   'P 1'
_cell_length_a   9.62425788
_cell_length_b   9.62440031
_cell_length_c   9.62431834
_cell_angle_alpha   120.19388000
_cell_angle_beta   89.97726358
_cell_angle_gamma   119.83389964
_symmetry_Int_Tables_number   1
_chemical_formula_structural   Tb11Er(Cd3C)4
_chemical_formula_sum   'Tb11 Er1 Cd12 C4'
_cell_volume   630.22466353
_cell_formula_units_Z   1
loop_
 _symmetry_equiv_pos_site_id
 _symmetry_equiv_pos_as_xyz
  1  'x, y, z'
loop_
 _atom_site_type_symbol
 _atom_site_label
 _atom_site_symmetry_multiplicity
 _atom_site_fract_x
 _atom_site_fract_y
 _atom_site_fract_z
 _atom_site_occupancy
  Tb  Tb0  1  0.935577  0.370373  0.184716  1
  Tb  Tb1  1  0.935849  0.750017  0.185837  1
  Tb  Tb2  1  0.314344  0.749134  0.184727  1
  Tb  Tb3  1  0.685657  0.249987  0.435664  1
  Tb  Tb4  1  0.685493  0.871009  0.435626  1
  Tb  Tb5  1  0.064620  0.250137  0.435618  1
  Tb  Tb6  1  0.314333  0.129599  0.565201  1
  Tb  Tb7  1  0.314398  0.750007  0.564398  1
  Tb  Tb8  1  0.935584  0.750851  0.565194  1
  Tb  Tb9  1  0.685486  0.249881  0.814508  1
  Tb  Tb10  1  0.064624  0.629013  0.814493  1
  Er  Er11  1  0.063485  0.250022  0.813457  1
  Cd  Cd12  1  0.000071  0.000223  0.999827  1
  Cd  Cd13  1  0.499985  0.999787  0.999784  1
  Cd  Cd14  1  0.499598  0.499765  0.999834  1
  Cd  Cd15  1  0.708190  0.915914  0.124094  1
  Cd  Cd16  1  0.291702  0.083685  0.207995  1
  Cd  Cd17  1  0.291649  0.415818  0.207452  1
  Cd  Cd18  1  0.624314  0.416335  0.208005  1
  Cd  Cd19  1  0.499990  0.500216  0.500209  1
  Cd  Cd20  1  0.375059  0.583029  0.792015  1
  Cd  Cd21  1  0.708172  0.584051  0.792249  1
  Cd  Cd22  1  0.708982  0.916975  0.792046  1
  Cd  Cd23  1  0.291624  0.084185  0.875845  1
  C  C24  1  0.000533  0.498007  0.998530  1
  C  C25  1  0.000528  0.002003  0.502515  1
  C  C26  1  0.500293  0.000202  0.500088  1
  C  C27  1  0.999867  0.499786  0.500080  1
