# generated using pymatgen
data_Np8Re(TcB8)3
_symmetry_space_group_name_H-M   'P 1'
_cell_length_a   3.62374200
_cell_length_b   9.28161648
_cell_length_c   11.34154500
_cell_angle_alpha   90.03219348
_cell_angle_beta   90.00000000
_cell_angle_gamma   90.00000000
_symmetry_Int_Tables_number   1
_chemical_formula_structural   Np8Re(TcB8)3
_chemical_formula_sum   'Np8 Re1 Tc3 B24'
_cell_volume   381.46354514
_cell_formula_units_Z   1
loop_
 _symmetry_equiv_pos_site_id
 _symmetry_equiv_pos_as_xyz
  1  'x, y, z'
loop_
 _atom_site_type_symbol
 _atom_site_label
 _atom_site_symmetry_multiplicity
 _atom_site_fract_x
 _atom_site_fract_y
 _atom_site_fract_z
 _atom_site_occupancy
  Np  Np0  1  0.000000  0.338326  0.406800  1
  Np  Np1  1  0.000000  0.662058  0.593336  1
  Np  Np2  1  0.000000  0.838117  0.092862  1
  Np  Np3  1  0.000000  0.161947  0.906732  1
  Np  Np4  1  0.000000  0.959133  0.400127  1
  Np  Np5  1  0.000000  0.041022  0.599641  1
  Np  Np6  1  0.000000  0.458855  0.100151  1
  Np  Np7  1  0.000000  0.540694  0.900403  1
  Re  Re8  1  0.000000  0.854164  0.819497  1
  Tc  Tc9  1  0.000000  0.645592  0.319533  1
  Tc  Tc10  1  0.000000  0.354532  0.680586  1
  Tc  Tc11  1  0.000000  0.145480  0.180514  1
  B  B12  1  0.500000  0.552153  0.431878  1
  B  B13  1  0.500000  0.447984  0.568117  1
  B  B14  1  0.500000  0.052160  0.068125  1
  B  B15  1  0.500000  0.948100  0.931974  1
  B  B16  1  0.500000  0.743332  0.423574  1
  B  B17  1  0.500000  0.256791  0.576380  1
  B  B18  1  0.500000  0.243329  0.076490  1
  B  B19  1  0.500000  0.756254  0.923750  1
  B  B20  1  0.500000  0.805174  0.274243  1
  B  B21  1  0.500000  0.194922  0.725670  1
  B  B22  1  0.500000  0.305143  0.225712  1
  B  B23  1  0.500000  0.694551  0.774246  1
  B  B24  1  0.500000  0.646320  0.188356  1
  B  B25  1  0.500000  0.353761  0.811742  1
  B  B26  1  0.500000  0.146344  0.311607  1
  B  B27  1  0.500000  0.853660  0.688000  1
  B  B28  1  0.500000  0.988456  0.220286  1
  B  B29  1  0.500000  0.011694  0.779599  1
  B  B30  1  0.500000  0.488542  0.279749  1
  B  B31  1  0.500000  0.511523  0.720406  1
  B  B32  1  0.500000  0.642836  0.039820  1
  B  B33  1  0.500000  0.356756  0.960425  1
  B  B34  1  0.500000  0.143357  0.460230  1
  B  B35  1  0.500000  0.856933  0.539441  1
