# generated using pymatgen
data_NaNdNi9As7Ru3
_symmetry_space_group_name_H-M   'P 1'
_cell_length_a   9.48911300
_cell_length_b   9.48911332
_cell_length_c   3.84695500
_cell_angle_alpha   90.00000000
_cell_angle_beta   90.00000000
_cell_angle_gamma   120.00000237
_symmetry_Int_Tables_number   1
_chemical_formula_structural   NaNdNi9As7Ru3
_chemical_formula_sum   'Na1 Nd1 Ni9 As7 Ru3'
_cell_volume   299.98461290
_cell_formula_units_Z   1
loop_
 _symmetry_equiv_pos_site_id
 _symmetry_equiv_pos_as_xyz
  1  'x, y, z'
loop_
 _atom_site_type_symbol
 _atom_site_label
 _atom_site_symmetry_multiplicity
 _atom_site_fract_x
 _atom_site_fract_y
 _atom_site_fract_z
 _atom_site_occupancy
  Na  Na0  1  0.333333  0.666667  0.000000  1
  Nd  Nd1  1  0.666667  0.333333  0.500000  1
  Ni  Ni2  1  0.126479  0.283223  0.000000  1
  Ni  Ni3  1  0.716777  0.843256  0.000000  1
  Ni  Ni4  1  0.156744  0.873521  0.000000  1
  Ni  Ni5  1  0.432652  0.376371  0.000000  1
  Ni  Ni6  1  0.623629  0.056282  0.000000  1
  Ni  Ni7  1  0.943718  0.567348  0.000000  1
  Ni  Ni8  1  0.050005  0.433546  0.500000  1
  Ni  Ni9  1  0.566454  0.616459  0.500000  1
  Ni  Ni10  1  0.383541  0.949995  0.500000  1
  As  As11  1  0.292888  0.411462  0.500000  1
  As  As12  1  0.588538  0.881426  0.500000  1
  As  As13  1  0.118574  0.707112  0.500000  1
  As  As14  1  0.404675  0.113468  0.000000  1
  As  As15  1  0.886532  0.291207  0.000000  1
  As  As16  1  0.708793  0.595325  0.000000  1
  As  As17  1  0.000000  0.000000  0.000000  1
  Ru  Ru18  1  0.213761  0.118711  0.500000  1
  Ru  Ru19  1  0.881289  0.095050  0.500000  1
  Ru  Ru20  1  0.904950  0.786239  0.500000  1
