# generated using pymatgen
data_Sc20Si9AsP6
_symmetry_space_group_name_H-M   'P 1'
_cell_length_a   7.03980494
_cell_length_b   7.08767725
_cell_length_c   13.48506289
_cell_angle_alpha   89.70495887
_cell_angle_beta   89.58255332
_cell_angle_gamma   90.15070605
_symmetry_Int_Tables_number   1
_chemical_formula_structural   Sc20Si9AsP6
_chemical_formula_sum   'Sc20 Si9 As1 P6'
_cell_volume   672.81970822
_cell_formula_units_Z   1
loop_
 _symmetry_equiv_pos_site_id
 _symmetry_equiv_pos_as_xyz
  1  'x, y, z'
loop_
 _atom_site_type_symbol
 _atom_site_label
 _atom_site_symmetry_multiplicity
 _atom_site_fract_x
 _atom_site_fract_y
 _atom_site_fract_z
 _atom_site_occupancy
  Sc  Sc0  1  0.216608  0.997215  0.752176  1
  Sc  Sc1  1  0.782668  0.002408  0.249935  1
  Sc  Sc2  1  0.283880  0.499885  0.249778  1
  Sc  Sc3  1  0.717355  0.500119  0.751119  1
  Sc  Sc4  1  0.046586  0.667872  0.606404  1
  Sc  Sc5  1  0.954058  0.327768  0.395336  1
  Sc  Sc6  1  0.456066  0.174031  0.392167  1
  Sc  Sc7  1  0.954995  0.329257  0.104364  1
  Sc  Sc8  1  0.553355  0.825709  0.606996  1
  Sc  Sc9  1  0.041390  0.670965  0.894852  1
  Sc  Sc10  1  0.537659  0.820885  0.898230  1
  Sc  Sc11  1  0.457364  0.174474  0.104801  1
  Sc  Sc12  1  0.394215  0.340501  0.615766  1
  Sc  Sc13  1  0.608217  0.665085  0.385246  1
  Sc  Sc14  1  0.106034  0.832056  0.382094  1
  Sc  Sc15  1  0.616302  0.666508  0.116858  1
  Sc  Sc16  1  0.885004  0.165239  0.616390  1
  Sc  Sc17  1  0.389478  0.330485  0.881929  1
  Sc  Sc18  1  0.889351  0.164469  0.885222  1
  Sc  Sc19  1  0.109944  0.839536  0.115710  1
  Si  Si20  1  0.092715  0.379260  0.749172  1
  Si  Si21  1  0.907950  0.618605  0.250289  1
  Si  Si22  1  0.406774  0.882124  0.249974  1
  Si  Si23  1  0.592303  0.116140  0.750241  1
  Si  Si24  1  0.342413  0.630850  0.750052  1
  Si  Si25  1  0.659188  0.370330  0.250097  1
  Si  Si26  1  0.157782  0.132569  0.249499  1
  Si  Si27  1  0.842185  0.867849  0.751016  1
  Si  Si28  1  0.275317  0.526901  0.043899  1
  As  As29  1  0.230489  0.019684  0.545724  1
  P  P30  1  0.767609  0.982426  0.451646  1
  P  P31  1  0.268163  0.518210  0.451877  1
  P  P32  1  0.768332  0.981005  0.047707  1
  P  P33  1  0.733172  0.482816  0.548479  1
  P  P34  1  0.228316  0.020226  0.952150  1
  P  P35  1  0.726765  0.476538  0.952803  1
