# generated using pymatgen
data_TaTi8Nb7As12
_symmetry_space_group_name_H-M   'P 1'
_cell_length_a   7.42982344
_cell_length_b   7.42982355
_cell_length_c   19.03521041
_cell_angle_alpha   90.02306035
_cell_angle_beta   89.97693911
_cell_angle_gamma   152.70296155
_symmetry_Int_Tables_number   1
_chemical_formula_structural   TaTi8Nb7As12
_chemical_formula_sum   'Ta1 Ti8 Nb7 As12'
_cell_volume   481.89466517
_cell_formula_units_Z   1
loop_
 _symmetry_equiv_pos_site_id
 _symmetry_equiv_pos_as_xyz
  1  'x, y, z'
loop_
 _atom_site_type_symbol
 _atom_site_label
 _atom_site_symmetry_multiplicity
 _atom_site_fract_x
 _atom_site_fract_y
 _atom_site_fract_z
 _atom_site_occupancy
  Ta  Ta0  1  0.000000  0.000000  0.000000  1
  Ti  Ti1  1  0.734749  0.265251  0.160010  1
  Ti  Ti2  1  0.265251  0.734749  0.839990  1
  Ti  Ti3  1  0.265238  0.734762  0.660077  1
  Ti  Ti4  1  0.734762  0.265238  0.339923  1
  Ti  Ti5  1  0.533204  0.466796  0.120490  1
  Ti  Ti6  1  0.466796  0.533204  0.879510  1
  Ti  Ti7  1  0.466699  0.533301  0.620438  1
  Ti  Ti8  1  0.533301  0.466699  0.379562  1
  Nb  Nb9  1  0.667854  0.332146  0.973818  1
  Nb  Nb10  1  0.332146  0.667854  0.026182  1
  Nb  Nb11  1  0.331684  0.668316  0.473758  1
  Nb  Nb12  1  0.668316  0.331684  0.526242  1
  Nb  Nb13  1  0.000000  0.000000  0.500000  1
  Nb  Nb14  1  0.059199  0.940801  0.750042  1
  Nb  Nb15  1  0.940801  0.059199  0.249958  1
  As  As16  1  0.901110  0.098890  0.118136  1
  As  As17  1  0.098890  0.901110  0.881864  1
  As  As18  1  0.098944  0.901056  0.618131  1
  As  As19  1  0.901056  0.098944  0.381869  1
  As  As20  1  0.843464  0.156536  0.920063  1
  As  As21  1  0.156536  0.843464  0.079937  1
  As  As22  1  0.156618  0.843382  0.420031  1
  As  As23  1  0.843382  0.156618  0.579969  1
  As  As24  1  0.701983  0.298017  0.750050  1
  As  As25  1  0.298017  0.701983  0.249950  1
  As  As26  1  0.416077  0.583923  0.749992  1
  As  As27  1  0.583923  0.416077  0.250008  1
