# generated using pymatgen
data_Yb14Ag51
_symmetry_space_group_name_H-M   'P 1'
_cell_length_a   12.79423600
_cell_length_b   12.79423516
_cell_length_c   9.39010500
_cell_angle_alpha   90.00000000
_cell_angle_beta   90.00000000
_cell_angle_gamma   119.99999701
_symmetry_Int_Tables_number   1
_chemical_formula_structural   Yb14Ag51
_chemical_formula_sum   'Yb14 Ag51'
_cell_volume   1331.15852985
_cell_formula_units_Z   1
loop_
 _symmetry_equiv_pos_site_id
 _symmetry_equiv_pos_as_xyz
  1  'x, y, z'
loop_
 _atom_site_type_symbol
 _atom_site_label
 _atom_site_symmetry_multiplicity
 _atom_site_fract_x
 _atom_site_fract_y
 _atom_site_fract_z
 _atom_site_occupancy
  Yb  Yb0  1  0.129194  0.468145  0.500000  1
  Yb  Yb1  1  0.531855  0.661049  0.500000  1
  Yb  Yb2  1  0.338951  0.870806  0.500000  1
  Yb  Yb3  1  0.200997  0.197098  0.500000  1
  Yb  Yb4  1  0.802902  0.003900  0.500000  1
  Yb  Yb5  1  0.996100  0.799003  0.500000  1
  Yb  Yb6  1  0.777135  0.711846  0.000000  1
  Yb  Yb7  1  0.288154  0.065289  0.000000  1
  Yb  Yb8  1  0.934711  0.222865  0.000000  1
  Yb  Yb9  1  0.551330  0.931761  0.000000  1
  Yb  Yb10  1  0.068239  0.619569  0.000000  1
  Yb  Yb11  1  0.380431  0.448670  0.000000  1
  Yb  Yb12  1  0.666667  0.333333  0.301057  1
  Yb  Yb13  1  0.666667  0.333333  0.698943  1
  Ag  Ag14  1  0.157458  0.448049  0.155365  1
  Ag  Ag15  1  0.551951  0.709410  0.155365  1
  Ag  Ag16  1  0.290590  0.842542  0.155365  1
  Ag  Ag17  1  0.171465  0.218406  0.153859  1
  Ag  Ag18  1  0.781594  0.953060  0.153859  1
  Ag  Ag19  1  0.046940  0.828535  0.153859  1
  Ag  Ag20  1  0.171465  0.218406  0.846141  1
  Ag  Ag21  1  0.781594  0.953060  0.846141  1
  Ag  Ag22  1  0.046940  0.828535  0.846141  1
  Ag  Ag23  1  0.157458  0.448049  0.844635  1
  Ag  Ag24  1  0.551951  0.709410  0.844635  1
  Ag  Ag25  1  0.290590  0.842542  0.844635  1
  Ag  Ag26  1  0.725675  0.572397  0.500000  1
  Ag  Ag27  1  0.427603  0.153276  0.500000  1
  Ag  Ag28  1  0.846724  0.274325  0.500000  1
  Ag  Ag29  1  0.606155  0.093359  0.500000  1
  Ag  Ag30  1  0.906641  0.512796  0.500000  1
  Ag  Ag31  1  0.487204  0.393845  0.500000  1
  Ag  Ag32  1  0.333333  0.666667  0.000000  1
  Ag  Ag33  1  0.000000  0.000000  0.000000  1
  Ag  Ag34  1  0.773747  0.770954  0.326286  1
  Ag  Ag35  1  0.229046  0.002793  0.326286  1
  Ag  Ag36  1  0.997207  0.226253  0.326286  1
  Ag  Ag37  1  0.559356  0.892704  0.329672  1
  Ag  Ag38  1  0.107296  0.666652  0.329672  1
  Ag  Ag39  1  0.333348  0.440644  0.329672  1
  Ag  Ag40  1  0.559356  0.892704  0.670328  1
  Ag  Ag41  1  0.107296  0.666652  0.670328  1
  Ag  Ag42  1  0.333348  0.440644  0.670328  1
  Ag  Ag43  1  0.773747  0.770954  0.673714  1
  Ag  Ag44  1  0.229046  0.002793  0.673714  1
  Ag  Ag45  1  0.997207  0.226253  0.673714  1
  Ag  Ag46  1  0.858664  0.600473  0.240863  1
  Ag  Ag47  1  0.399527  0.258190  0.240863  1
  Ag  Ag48  1  0.741810  0.141336  0.240863  1
  Ag  Ag49  1  0.480411  0.072215  0.233170  1
  Ag  Ag50  1  0.927785  0.408197  0.233170  1
  Ag  Ag51  1  0.591803  0.519589  0.233170  1
  Ag  Ag52  1  0.480411  0.072215  0.766830  1
  Ag  Ag53  1  0.927785  0.408197  0.766830  1
  Ag  Ag54  1  0.591803  0.519589  0.766830  1
  Ag  Ag55  1  0.858664  0.600473  0.759137  1
  Ag  Ag56  1  0.399527  0.258190  0.759137  1
  Ag  Ag57  1  0.741810  0.141336  0.759137  1
  Ag  Ag58  1  0.333333  0.666667  0.304211  1
  Ag  Ag59  1  0.000000  0.000000  0.304724  1
  Ag  Ag60  1  0.000000  0.000000  0.695276  1
  Ag  Ag61  1  0.333333  0.666667  0.695789  1
  Ag  Ag62  1  0.803641  0.448024  0.000000  1
  Ag  Ag63  1  0.551976  0.355617  0.000000  1
  Ag  Ag64  1  0.644383  0.196359  0.000000  1
