# generated using pymatgen
data_Ac12Ga(OsBr4)3
_symmetry_space_group_name_H-M   'P 1'
_cell_length_a   11.22860314
_cell_length_b   11.22860352
_cell_length_c   11.22860389
_cell_angle_alpha   110.11697274
_cell_angle_beta   110.11697333
_cell_angle_gamma   110.11696839
_symmetry_Int_Tables_number   1
_chemical_formula_structural   Ac12Ga(OsBr4)3
_chemical_formula_sum   'Ac12 Ga1 Os3 Br12'
_cell_volume   1062.96807380
_cell_formula_units_Z   1
loop_
 _symmetry_equiv_pos_site_id
 _symmetry_equiv_pos_as_xyz
  1  'x, y, z'
loop_
 _atom_site_type_symbol
 _atom_site_label
 _atom_site_symmetry_multiplicity
 _atom_site_fract_x
 _atom_site_fract_y
 _atom_site_fract_z
 _atom_site_occupancy
  Ac  Ac0  1  0.472576  0.496686  0.230138  1
  Ac  Ac1  1  0.750000  0.231678  0.268322  1
  Ac  Ac2  1  0.750000  0.016602  0.483398  1
  Ac  Ac3  1  0.230138  0.472576  0.496686  1
  Ac  Ac4  1  0.268322  0.750000  0.231678  1
  Ac  Ac5  1  0.027424  0.269862  0.003314  1
  Ac  Ac6  1  0.003314  0.027424  0.269862  1
  Ac  Ac7  1  0.483398  0.750000  0.016602  1
  Ac  Ac8  1  0.496686  0.230138  0.472576  1
  Ac  Ac9  1  0.016602  0.483398  0.750000  1
  Ac  Ac10  1  0.269862  0.003314  0.027424  1
  Ac  Ac11  1  0.231678  0.268322  0.750000  1
  Ga  Ga12  1  0.250000  0.250000  0.250000  1
  Os  Os13  1  0.500565  0.999435  0.250000  1
  Os  Os14  1  0.999435  0.250000  0.500565  1
  Os  Os15  1  0.250000  0.500565  0.999435  1
  Br  Br16  1  0.250000  0.757067  0.742933  1
  Br  Br17  1  0.504557  0.498622  0.749119  1
  Br  Br18  1  0.995443  0.750881  0.001378  1
  Br  Br19  1  0.742933  0.250000  0.757067  1
  Br  Br20  1  0.001378  0.995443  0.750881  1
  Br  Br21  1  0.250000  0.000833  0.499167  1
  Br  Br22  1  0.749119  0.504557  0.498622  1
  Br  Br23  1  0.499167  0.250000  0.000833  1
  Br  Br24  1  0.757067  0.742933  0.250000  1
  Br  Br25  1  0.750881  0.001378  0.995443  1
  Br  Br26  1  0.000833  0.499167  0.250000  1
  Br  Br27  1  0.498622  0.749119  0.504557  1
