# generated using pymatgen
data_CaYPa2(NiAs)4
_symmetry_space_group_name_H-M   'P 1'
_cell_length_a   4.09247700
_cell_length_b   4.09247634
_cell_length_c   15.54149900
_cell_angle_alpha   90.00000000
_cell_angle_beta   90.00000000
_cell_angle_gamma   120.00001339
_symmetry_Int_Tables_number   1
_chemical_formula_structural   CaYPa2(NiAs)4
_chemical_formula_sum   'Ca1 Y1 Pa2 Ni4 As4'
_cell_volume   225.42179461
_cell_formula_units_Z   1
loop_
 _symmetry_equiv_pos_site_id
 _symmetry_equiv_pos_as_xyz
  1  'x, y, z'
loop_
 _atom_site_type_symbol
 _atom_site_label
 _atom_site_symmetry_multiplicity
 _atom_site_fract_x
 _atom_site_fract_y
 _atom_site_fract_z
 _atom_site_occupancy
  Ca  Ca0  1  0.000000  0.000000  0.500000  1
  Y  Y1  1  0.000000  0.000000  0.000000  1
  Pa  Pa2  1  0.000000  0.000000  0.247692  1
  Pa  Pa3  1  0.000000  0.000000  0.752308  1
  Ni  Ni4  1  0.333333  0.666667  0.148099  1
  Ni  Ni5  1  0.666667  0.333333  0.851901  1
  Ni  Ni6  1  0.666667  0.333333  0.659785  1
  Ni  Ni7  1  0.333333  0.666667  0.340215  1
  As  As8  1  0.333333  0.666667  0.625733  1
  As  As9  1  0.666667  0.333333  0.374267  1
  As  As10  1  0.666667  0.333333  0.117530  1
  As  As11  1  0.333333  0.666667  0.882470  1
