# generated using pymatgen
data_Ho3Er7(FeBi2)2
_symmetry_space_group_name_H-M   'P 1'
_cell_length_a   7.91343240
_cell_length_b   8.92245700
_cell_length_c   12.36609380
_cell_angle_alpha   90.00000000
_cell_angle_beta   90.01352921
_cell_angle_gamma   90.00000000
_symmetry_Int_Tables_number   1
_chemical_formula_structural   Ho3Er7(FeBi2)2
_chemical_formula_sum   'Ho6 Er14 Fe4 Bi8'
_cell_volume   873.13598014
_cell_formula_units_Z   2
loop_
 _symmetry_equiv_pos_site_id
 _symmetry_equiv_pos_as_xyz
  1  'x, y, z'
loop_
 _atom_site_type_symbol
 _atom_site_label
 _atom_site_symmetry_multiplicity
 _atom_site_fract_x
 _atom_site_fract_y
 _atom_site_fract_z
 _atom_site_occupancy
  Ho  Ho0  1  0.653674  0.750000  0.700414  1
  Ho  Ho1  1  0.346326  0.250000  0.299586  1
  Ho  Ho2  1  0.153667  0.250000  0.799767  1
  Ho  Ho3  1  0.846333  0.750000  0.200233  1
  Ho  Ho4  1  0.119198  0.750000  0.813743  1
  Ho  Ho5  1  0.880802  0.250000  0.186257  1
  Er  Er6  1  0.618596  0.250000  0.685063  1
  Er  Er7  1  0.381404  0.750000  0.314937  1
  Er  Er8  1  0.556334  0.750000  0.994308  1
  Er  Er9  1  0.443666  0.250000  0.005692  1
  Er  Er10  1  0.055983  0.250000  0.505111  1
  Er  Er11  1  0.944017  0.750000  0.494889  1
  Er  Er12  1  0.827304  0.464292  0.936853  1
  Er  Er13  1  0.172696  0.535708  0.063147  1
  Er  Er14  1  0.327495  0.535363  0.563213  1
  Er  Er15  1  0.172696  0.964292  0.063147  1
  Er  Er16  1  0.672505  0.464637  0.436787  1
  Er  Er17  1  0.827304  0.035708  0.936853  1
  Er  Er18  1  0.672505  0.035363  0.436787  1
  Er  Er19  1  0.327495  0.964637  0.563213  1
  Fe  Fe20  1  0.932189  0.750000  0.991632  1
  Fe  Fe21  1  0.067811  0.250000  0.008368  1
  Fe  Fe22  1  0.432201  0.250000  0.508012  1
  Fe  Fe23  1  0.567799  0.750000  0.491988  1
  Bi  Bi24  1  0.932118  0.006440  0.672840  1
  Bi  Bi25  1  0.067882  0.993560  0.327160  1
  Bi  Bi26  1  0.432967  0.994432  0.826997  1
  Bi  Bi27  1  0.067882  0.506440  0.327160  1
  Bi  Bi28  1  0.567033  0.005568  0.173003  1
  Bi  Bi29  1  0.932118  0.493560  0.672840  1
  Bi  Bi30  1  0.567033  0.494432  0.173003  1
  Bi  Bi31  1  0.432967  0.505568  0.826997  1
