# generated using pymatgen
data_Ho2ErSc2Pb3
_symmetry_space_group_name_H-M   'P 1'
_cell_length_a   8.86663206
_cell_length_b   8.86481079
_cell_length_c   6.34965500
_cell_angle_alpha   90.00000000
_cell_angle_beta   90.00000000
_cell_angle_gamma   119.99320652
_symmetry_Int_Tables_number   1
_chemical_formula_structural   Ho2ErSc2Pb3
_chemical_formula_sum   'Ho4 Er2 Sc4 Pb6'
_cell_volume   432.25362524
_cell_formula_units_Z   2
loop_
 _symmetry_equiv_pos_site_id
 _symmetry_equiv_pos_as_xyz
  1  'x, y, z'
loop_
 _atom_site_type_symbol
 _atom_site_label
 _atom_site_symmetry_multiplicity
 _atom_site_fract_x
 _atom_site_fract_y
 _atom_site_fract_z
 _atom_site_occupancy
  Ho  Ho0  1  0.237820  0.999971  0.250000  1
  Ho  Ho1  1  0.237820  0.237849  0.750000  1
  Ho  Ho2  1  0.999928  0.762187  0.750000  1
  Ho  Ho3  1  0.999928  0.237741  0.250000  1
  Er  Er4  1  0.762176  0.762212  0.250000  1
  Er  Er5  1  0.762176  0.999964  0.750000  1
  Sc  Sc6  1  0.333356  0.666679  0.000000  1
  Sc  Sc7  1  0.666681  0.333340  0.500000  1
  Sc  Sc8  1  0.666681  0.333340  0.000000  1
  Sc  Sc9  1  0.333356  0.666679  0.500000  1
  Pb  Pb10  1  0.601221  0.999922  0.250000  1
  Pb  Pb11  1  0.601221  0.601299  0.750000  1
  Pb  Pb12  1  0.999921  0.398694  0.750000  1
  Pb  Pb13  1  0.999921  0.601227  0.250000  1
  Pb  Pb14  1  0.398896  0.398895  0.250000  1
  Pb  Pb15  1  0.398896  0.000001  0.750000  1
