# generated using pymatgen
data_Y8Hf12Si15Ni
_symmetry_space_group_name_H-M   'P 1'
_cell_length_a   7.26488391
_cell_length_b   7.29534535
_cell_length_c   13.39870215
_cell_angle_alpha   90.19093222
_cell_angle_beta   89.90945769
_cell_angle_gamma   90.14953442
_symmetry_Int_Tables_number   1
_chemical_formula_structural   Y8Hf12Si15Ni
_chemical_formula_sum   'Y8 Hf12 Si15 Ni1'
_cell_volume   710.12179162
_cell_formula_units_Z   1
loop_
 _symmetry_equiv_pos_site_id
 _symmetry_equiv_pos_as_xyz
  1  'x, y, z'
loop_
 _atom_site_type_symbol
 _atom_site_label
 _atom_site_symmetry_multiplicity
 _atom_site_fract_x
 _atom_site_fract_y
 _atom_site_fract_z
 _atom_site_occupancy
  Y  Y0  1  0.996518  0.347365  0.215523  1
  Y  Y1  1  0.005289  0.654314  0.714359  1
  Y  Y2  1  0.159954  0.491323  0.462120  1
  Y  Y3  1  0.503876  0.844644  0.034817  1
  Y  Y4  1  0.843451  0.503486  0.965685  1
  Y  Y5  1  0.496047  0.153811  0.537127  1
  Y  Y6  1  0.344093  0.996891  0.785424  1
  Y  Y7  1  0.657516  0.002739  0.284526  1
  Hf  Hf8  1  0.174943  0.176689  0.999409  1
  Hf  Hf9  1  0.826007  0.823188  0.499648  1
  Hf  Hf10  1  0.324177  0.676438  0.250546  1
  Hf  Hf11  1  0.675464  0.324452  0.750146  1
  Hf  Hf12  1  0.153158  0.006245  0.374020  1
  Hf  Hf13  1  0.850888  0.004233  0.875004  1
  Hf  Hf14  1  0.503936  0.648637  0.624429  1
  Hf  Hf15  1  0.351891  0.496247  0.874887  1
  Hf  Hf16  1  0.493857  0.349763  0.129030  1
  Hf  Hf17  1  0.640379  0.499084  0.376204  1
  Hf  Hf18  1  0.996981  0.147612  0.625982  1
  Hf  Hf19  1  0.001260  0.851161  0.124554  1
  Si  Si20  1  0.638686  0.704989  0.817854  1
  Si  Si21  1  0.203957  0.860199  0.566067  1
  Si  Si22  1  0.138219  0.796128  0.932839  1
  Si  Si23  1  0.795800  0.139154  0.067150  1
  Si  Si24  1  0.859623  0.200004  0.435374  1
  Si  Si25  1  0.295835  0.361460  0.683528  1
  Si  Si26  1  0.704629  0.640653  0.182632  1
  Si  Si27  1  0.291218  0.051941  0.185680  1
  Si  Si28  1  0.706058  0.949720  0.685793  1
  Si  Si29  1  0.449709  0.794572  0.435880  1
  Si  Si30  1  0.205336  0.550689  0.063245  1
  Si  Si31  1  0.548740  0.205886  0.936318  1
  Si  Si32  1  0.795652  0.449579  0.564713  1
  Si  Si33  1  0.048915  0.295883  0.814713  1
  Si  Si34  1  0.949891  0.707435  0.314034  1
  Ni  Ni35  1  0.368050  0.293389  0.310742  1
