# generated using pymatgen
data_TmNb8RuSe16
_symmetry_space_group_name_H-M   'P 1'
_cell_length_a   7.00289100
_cell_length_b   7.00289168
_cell_length_c   13.39222000
_cell_angle_alpha   90.00000000
_cell_angle_beta   90.00000000
_cell_angle_gamma   120.00000152
_symmetry_Int_Tables_number   1
_chemical_formula_structural   TmNb8RuSe16
_chemical_formula_sum   'Tm1 Nb8 Ru1 Se16'
_cell_volume   568.77169475
_cell_formula_units_Z   1
loop_
 _symmetry_equiv_pos_site_id
 _symmetry_equiv_pos_as_xyz
  1  'x, y, z'
loop_
 _atom_site_type_symbol
 _atom_site_label
 _atom_site_symmetry_multiplicity
 _atom_site_fract_x
 _atom_site_fract_y
 _atom_site_fract_z
 _atom_site_occupancy
  Tm  Tm0  1  0.000000  0.000000  0.500000  1
  Nb  Nb1  1  0.000000  0.000000  0.234976  1
  Nb  Nb2  1  0.000000  0.000000  0.765024  1
  Nb  Nb3  1  0.507803  0.015606  0.233757  1
  Nb  Nb4  1  0.984394  0.492197  0.233757  1
  Nb  Nb5  1  0.507803  0.492197  0.233757  1
  Nb  Nb6  1  0.492197  0.984394  0.766243  1
  Nb  Nb7  1  0.015606  0.507803  0.766243  1
  Nb  Nb8  1  0.492197  0.507803  0.766243  1
  Ru  Ru9  1  0.000000  0.000000  0.000000  1
  Se  Se10  1  0.333333  0.666667  0.895967  1
  Se  Se11  1  0.666667  0.333333  0.104033  1
  Se  Se12  1  0.666667  0.333333  0.364533  1
  Se  Se13  1  0.333333  0.666667  0.635467  1
  Se  Se14  1  0.170086  0.829914  0.359592  1
  Se  Se15  1  0.170086  0.340172  0.359592  1
  Se  Se16  1  0.659828  0.829914  0.359592  1
  Se  Se17  1  0.829914  0.170086  0.640408  1
  Se  Se18  1  0.829914  0.659828  0.640408  1
  Se  Se19  1  0.340172  0.170086  0.640408  1
  Se  Se20  1  0.833001  0.166999  0.887950  1
  Se  Se21  1  0.833001  0.666003  0.887950  1
  Se  Se22  1  0.333997  0.166999  0.887950  1
  Se  Se23  1  0.166999  0.833001  0.112050  1
  Se  Se24  1  0.166999  0.333997  0.112050  1
  Se  Se25  1  0.666003  0.833001  0.112050  1
