# generated using pymatgen
data_Tb3Tm2B4P8Ir19
_symmetry_space_group_name_H-M   'P 1'
_cell_length_a   12.42748604
_cell_length_b   12.39554324
_cell_length_c   3.95896600
_cell_angle_alpha   90.00000000
_cell_angle_beta   90.00000000
_cell_angle_gamma   119.67573084
_symmetry_Int_Tables_number   1
_chemical_formula_structural   Tb3Tm2B4P8Ir19
_chemical_formula_sum   'Tb3 Tm2 B4 P8 Ir19'
_cell_volume   529.87213065
_cell_formula_units_Z   1
loop_
 _symmetry_equiv_pos_site_id
 _symmetry_equiv_pos_as_xyz
  1  'x, y, z'
loop_
 _atom_site_type_symbol
 _atom_site_label
 _atom_site_symmetry_multiplicity
 _atom_site_fract_x
 _atom_site_fract_y
 _atom_site_fract_z
 _atom_site_occupancy
  Tb  Tb0  1  0.182898  0.187814  0.000000  1
  Tb  Tb1  1  0.814625  0.002737  0.000000  1
  Tb  Tb2  1  0.001701  0.815475  0.000000  1
  Tm  Tm3  1  0.332778  0.666591  0.500000  1
  Tm  Tm4  1  0.675070  0.331209  0.500000  1
  B  B5  1  0.305073  0.815248  0.000000  1
  B  B6  1  0.178611  0.487377  0.000000  1
  B  B7  1  0.510139  0.692413  0.000000  1
  B  B8  1  0.823403  0.303245  0.000000  1
  P  P9  1  0.487043  0.174256  0.000000  1
  P  P10  1  0.692694  0.513433  0.000000  1
  P  P11  1  0.359146  0.364976  0.500000  1
  P  P12  1  0.639431  0.000861  0.500000  1
  P  P13  1  0.006187  0.639433  0.500000  1
  P  P14  1  0.815874  0.819353  0.500000  1
  P  P15  1  0.180992  0.998469  0.500000  1
  P  P16  1  0.002108  0.186559  0.500000  1
  Ir  Ir17  1  0.200691  0.817990  0.500000  1
  Ir  Ir18  1  0.181913  0.383450  0.500000  1
  Ir  Ir19  1  0.618255  0.802797  0.500000  1
  Ir  Ir20  1  0.821703  0.202108  0.500000  1
  Ir  Ir21  1  0.376814  0.181390  0.500000  1
  Ir  Ir22  1  0.806055  0.622558  0.500000  1
  Ir  Ir23  1  0.135596  0.637326  0.000000  1
  Ir  Ir24  1  0.359915  0.501217  0.000000  1
  Ir  Ir25  1  0.496561  0.858522  0.000000  1
  Ir  Ir26  1  0.642741  0.130499  0.000000  1
  Ir  Ir27  1  0.491462  0.363608  0.000000  1
  Ir  Ir28  1  0.868844  0.497112  0.000000  1
  Ir  Ir29  1  0.539218  0.549099  0.500000  1
  Ir  Ir30  1  0.453825  0.994817  0.500000  1
  Ir  Ir31  1  0.003230  0.455718  0.500000  1
  Ir  Ir32  1  0.701069  0.706643  0.000000  1
  Ir  Ir33  1  0.293154  0.994368  0.000000  1
  Ir  Ir34  1  0.001919  0.300505  0.000000  1
  Ir  Ir35  1  0.999260  0.000827  0.500000  1
