# generated using pymatgen
data_Tm2B(IrPd2)2
_symmetry_space_group_name_H-M   'P 1'
_cell_length_a   5.90093656
_cell_length_b   5.87716464
_cell_length_c   5.90093800
_cell_angle_alpha   60.13317521
_cell_angle_beta   59.88353495
_cell_angle_gamma   60.13318138
_symmetry_Int_Tables_number   1
_chemical_formula_structural   Tm2B(IrPd2)2
_chemical_formula_sum   'Tm2 B1 Ir2 Pd4'
_cell_volume   144.87081893
_cell_formula_units_Z   1
loop_
 _symmetry_equiv_pos_site_id
 _symmetry_equiv_pos_as_xyz
  1  'x, y, z'
loop_
 _atom_site_type_symbol
 _atom_site_label
 _atom_site_symmetry_multiplicity
 _atom_site_fract_x
 _atom_site_fract_y
 _atom_site_fract_z
 _atom_site_occupancy
  Tm  Tm0  1  0.252683  0.250577  0.246164  1
  Tm  Tm1  1  0.753836  0.749423  0.747317  1
  B  B2  1  0.483739  0.500000  0.516261  1
  Ir  Ir3  1  0.246250  0.759427  0.753749  1
  Ir  Ir4  1  0.246250  0.240572  0.753749  1
  Pd  Pd5  1  0.755645  0.247875  0.244354  1
  Pd  Pd6  1  0.244172  0.758804  0.238220  1
  Pd  Pd7  1  0.755645  0.752124  0.244354  1
  Pd  Pd8  1  0.761779  0.241195  0.755827  1
