# generated using pymatgen
data_Dy7TmSnHg3Au8
_symmetry_space_group_name_H-M   'P 1'
_cell_length_a   8.01328040
_cell_length_b   8.01323740
_cell_length_c   7.35135000
_cell_angle_alpha   90.00109542
_cell_angle_beta   89.99845669
_cell_angle_gamma   89.89450709
_symmetry_Int_Tables_number   1
_chemical_formula_structural   Dy7TmSnHg3Au8
_chemical_formula_sum   'Dy7 Tm1 Sn1 Hg3 Au8'
_cell_volume   472.04642462
_cell_formula_units_Z   1
loop_
 _symmetry_equiv_pos_site_id
 _symmetry_equiv_pos_as_xyz
  1  'x, y, z'
loop_
 _atom_site_type_symbol
 _atom_site_label
 _atom_site_symmetry_multiplicity
 _atom_site_fract_x
 _atom_site_fract_y
 _atom_site_fract_z
 _atom_site_occupancy
  Dy  Dy0  1  0.159327  0.840135  0.500397  1
  Dy  Dy1  1  0.339927  0.340342  0.999603  1
  Dy  Dy2  1  0.660190  0.659519  0.999604  1
  Dy  Dy3  1  0.684292  0.684902  0.500132  1
  Dy  Dy4  1  0.315678  0.315068  0.500110  1
  Dy  Dy5  1  0.184835  0.815962  0.999870  1
  Dy  Dy6  1  0.815164  0.184195  0.999927  1
  Tm  Tm7  1  0.840442  0.160027  0.500400  1
  Sn  Sn8  1  0.999872  0.499856  0.250130  1
  Hg  Hg9  1  0.500013  0.000092  0.250059  1
  Hg  Hg10  1  0.999985  0.499977  0.749868  1
  Hg  Hg11  1  0.500045  0.000021  0.749957  1
  Au  Au12  1  0.626694  0.371695  0.276481  1
  Au  Au13  1  0.374101  0.627571  0.275503  1
  Au  Au14  1  0.127081  0.126389  0.774490  1
  Au  Au15  1  0.872209  0.874299  0.774429  1
  Au  Au16  1  0.373858  0.627593  0.725076  1
  Au  Au17  1  0.626879  0.371697  0.724151  1
  Au  Au18  1  0.872255  0.874511  0.224956  1
  Au  Au19  1  0.127153  0.126149  0.224856  1
