# generated using pymatgen
data_Hf2Sc2Si6Ir6Pt
_symmetry_space_group_name_H-M   'P 1'
_cell_length_a   7.00528629
_cell_length_b   6.99296889
_cell_length_c   6.99296964
_cell_angle_alpha   109.45980969
_cell_angle_beta   109.52651958
_cell_angle_gamma   109.35613300
_symmetry_Int_Tables_number   1
_chemical_formula_structural   Hf2Sc2Si6Ir6Pt
_chemical_formula_sum   'Hf2 Sc2 Si6 Ir6 Pt1'
_cell_volume   263.94141071
_cell_formula_units_Z   1
loop_
 _symmetry_equiv_pos_site_id
 _symmetry_equiv_pos_as_xyz
  1  'x, y, z'
loop_
 _atom_site_type_symbol
 _atom_site_label
 _atom_site_symmetry_multiplicity
 _atom_site_fract_x
 _atom_site_fract_y
 _atom_site_fract_z
 _atom_site_occupancy
  Hf  Hf0  1  0.002400  0.997737  0.499978  1
  Hf  Hf1  1  0.002400  0.502422  0.004663  1
  Sc  Sc2  1  0.498301  0.998327  0.996740  1
  Sc  Sc3  1  0.498301  0.501561  0.499974  1
  Si  Si4  1  0.678201  0.680921  0.997280  1
  Si  Si5  1  0.317132  0.999786  0.317346  1
  Si  Si6  1  0.002711  0.320047  0.317658  1
  Si  Si7  1  0.321639  0.319074  0.002565  1
  Si  Si8  1  0.677695  0.995118  0.682577  1
  Si  Si9  1  0.002711  0.685054  0.682665  1
  Ir  Ir10  1  0.752160  0.501681  0.250480  1
  Ir  Ir11  1  0.500334  0.249602  0.749415  1
  Ir  Ir12  1  0.246977  0.497737  0.749240  1
  Ir  Ir13  1  0.248282  0.750039  0.498243  1
  Ir  Ir14  1  0.500334  0.750919  0.250732  1
  Ir  Ir15  1  0.999978  0.999993  0.999986  1
  Pt  Pt16  1  0.750445  0.249984  0.500460  1
