# generated using pymatgen
data_Dy15ThCd4CoNi3
_symmetry_space_group_name_H-M   'P 1'
_cell_length_a   9.53118460
_cell_length_b   9.53304702
_cell_length_c   9.53118562
_cell_angle_alpha   60.09606650
_cell_angle_beta   60.21968933
_cell_angle_gamma   60.09606407
_symmetry_Int_Tables_number   1
_chemical_formula_structural   Dy15ThCd4CoNi3
_chemical_formula_sum   'Dy15 Th1 Cd4 Co1 Ni3'
_cell_volume   614.26758726
_cell_formula_units_Z   1
loop_
 _symmetry_equiv_pos_site_id
 _symmetry_equiv_pos_as_xyz
  1  'x, y, z'
loop_
 _atom_site_type_symbol
 _atom_site_label
 _atom_site_symmetry_multiplicity
 _atom_site_fract_x
 _atom_site_fract_y
 _atom_site_fract_z
 _atom_site_occupancy
  Dy  Dy0  1  0.688183  0.314168  0.688183  1
  Dy  Dy1  1  0.685090  0.312177  0.309769  1
  Dy  Dy2  1  0.938012  0.564341  0.563286  1
  Dy  Dy3  1  0.547072  0.149607  0.151979  1
  Dy  Dy4  1  0.151979  0.149607  0.547072  1
  Dy  Dy5  1  0.934484  0.936349  0.562889  1
  Dy  Dy6  1  0.311436  0.686179  0.311436  1
  Dy  Dy7  1  0.562889  0.936349  0.934484  1
  Dy  Dy8  1  0.563009  0.938754  0.563009  1
  Dy  Dy9  1  0.687623  0.688347  0.312404  1
  Dy  Dy10  1  0.563286  0.564341  0.938012  1
  Dy  Dy11  1  0.935680  0.565422  0.935680  1
  Dy  Dy12  1  0.312404  0.688347  0.687623  1
  Dy  Dy13  1  0.152688  0.150217  0.152688  1
  Dy  Dy14  1  0.309769  0.312177  0.685090  1
  Th  Th15  1  0.158326  0.535710  0.158326  1
  Cd  Cd16  1  0.919489  0.242827  0.919489  1
  Cd  Cd17  1  0.919272  0.920541  0.919272  1
  Cd  Cd18  1  0.919056  0.919742  0.244836  1
  Cd  Cd19  1  0.244836  0.919742  0.919056  1
  Co  Co20  1  0.353037  0.360474  0.353037  1
  Ni  Ni21  1  0.356721  0.359340  0.927157  1
  Ni  Ni22  1  0.358508  0.925901  0.358508  1
  Ni  Ni23  1  0.927157  0.359340  0.356721  1
