# generated using pymatgen
data_Y2PaCr(Co4P3)2
_symmetry_space_group_name_H-M   'P 1'
_cell_length_a   3.70881600
_cell_length_b   10.54666800
_cell_length_c   12.15035000
_cell_angle_alpha   90.00000000
_cell_angle_beta   90.00000000
_cell_angle_gamma   90.00000000
_symmetry_Int_Tables_number   1
_chemical_formula_structural   Y2PaCr(Co4P3)2
_chemical_formula_sum   'Y4 Pa2 Cr2 Co16 P12'
_cell_volume   475.26885043
_cell_formula_units_Z   2
loop_
 _symmetry_equiv_pos_site_id
 _symmetry_equiv_pos_as_xyz
  1  'x, y, z'
loop_
 _atom_site_type_symbol
 _atom_site_label
 _atom_site_symmetry_multiplicity
 _atom_site_fract_x
 _atom_site_fract_y
 _atom_site_fract_z
 _atom_site_occupancy
  Y  Y0  1  0.500000  0.816222  0.204604  1
  Y  Y1  1  0.500000  0.183778  0.204604  1
  Y  Y2  1  0.000000  0.683778  0.795396  1
  Y  Y3  1  0.000000  0.316222  0.795396  1
  Pa  Pa4  1  0.000000  0.500000  0.529428  1
  Pa  Pa5  1  0.500000  0.000000  0.470572  1
  Cr  Cr6  1  0.500000  0.500000  0.155108  1
  Cr  Cr7  1  0.000000  0.000000  0.844892  1
  Co  Co8  1  0.500000  0.500000  0.695697  1
  Co  Co9  1  0.000000  0.000000  0.304303  1
  Co  Co10  1  0.000000  0.500000  0.986174  1
  Co  Co11  1  0.500000  0.000000  0.013826  1
  Co  Co12  1  0.500000  0.333370  0.992075  1
  Co  Co13  1  0.500000  0.666630  0.992075  1
  Co  Co14  1  0.000000  0.166630  0.007925  1
  Co  Co15  1  0.000000  0.833370  0.007925  1
  Co  Co16  1  0.500000  0.300575  0.432730  1
  Co  Co17  1  0.500000  0.699425  0.432730  1
  Co  Co18  1  0.000000  0.199425  0.567270  1
  Co  Co19  1  0.000000  0.800575  0.567270  1
  Co  Co20  1  0.500000  0.880834  0.709566  1
  Co  Co21  1  0.500000  0.119166  0.709566  1
  Co  Co22  1  0.000000  0.619166  0.290434  1
  Co  Co23  1  0.000000  0.380834  0.290434  1
  P  P24  1  0.500000  0.500000  0.879021  1
  P  P25  1  0.000000  0.000000  0.120979  1
  P  P26  1  0.500000  0.500000  0.343971  1
  P  P27  1  0.000000  0.000000  0.656029  1
  P  P28  1  0.500000  0.307328  0.617249  1
  P  P29  1  0.500000  0.692672  0.617249  1
  P  P30  1  0.000000  0.192672  0.382751  1
  P  P31  1  0.000000  0.807328  0.382751  1
  P  P32  1  0.500000  0.847662  0.893581  1
  P  P33  1  0.500000  0.152338  0.893581  1
  P  P34  1  0.000000  0.652338  0.106419  1
  P  P35  1  0.000000  0.347662  0.106419  1
