# generated using pymatgen
data_Tb2Y4PtBr10
_symmetry_space_group_name_H-M   'P 1'
_cell_length_a   7.35825636
_cell_length_b   9.28022450
_cell_length_c   9.32607000
_cell_angle_alpha   106.95270846
_cell_angle_beta   96.97426988
_cell_angle_gamma   104.46227798
_symmetry_Int_Tables_number   1
_chemical_formula_structural   Tb2Y4PtBr10
_chemical_formula_sum   'Tb2 Y4 Pt1 Br10'
_cell_volume   576.74891280
_cell_formula_units_Z   1
loop_
 _symmetry_equiv_pos_site_id
 _symmetry_equiv_pos_as_xyz
  1  'x, y, z'
loop_
 _atom_site_type_symbol
 _atom_site_label
 _atom_site_symmetry_multiplicity
 _atom_site_fract_x
 _atom_site_fract_y
 _atom_site_fract_z
 _atom_site_occupancy
  Tb  Tb0  1  0.122994  0.045811  0.749875  1
  Tb  Tb1  1  0.877006  0.954189  0.250125  1
  Y  Y2  1  0.967687  0.298727  0.090398  1
  Y  Y3  1  0.032313  0.701273  0.909602  1
  Y  Y4  1  0.362059  0.132228  0.174848  1
  Y  Y5  1  0.637941  0.867772  0.825152  1
  Pt  Pt6  1  0.000000  0.000000  0.000000  1
  Br  Br7  1  0.345268  0.445447  0.269122  1
  Br  Br8  1  0.654732  0.554553  0.730878  1
  Br  Br9  1  0.252108  0.084347  0.456884  1
  Br  Br10  1  0.747892  0.915653  0.543116  1
  Br  Br11  1  0.084372  0.371594  0.824460  1
  Br  Br12  1  0.915628  0.628406  0.175540  1
  Br  Br13  1  0.455852  0.821171  0.089801  1
  Br  Br14  1  0.544148  0.178829  0.910199  1
  Br  Br15  1  0.778342  0.252634  0.341703  1
  Br  Br16  1  0.221658  0.747366  0.658297  1
