# generated using pymatgen
data_Ho4Lu4ReB24MoRu2
_symmetry_space_group_name_H-M   'P 1'
_cell_length_a   3.62482900
_cell_length_b   9.06648423
_cell_length_c   11.45386100
_cell_angle_alpha   90.10841134
_cell_angle_beta   90.00000000
_cell_angle_gamma   90.00000000
_symmetry_Int_Tables_number   1
_chemical_formula_structural   Ho4Lu4ReB24MoRu2
_chemical_formula_sum   'Ho4 Lu4 Re1 B24 Mo1 Ru2'
_cell_volume   376.42422517
_cell_formula_units_Z   1
loop_
 _symmetry_equiv_pos_site_id
 _symmetry_equiv_pos_as_xyz
  1  'x, y, z'
loop_
 _atom_site_type_symbol
 _atom_site_label
 _atom_site_symmetry_multiplicity
 _atom_site_fract_x
 _atom_site_fract_y
 _atom_site_fract_z
 _atom_site_occupancy
  Ho  Ho0  1  0.000000  0.322184  0.414438  1
  Ho  Ho1  1  0.000000  0.679053  0.587229  1
  Ho  Ho2  1  0.000000  0.821988  0.085203  1
  Ho  Ho3  1  0.000000  0.176730  0.914203  1
  Lu  Lu4  1  0.000000  0.945643  0.371103  1
  Lu  Lu5  1  0.000000  0.057316  0.628846  1
  Lu  Lu6  1  0.000000  0.441948  0.128035  1
  Lu  Lu7  1  0.000000  0.555775  0.870999  1
  Re  Re8  1  0.000000  0.861521  0.820441  1
  B  B9  1  0.500000  0.551576  0.435300  1
  B  B10  1  0.500000  0.446108  0.567931  1
  B  B11  1  0.500000  0.053884  0.067646  1
  B  B12  1  0.500000  0.946934  0.933043  1
  B  B13  1  0.500000  0.753101  0.421243  1
  B  B14  1  0.500000  0.250951  0.580820  1
  B  B15  1  0.500000  0.249246  0.081349  1
  B  B16  1  0.500000  0.749550  0.918977  1
  B  B17  1  0.500000  0.795684  0.264063  1
  B  B18  1  0.500000  0.207957  0.733922  1
  B  B19  1  0.500000  0.291526  0.234181  1
  B  B20  1  0.500000  0.707010  0.765421  1
  B  B21  1  0.500000  0.630167  0.182801  1
  B  B22  1  0.500000  0.368658  0.814972  1
  B  B23  1  0.500000  0.130975  0.314700  1
  B  B24  1  0.500000  0.869820  0.684865  1
  B  B25  1  0.500000  0.982953  0.212871  1
  B  B26  1  0.500000  0.018782  0.786901  1
  B  B27  1  0.500000  0.477626  0.286627  1
  B  B28  1  0.500000  0.517303  0.713099  1
  B  B29  1  0.500000  0.599906  0.027129  1
  B  B30  1  0.500000  0.397580  0.971691  1
  B  B31  1  0.500000  0.102162  0.471731  1
  B  B32  1  0.500000  0.900209  0.528161  1
  Mo  Mo33  1  0.000000  0.638325  0.320380  1
  Ru  Ru34  1  0.000000  0.361228  0.679505  1
  Ru  Ru35  1  0.000000  0.138624  0.180175  1
