# generated using pymatgen
data_HfZnCu3Ag
_symmetry_space_group_name_H-M   'P 1'
_cell_length_a   4.95231157
_cell_length_b   4.95231081
_cell_length_c   4.95231134
_cell_angle_alpha   60.35219344
_cell_angle_beta   60.35219771
_cell_angle_gamma   60.35218497
_symmetry_Int_Tables_number   1
_chemical_formula_structural   HfZnCu3Ag
_chemical_formula_sum   'Hf1 Zn1 Cu3 Ag1'
_cell_volume   86.56755940
_cell_formula_units_Z   1
loop_
 _symmetry_equiv_pos_site_id
 _symmetry_equiv_pos_as_xyz
  1  'x, y, z'
loop_
 _atom_site_type_symbol
 _atom_site_label
 _atom_site_symmetry_multiplicity
 _atom_site_fract_x
 _atom_site_fract_y
 _atom_site_fract_z
 _atom_site_occupancy
  Hf  Hf0  1  0.248191  0.248191  0.248191  1
  Zn  Zn1  1  0.626357  0.626357  0.626357  1
  Cu  Cu2  1  0.625469  0.625469  0.124988  1
  Cu  Cu3  1  0.625469  0.124988  0.625469  1
  Cu  Cu4  1  0.124988  0.625469  0.625469  1
  Ag  Ag5  1  0.999528  0.999528  0.999528  1
