# generated using pymatgen
data_Nb5InS10
_symmetry_space_group_name_H-M   'P 1'
_cell_length_a   5.84870086
_cell_length_b   7.86441537
_cell_length_c   8.59954616
_cell_angle_alpha   114.47684800
_cell_angle_beta   96.80962700
_cell_angle_gamma   104.09504557
_symmetry_Int_Tables_number   1
_chemical_formula_structural   Nb5InS10
_chemical_formula_sum   'Nb5 In1 S10'
_cell_volume   338.19872790
_cell_formula_units_Z   1
loop_
 _symmetry_equiv_pos_site_id
 _symmetry_equiv_pos_as_xyz
  1  'x, y, z'
loop_
 _atom_site_type_symbol
 _atom_site_label
 _atom_site_symmetry_multiplicity
 _atom_site_fract_x
 _atom_site_fract_y
 _atom_site_fract_z
 _atom_site_occupancy
  Nb  Nb0  1  0.005988  0.002954  0.999009  1
  Nb  Nb1  1  0.598123  0.195306  0.203446  1
  Nb  Nb2  1  0.201258  0.398472  0.401651  1
  Nb  Nb3  1  0.800232  0.602225  0.598812  1
  Nb  Nb4  1  0.393833  0.799014  0.796300  1
  In  In5  1  0.665792  0.493403  0.003410  1
  S  S6  1  0.235719  0.062565  0.289330  1
  S  S7  1  0.032058  0.662887  0.891427  1
  S  S8  1  0.836697  0.265689  0.491025  1
  S  S9  1  0.641308  0.859980  0.085911  1
  S  S10  1  0.440985  0.465150  0.694295  1
  S  S11  1  0.900329  0.539534  0.311005  1
  S  S12  1  0.696005  0.134175  0.906139  1
  S  S13  1  0.494107  0.736985  0.510423  1
  S  S14  1  0.295265  0.341141  0.111233  1
  S  S15  1  0.095103  0.938120  0.708185  1
