# generated using pymatgen
data_Hf18Ta5Re3SiP
_symmetry_space_group_name_H-M   'P 1'
_cell_length_a   8.65834500
_cell_length_b   8.71992647
_cell_length_c   8.78412900
_cell_angle_alpha   90.00000000
_cell_angle_beta   90.00000000
_cell_angle_gamma   120.23554666
_symmetry_Int_Tables_number   1
_chemical_formula_structural   Hf18Ta5Re3SiP
_chemical_formula_sum   'Hf18 Ta5 Re3 Si1 P1'
_cell_volume   572.98247176
_cell_formula_units_Z   1
loop_
 _symmetry_equiv_pos_site_id
 _symmetry_equiv_pos_as_xyz
  1  'x, y, z'
loop_
 _atom_site_type_symbol
 _atom_site_label
 _atom_site_symmetry_multiplicity
 _atom_site_fract_x
 _atom_site_fract_y
 _atom_site_fract_z
 _atom_site_occupancy
  Hf  Hf0  1  0.197924  0.802880  0.453425  1
  Hf  Hf1  1  0.197924  0.395044  0.453425  1
  Hf  Hf2  1  0.607859  0.803929  0.455711  1
  Hf  Hf3  1  0.802114  0.197087  0.551404  1
  Hf  Hf4  1  0.802114  0.605029  0.551404  1
  Hf  Hf5  1  0.395443  0.197722  0.550314  1
  Hf  Hf6  1  0.802114  0.197087  0.948596  1
  Hf  Hf7  1  0.802114  0.605029  0.948596  1
  Hf  Hf8  1  0.395443  0.197722  0.949686  1
  Hf  Hf9  1  0.197924  0.802880  0.046575  1
  Hf  Hf10  1  0.197924  0.395044  0.046575  1
  Hf  Hf11  1  0.607859  0.803929  0.044289  1
  Hf  Hf12  1  0.538031  0.463332  0.250000  1
  Hf  Hf13  1  0.538031  0.074699  0.250000  1
  Hf  Hf14  1  0.924376  0.462189  0.250000  1
  Hf  Hf15  1  0.463474  0.541414  0.750000  1
  Hf  Hf16  1  0.463474  0.922059  0.750000  1
  Hf  Hf17  1  0.075728  0.537864  0.750000  1
  Ta  Ta18  1  0.888992  0.110616  0.250000  1
  Ta  Ta19  1  0.888992  0.778374  0.250000  1
  Ta  Ta20  1  0.222628  0.111314  0.250000  1
  Ta  Ta21  1  0.105629  0.887629  0.750000  1
  Ta  Ta22  1  0.105629  0.218000  0.750000  1
  Re  Re23  1  0.777228  0.888614  0.750000  1
  Re  Re24  1  0.999233  0.999616  0.498696  1
  Re  Re25  1  0.999233  0.999616  0.001304  1
  Si  Si26  1  0.334282  0.667142  0.250000  1
  P  P27  1  0.668284  0.334141  0.750000  1
