# generated using pymatgen
data_SmLuTh2(AsPt)4
_symmetry_space_group_name_H-M   'P 1'
_cell_length_a   4.32648500
_cell_length_b   4.32648669
_cell_length_c   15.60664500
_cell_angle_alpha   90.00000000
_cell_angle_beta   90.00000000
_cell_angle_gamma   120.00001005
_symmetry_Int_Tables_number   1
_chemical_formula_structural   SmLuTh2(AsPt)4
_chemical_formula_sum   'Sm1 Lu1 Th2 As4 Pt4'
_cell_volume   252.99428650
_cell_formula_units_Z   1
loop_
 _symmetry_equiv_pos_site_id
 _symmetry_equiv_pos_as_xyz
  1  'x, y, z'
loop_
 _atom_site_type_symbol
 _atom_site_label
 _atom_site_symmetry_multiplicity
 _atom_site_fract_x
 _atom_site_fract_y
 _atom_site_fract_z
 _atom_site_occupancy
  Sm  Sm0  1  0.000000  0.000000  0.250000  1
  Lu  Lu1  1  0.000000  0.000000  0.750000  1
  Th  Th2  1  0.000000  0.000000  0.503715  1
  Th  Th3  1  0.000000  0.000000  0.996285  1
  As  As4  1  0.333333  0.666667  0.881112  1
  As  As5  1  0.666667  0.333333  0.116532  1
  As  As6  1  0.666667  0.333333  0.383468  1
  As  As7  1  0.333333  0.666667  0.618888  1
  Pt  Pt8  1  0.333333  0.666667  0.366817  1
  Pt  Pt9  1  0.666667  0.333333  0.647969  1
  Pt  Pt10  1  0.666667  0.333333  0.852031  1
  Pt  Pt11  1  0.333333  0.666667  0.133183  1
