# generated using pymatgen
data_Al16V5GaIr7
_symmetry_space_group_name_H-M   'P 1'
_cell_length_a   8.50013948
_cell_length_b   8.56174395
_cell_length_c   8.56174387
_cell_angle_alpha   59.52453738
_cell_angle_beta   60.23773479
_cell_angle_gamma   60.23774004
_symmetry_Int_Tables_number   1
_chemical_formula_structural   Al16V5GaIr7
_chemical_formula_sum   'Al16 V5 Ga1 Ir7'
_cell_volume   440.54564376
_cell_formula_units_Z   1
loop_
 _symmetry_equiv_pos_site_id
 _symmetry_equiv_pos_as_xyz
  1  'x, y, z'
loop_
 _atom_site_type_symbol
 _atom_site_label
 _atom_site_symmetry_multiplicity
 _atom_site_fract_x
 _atom_site_fract_y
 _atom_site_fract_z
 _atom_site_occupancy
  Al  Al0  1  0.886110  0.847346  0.847346  1
  Al  Al1  1  0.863160  0.839736  0.433947  1
  Al  Al2  1  0.419200  0.847346  0.847346  1
  Al  Al3  1  0.863160  0.433947  0.839736  1
  Al  Al4  1  0.160264  0.136840  0.136840  1
  Al  Al5  1  0.152654  0.113890  0.580800  1
  Al  Al6  1  0.152654  0.580800  0.113890  1
  Al  Al7  1  0.566053  0.136840  0.136840  1
  Al  Al8  1  0.619284  0.617752  0.617752  1
  Al  Al9  1  0.631958  0.619347  0.116735  1
  Al  Al10  1  0.145212  0.617752  0.617752  1
  Al  Al11  1  0.631958  0.116735  0.619347  1
  Al  Al12  1  0.380653  0.368042  0.368042  1
  Al  Al13  1  0.382248  0.380716  0.854788  1
  Al  Al14  1  0.382248  0.854788  0.380716  1
  Al  Al15  1  0.883265  0.368042  0.368042  1
  V  V16  1  0.777697  0.222303  0.222303  1
  V  V17  1  0.774103  0.225897  0.760678  1
  V  V18  1  0.774103  0.760678  0.225897  1
  V  V19  1  0.239322  0.760678  0.225897  1
  V  V20  1  0.239322  0.225897  0.760678  1
  Ga  Ga21  1  0.003640  0.996360  0.996360  1
  Ir  Ir22  1  0.514632  0.485368  0.485368  1
  Ir  Ir23  1  0.010628  0.489372  0.489372  1
  Ir  Ir24  1  0.510628  0.989372  0.989372  1
  Ir  Ir25  1  0.511456  0.993536  0.488544  1
  Ir  Ir26  1  0.511456  0.488544  0.993536  1
  Ir  Ir27  1  0.006464  0.488544  0.993536  1
  Ir  Ir28  1  0.006464  0.993536  0.488544  1
