# generated using pymatgen
data_Ho7Tm3(Bi2Pt)2
_symmetry_space_group_name_H-M   'P 1'
_cell_length_a   8.02478712
_cell_length_b   9.00758913
_cell_length_c   12.36385300
_cell_angle_alpha   90.00000000
_cell_angle_beta   90.00000000
_cell_angle_gamma   90.01974409
_symmetry_Int_Tables_number   1
_chemical_formula_structural   Ho7Tm3(Bi2Pt)2
_chemical_formula_sum   'Ho14 Tm6 Bi8 Pt4'
_cell_volume   893.70851488
_cell_formula_units_Z   2
loop_
 _symmetry_equiv_pos_site_id
 _symmetry_equiv_pos_as_xyz
  1  'x, y, z'
loop_
 _atom_site_type_symbol
 _atom_site_label
 _atom_site_symmetry_multiplicity
 _atom_site_fract_x
 _atom_site_fract_y
 _atom_site_fract_z
 _atom_site_occupancy
  Ho  Ho0  1  0.164547  0.749779  0.210220  1
  Ho  Ho1  1  0.335453  0.750221  0.710220  1
  Ho  Ho2  1  0.835879  0.249952  0.789977  1
  Ho  Ho3  1  0.664121  0.250048  0.289977  1
  Ho  Ho4  1  0.449256  0.749617  0.000067  1
  Ho  Ho5  1  0.050744  0.750383  0.500067  1
  Ho  Ho6  1  0.549256  0.250516  0.999627  1
  Ho  Ho7  1  0.950744  0.249484  0.499627  1
  Ho  Ho8  1  0.627095  0.750280  0.303373  1
  Ho  Ho9  1  0.872905  0.749720  0.803373  1
  Ho  Ho10  1  0.372362  0.249816  0.696945  1
  Ho  Ho11  1  0.127638  0.250184  0.196945  1
  Ho  Ho12  1  0.821879  0.952965  0.066608  1
  Ho  Ho13  1  0.678121  0.547035  0.566608  1
  Tm  Tm14  1  0.824143  0.547670  0.066238  1
  Tm  Tm15  1  0.675857  0.952330  0.566238  1
  Tm  Tm16  1  0.176063  0.047493  0.933579  1
  Tm  Tm17  1  0.323937  0.452507  0.433579  1
  Tm  Tm18  1  0.175873  0.452338  0.933570  1
  Tm  Tm19  1  0.324127  0.047662  0.433570  1
  Bi  Bi20  1  0.933047  0.509914  0.327327  1
  Bi  Bi21  1  0.566953  0.990086  0.827327  1
  Bi  Bi22  1  0.066583  0.009972  0.672857  1
  Bi  Bi23  1  0.433417  0.490028  0.172857  1
  Bi  Bi24  1  0.067565  0.489826  0.672781  1
  Bi  Bi25  1  0.432435  0.010174  0.172781  1
  Bi  Bi26  1  0.933520  0.990168  0.327307  1
  Bi  Bi27  1  0.566480  0.509832  0.827307  1
  Pt  Pt28  1  0.421047  0.750664  0.488112  1
  Pt  Pt29  1  0.078953  0.749336  0.988112  1
  Pt  Pt30  1  0.577114  0.248720  0.511412  1
  Pt  Pt31  1  0.922886  0.251280  0.011412  1
