# generated using pymatgen
data_Ba4Lu2AlCoO10
_symmetry_space_group_name_H-M   'P 1'
_cell_length_a   6.04523400
_cell_length_b   7.80390993
_cell_length_c   12.43214078
_cell_angle_alpha   91.48442892
_cell_angle_beta   90.00000000
_cell_angle_gamma   90.00000000
_symmetry_Int_Tables_number   1
_chemical_formula_structural   Ba4Lu2AlCoO10
_chemical_formula_sum   'Ba8 Lu4 Al2 Co2 O20'
_cell_volume   586.30758271
_cell_formula_units_Z   2
loop_
 _symmetry_equiv_pos_site_id
 _symmetry_equiv_pos_as_xyz
  1  'x, y, z'
loop_
 _atom_site_type_symbol
 _atom_site_label
 _atom_site_symmetry_multiplicity
 _atom_site_fract_x
 _atom_site_fract_y
 _atom_site_fract_z
 _atom_site_occupancy
  Ba  Ba0  1  0.756434  0.489377  0.358503  1
  Ba  Ba1  1  0.743566  0.989377  0.858503  1
  Ba  Ba2  1  0.243044  0.506501  0.639322  1
  Ba  Ba3  1  0.256956  0.006501  0.139322  1
  Ba  Ba4  1  0.753626  0.997050  0.379855  1
  Ba  Ba5  1  0.746374  0.497050  0.879855  1
  Ba  Ba6  1  0.246555  0.007572  0.617481  1
  Ba  Ba7  1  0.253445  0.507572  0.117481  1
  Lu  Lu8  1  0.748212  0.260743  0.631375  1
  Lu  Lu9  1  0.751788  0.760743  0.131375  1
  Lu  Lu10  1  0.251769  0.737923  0.371633  1
  Lu  Lu11  1  0.248231  0.237923  0.871633  1
  Al  Al12  1  0.741849  0.745666  0.583693  1
  Al  Al13  1  0.758151  0.245666  0.083693  1
  Co  Co14  1  0.257341  0.254076  0.409682  1
  Co  Co15  1  0.242659  0.754076  0.909682  1
  O  O16  1  0.754420  0.962773  0.635636  1
  O  O17  1  0.745580  0.462773  0.135636  1
  O  O18  1  0.245662  0.025993  0.367651  1
  O  O19  1  0.254338  0.525993  0.867651  1
  O  O20  1  0.741073  0.063246  0.167309  1
  O  O21  1  0.758927  0.563246  0.667309  1
  O  O22  1  0.259687  0.949672  0.832648  1
  O  O23  1  0.240313  0.449672  0.332648  1
  O  O24  1  0.530690  0.748008  0.265746  1
  O  O25  1  0.969310  0.248008  0.765746  1
  O  O26  1  0.468690  0.252924  0.735857  1
  O  O27  1  0.031310  0.752924  0.235857  1
  O  O28  1  0.531014  0.231036  0.989358  1
  O  O29  1  0.968986  0.731036  0.489358  1
  O  O30  1  0.477787  0.768524  0.013361  1
  O  O31  1  0.022213  0.268524  0.513361  1
  O  O32  1  0.016218  0.233282  0.012029  1
  O  O33  1  0.483782  0.733282  0.512029  1
  O  O34  1  0.972704  0.765635  0.988860  1
  O  O35  1  0.527296  0.265635  0.488860  1
