# generated using pymatgen
data_Tb3Y(Al3Ni)4
_symmetry_space_group_name_H-M   'P 1'
_cell_length_a   4.03529400
_cell_length_b   8.16415100
_cell_length_c   10.69811500
_cell_angle_alpha   90.00007258
_cell_angle_beta   90.00000000
_cell_angle_gamma   90.00000000
_symmetry_Int_Tables_number   1
_chemical_formula_structural   Tb3Y(Al3Ni)4
_chemical_formula_sum   'Tb3 Y1 Al12 Ni4'
_cell_volume   352.44671928
_cell_formula_units_Z   1
loop_
 _symmetry_equiv_pos_site_id
 _symmetry_equiv_pos_as_xyz
  1  'x, y, z'
loop_
 _atom_site_type_symbol
 _atom_site_label
 _atom_site_symmetry_multiplicity
 _atom_site_fract_x
 _atom_site_fract_y
 _atom_site_fract_z
 _atom_site_occupancy
  Tb  Tb0  1  0.250000  0.184603  0.991525  1
  Tb  Tb1  1  0.750000  0.315448  0.491441  1
  Tb  Tb2  1  0.250000  0.684541  0.508488  1
  Y  Y3  1  0.750000  0.815572  0.008608  1
  Al  Al4  1  0.750000  0.444263  0.916772  1
  Al  Al5  1  0.250000  0.555792  0.083201  1
  Al  Al6  1  0.750000  0.944298  0.583260  1
  Al  Al7  1  0.250000  0.055709  0.416707  1
  Al  Al8  1  0.750000  0.614797  0.286120  1
  Al  Al9  1  0.250000  0.885185  0.786199  1
  Al  Al10  1  0.750000  0.114651  0.213757  1
  Al  Al11  1  0.250000  0.355942  0.278072  1
  Al  Al12  1  0.750000  0.644128  0.721928  1
  Al  Al13  1  0.250000  0.855880  0.221813  1
  Al  Al14  1  0.250000  0.385280  0.713862  1
  Al  Al15  1  0.750000  0.144023  0.778099  1
  Ni  Ni16  1  0.750000  0.894484  0.357013  1
  Ni  Ni17  1  0.750000  0.394376  0.143094  1
  Ni  Ni18  1  0.250000  0.605501  0.856898  1
  Ni  Ni19  1  0.250000  0.105528  0.643143  1
