# generated using pymatgen
data_Tm2Th(P2Rh3)3
_symmetry_space_group_name_H-M   'P 1'
_cell_length_a   3.94649000
_cell_length_b   11.20548900
_cell_length_c   12.79620200
_cell_angle_alpha   90.00000000
_cell_angle_beta   90.00000000
_cell_angle_gamma   90.00000000
_symmetry_Int_Tables_number   1
_chemical_formula_structural   Tm2Th(P2Rh3)3
_chemical_formula_sum   'Tm4 Th2 P12 Rh18'
_cell_volume   565.87812714
_cell_formula_units_Z   2
loop_
 _symmetry_equiv_pos_site_id
 _symmetry_equiv_pos_as_xyz
  1  'x, y, z'
loop_
 _atom_site_type_symbol
 _atom_site_label
 _atom_site_symmetry_multiplicity
 _atom_site_fract_x
 _atom_site_fract_y
 _atom_site_fract_z
 _atom_site_occupancy
  Tm  Tm0  1  0.500000  0.813578  0.204983  1
  Tm  Tm1  1  0.500000  0.186422  0.204983  1
  Tm  Tm2  1  0.000000  0.686422  0.795017  1
  Tm  Tm3  1  0.000000  0.313578  0.795017  1
  Th  Th4  1  0.000000  0.500000  0.524552  1
  Th  Th5  1  0.500000  0.000000  0.475448  1
  P  P6  1  0.500000  0.500000  0.878997  1
  P  P7  1  0.000000  0.000000  0.121003  1
  P  P8  1  0.500000  0.500000  0.348734  1
  P  P9  1  0.000000  0.000000  0.651266  1
  P  P10  1  0.500000  0.313033  0.621154  1
  P  P11  1  0.500000  0.686967  0.621154  1
  P  P12  1  0.000000  0.186967  0.378846  1
  P  P13  1  0.000000  0.813033  0.378846  1
  P  P14  1  0.500000  0.845866  0.893457  1
  P  P15  1  0.500000  0.154134  0.893457  1
  P  P16  1  0.000000  0.654134  0.106543  1
  P  P17  1  0.000000  0.345866  0.106543  1
  Rh  Rh18  1  0.500000  0.500000  0.168408  1
  Rh  Rh19  1  0.000000  0.000000  0.831592  1
  Rh  Rh20  1  0.500000  0.500000  0.703366  1
  Rh  Rh21  1  0.000000  0.000000  0.296634  1
  Rh  Rh22  1  0.000000  0.500000  0.978323  1
  Rh  Rh23  1  0.500000  0.000000  0.021677  1
  Rh  Rh24  1  0.500000  0.333906  0.993522  1
  Rh  Rh25  1  0.500000  0.666094  0.993522  1
  Rh  Rh26  1  0.000000  0.166094  0.006478  1
  Rh  Rh27  1  0.000000  0.833906  0.006478  1
  Rh  Rh28  1  0.500000  0.297264  0.431002  1
  Rh  Rh29  1  0.500000  0.702736  0.431002  1
  Rh  Rh30  1  0.000000  0.202736  0.568998  1
  Rh  Rh31  1  0.000000  0.797264  0.568998  1
  Rh  Rh32  1  0.500000  0.871606  0.712956  1
  Rh  Rh33  1  0.500000  0.128394  0.712956  1
  Rh  Rh34  1  0.000000  0.628394  0.287044  1
  Rh  Rh35  1  0.000000  0.371606  0.287044  1
