# generated using pymatgen
data_BaMnTeO6
_symmetry_space_group_name_H-M   'P 1'
_cell_length_a   5.20161721
_cell_length_b   5.19563883
_cell_length_c   11.75864588
_cell_angle_alpha   89.95575980
_cell_angle_beta   90.02298910
_cell_angle_gamma   119.96387150
_symmetry_Int_Tables_number   1
_chemical_formula_structural   BaMnTeO6
_chemical_formula_sum   'Ba2 Mn2 Te2 O12'
_cell_volume   275.31073639
_cell_formula_units_Z   2
loop_
 _symmetry_equiv_pos_site_id
 _symmetry_equiv_pos_as_xyz
  1  'x, y, z'
loop_
 _atom_site_type_symbol
 _atom_site_label
 _atom_site_symmetry_multiplicity
 _atom_site_fract_x
 _atom_site_fract_y
 _atom_site_fract_z
 _atom_site_occupancy
  Ba  Ba0  1  0.000000  0.000000  0.000000  1
  Ba  Ba1  1  0.000000  0.000000  0.500000  1
  Mn  Mn2  1  0.331391  0.665663  0.250018  1
  Mn  Mn3  1  0.668609  0.334337  0.749982  1
  Te  Te4  1  0.665813  0.332889  0.249993  1
  Te  Te5  1  0.334187  0.667111  0.750007  1
  O  O6  1  0.612500  0.614634  0.156418  1
  O  O7  1  0.384750  0.997923  0.156365  1
  O  O8  1  0.001393  0.386826  0.156354  1
  O  O9  1  0.001385  0.614553  0.343652  1
  O  O10  1  0.384755  0.386808  0.343646  1
  O  O11  1  0.612507  0.997862  0.343590  1
  O  O12  1  0.998615  0.385447  0.656348  1
  O  O13  1  0.387493  0.002138  0.656410  1
  O  O14  1  0.615245  0.613192  0.656355  1
  O  O15  1  0.615252  0.002077  0.843634  1
  O  O16  1  0.387502  0.385366  0.843582  1
  O  O17  1  0.998609  0.613174  0.843646  1
