# generated using pymatgen
data_Nb6Ru5Pt8Rh5
_symmetry_space_group_name_H-M   'P 1'
_cell_length_a   5.61498600
_cell_length_b   5.61895334
_cell_length_c   13.59476470
_cell_angle_alpha   90.12637784
_cell_angle_beta   89.87553810
_cell_angle_gamma   120.14107700
_symmetry_Int_Tables_number   1
_chemical_formula_structural   Nb6Ru5Pt8Rh5
_chemical_formula_sum   'Nb6 Ru5 Pt8 Rh5'
_cell_volume   370.92482547
_cell_formula_units_Z   1
loop_
 _symmetry_equiv_pos_site_id
 _symmetry_equiv_pos_as_xyz
  1  'x, y, z'
loop_
 _atom_site_type_symbol
 _atom_site_label
 _atom_site_symmetry_multiplicity
 _atom_site_fract_x
 _atom_site_fract_y
 _atom_site_fract_z
 _atom_site_occupancy
  Nb  Nb0  1  0.996242  0.004017  0.253395  1
  Nb  Nb1  1  0.002056  0.000091  0.742592  1
  Nb  Nb2  1  0.332688  0.666428  0.406672  1
  Nb  Nb3  1  0.665970  0.330252  0.594898  1
  Nb  Nb4  1  0.664425  0.332383  0.899805  1
  Nb  Nb5  1  0.332486  0.666668  0.101083  1
  Ru  Ru6  1  0.502797  0.496360  0.251661  1
  Ru  Ru7  1  0.503533  0.009190  0.251781  1
  Ru  Ru8  1  0.991254  0.496149  0.251606  1
  Ru  Ru9  1  0.496171  0.502861  0.748201  1
  Ru  Ru10  1  0.495400  0.989536  0.747943  1
  Pt  Pt11  1  0.167075  0.331139  0.915520  1
  Pt  Pt12  1  0.669241  0.834739  0.914564  1
  Pt  Pt13  1  0.167252  0.835881  0.915471  1
  Pt  Pt14  1  0.833698  0.669605  0.084492  1
  Pt  Pt15  1  0.331225  0.166133  0.084277  1
  Pt  Pt16  1  0.832813  0.166104  0.084164  1
  Pt  Pt17  1  0.834036  0.669595  0.417516  1
  Pt  Pt18  1  0.330780  0.165415  0.418127  1
  Rh  Rh19  1  0.009001  0.503338  0.747939  1
  Rh  Rh20  1  0.835549  0.163121  0.416611  1
  Rh  Rh21  1  0.167177  0.329668  0.583614  1
  Rh  Rh22  1  0.670951  0.835408  0.584405  1
  Rh  Rh23  1  0.168181  0.835919  0.583662  1
