# generated using pymatgen
data_Tm8GaPd23Au
_symmetry_space_group_name_H-M   'P 1'
_cell_length_a   8.32410600
_cell_length_b   8.38391000
_cell_length_c   8.39573500
_cell_angle_alpha   90.00000000
_cell_angle_beta   90.00000000
_cell_angle_gamma   90.00000000
_symmetry_Int_Tables_number   1
_chemical_formula_structural   Tm8GaPd23Au
_chemical_formula_sum   'Tm8 Ga1 Pd23 Au1'
_cell_volume   585.92621830
_cell_formula_units_Z   1
loop_
 _symmetry_equiv_pos_site_id
 _symmetry_equiv_pos_as_xyz
  1  'x, y, z'
loop_
 _atom_site_type_symbol
 _atom_site_label
 _atom_site_symmetry_multiplicity
 _atom_site_fract_x
 _atom_site_fract_y
 _atom_site_fract_z
 _atom_site_occupancy
  Tm  Tm0  1  0.252294  0.248655  0.256769  1
  Tm  Tm1  1  0.747339  0.747203  0.747652  1
  Tm  Tm2  1  0.747339  0.747203  0.252348  1
  Tm  Tm3  1  0.747339  0.252797  0.747652  1
  Tm  Tm4  1  0.252294  0.248655  0.743231  1
  Tm  Tm5  1  0.252294  0.751345  0.256769  1
  Tm  Tm6  1  0.252294  0.751345  0.743231  1
  Tm  Tm7  1  0.747339  0.252797  0.252348  1
  Ga  Ga8  1  0.999895  0.000000  0.000000  1
  Pd  Pd9  1  0.739469  0.500000  0.000000  1
  Pd  Pd10  1  0.999537  0.260714  0.500000  1
  Pd  Pd11  1  0.499658  0.260104  0.000000  1
  Pd  Pd12  1  0.999537  0.739286  0.500000  1
  Pd  Pd13  1  0.499658  0.739896  0.000000  1
  Pd  Pd14  1  0.500401  0.000000  0.261087  1
  Pd  Pd15  1  0.260906  0.000000  0.500000  1
  Pd  Pd16  1  0.500401  0.000000  0.738913  1
  Pd  Pd17  1  0.738868  0.000000  0.500000  1
  Pd  Pd18  1  0.000483  0.500000  0.261012  1
  Pd  Pd19  1  0.000483  0.500000  0.738988  1
  Pd  Pd20  1  0.253073  0.500000  0.500000  1
  Pd  Pd21  1  0.747089  0.500000  0.500000  1
  Pd  Pd22  1  0.500417  0.253076  0.500000  1
  Pd  Pd23  1  0.500417  0.746924  0.500000  1
  Pd  Pd24  1  0.499474  0.500000  0.254052  1
  Pd  Pd25  1  0.499474  0.500000  0.745948  1
  Pd  Pd26  1  0.292504  0.000000  0.000000  1
  Pd  Pd27  1  0.707323  0.000000  0.000000  1
  Pd  Pd28  1  0.000683  0.291007  0.000000  1
  Pd  Pd29  1  0.000683  0.708993  0.000000  1
  Pd  Pd30  1  0.999288  0.000000  0.291963  1
  Pd  Pd31  1  0.999288  0.000000  0.708037  1
  Au  Au32  1  0.262457  0.500000  0.000000  1
