# generated using pymatgen
data_Sr3Sc2MoO9
_symmetry_space_group_name_H-M   'P 1'
_cell_length_a   9.93983841
_cell_length_b   9.93983901
_cell_length_c   5.71725683
_cell_angle_alpha   73.25844819
_cell_angle_beta   73.25844954
_cell_angle_gamma   48.77463766
_symmetry_Int_Tables_number   1
_chemical_formula_structural   Sr3Sc2MoO9
_chemical_formula_sum   'Sr6 Sc4 Mo2 O18'
_cell_volume   403.04125145
_cell_formula_units_Z   2
loop_
 _symmetry_equiv_pos_site_id
 _symmetry_equiv_pos_as_xyz
  1  'x, y, z'
loop_
 _atom_site_type_symbol
 _atom_site_label
 _atom_site_symmetry_multiplicity
 _atom_site_fract_x
 _atom_site_fract_y
 _atom_site_fract_z
 _atom_site_occupancy
  Sr  Sr0  1  0.917775  0.402200  0.845212  1
  Sr  Sr1  1  0.236286  0.763714  0.500000  1
  Sr  Sr2  1  0.597800  0.082225  0.154788  1
  Sr  Sr3  1  0.763714  0.236286  0.500000  1
  Sr  Sr4  1  0.082225  0.597800  0.154788  1
  Sr  Sr5  1  0.402200  0.917775  0.845212  1
  Sc  Sc6  1  0.500000  0.500000  0.000000  1
  Sc  Sc7  1  0.833915  0.833915  0.662754  1
  Sc  Sc8  1  0.166085  0.166085  0.337246  1
  Sc  Sc9  1  0.000000  0.000000  0.000000  1
  Mo  Mo10  1  0.333096  0.333096  0.663609  1
  Mo  Mo11  1  0.666904  0.666904  0.336391  1
  O  O12  1  0.431913  0.908191  0.329366  1
  O  O13  1  0.745988  0.254012  0.000000  1
  O  O14  1  0.091809  0.568087  0.670634  1
  O  O15  1  0.908191  0.431913  0.329366  1
  O  O16  1  0.254012  0.745988  0.000000  1
  O  O17  1  0.568087  0.091809  0.670634  1
  O  O18  1  0.072274  0.072274  0.224167  1
  O  O19  1  0.397656  0.397656  0.882097  1
  O  O20  1  0.726393  0.726393  0.564377  1
  O  O21  1  0.602344  0.602344  0.117903  1
  O  O22  1  0.927726  0.927726  0.775833  1
  O  O23  1  0.273607  0.273607  0.435623  1
  O  O24  1  0.571758  0.571758  0.617582  1
  O  O25  1  0.897634  0.897634  0.308136  1
  O  O26  1  0.239909  0.239909  0.949363  1
  O  O27  1  0.102366  0.102366  0.691864  1
  O  O28  1  0.428242  0.428242  0.382418  1
  O  O29  1  0.760091  0.760091  0.050637  1
