# generated using pymatgen
data_Ho4ReRuC4
_symmetry_space_group_name_H-M   'P 1'
_cell_length_a   5.08150600
_cell_length_b   6.50690800
_cell_length_c   9.78751300
_cell_angle_alpha   90.00000000
_cell_angle_beta   90.00000000
_cell_angle_gamma   90.00000000
_symmetry_Int_Tables_number   1
_chemical_formula_structural   Ho4ReRuC4
_chemical_formula_sum   'Ho8 Re2 Ru2 C8'
_cell_volume   323.62306072
_cell_formula_units_Z   2
loop_
 _symmetry_equiv_pos_site_id
 _symmetry_equiv_pos_as_xyz
  1  'x, y, z'
loop_
 _atom_site_type_symbol
 _atom_site_label
 _atom_site_symmetry_multiplicity
 _atom_site_fract_x
 _atom_site_fract_y
 _atom_site_fract_z
 _atom_site_occupancy
  Ho  Ho0  1  0.250000  0.466825  0.783911  1
  Ho  Ho1  1  0.750000  0.033175  0.283911  1
  Ho  Ho2  1  0.250000  0.969118  0.716134  1
  Ho  Ho3  1  0.750000  0.530882  0.216134  1
  Ho  Ho4  1  0.250000  0.824371  0.055359  1
  Ho  Ho5  1  0.750000  0.675629  0.555359  1
  Ho  Ho6  1  0.250000  0.319877  0.442774  1
  Ho  Ho7  1  0.750000  0.180123  0.942774  1
  Re  Re8  1  0.250000  0.780570  0.366264  1
  Re  Re9  1  0.750000  0.719430  0.866264  1
  Ru  Ru10  1  0.250000  0.279854  0.132978  1
  Ru  Ru11  1  0.750000  0.220146  0.632978  1
  C  C12  1  0.250000  0.174495  0.947530  1
  C  C13  1  0.750000  0.823876  0.052703  1
  C  C14  1  0.250000  0.676124  0.552703  1
  C  C15  1  0.750000  0.325505  0.447530  1
  C  C16  1  0.250000  0.045716  0.259703  1
  C  C17  1  0.750000  0.454284  0.759703  1
  C  C18  1  0.250000  0.547445  0.242644  1
  C  C19  1  0.750000  0.952555  0.742644  1
