# generated using pymatgen
data_Sr2TbSi5PPd20
_symmetry_space_group_name_H-M   'P 1'
_cell_length_a   8.78668500
_cell_length_b   8.78954093
_cell_length_c   8.78953500
_cell_angle_alpha   59.97854044
_cell_angle_beta   60.01076891
_cell_angle_gamma   60.01081413
_symmetry_Int_Tables_number   1
_chemical_formula_structural   Sr2TbSi5PPd20
_chemical_formula_sum   'Sr2 Tb1 Si5 P1 Pd20'
_cell_volume   480.00135744
_cell_formula_units_Z   1
loop_
 _symmetry_equiv_pos_site_id
 _symmetry_equiv_pos_as_xyz
  1  'x, y, z'
loop_
 _atom_site_type_symbol
 _atom_site_label
 _atom_site_symmetry_multiplicity
 _atom_site_fract_x
 _atom_site_fract_y
 _atom_site_fract_z
 _atom_site_occupancy
  Sr  Sr0  1  0.249821  0.250179  0.250180  1
  Sr  Sr1  1  0.749821  0.750179  0.750180  1
  Tb  Tb2  1  0.000681  0.999319  0.999319  1
  Si  Si3  1  0.267757  0.732243  0.732243  1
  Si  Si4  1  0.266900  0.733100  0.267895  1
  Si  Si5  1  0.732105  0.267895  0.733100  1
  Si  Si6  1  0.266900  0.267895  0.733100  1
  Si  Si7  1  0.732105  0.733100  0.267895  1
  P  P8  1  0.733432  0.266568  0.266569  1
  Pd  Pd9  1  0.344026  0.999743  0.999743  1
  Pd  Pd10  1  0.656487  0.999743  0.999743  1
  Pd  Pd11  1  0.000257  0.343513  0.655973  1
  Pd  Pd12  1  0.000257  0.655974  0.343513  1
  Pd  Pd13  1  0.998564  0.343042  0.001436  1
  Pd  Pd14  1  0.656958  0.001436  0.343042  1
  Pd  Pd15  1  0.999998  0.656638  0.000002  1
  Pd  Pd16  1  0.343362  0.000002  0.656638  1
  Pd  Pd17  1  0.998563  0.001437  0.343043  1
  Pd  Pd18  1  0.999998  0.000002  0.656638  1
  Pd  Pd19  1  0.656957  0.343043  0.001437  1
  Pd  Pd20  1  0.343363  0.656637  0.000002  1
  Pd  Pd21  1  0.388289  0.386301  0.386302  1
  Pd  Pd22  1  0.613516  0.613276  0.613276  1
  Pd  Pd23  1  0.386724  0.386484  0.840070  1
  Pd  Pd24  1  0.386724  0.840069  0.386484  1
  Pd  Pd25  1  0.613699  0.611711  0.160890  1
  Pd  Pd26  1  0.613699  0.160891  0.611710  1
  Pd  Pd27  1  0.839109  0.386301  0.386302  1
  Pd  Pd28  1  0.159931  0.613276  0.613276  1
