# generated using pymatgen
data_WF8
_symmetry_space_group_name_H-M   'P 1'
_cell_length_a   5.65582452
_cell_length_b   5.81032511
_cell_length_c   5.82241700
_cell_angle_alpha   92.10281366
_cell_angle_beta   101.23068952
_cell_angle_gamma   100.48883314
_symmetry_Int_Tables_number   1
_chemical_formula_structural   WF8
_chemical_formula_sum   'W1 F8'
_cell_volume   184.02038605
_cell_formula_units_Z   1
loop_
 _symmetry_equiv_pos_site_id
 _symmetry_equiv_pos_as_xyz
  1  'x, y, z'
loop_
 _atom_site_type_symbol
 _atom_site_label
 _atom_site_symmetry_multiplicity
 _atom_site_fract_x
 _atom_site_fract_y
 _atom_site_fract_z
 _atom_site_occupancy
  W  W0  1  0.000000  0.000000  0.000000  1
  F  F1  1  0.407269  0.549571  0.539594  1
  F  F2  1  0.592731  0.450429  0.460406  1
  F  F3  1  0.808902  0.722132  0.071116  1
  F  F4  1  0.719438  0.074469  0.809514  1
  F  F5  1  0.280562  0.925531  0.190486  1
  F  F6  1  0.063330  0.837997  0.739685  1
  F  F7  1  0.936670  0.162003  0.260315  1
  F  F8  1  0.191098  0.277868  0.928884  1
