# generated using pymatgen
data_Ho6Al24Ru4PtRh3
_symmetry_space_group_name_H-M   'P 1'
_cell_length_a   8.77605040
_cell_length_b   8.76138852
_cell_length_c   9.53472146
_cell_angle_alpha   90.02314963
_cell_angle_beta   89.96503520
_cell_angle_gamma   119.30965480
_symmetry_Int_Tables_number   1
_chemical_formula_structural   Ho6Al24Ru4PtRh3
_chemical_formula_sum   'Ho6 Al24 Ru4 Pt1 Rh3'
_cell_volume   639.27818256
_cell_formula_units_Z   1
loop_
 _symmetry_equiv_pos_site_id
 _symmetry_equiv_pos_as_xyz
  1  'x, y, z'
loop_
 _atom_site_type_symbol
 _atom_site_label
 _atom_site_symmetry_multiplicity
 _atom_site_fract_x
 _atom_site_fract_y
 _atom_site_fract_z
 _atom_site_occupancy
  Ho  Ho0  1  0.188429  0.387918  0.249708  1
  Ho  Ho1  1  0.811571  0.612082  0.750292  1
  Ho  Ho2  1  0.615498  0.809535  0.249447  1
  Ho  Ho3  1  0.384502  0.190465  0.750553  1
  Ho  Ho4  1  0.190720  0.805543  0.251110  1
  Ho  Ho5  1  0.809280  0.194457  0.748890  1
  Al  Al6  1  0.329498  0.669060  0.028579  1
  Al  Al7  1  0.670502  0.330940  0.971421  1
  Al  Al8  1  0.668455  0.332933  0.528347  1
  Al  Al9  1  0.331545  0.667067  0.471653  1
  Al  Al10  1  0.163101  0.326537  0.575778  1
  Al  Al11  1  0.836899  0.673463  0.424222  1
  Al  Al12  1  0.674601  0.835629  0.576181  1
  Al  Al13  1  0.840622  0.674561  0.077058  1
  Al  Al14  1  0.325399  0.164371  0.423819  1
  Al  Al15  1  0.159378  0.325439  0.922942  1
  Al  Al16  1  0.162994  0.834517  0.577569  1
  Al  Al17  1  0.324306  0.160554  0.077651  1
  Al  Al18  1  0.837006  0.165483  0.422431  1
  Al  Al19  1  0.675694  0.839446  0.922349  1
  Al  Al20  1  0.837313  0.165405  0.078250  1
  Al  Al21  1  0.162687  0.834595  0.921750  1
  Al  Al22  1  0.560056  0.123645  0.249878  1
  Al  Al23  1  0.439944  0.876355  0.750122  1
  Al  Al24  1  0.875195  0.439925  0.249871  1
  Al  Al25  1  0.124805  0.560075  0.750129  1
  Al  Al26  1  0.562158  0.437535  0.252700  1
  Al  Al27  1  0.437842  0.562465  0.747300  1
  Al  Al28  1  0.997200  0.001758  0.250153  1
  Al  Al29  1  0.002800  0.998242  0.749847  1
  Ru  Ru30  1  0.000000  0.500000  0.000000  1
  Ru  Ru31  1  0.000000  0.500000  0.500000  1
  Ru  Ru32  1  0.000000  0.000000  0.000000  1
  Ru  Ru33  1  0.000000  0.000000  0.500000  1
  Pt  Pt34  1  0.500000  0.500000  0.000000  1
  Rh  Rh35  1  0.500000  0.000000  0.000000  1
  Rh  Rh36  1  0.500000  0.000000  0.500000  1
  Rh  Rh37  1  0.500000  0.500000  0.500000  1
