# generated using pymatgen
data_Tm6Co3Tc(Ni7P6)2
_symmetry_space_group_name_H-M   'P 1'
_cell_length_a   3.75153100
_cell_length_b   10.49588405
_cell_length_c   12.29374205
_cell_angle_alpha   90.01074890
_cell_angle_beta   90.00000000
_cell_angle_gamma   90.00000000
_symmetry_Int_Tables_number   1
_chemical_formula_structural   Tm6Co3Tc(Ni7P6)2
_chemical_formula_sum   'Tm6 Co3 Tc1 Ni14 P12'
_cell_volume   484.07388366
_cell_formula_units_Z   1
loop_
 _symmetry_equiv_pos_site_id
 _symmetry_equiv_pos_as_xyz
  1  'x, y, z'
loop_
 _atom_site_type_symbol
 _atom_site_label
 _atom_site_symmetry_multiplicity
 _atom_site_fract_x
 _atom_site_fract_y
 _atom_site_fract_z
 _atom_site_occupancy
  Tm  Tm0  1  0.000000  0.499866  0.523787  1
  Tm  Tm1  1  0.500000  0.998350  0.479296  1
  Tm  Tm2  1  0.500000  0.817291  0.206648  1
  Tm  Tm3  1  0.500000  0.183707  0.206871  1
  Tm  Tm4  1  0.000000  0.683283  0.792932  1
  Tm  Tm5  1  0.000000  0.316077  0.792999  1
  Co  Co6  1  0.000000  0.498772  0.986012  1
  Co  Co7  1  0.500000  0.000440  0.015819  1
  Co  Co8  1  0.000000  0.380360  0.292069  1
  Tc  Tc9  1  0.500000  0.498586  0.155117  1
  Ni  Ni10  1  0.000000  0.002213  0.840724  1
  Ni  Ni11  1  0.500000  0.500254  0.702274  1
  Ni  Ni12  1  0.000000  0.000372  0.298264  1
  Ni  Ni13  1  0.500000  0.329311  0.989483  1
  Ni  Ni14  1  0.500000  0.669386  0.990135  1
  Ni  Ni15  1  0.000000  0.168178  0.007705  1
  Ni  Ni16  1  0.000000  0.833804  0.005697  1
  Ni  Ni17  1  0.500000  0.301050  0.429278  1
  Ni  Ni18  1  0.500000  0.696289  0.429200  1
  Ni  Ni19  1  0.000000  0.198533  0.568554  1
  Ni  Ni20  1  0.000000  0.801343  0.570598  1
  Ni  Ni21  1  0.500000  0.878674  0.711312  1
  Ni  Ni22  1  0.500000  0.121657  0.710757  1
  Ni  Ni23  1  0.000000  0.621315  0.289918  1
  P  P24  1  0.500000  0.499696  0.879547  1
  P  P25  1  0.000000  0.000544  0.121362  1
  P  P26  1  0.500000  0.497418  0.347874  1
  P  P27  1  0.000000  0.000320  0.654018  1
  P  P28  1  0.500000  0.314409  0.616010  1
  P  P29  1  0.500000  0.686001  0.615292  1
  P  P30  1  0.000000  0.186584  0.383044  1
  P  P31  1  0.000000  0.814694  0.384675  1
  P  P32  1  0.500000  0.850492  0.892118  1
  P  P33  1  0.500000  0.148931  0.891632  1
  P  P34  1  0.000000  0.653158  0.107610  1
  P  P35  1  0.000000  0.348640  0.111365  1
