# generated using pymatgen
data_Y3Tm17(SiSb2)4
_symmetry_space_group_name_H-M   'P 1'
_cell_length_a   7.87968840
_cell_length_b   8.95497100
_cell_length_c   11.79944100
_cell_angle_alpha   90.00000000
_cell_angle_beta   90.03411706
_cell_angle_gamma   90.00000000
_symmetry_Int_Tables_number   1
_chemical_formula_structural   Y3Tm17(SiSb2)4
_chemical_formula_sum   'Y3 Tm17 Si4 Sb8'
_cell_volume   832.59650481
_cell_formula_units_Z   1
loop_
 _symmetry_equiv_pos_site_id
 _symmetry_equiv_pos_as_xyz
  1  'x, y, z'
loop_
 _atom_site_type_symbol
 _atom_site_label
 _atom_site_symmetry_multiplicity
 _atom_site_fract_x
 _atom_site_fract_y
 _atom_site_fract_z
 _atom_site_occupancy
  Y  Y0  1  0.138386  0.250000  0.206101  1
  Y  Y1  1  0.361787  0.250000  0.706117  1
  Y  Y2  1  0.638613  0.750000  0.293872  1
  Tm  Tm3  1  0.335742  0.750000  0.714460  1
  Tm  Tm4  1  0.664050  0.250000  0.285710  1
  Tm  Tm5  1  0.835919  0.250000  0.785676  1
  Tm  Tm6  1  0.163689  0.750000  0.213911  1
  Tm  Tm7  1  0.039083  0.750000  0.501934  1
  Tm  Tm8  1  0.960505  0.250000  0.498825  1
  Tm  Tm9  1  0.539557  0.250000  0.998509  1
  Tm  Tm10  1  0.460607  0.750000  0.001355  1
  Tm  Tm11  1  0.861466  0.750000  0.793937  1
  Tm  Tm12  1  0.683878  0.551162  0.565993  1
  Tm  Tm13  1  0.316303  0.449310  0.434345  1
  Tm  Tm14  1  0.183742  0.449194  0.934279  1
  Tm  Tm15  1  0.316303  0.050690  0.434345  1
  Tm  Tm16  1  0.816277  0.550939  0.065229  1
  Tm  Tm17  1  0.683878  0.948838  0.565993  1
  Tm  Tm18  1  0.816277  0.949061  0.065229  1
  Tm  Tm19  1  0.183742  0.050806  0.934279  1
  Si  Si20  1  0.082874  0.750000  0.980263  1
  Si  Si21  1  0.915958  0.250000  0.018340  1
  Si  Si22  1  0.583989  0.250000  0.518424  1
  Si  Si23  1  0.416017  0.750000  0.481715  1
  Sb  Sb24  1  0.569824  0.511277  0.827414  1
  Sb  Sb25  1  0.431486  0.489615  0.172544  1
  Sb  Sb26  1  0.067791  0.490205  0.673197  1
  Sb  Sb27  1  0.431486  0.010385  0.172544  1
  Sb  Sb28  1  0.931579  0.510597  0.327425  1
  Sb  Sb29  1  0.569824  0.988723  0.827414  1
  Sb  Sb30  1  0.931579  0.989403  0.327425  1
  Sb  Sb31  1  0.067791  0.009795  0.673197  1
