# generated using pymatgen
data_TmLu7(Si3Pd)4
_symmetry_space_group_name_H-M   'P 1'
_cell_length_a   8.03336200
_cell_length_b   8.03336101
_cell_length_c   7.95222200
_cell_angle_alpha   90.00000000
_cell_angle_beta   90.00000000
_cell_angle_gamma   119.99999586
_symmetry_Int_Tables_number   1
_chemical_formula_structural   TmLu7(Si3Pd)4
_chemical_formula_sum   'Tm1 Lu7 Si12 Pd4'
_cell_volume   444.44064275
_cell_formula_units_Z   1
loop_
 _symmetry_equiv_pos_site_id
 _symmetry_equiv_pos_as_xyz
  1  'x, y, z'
loop_
 _atom_site_type_symbol
 _atom_site_label
 _atom_site_symmetry_multiplicity
 _atom_site_fract_x
 _atom_site_fract_y
 _atom_site_fract_z
 _atom_site_occupancy
  Tm  Tm0  1  0.000000  0.000000  0.750000  1
  Lu  Lu1  1  0.501298  0.002597  0.250000  1
  Lu  Lu2  1  0.498760  0.997521  0.750000  1
  Lu  Lu3  1  0.997403  0.498702  0.250000  1
  Lu  Lu4  1  0.002479  0.501240  0.750000  1
  Lu  Lu5  1  0.501298  0.498702  0.250000  1
  Lu  Lu6  1  0.498760  0.501240  0.750000  1
  Lu  Lu7  1  0.000000  0.000000  0.250000  1
  Si  Si8  1  0.165283  0.330567  0.000949  1
  Si  Si9  1  0.834698  0.669398  0.999196  1
  Si  Si10  1  0.669433  0.834717  0.000949  1
  Si  Si11  1  0.834698  0.669398  0.500804  1
  Si  Si12  1  0.330602  0.165302  0.999196  1
  Si  Si13  1  0.165283  0.330567  0.499051  1
  Si  Si14  1  0.165283  0.834717  0.000949  1
  Si  Si15  1  0.330602  0.165302  0.500804  1
  Si  Si16  1  0.834698  0.165302  0.999196  1
  Si  Si17  1  0.669433  0.834717  0.499051  1
  Si  Si18  1  0.834698  0.165302  0.500804  1
  Si  Si19  1  0.165283  0.834717  0.499051  1
  Pd  Pd20  1  0.333333  0.666667  0.004660  1
  Pd  Pd21  1  0.666667  0.333333  0.997516  1
  Pd  Pd22  1  0.666667  0.333333  0.502484  1
  Pd  Pd23  1  0.333333  0.666667  0.495340  1
