# generated using pymatgen
data_HoEr2CoI3
_symmetry_space_group_name_H-M   'P 1'
_cell_length_a   4.08607000
_cell_length_b   8.86323327
_cell_length_c   12.19155084
_cell_angle_alpha   93.74226874
_cell_angle_beta   90.00000000
_cell_angle_gamma   90.00000000
_symmetry_Int_Tables_number   1
_chemical_formula_structural   HoEr2CoI3
_chemical_formula_sum   'Ho2 Er4 Co2 I6'
_cell_volume   440.58521440
_cell_formula_units_Z   2
loop_
 _symmetry_equiv_pos_site_id
 _symmetry_equiv_pos_as_xyz
  1  'x, y, z'
loop_
 _atom_site_type_symbol
 _atom_site_label
 _atom_site_symmetry_multiplicity
 _atom_site_fract_x
 _atom_site_fract_y
 _atom_site_fract_z
 _atom_site_occupancy
  Ho  Ho0  1  0.750000  0.258886  0.601064  1
  Ho  Ho1  1  0.250000  0.741114  0.398936  1
  Er  Er2  1  0.750000  0.872783  0.622228  1
  Er  Er3  1  0.250000  0.127217  0.377772  1
  Er  Er4  1  0.750000  0.901458  0.190190  1
  Er  Er5  1  0.250000  0.098542  0.809810  1
  Co  Co6  1  0.750000  0.941357  0.407795  1
  Co  Co7  1  0.250000  0.058643  0.592205  1
  I  I8  1  0.750000  0.416200  0.366259  1
  I  I9  1  0.250000  0.583800  0.633741  1
  I  I10  1  0.750000  0.859925  0.889007  1
  I  I11  1  0.250000  0.140075  0.110993  1
  I  I12  1  0.750000  0.355269  0.863208  1
  I  I13  1  0.250000  0.644731  0.136792  1
