# generated using pymatgen
data_YLu15(In3Rh)2
_symmetry_space_group_name_H-M   'P 1'
_cell_length_a   10.22381200
_cell_length_b   10.22381257
_cell_length_c   6.91995400
_cell_angle_alpha   90.00000000
_cell_angle_beta   90.00000000
_cell_angle_gamma   120.00000462
_symmetry_Int_Tables_number   1
_chemical_formula_structural   YLu15(In3Rh)2
_chemical_formula_sum   'Y1 Lu15 In6 Rh2'
_cell_volume   626.41125624
_cell_formula_units_Z   1
loop_
 _symmetry_equiv_pos_site_id
 _symmetry_equiv_pos_as_xyz
  1  'x, y, z'
loop_
 _atom_site_type_symbol
 _atom_site_label
 _atom_site_symmetry_multiplicity
 _atom_site_fract_x
 _atom_site_fract_y
 _atom_site_fract_z
 _atom_site_occupancy
  Y  Y0  1  0.000000  0.000000  0.995244  1
  Lu  Lu1  1  0.467421  0.532579  0.479275  1
  Lu  Lu2  1  0.065158  0.532579  0.479275  1
  Lu  Lu3  1  0.467421  0.934842  0.479275  1
  Lu  Lu4  1  0.532734  0.467266  0.979492  1
  Lu  Lu5  1  0.934531  0.467266  0.979492  1
  Lu  Lu6  1  0.532734  0.065469  0.979492  1
  Lu  Lu7  1  0.822525  0.177475  0.277145  1
  Lu  Lu8  1  0.354949  0.177475  0.277145  1
  Lu  Lu9  1  0.822525  0.645051  0.277145  1
  Lu  Lu10  1  0.177598  0.822402  0.774878  1
  Lu  Lu11  1  0.644804  0.822402  0.774878  1
  Lu  Lu12  1  0.177598  0.355196  0.774878  1
  Lu  Lu13  1  0.333333  0.666667  0.100728  1
  Lu  Lu14  1  0.666667  0.333333  0.600083  1
  Lu  Lu15  1  0.000000  0.000000  0.495832  1
  In  In16  1  0.162645  0.837355  0.235659  1
  In  In17  1  0.674710  0.837355  0.235659  1
  In  In18  1  0.162645  0.325290  0.235659  1
  In  In19  1  0.837461  0.162539  0.733575  1
  In  In20  1  0.325078  0.162539  0.733575  1
  In  In21  1  0.837461  0.674922  0.733575  1
  Rh  Rh22  1  0.333333  0.666667  0.706677  1
  Rh  Rh23  1  0.666667  0.333333  0.205911  1
