# generated using pymatgen
data_CeTmLuCo2
_symmetry_space_group_name_H-M   'P 1'
_cell_length_a   3.68209418
_cell_length_b   6.03190020
_cell_length_c   5.88524229
_cell_angle_alpha   120.82782095
_cell_angle_beta   108.22952798
_cell_angle_gamma   89.99999068
_symmetry_Int_Tables_number   1
_chemical_formula_structural   CeTmLuCo2
_chemical_formula_sum   'Ce1 Tm1 Lu1 Co2'
_cell_volume   104.53035237
_cell_formula_units_Z   1
loop_
 _symmetry_equiv_pos_site_id
 _symmetry_equiv_pos_as_xyz
  1  'x, y, z'
loop_
 _atom_site_type_symbol
 _atom_site_label
 _atom_site_symmetry_multiplicity
 _atom_site_fract_x
 _atom_site_fract_y
 _atom_site_fract_z
 _atom_site_occupancy
  Ce  Ce0  1  0.000072  0.000072  0.000143  1
  Tm  Tm1  1  0.189239  0.689239  0.378478  1
  Lu  Lu2  1  0.811489  0.311489  0.622979  1
  Co  Co3  1  0.499600  0.294700  0.999200  1
  Co  Co4  1  0.499600  0.704500  0.999200  1
