# generated using pymatgen
data_K2Mg(Si2O5)2
_symmetry_space_group_name_H-M   'P 1'
_cell_length_a   7.19723918
_cell_length_b   8.14893594
_cell_length_c   10.04972900
_cell_angle_alpha   104.20520623
_cell_angle_beta   102.26308769
_cell_angle_gamma   112.57415816
_symmetry_Int_Tables_number   1
_chemical_formula_structural   K2Mg(Si2O5)2
_chemical_formula_sum   'K4 Mg2 Si8 O20'
_cell_volume   495.70001262
_cell_formula_units_Z   2
loop_
 _symmetry_equiv_pos_site_id
 _symmetry_equiv_pos_as_xyz
  1  'x, y, z'
loop_
 _atom_site_type_symbol
 _atom_site_label
 _atom_site_symmetry_multiplicity
 _atom_site_fract_x
 _atom_site_fract_y
 _atom_site_fract_z
 _atom_site_occupancy
  K  K0  1  0.671151  0.803176  0.995349  1
  K  K1  1  0.734901  0.235321  0.415486  1
  K  K2  1  0.265099  0.764679  0.584514  1
  K  K3  1  0.328849  0.196824  0.004651  1
  Mg  Mg4  1  0.737096  0.684396  0.586790  1
  Mg  Mg5  1  0.262904  0.315604  0.413210  1
  Si  Si6  1  0.064172  0.687851  0.866797  1
  Si  Si7  1  0.935828  0.312149  0.133203  1
  Si  Si8  1  0.223964  0.905520  0.210913  1
  Si  Si9  1  0.776036  0.094480  0.789087  1
  Si  Si10  1  0.394389  0.625812  0.261370  1
  Si  Si11  1  0.186836  0.375054  0.737471  1
  Si  Si12  1  0.813164  0.624946  0.262529  1
  Si  Si13  1  0.605611  0.374188  0.738630  1
  O  O14  1  0.989483  0.790638  0.225175  1
  O  O15  1  0.010517  0.209362  0.774825  1
  O  O16  1  0.833268  0.535813  0.869879  1
  O  O17  1  0.166732  0.464187  0.130121  1
  O  O18  1  0.582468  0.625933  0.190527  1
  O  O19  1  0.417532  0.374067  0.809473  1
  O  O20  1  0.217934  0.582935  0.841251  1
  O  O21  1  0.782066  0.417065  0.158749  1
  O  O22  1  0.867052  0.654680  0.430752  1
  O  O23  1  0.132948  0.345320  0.569248  1
  O  O24  1  0.426412  0.581702  0.409169  1
  O  O25  1  0.573588  0.418298  0.590831  1
  O  O26  1  0.028982  0.782775  0.749619  1
  O  O27  1  0.971018  0.217225  0.250381  1
  O  O28  1  0.807333  0.151328  0.965435  1
  O  O29  1  0.192667  0.848672  0.034565  1
  O  O30  1  0.606135  0.166411  0.714515  1
  O  O31  1  0.393865  0.833589  0.285485  1
  O  O32  1  0.326238  0.130559  0.284769  1
  O  O33  1  0.673762  0.869441  0.715231  1
