# generated using pymatgen
data_NdTh(Ga3Ir)3
_symmetry_space_group_name_H-M   'P 1'
_cell_length_a   7.68614657
_cell_length_b   7.69336426
_cell_length_c   9.54939200
_cell_angle_alpha   90.00000000
_cell_angle_beta   90.00000000
_cell_angle_gamma   119.74728057
_symmetry_Int_Tables_number   1
_chemical_formula_structural   NdTh(Ga3Ir)3
_chemical_formula_sum   'Nd2 Th2 Ga18 Ir6'
_cell_volume   490.26585567
_cell_formula_units_Z   2
loop_
 _symmetry_equiv_pos_site_id
 _symmetry_equiv_pos_as_xyz
  1  'x, y, z'
loop_
 _atom_site_type_symbol
 _atom_site_label
 _atom_site_symmetry_multiplicity
 _atom_site_fract_x
 _atom_site_fract_y
 _atom_site_fract_z
 _atom_site_occupancy
  Nd  Nd0  1  0.668627  0.995402  0.250000  1
  Nd  Nd1  1  0.331373  0.004598  0.750000  1
  Th  Th2  1  0.997163  0.668777  0.250000  1
  Th  Th3  1  0.002837  0.331223  0.750000  1
  Ga  Ga4  1  0.131484  0.129815  0.250000  1
  Ga  Ga5  1  0.868516  0.870185  0.750000  1
  Ga  Ga6  1  0.001038  0.330742  0.080941  1
  Ga  Ga7  1  0.998962  0.669258  0.919059  1
  Ga  Ga8  1  0.998962  0.669258  0.580941  1
  Ga  Ga9  1  0.338321  0.003421  0.423141  1
  Ga  Ga10  1  0.001038  0.330742  0.419059  1
  Ga  Ga11  1  0.661679  0.996579  0.576859  1
  Ga  Ga12  1  0.661679  0.996579  0.923141  1
  Ga  Ga13  1  0.338321  0.003421  0.076859  1
  Ga  Ga14  1  0.336084  0.333367  0.562076  1
  Ga  Ga15  1  0.663916  0.666633  0.437924  1
  Ga  Ga16  1  0.663916  0.666633  0.062076  1
  Ga  Ga17  1  0.336084  0.333367  0.937924  1
  Ga  Ga18  1  0.341049  0.544046  0.250000  1
  Ga  Ga19  1  0.658951  0.455954  0.750000  1
  Ga  Ga20  1  0.542887  0.336485  0.250000  1
  Ga  Ga21  1  0.457113  0.663515  0.750000  1
  Ir  Ir22  1  0.675701  0.332658  0.000089  1
  Ir  Ir23  1  0.324299  0.667342  0.999911  1
  Ir  Ir24  1  0.324299  0.667342  0.500089  1
  Ir  Ir25  1  0.675701  0.332658  0.499911  1
  Ir  Ir26  1  0.000000  0.000000  0.000000  1
  Ir  Ir27  1  0.000000  0.000000  0.500000  1
