# generated using pymatgen
data_LaPb6IO7
_symmetry_space_group_name_H-M   'P 1'
_cell_length_a   8.34051100
_cell_length_b   9.71134251
_cell_length_c   9.71134338
_cell_angle_alpha   63.55653513
_cell_angle_beta   90.00000000
_cell_angle_gamma   90.00000000
_symmetry_Int_Tables_number   1
_chemical_formula_structural   LaPb6IO7
_chemical_formula_sum   'La2 Pb12 I2 O14'
_cell_volume   704.29696593
_cell_formula_units_Z   2
loop_
 _symmetry_equiv_pos_site_id
 _symmetry_equiv_pos_as_xyz
  1  'x, y, z'
loop_
 _atom_site_type_symbol
 _atom_site_label
 _atom_site_symmetry_multiplicity
 _atom_site_fract_x
 _atom_site_fract_y
 _atom_site_fract_z
 _atom_site_occupancy
  La  La0  1  0.000000  0.000000  0.000000  1
  La  La1  1  0.500000  0.000000  0.000000  1
  Pb  Pb2  1  0.250000  0.640250  0.097398  1
  Pb  Pb3  1  0.749999  0.623375  0.171225  1
  Pb  Pb4  1  0.011092  0.230031  0.230031  1
  Pb  Pb5  1  0.488907  0.230031  0.230031  1
  Pb  Pb6  1  0.749999  0.902601  0.359749  1
  Pb  Pb7  1  0.250000  0.828775  0.376625  1
  Pb  Pb8  1  0.749999  0.171225  0.623375  1
  Pb  Pb9  1  0.250000  0.097398  0.640250  1
  Pb  Pb10  1  0.511091  0.769969  0.769969  1
  Pb  Pb11  1  0.988909  0.769969  0.769969  1
  Pb  Pb12  1  0.250000  0.376625  0.828775  1
  Pb  Pb13  1  0.749999  0.359749  0.902601  1
  I  I14  1  0.000000  0.500000  0.500000  1
  I  I15  1  0.500000  0.500000  0.500000  1
  O  O16  1  0.526391  0.725162  0.014666  1
  O  O17  1  0.973609  0.725162  0.014666  1
  O  O18  1  0.250000  0.847786  0.135523  1
  O  O19  1  0.749999  0.864477  0.152214  1
  O  O20  1  0.749999  0.194408  0.194408  1
  O  O21  1  0.026391  0.985335  0.274838  1
  O  O22  1  0.473610  0.985335  0.274838  1
  O  O23  1  0.526391  0.014666  0.725162  1
  O  O24  1  0.973609  0.014666  0.725162  1
  O  O25  1  0.250000  0.805593  0.805593  1
  O  O26  1  0.250000  0.135523  0.847786  1
  O  O27  1  0.749999  0.152214  0.864477  1
  O  O28  1  0.026391  0.274838  0.985335  1
  O  O29  1  0.473610  0.274838  0.985335  1
