# generated using pymatgen
data_Cs4Zr6CoCl18
_symmetry_space_group_name_H-M   'P 1'
_cell_length_a   10.72983661
_cell_length_b   10.72981343
_cell_length_c   10.28547500
_cell_angle_alpha   77.09212831
_cell_angle_beta   77.09250729
_cell_angle_gamma   117.73824104
_symmetry_Int_Tables_number   1
_chemical_formula_structural   Cs4Zr6CoCl18
_chemical_formula_sum   'Cs4 Zr6 Co1 Cl18'
_cell_volume   945.19617611
_cell_formula_units_Z   1
loop_
 _symmetry_equiv_pos_site_id
 _symmetry_equiv_pos_as_xyz
  1  'x, y, z'
loop_
 _atom_site_type_symbol
 _atom_site_label
 _atom_site_symmetry_multiplicity
 _atom_site_fract_x
 _atom_site_fract_y
 _atom_site_fract_z
 _atom_site_occupancy
  Cs  Cs0  1  0.767294  0.445391  0.690034  1
  Cs  Cs1  1  0.555706  0.233719  0.310040  1
  Cs  Cs2  1  0.232703  0.554612  0.309963  1
  Cs  Cs3  1  0.444290  0.766279  0.689958  1
  Zr  Zr4  1  0.125455  0.122388  0.149729  1
  Zr  Zr5  1  0.874549  0.877619  0.850278  1
  Zr  Zr6  1  0.947314  0.756866  0.156715  1
  Zr  Zr7  1  0.245187  0.054857  0.845867  1
  Zr  Zr8  1  0.052677  0.243122  0.843289  1
  Zr  Zr9  1  0.754820  0.945148  0.154124  1
  Co  Co10  1  0.000005  0.999999  0.000004  1
  Cl  Cl11  1  0.813014  0.613476  0.008288  1
  Cl  Cl12  1  0.393059  0.192128  0.990315  1
  Cl  Cl13  1  0.186983  0.386521  0.991716  1
  Cl  Cl14  1  0.606938  0.807873  0.009681  1
  Cl  Cl15  1  0.199905  0.797753  0.998919  1
  Cl  Cl16  1  0.800098  0.202250  0.001084  1
  Cl  Cl17  1  0.315454  0.315520  0.675596  1
  Cl  Cl18  1  0.684550  0.684474  0.324403  1
  Cl  Cl19  1  0.887731  0.497330  0.325482  1
  Cl  Cl20  1  0.503137  0.112602  0.675530  1
  Cl  Cl21  1  0.112263  0.502661  0.674521  1
  Cl  Cl22  1  0.496868  0.887400  0.324465  1
  Cl  Cl23  1  0.257804  0.256778  0.300999  1
  Cl  Cl24  1  0.742195  0.743226  0.699002  1
  Cl  Cl25  1  0.073453  0.871894  0.321295  1
  Cl  Cl26  1  0.125437  0.925845  0.685234  1
  Cl  Cl27  1  0.926540  0.128103  0.678706  1
  Cl  Cl28  1  0.874570  0.074162  0.314763  1
