# generated using pymatgen
data_Np4Ag3F24
_symmetry_space_group_name_H-M   'P 1'
_cell_length_a   11.53670005
_cell_length_b   11.53670024
_cell_length_c   11.53670000
_cell_angle_alpha   109.47122196
_cell_angle_beta   109.47122231
_cell_angle_gamma   109.47122109
_symmetry_Int_Tables_number   1
_chemical_formula_structural   Np4Ag3F24
_chemical_formula_sum   'Np8 Ag6 F48'
_cell_volume   1182.01476030
_cell_formula_units_Z   2
loop_
 _symmetry_equiv_pos_site_id
 _symmetry_equiv_pos_as_xyz
  1  'x, y, z'
loop_
 _atom_site_type_symbol
 _atom_site_label
 _atom_site_symmetry_multiplicity
 _atom_site_fract_x
 _atom_site_fract_y
 _atom_site_fract_z
 _atom_site_occupancy
  Np  Np0  1  0.500000  0.000000  0.378418  1
  Np  Np1  1  0.378418  0.500000  0.000000  1
  Np  Np2  1  0.121582  0.121582  0.121582  1
  Np  Np3  1  0.000000  0.378418  0.500000  1
  Np  Np4  1  0.878418  0.500000  0.000000  1
  Np  Np5  1  0.500000  0.000000  0.878418  1
  Np  Np6  1  0.621582  0.621582  0.621582  1
  Np  Np7  1  0.000000  0.878418  0.500000  1
  Ag  Ag8  1  0.125000  0.750000  0.875000  1
  Ag  Ag9  1  0.375000  0.250000  0.625000  1
  Ag  Ag10  1  0.750000  0.875000  0.125000  1
  Ag  Ag11  1  0.250000  0.625000  0.375000  1
  Ag  Ag12  1  0.875000  0.125000  0.750000  1
  Ag  Ag13  1  0.625000  0.375000  0.250000  1
  F  F14  1  0.673421  0.113369  0.582991  1
  F  F15  1  0.469622  0.386631  0.060052  1
  F  F16  1  0.030378  0.090430  0.917009  1
  F  F17  1  0.826579  0.409570  0.439948  1
  F  F18  1  0.082991  0.613369  0.173421  1
  F  F19  1  0.560052  0.886631  0.969622  1
  F  F20  1  0.417009  0.590430  0.530378  1
  F  F21  1  0.939948  0.909570  0.326579  1
  F  F22  1  0.113369  0.582991  0.673421  1
  F  F23  1  0.386631  0.060052  0.469622  1
  F  F24  1  0.090430  0.917009  0.030378  1
  F  F25  1  0.409570  0.439948  0.826579  1
  F  F26  1  0.613369  0.173421  0.082991  1
  F  F27  1  0.886631  0.969622  0.560052  1
  F  F28  1  0.590430  0.530378  0.417009  1
  F  F29  1  0.909570  0.326579  0.939948  1
  F  F30  1  0.582991  0.673421  0.113369  1
  F  F31  1  0.060052  0.469622  0.386631  1
  F  F32  1  0.917009  0.030378  0.090430  1
  F  F33  1  0.439948  0.826579  0.409570  1
  F  F34  1  0.173421  0.082991  0.613369  1
  F  F35  1  0.969622  0.560052  0.886631  1
  F  F36  1  0.530378  0.417009  0.590430  1
  F  F37  1  0.326579  0.939948  0.909570  1
  F  F38  1  0.327707  0.881655  0.177123  1
  F  F39  1  0.295467  0.618345  0.946052  1
  F  F40  1  0.204533  0.150585  0.322877  1
  F  F41  1  0.172293  0.349415  0.553948  1
  F  F42  1  0.677123  0.381655  0.827707  1
  F  F43  1  0.446052  0.118345  0.795467  1
  F  F44  1  0.822877  0.650585  0.704533  1
  F  F45  1  0.053948  0.849415  0.672293  1
  F  F46  1  0.881655  0.177123  0.327707  1
  F  F47  1  0.618345  0.946052  0.295467  1
  F  F48  1  0.150585  0.322877  0.204533  1
  F  F49  1  0.349415  0.553948  0.172293  1
  F  F50  1  0.381655  0.827707  0.677123  1
  F  F51  1  0.118345  0.795467  0.446052  1
  F  F52  1  0.650585  0.704533  0.822877  1
  F  F53  1  0.849415  0.672293  0.053948  1
  F  F54  1  0.177123  0.327707  0.881655  1
  F  F55  1  0.946052  0.295467  0.618345  1
  F  F56  1  0.322877  0.204533  0.150585  1
  F  F57  1  0.553948  0.172293  0.349415  1
  F  F58  1  0.827707  0.677123  0.381655  1
  F  F59  1  0.795467  0.446052  0.118345  1
  F  F60  1  0.704533  0.822877  0.650585  1
  F  F61  1  0.672293  0.053948  0.849415  1
