# generated using pymatgen
data_Hf6Ga6Ni2PdRh3
_symmetry_space_group_name_H-M   'P 1'
_cell_length_a   7.18679800
_cell_length_b   7.18679695
_cell_length_c   6.67145900
_cell_angle_alpha   90.00000000
_cell_angle_beta   90.00000000
_cell_angle_gamma   119.99999565
_symmetry_Int_Tables_number   1
_chemical_formula_structural   Hf6Ga6Ni2PdRh3
_chemical_formula_sum   'Hf6 Ga6 Ni2 Pd1 Rh3'
_cell_volume   298.41612384
_cell_formula_units_Z   1
loop_
 _symmetry_equiv_pos_site_id
 _symmetry_equiv_pos_as_xyz
  1  'x, y, z'
loop_
 _atom_site_type_symbol
 _atom_site_label
 _atom_site_symmetry_multiplicity
 _atom_site_fract_x
 _atom_site_fract_y
 _atom_site_fract_z
 _atom_site_occupancy
  Hf  Hf0  1  0.607672  0.608190  0.252825  1
  Hf  Hf1  1  0.010366  0.396842  0.747218  1
  Hf  Hf2  1  0.391810  0.999481  0.252825  1
  Hf  Hf3  1  0.000519  0.392328  0.252825  1
  Hf  Hf4  1  0.386475  0.989634  0.747218  1
  Hf  Hf5  1  0.603158  0.613525  0.747218  1
  Ga  Ga6  1  0.263532  0.260714  0.500230  1
  Ga  Ga7  1  0.739286  0.002817  0.500230  1
  Ga  Ga8  1  0.997183  0.736468  0.500230  1
  Ga  Ga9  1  0.740337  0.000891  0.000318  1
  Ga  Ga10  1  0.260553  0.259663  0.000318  1
  Ga  Ga11  1  0.999109  0.739447  0.000318  1
  Ni  Ni12  1  0.000000  0.000000  0.749077  1
  Ni  Ni13  1  0.000000  0.000000  0.251749  1
  Pd  Pd14  1  0.666667  0.333333  0.991418  1
  Rh  Rh15  1  0.333333  0.666667  0.493677  1
  Rh  Rh16  1  0.333333  0.666667  0.006212  1
  Rh  Rh17  1  0.666667  0.333333  0.506099  1
