# generated using pymatgen
data_Mg2Ni12P7
_symmetry_space_group_name_H-M   'P 1'
_cell_length_a   9.05452863
_cell_length_b   9.03435742
_cell_length_c   3.55208300
_cell_angle_alpha   90.00000000
_cell_angle_beta   90.00000000
_cell_angle_gamma   120.02740273
_symmetry_Int_Tables_number   1
_chemical_formula_structural   Mg2Ni12P7
_chemical_formula_sum   'Mg2 Ni12 P7'
_cell_volume   251.56884984
_cell_formula_units_Z   1
loop_
 _symmetry_equiv_pos_site_id
 _symmetry_equiv_pos_as_xyz
  1  'x, y, z'
loop_
 _atom_site_type_symbol
 _atom_site_label
 _atom_site_symmetry_multiplicity
 _atom_site_fract_x
 _atom_site_fract_y
 _atom_site_fract_z
 _atom_site_occupancy
  Mg  Mg0  1  0.999785  0.000341  0.000000  1
  Mg  Mg1  1  0.332850  0.666052  0.500000  1
  Ni  Ni2  1  0.391226  0.211698  0.000000  1
  Ni  Ni3  1  0.788549  0.179139  0.000000  1
  Ni  Ni4  1  0.820887  0.609772  0.000000  1
  Ni  Ni5  1  0.600282  0.705331  0.000000  1
  Ni  Ni6  1  0.294677  0.894901  0.000000  1
  Ni  Ni7  1  0.105131  0.399939  0.000000  1
  Ni  Ni8  1  0.229256  0.276626  0.500000  1
  Ni  Ni9  1  0.047421  0.771402  0.500000  1
  Ni  Ni10  1  0.722694  0.951955  0.500000  1
  Ni  Ni11  1  0.891206  0.432495  0.500000  1
  Ni  Ni12  1  0.541288  0.109069  0.500000  1
  Ni  Ni13  1  0.568539  0.458051  0.500000  1
  P  P14  1  0.256998  0.039274  0.500000  1
  P  P15  1  0.961276  0.218164  0.500000  1
  P  P16  1  0.781909  0.743331  0.500000  1
  P  P17  1  0.372300  0.450734  0.000000  1
  P  P18  1  0.548582  0.921217  0.000000  1
  P  P19  1  0.078074  0.627224  0.000000  1
  P  P20  1  0.667070  0.333284  0.000000  1
