# generated using pymatgen
data_Ho7Pu(Si3Pd)4
_symmetry_space_group_name_H-M   'P 1'
_cell_length_a   8.13802500
_cell_length_b   8.13802578
_cell_length_c   8.02892300
_cell_angle_alpha   90.00000000
_cell_angle_beta   90.00000000
_cell_angle_gamma   120.00000089
_symmetry_Int_Tables_number   1
_chemical_formula_structural   Ho7Pu(Si3Pd)4
_chemical_formula_sum   'Ho7 Pu1 Si12 Pd4'
_cell_volume   460.49614802
_cell_formula_units_Z   1
loop_
 _symmetry_equiv_pos_site_id
 _symmetry_equiv_pos_as_xyz
  1  'x, y, z'
loop_
 _atom_site_type_symbol
 _atom_site_label
 _atom_site_symmetry_multiplicity
 _atom_site_fract_x
 _atom_site_fract_y
 _atom_site_fract_z
 _atom_site_occupancy
  Ho  Ho0  1  0.499883  0.500117  0.750000  1
  Ho  Ho1  1  0.500121  0.499879  0.250000  1
  Ho  Ho2  1  0.000234  0.500117  0.750000  1
  Ho  Ho3  1  0.999758  0.499879  0.250000  1
  Ho  Ho4  1  0.499883  0.999766  0.750000  1
  Ho  Ho5  1  0.500121  0.000242  0.250000  1
  Ho  Ho6  1  0.000000  0.000000  0.750000  1
  Pu  Pu7  1  0.000000  0.000000  0.250000  1
  Si  Si8  1  0.835199  0.164801  0.002112  1
  Si  Si9  1  0.164803  0.835197  0.001951  1
  Si  Si10  1  0.329601  0.164801  0.002112  1
  Si  Si11  1  0.164803  0.835197  0.498049  1
  Si  Si12  1  0.670393  0.835197  0.001951  1
  Si  Si13  1  0.835199  0.164801  0.497888  1
  Si  Si14  1  0.835199  0.670399  0.002112  1
  Si  Si15  1  0.670393  0.835197  0.498049  1
  Si  Si16  1  0.164803  0.329607  0.001951  1
  Si  Si17  1  0.329601  0.164801  0.497888  1
  Si  Si18  1  0.164803  0.329607  0.498049  1
  Si  Si19  1  0.835199  0.670399  0.497888  1
  Pd  Pd20  1  0.666667  0.333333  0.998665  1
  Pd  Pd21  1  0.333333  0.666667  0.000313  1
  Pd  Pd22  1  0.333333  0.666667  0.499687  1
  Pd  Pd23  1  0.666667  0.333333  0.501335  1
