# generated using pymatgen
data_Tb2Sm3Tl3Se
_symmetry_space_group_name_H-M   'P 1'
_cell_length_a   9.27307400
_cell_length_b   9.27307480
_cell_length_c   6.81716400
_cell_angle_alpha   90.00000000
_cell_angle_beta   90.00000000
_cell_angle_gamma   120.00000429
_symmetry_Int_Tables_number   1
_chemical_formula_structural   Tb2Sm3Tl3Se
_chemical_formula_sum   'Tb4 Sm6 Tl6 Se2'
_cell_volume   507.67040106
_cell_formula_units_Z   2
loop_
 _symmetry_equiv_pos_site_id
 _symmetry_equiv_pos_as_xyz
  1  'x, y, z'
loop_
 _atom_site_type_symbol
 _atom_site_label
 _atom_site_symmetry_multiplicity
 _atom_site_fract_x
 _atom_site_fract_y
 _atom_site_fract_z
 _atom_site_occupancy
  Tb  Tb0  1  0.666667  0.333333  0.000000  1
  Tb  Tb1  1  0.333333  0.666667  0.000000  1
  Tb  Tb2  1  0.333333  0.666667  0.500000  1
  Tb  Tb3  1  0.666667  0.333333  0.500000  1
  Sm  Sm4  1  0.747667  0.747667  0.750000  1
  Sm  Sm5  1  0.252333  0.000000  0.750000  1
  Sm  Sm6  1  0.000000  0.252333  0.750000  1
  Sm  Sm7  1  0.252333  0.252333  0.250000  1
  Sm  Sm8  1  0.747667  0.000000  0.250000  1
  Sm  Sm9  1  0.000000  0.747667  0.250000  1
  Tl  Tl10  1  0.400775  0.400775  0.750000  1
  Tl  Tl11  1  0.599225  0.000000  0.750000  1
  Tl  Tl12  1  0.000000  0.599225  0.750000  1
  Tl  Tl13  1  0.599225  0.599225  0.250000  1
  Tl  Tl14  1  0.400775  0.000000  0.250000  1
  Tl  Tl15  1  0.000000  0.400775  0.250000  1
  Se  Se16  1  0.000000  0.000000  0.000000  1
  Se  Se17  1  0.000000  0.000000  0.500000  1
