# generated using pymatgen
data_Dy8MoOsI8
_symmetry_space_group_name_H-M   'P 1'
_cell_length_a   11.69627547
_cell_length_b   11.69627794
_cell_length_c   6.21203900
_cell_angle_alpha   90.03560624
_cell_angle_beta   90.03560735
_cell_angle_gamma   89.85861425
_symmetry_Int_Tables_number   1
_chemical_formula_structural   Dy8MoOsI8
_chemical_formula_sum   'Dy8 Mo1 Os1 I8'
_cell_volume   849.82196561
_cell_formula_units_Z   1
loop_
 _symmetry_equiv_pos_site_id
 _symmetry_equiv_pos_as_xyz
  1  'x, y, z'
loop_
 _atom_site_type_symbol
 _atom_site_label
 _atom_site_symmetry_multiplicity
 _atom_site_fract_x
 _atom_site_fract_y
 _atom_site_fract_z
 _atom_site_occupancy
  Dy  Dy0  1  0.807898  0.079327  0.001186  1
  Dy  Dy1  1  0.079317  0.807903  0.501364  1
  Dy  Dy2  1  0.078655  0.192217  0.001244  1
  Dy  Dy3  1  0.192204  0.078669  0.501420  1
  Dy  Dy4  1  0.921331  0.807796  0.998580  1
  Dy  Dy5  1  0.920673  0.192102  0.498814  1
  Dy  Dy6  1  0.192097  0.920683  0.998636  1
  Dy  Dy7  1  0.807783  0.921345  0.498756  1
  Mo  Mo8  1  0.000203  0.999797  0.250000  1
  Os  Os9  1  0.999822  0.000178  0.750000  1
  I  I10  1  0.653523  0.143443  0.486921  1
  I  I11  1  0.854847  0.655936  0.507602  1
  I  I12  1  0.344064  0.145153  0.992398  1
  I  I13  1  0.145158  0.344060  0.492445  1
  I  I14  1  0.655940  0.854842  0.007555  1
  I  I15  1  0.346481  0.856553  0.513123  1
  I  I16  1  0.143447  0.653519  0.986877  1
  I  I17  1  0.856557  0.346477  0.013079  1
