# generated using pymatgen
data_Er6Mn7Al12Si12Ru
_symmetry_space_group_name_H-M   'P 1'
_cell_length_a   8.49040740
_cell_length_b   8.49040792
_cell_length_c   9.12903182
_cell_angle_alpha   90.07856742
_cell_angle_beta   89.92143590
_cell_angle_gamma   120.10224930
_symmetry_Int_Tables_number   1
_chemical_formula_structural   Er6Mn7Al12Si12Ru
_chemical_formula_sum   'Er6 Mn7 Al12 Si12 Ru1'
_cell_volume   569.32926022
_cell_formula_units_Z   1
loop_
 _symmetry_equiv_pos_site_id
 _symmetry_equiv_pos_as_xyz
  1  'x, y, z'
loop_
 _atom_site_type_symbol
 _atom_site_label
 _atom_site_symmetry_multiplicity
 _atom_site_fract_x
 _atom_site_fract_y
 _atom_site_fract_z
 _atom_site_occupancy
  Er  Er0  1  0.193208  0.387771  0.249265  1
  Er  Er1  1  0.806792  0.612229  0.750735  1
  Er  Er2  1  0.612229  0.806792  0.249265  1
  Er  Er3  1  0.387771  0.193208  0.750735  1
  Er  Er4  1  0.193301  0.806699  0.247478  1
  Er  Er5  1  0.806699  0.193301  0.752522  1
  Mn  Mn6  1  0.500000  0.000000  0.000000  1
  Mn  Mn7  1  0.000000  0.500000  0.000000  1
  Mn  Mn8  1  0.500000  0.000000  0.500000  1
  Mn  Mn9  1  0.500000  0.500000  0.000000  1
  Mn  Mn10  1  0.000000  0.500000  0.500000  1
  Mn  Mn11  1  0.000000  0.000000  0.000000  1
  Mn  Mn12  1  0.000000  0.000000  0.500000  1
  Al  Al13  1  0.160900  0.330227  0.578628  1
  Al  Al14  1  0.839100  0.669773  0.421372  1
  Al  Al15  1  0.669773  0.839100  0.578628  1
  Al  Al16  1  0.834806  0.668898  0.076708  1
  Al  Al17  1  0.330227  0.160900  0.421372  1
  Al  Al18  1  0.165194  0.331102  0.923292  1
  Al  Al19  1  0.165507  0.834493  0.577999  1
  Al  Al20  1  0.331102  0.165194  0.076708  1
  Al  Al21  1  0.834493  0.165507  0.422001  1
  Al  Al22  1  0.668898  0.834806  0.923292  1
  Al  Al23  1  0.833800  0.166200  0.077912  1
  Al  Al24  1  0.166200  0.833800  0.922088  1
  Si  Si25  1  0.333435  0.666565  0.034686  1
  Si  Si26  1  0.666565  0.333435  0.965314  1
  Si  Si27  1  0.670866  0.329134  0.537067  1
  Si  Si28  1  0.329134  0.670866  0.462933  1
  Si  Si29  1  0.557460  0.116319  0.249738  1
  Si  Si30  1  0.442540  0.883681  0.750262  1
  Si  Si31  1  0.883681  0.442540  0.249738  1
  Si  Si32  1  0.116319  0.557460  0.750262  1
  Si  Si33  1  0.560675  0.439325  0.243658  1
  Si  Si34  1  0.439325  0.560675  0.756342  1
  Si  Si35  1  0.999705  0.000295  0.250018  1
  Si  Si36  1  0.000295  0.999705  0.749982  1
  Ru  Ru37  1  0.500000  0.500000  0.500000  1
