# generated using pymatgen
data_Na2Li3Ni9P7
_symmetry_space_group_name_H-M   'P 1'
_cell_length_a   3.69159400
_cell_length_b   9.08931588
_cell_length_c   9.08931500
_cell_angle_alpha   119.99999315
_cell_angle_beta   90.00000000
_cell_angle_gamma   90.00000000
_symmetry_Int_Tables_number   1
_chemical_formula_structural   Na2Li3Ni9P7
_chemical_formula_sum   'Na2 Li3 Ni9 P7'
_cell_volume   264.12343971
_cell_formula_units_Z   1
loop_
 _symmetry_equiv_pos_site_id
 _symmetry_equiv_pos_as_xyz
  1  'x, y, z'
loop_
 _atom_site_type_symbol
 _atom_site_label
 _atom_site_symmetry_multiplicity
 _atom_site_fract_x
 _atom_site_fract_y
 _atom_site_fract_z
 _atom_site_occupancy
  Na  Na0  1  0.000000  0.666667  0.333333  1
  Na  Na1  1  0.500000  0.333333  0.666667  1
  Li  Li2  1  0.500000  0.788120  0.894513  1
  Li  Li3  1  0.500000  0.106394  0.211880  1
  Li  Li4  1  0.500000  0.105487  0.893606  1
  Ni  Ni5  1  0.000000  0.572372  0.945921  1
  Ni  Ni6  1  0.000000  0.373547  0.427628  1
  Ni  Ni7  1  0.000000  0.054079  0.626453  1
  Ni  Ni8  1  0.000000  0.880388  0.165039  1
  Ni  Ni9  1  0.000000  0.284653  0.119612  1
  Ni  Ni10  1  0.000000  0.834961  0.715347  1
  Ni  Ni11  1  0.500000  0.952529  0.389716  1
  Ni  Ni12  1  0.500000  0.437187  0.047471  1
  Ni  Ni13  1  0.500000  0.610284  0.562813  1
  P  P14  1  0.500000  0.712417  0.117766  1
  P  P15  1  0.500000  0.405350  0.287583  1
  P  P16  1  0.500000  0.882234  0.594650  1
  P  P17  1  0.000000  0.000000  0.000000  1
  P  P18  1  0.000000  0.582613  0.697734  1
  P  P19  1  0.000000  0.115120  0.417387  1
  P  P20  1  0.000000  0.302266  0.884880  1
