# generated using pymatgen
data_Pr5Sm7Fe2I17
_symmetry_space_group_name_H-M   'P 1'
_cell_length_a   9.96431305
_cell_length_b   12.11425037
_cell_length_c   11.99444688
_cell_angle_alpha   74.14960046
_cell_angle_beta   75.40116044
_cell_angle_gamma   65.37331732
_symmetry_Int_Tables_number   1
_chemical_formula_structural   Pr5Sm7Fe2I17
_chemical_formula_sum   'Pr5 Sm7 Fe2 I17'
_cell_volume   1250.19599540
_cell_formula_units_Z   1
loop_
 _symmetry_equiv_pos_site_id
 _symmetry_equiv_pos_as_xyz
  1  'x, y, z'
loop_
 _atom_site_type_symbol
 _atom_site_label
 _atom_site_symmetry_multiplicity
 _atom_site_fract_x
 _atom_site_fract_y
 _atom_site_fract_z
 _atom_site_occupancy
  Pr  Pr0  1  0.449510  0.329177  0.986038  1
  Pr  Pr1  1  0.586593  0.757667  0.280127  1
  Pr  Pr2  1  0.818910  0.191071  0.587356  1
  Pr  Pr3  1  0.176327  0.808672  0.419632  1
  Pr  Pr4  1  0.147128  0.715069  0.149138  1
  Sm  Sm5  1  0.453936  0.493154  0.319109  1
  Sm  Sm6  1  0.551722  0.673320  0.011144  1
  Sm  Sm7  1  0.274229  0.981808  0.108031  1
  Sm  Sm8  1  0.857857  0.286422  0.849370  1
  Sm  Sm9  1  0.410287  0.241007  0.718353  1
  Sm  Sm10  1  0.722438  0.023579  0.891065  1
  Sm  Sm11  1  0.549905  0.500504  0.679953  1
  Fe  Fe12  1  0.366027  0.738315  0.212934  1
  Fe  Fe13  1  0.634051  0.261665  0.786682  1
  I  I14  1  0.056900  0.101648  0.322359  1
  I  I15  1  0.466577  0.948732  0.845386  1
  I  I16  1  0.431151  0.805099  0.541797  1
  I  I17  1  0.564682  0.192157  0.461675  1
  I  I18  1  0.835747  0.715463  0.040409  1
  I  I19  1  0.227184  0.421892  0.240233  1
  I  I20  1  0.689260  0.375295  0.101078  1
  I  I21  1  0.530377  0.050779  0.155894  1
  I  I22  1  0.740665  0.471331  0.417891  1
  I  I23  1  0.887034  0.784571  0.367675  1
  I  I24  1  0.943067  0.896338  0.680916  1
  I  I25  1  0.161462  0.284268  0.953219  1
  I  I26  1  0.319730  0.633368  0.893748  1
  I  I27  1  0.997503  0.002991  0.001708  1
  I  I28  1  0.113275  0.214998  0.636359  1
  I  I29  1  0.775683  0.576116  0.761290  1
  I  I30  1  0.260786  0.523524  0.579428  1
