# generated using pymatgen
data_TbScPa2(Al3Ir)6
_symmetry_space_group_name_H-M   'P 1'
_cell_length_a   7.58063131
_cell_length_b   7.59178739
_cell_length_c   9.33740800
_cell_angle_alpha   90.00000000
_cell_angle_beta   90.00000000
_cell_angle_gamma   119.73031687
_symmetry_Int_Tables_number   1
_chemical_formula_structural   TbScPa2(Al3Ir)6
_chemical_formula_sum   'Tb1 Sc1 Pa2 Al18 Ir6'
_cell_volume   466.63807788
_cell_formula_units_Z   1
loop_
 _symmetry_equiv_pos_site_id
 _symmetry_equiv_pos_as_xyz
  1  'x, y, z'
loop_
 _atom_site_type_symbol
 _atom_site_label
 _atom_site_symmetry_multiplicity
 _atom_site_fract_x
 _atom_site_fract_y
 _atom_site_fract_z
 _atom_site_occupancy
  Tb  Tb0  1  0.330934  0.006677  0.750000  1
  Sc  Sc1  1  0.670185  0.993169  0.250000  1
  Pa  Pa2  1  0.998013  0.671343  0.250000  1
  Pa  Pa3  1  0.002051  0.328867  0.750000  1
  Al  Al4  1  0.127982  0.126034  0.250000  1
  Al  Al5  1  0.868013  0.872563  0.750000  1
  Al  Al6  1  0.996882  0.328045  0.080339  1
  Al  Al7  1  0.999008  0.668258  0.922553  1
  Al  Al8  1  0.999008  0.668258  0.577447  1
  Al  Al9  1  0.341638  0.003153  0.422597  1
  Al  Al10  1  0.996882  0.328045  0.419661  1
  Al  Al11  1  0.662310  0.996916  0.570692  1
  Al  Al12  1  0.662310  0.996916  0.929308  1
  Al  Al13  1  0.341638  0.003153  0.077403  1
  Al  Al14  1  0.335170  0.333523  0.552321  1
  Al  Al15  1  0.664904  0.669381  0.443887  1
  Al  Al16  1  0.664904  0.669381  0.056113  1
  Al  Al17  1  0.335170  0.333523  0.947679  1
  Al  Al18  1  0.343541  0.551905  0.250000  1
  Al  Al19  1  0.658967  0.452812  0.750000  1
  Al  Al20  1  0.549751  0.339648  0.250000  1
  Al  Al21  1  0.452034  0.659623  0.750000  1
  Ir  Ir22  1  0.676226  0.330062  0.000127  1
  Ir  Ir23  1  0.323429  0.669803  0.000844  1
  Ir  Ir24  1  0.323429  0.669803  0.499156  1
  Ir  Ir25  1  0.676226  0.330062  0.499873  1
  Ir  Ir26  1  0.999697  0.999539  0.000721  1
  Ir  Ir27  1  0.999697  0.999539  0.499279  1
