# generated using pymatgen
data_Pr3Mg3Ag2Ru
_symmetry_space_group_name_H-M   'P 1'
_cell_length_a   7.72198200
_cell_length_b   7.72198286
_cell_length_c   4.28028300
_cell_angle_alpha   90.00000000
_cell_angle_beta   90.00000000
_cell_angle_gamma   120.00000487
_symmetry_Int_Tables_number   1
_chemical_formula_structural   Pr3Mg3Ag2Ru
_chemical_formula_sum   'Pr3 Mg3 Ag2 Ru1'
_cell_volume   221.03482963
_cell_formula_units_Z   1
loop_
 _symmetry_equiv_pos_site_id
 _symmetry_equiv_pos_as_xyz
  1  'x, y, z'
loop_
 _atom_site_type_symbol
 _atom_site_label
 _atom_site_symmetry_multiplicity
 _atom_site_fract_x
 _atom_site_fract_y
 _atom_site_fract_z
 _atom_site_occupancy
  Pr  Pr0  1  0.431397  0.404540  0.500000  1
  Pr  Pr1  1  0.595460  0.026858  0.500000  1
  Pr  Pr2  1  0.973142  0.568603  0.500000  1
  Mg  Mg3  1  0.757044  0.751614  0.000000  1
  Mg  Mg4  1  0.248386  0.005430  0.000000  1
  Mg  Mg5  1  0.994570  0.242956  0.000000  1
  Ag  Ag6  1  0.333333  0.666667  0.000000  1
  Ag  Ag7  1  0.000000  0.000000  0.500000  1
  Ru  Ru8  1  0.666667  0.333333  0.000000  1
