# generated using pymatgen
data_Dy8Ho12Sn9Pb7
_symmetry_space_group_name_H-M   'P 1'
_cell_length_a   8.07863932
_cell_length_b   8.19718370
_cell_length_c   15.50277425
_cell_angle_alpha   90.02973978
_cell_angle_beta   89.94599362
_cell_angle_gamma   89.96289560
_symmetry_Int_Tables_number   1
_chemical_formula_structural   Dy8Ho12Sn9Pb7
_chemical_formula_sum   'Dy8 Ho12 Sn9 Pb7'
_cell_volume   1026.62531076
_cell_formula_units_Z   1
loop_
 _symmetry_equiv_pos_site_id
 _symmetry_equiv_pos_as_xyz
  1  'x, y, z'
loop_
 _atom_site_type_symbol
 _atom_site_label
 _atom_site_symmetry_multiplicity
 _atom_site_fract_x
 _atom_site_fract_y
 _atom_site_fract_z
 _atom_site_occupancy
  Dy  Dy0  1  0.526854  0.324026  0.900416  1
  Dy  Dy1  1  0.025374  0.177689  0.601178  1
  Dy  Dy2  1  0.475227  0.677612  0.398853  1
  Dy  Dy3  1  0.974731  0.819184  0.100132  1
  Dy  Dy4  1  0.478365  0.675221  0.100133  1
  Dy  Dy5  1  0.974812  0.821902  0.398868  1
  Dy  Dy6  1  0.524597  0.322125  0.600907  1
  Dy  Dy7  1  0.023090  0.179533  0.900105  1
  Ho  Ho8  1  0.368408  0.838883  0.875753  1
  Ho  Ho9  1  0.868933  0.661163  0.624077  1
  Ho  Ho10  1  0.630498  0.161106  0.375491  1
  Ho  Ho11  1  0.128698  0.338598  0.123666  1
  Ho  Ho12  1  0.632231  0.163826  0.123558  1
  Ho  Ho13  1  0.130202  0.338875  0.375657  1
  Ho  Ho14  1  0.369324  0.839330  0.624491  1
  Ho  Ho15  1  0.868503  0.660093  0.877131  1
  Ho  Ho16  1  0.199805  0.503429  0.750206  1
  Ho  Ho17  1  0.699808  0.996593  0.750035  1
  Ho  Ho18  1  0.799553  0.496395  0.248468  1
  Ho  Ho19  1  0.300403  0.003159  0.249833  1
  Sn  Sn20  1  0.791137  0.462091  0.041705  1
  Sn  Sn21  1  0.565604  0.620186  0.750253  1
  Sn  Sn22  1  0.065020  0.879195  0.750292  1
  Sn  Sn23  1  0.433524  0.379194  0.249727  1
  Sn  Sn24  1  0.934719  0.119449  0.249673  1
  Sn  Sn25  1  0.333049  0.149773  0.750928  1
  Sn  Sn26  1  0.832632  0.350722  0.750172  1
  Sn  Sn27  1  0.667417  0.851227  0.249525  1
  Sn  Sn28  1  0.167442  0.649129  0.249604  1
  Pb  Pb29  1  0.290802  0.038175  0.041515  1
  Pb  Pb30  1  0.790032  0.461238  0.458752  1
  Pb  Pb31  1  0.710498  0.962856  0.541070  1
  Pb  Pb32  1  0.210975  0.538574  0.959434  1
  Pb  Pb33  1  0.708071  0.962517  0.958705  1
  Pb  Pb34  1  0.210159  0.538656  0.540963  1
  Pb  Pb35  1  0.289504  0.038275  0.458724  1
