# generated using pymatgen
data_Er10Tl3Os
_symmetry_space_group_name_H-M   'P 1'
_cell_length_a   9.68847000
_cell_length_b   9.68846988
_cell_length_c   9.70512600
_cell_angle_alpha   90.00000000
_cell_angle_beta   90.00000000
_cell_angle_gamma   120.00000043
_symmetry_Int_Tables_number   1
_chemical_formula_structural   Er10Tl3Os
_chemical_formula_sum   'Er20 Tl6 Os2'
_cell_volume   788.93677422
_cell_formula_units_Z   2
loop_
 _symmetry_equiv_pos_site_id
 _symmetry_equiv_pos_as_xyz
  1  'x, y, z'
loop_
 _atom_site_type_symbol
 _atom_site_label
 _atom_site_symmetry_multiplicity
 _atom_site_fract_x
 _atom_site_fract_y
 _atom_site_fract_z
 _atom_site_occupancy
  Er  Er0  1  0.000000  0.000000  0.500000  1
  Er  Er1  1  0.000000  0.000000  0.000000  1
  Er  Er2  1  0.210716  0.789284  0.439474  1
  Er  Er3  1  0.210716  0.421430  0.439474  1
  Er  Er4  1  0.578570  0.789284  0.439474  1
  Er  Er5  1  0.789284  0.210716  0.560526  1
  Er  Er6  1  0.789284  0.578570  0.560526  1
  Er  Er7  1  0.421430  0.210716  0.560526  1
  Er  Er8  1  0.789284  0.210716  0.939474  1
  Er  Er9  1  0.789284  0.578570  0.939474  1
  Er  Er10  1  0.421430  0.210716  0.939474  1
  Er  Er11  1  0.210716  0.789284  0.060526  1
  Er  Er12  1  0.210716  0.421430  0.060526  1
  Er  Er13  1  0.578570  0.789284  0.060526  1
  Er  Er14  1  0.536842  0.463158  0.250000  1
  Er  Er15  1  0.536842  0.073685  0.250000  1
  Er  Er16  1  0.926315  0.463158  0.250000  1
  Er  Er17  1  0.463158  0.536842  0.750000  1
  Er  Er18  1  0.463158  0.926315  0.750000  1
  Er  Er19  1  0.073685  0.536842  0.750000  1
  Tl  Tl20  1  0.882384  0.117616  0.250000  1
  Tl  Tl21  1  0.882384  0.764770  0.250000  1
  Tl  Tl22  1  0.235230  0.117616  0.250000  1
  Tl  Tl23  1  0.117616  0.882384  0.750000  1
  Tl  Tl24  1  0.117616  0.235230  0.750000  1
  Tl  Tl25  1  0.764770  0.882384  0.750000  1
  Os  Os26  1  0.333333  0.666667  0.250000  1
  Os  Os27  1  0.666667  0.333333  0.750000  1
