# generated using pymatgen
data_CeDy2HgC
_symmetry_space_group_name_H-M   'P 1'
_cell_length_a   4.93492500
_cell_length_b   4.88048900
_cell_length_c   4.93481500
_cell_angle_alpha   90.00000000
_cell_angle_beta   90.00000000
_cell_angle_gamma   90.00000000
_symmetry_Int_Tables_number   1
_chemical_formula_structural   CeDy2HgC
_chemical_formula_sum   'Ce1 Dy2 Hg1 C1'
_cell_volume   118.85426513
_cell_formula_units_Z   1
loop_
 _symmetry_equiv_pos_site_id
 _symmetry_equiv_pos_as_xyz
  1  'x, y, z'
loop_
 _atom_site_type_symbol
 _atom_site_label
 _atom_site_symmetry_multiplicity
 _atom_site_fract_x
 _atom_site_fract_y
 _atom_site_fract_z
 _atom_site_occupancy
  Ce  Ce0  1  0.500000  0.000000  0.500000  1
  Dy  Dy1  1  0.500000  0.500000  0.000000  1
  Dy  Dy2  1  0.000000  0.500000  0.500000  1
  Hg  Hg3  1  0.000000  0.000000  0.000000  1
  C  C4  1  0.500000  0.500000  0.500000  1
