# generated using pymatgen
data_MgNb3Os4
_symmetry_space_group_name_H-M   'P 1'
_cell_length_a   4.49087683
_cell_length_b   4.49087690
_cell_length_c   7.77344214
_cell_angle_alpha   73.20457167
_cell_angle_beta   106.79541445
_cell_angle_gamma   120.00179909
_symmetry_Int_Tables_number   1
_chemical_formula_structural   MgNb3Os4
_chemical_formula_sum   'Mg1 Nb3 Os4'
_cell_volume   127.98820213
_cell_formula_units_Z   1
loop_
 _symmetry_equiv_pos_site_id
 _symmetry_equiv_pos_as_xyz
  1  'x, y, z'
loop_
 _atom_site_type_symbol
 _atom_site_label
 _atom_site_symmetry_multiplicity
 _atom_site_fract_x
 _atom_site_fract_y
 _atom_site_fract_z
 _atom_site_occupancy
  Mg  Mg0  1  0.375000  0.625000  0.125000  1
  Nb  Nb1  1  0.121942  0.878058  0.366167  1
  Nb  Nb2  1  0.628058  0.371942  0.883833  1
  Nb  Nb3  1  0.875000  0.125000  0.625000  1
  Os  Os4  1  0.751509  0.248491  0.254355  1
  Os  Os5  1  0.248193  0.751807  0.744869  1
  Os  Os6  1  0.998491  0.001509  0.995645  1
  Os  Os7  1  0.501807  0.498193  0.505131  1
