# generated using pymatgen
data_Eu2ErTm(AsPt)4
_symmetry_space_group_name_H-M   'P 1'
_cell_length_a   4.28110300
_cell_length_b   4.28110156
_cell_length_c   16.23468000
_cell_angle_alpha   90.00000000
_cell_angle_beta   90.00000000
_cell_angle_gamma   120.00001887
_symmetry_Int_Tables_number   1
_chemical_formula_structural   Eu2ErTm(AsPt)4
_chemical_formula_sum   'Eu2 Er1 Tm1 As4 Pt4'
_cell_volume   257.68283446
_cell_formula_units_Z   1
loop_
 _symmetry_equiv_pos_site_id
 _symmetry_equiv_pos_as_xyz
  1  'x, y, z'
loop_
 _atom_site_type_symbol
 _atom_site_label
 _atom_site_symmetry_multiplicity
 _atom_site_fract_x
 _atom_site_fract_y
 _atom_site_fract_z
 _atom_site_occupancy
  Eu  Eu0  1  0.000000  0.000000  0.500023  1
  Eu  Eu1  1  0.000000  0.000000  0.999977  1
  Er  Er2  1  0.000000  0.000000  0.250000  1
  Tm  Tm3  1  0.000000  0.000000  0.750000  1
  As  As4  1  0.333333  0.666667  0.877459  1
  As  As5  1  0.666667  0.333333  0.122408  1
  As  As6  1  0.666667  0.333333  0.377592  1
  As  As7  1  0.333333  0.666667  0.622541  1
  Pt  Pt8  1  0.333333  0.666667  0.355289  1
  Pt  Pt9  1  0.666667  0.333333  0.645300  1
  Pt  Pt10  1  0.666667  0.333333  0.854700  1
  Pt  Pt11  1  0.333333  0.666667  0.144711  1
