# generated using pymatgen
data_N5ClF6
_symmetry_space_group_name_H-M   'P 1'
_cell_length_a   6.08518858
_cell_length_b   6.44848955
_cell_length_c   7.73319798
_cell_angle_alpha   76.91289351
_cell_angle_beta   65.16382736
_cell_angle_gamma   79.22344843
_symmetry_Int_Tables_number   1
_chemical_formula_structural   N5ClF6
_chemical_formula_sum   'N5 Cl1 F6'
_cell_volume   266.78184883
_cell_formula_units_Z   1
loop_
 _symmetry_equiv_pos_site_id
 _symmetry_equiv_pos_as_xyz
  1  'x, y, z'
loop_
 _atom_site_type_symbol
 _atom_site_label
 _atom_site_symmetry_multiplicity
 _atom_site_fract_x
 _atom_site_fract_y
 _atom_site_fract_z
 _atom_site_occupancy
  N  N0  1  0.033687  0.274405  0.469753  1
  N  N1  1  0.901094  0.389213  0.997121  1
  N  N2  1  0.754283  0.365315  0.144669  1
  N  N3  1  0.152501  0.368353  0.492536  1
  N  N4  1  0.432971  0.140992  0.897637  1
  Cl  Cl5  1  0.704709  0.843968  0.247684  1
  F  F6  1  0.021042  0.840439  0.131400  1
  F  F7  1  0.398993  0.087227  0.746516  1
  F  F8  1  0.732458  0.774823  0.455338  1
  F  F9  1  0.391665  0.843733  0.368568  1
  F  F10  1  0.657199  0.012422  0.886514  1
  F  F11  1  0.512606  0.345833  0.818697  1
