# generated using pymatgen
data_Lu2Mn5(NiP)7
_symmetry_space_group_name_H-M   'P 1'
_cell_length_a   9.13122059
_cell_length_b   9.13210590
_cell_length_c   3.62345300
_cell_angle_alpha   90.00000000
_cell_angle_beta   90.00000000
_cell_angle_gamma   120.21138685
_symmetry_Int_Tables_number   1
_chemical_formula_structural   Lu2Mn5(NiP)7
_chemical_formula_sum   'Lu2 Mn5 Ni7 P7'
_cell_volume   261.11030482
_cell_formula_units_Z   1
loop_
 _symmetry_equiv_pos_site_id
 _symmetry_equiv_pos_as_xyz
  1  'x, y, z'
loop_
 _atom_site_type_symbol
 _atom_site_label
 _atom_site_symmetry_multiplicity
 _atom_site_fract_x
 _atom_site_fract_y
 _atom_site_fract_z
 _atom_site_occupancy
  Lu  Lu0  1  0.668967  0.334319  0.000000  1
  Lu  Lu1  1  0.998612  0.998206  0.500000  1
  Mn  Mn2  1  0.454602  0.509529  0.000000  1
  Mn  Mn3  1  0.380674  0.282646  0.500000  1
  Mn  Mn4  1  0.555688  0.765851  0.500000  1
  Mn  Mn5  1  0.235652  0.790100  0.500000  1
  Mn  Mn6  1  0.212288  0.451652  0.500000  1
  Ni  Ni7  1  0.770374  0.729774  0.000000  1
  Ni  Ni8  1  0.270855  0.037325  0.000000  1
  Ni  Ni9  1  0.962041  0.231263  0.000000  1
  Ni  Ni10  1  0.490565  0.945996  0.000000  1
  Ni  Ni11  1  0.054376  0.544360  0.000000  1
  Ni  Ni12  1  0.718954  0.104270  0.500000  1
  Ni  Ni13  1  0.894777  0.612626  0.500000  1
  P  P14  1  0.450430  0.078692  0.500000  1
  P  P15  1  0.925775  0.374912  0.500000  1
  P  P16  1  0.620025  0.545242  0.500000  1
  P  P17  1  0.743405  0.960517  0.000000  1
  P  P18  1  0.038620  0.781589  0.000000  1
  P  P19  1  0.218366  0.254175  0.000000  1
  P  P20  1  0.334953  0.666957  0.000000  1
