# generated using pymatgen
data_Y16In6CuIr
_symmetry_space_group_name_H-M   'P 1'
_cell_length_a   10.54865000
_cell_length_b   10.54865147
_cell_length_c   6.99769400
_cell_angle_alpha   90.00000000
_cell_angle_beta   90.00000000
_cell_angle_gamma   120.00000165
_symmetry_Int_Tables_number   1
_chemical_formula_structural   Y16In6CuIr
_chemical_formula_sum   'Y16 In6 Cu1 Ir1'
_cell_volume   674.34074016
_cell_formula_units_Z   1
loop_
 _symmetry_equiv_pos_site_id
 _symmetry_equiv_pos_as_xyz
  1  'x, y, z'
loop_
 _atom_site_type_symbol
 _atom_site_label
 _atom_site_symmetry_multiplicity
 _atom_site_fract_x
 _atom_site_fract_y
 _atom_site_fract_z
 _atom_site_occupancy
  Y  Y0  1  0.470931  0.529069  0.477088  1
  Y  Y1  1  0.058137  0.529069  0.477088  1
  Y  Y2  1  0.470931  0.941863  0.477088  1
  Y  Y3  1  0.533460  0.466540  0.978640  1
  Y  Y4  1  0.933080  0.466540  0.978640  1
  Y  Y5  1  0.533460  0.066920  0.978640  1
  Y  Y6  1  0.823924  0.176076  0.270389  1
  Y  Y7  1  0.352150  0.176076  0.270389  1
  Y  Y8  1  0.823924  0.647850  0.270389  1
  Y  Y9  1  0.175027  0.824973  0.773432  1
  Y  Y10  1  0.649945  0.824973  0.773432  1
  Y  Y11  1  0.175027  0.350055  0.773432  1
  Y  Y12  1  0.333333  0.666667  0.106107  1
  Y  Y13  1  0.666667  0.333333  0.598495  1
  Y  Y14  1  0.000000  0.000000  0.500202  1
  Y  Y15  1  0.000000  0.000000  0.995662  1
  In  In16  1  0.163912  0.836088  0.241883  1
  In  In17  1  0.672175  0.836088  0.241883  1
  In  In18  1  0.163912  0.327825  0.241883  1
  In  In19  1  0.837791  0.162209  0.737298  1
  In  In20  1  0.324417  0.162209  0.737298  1
  In  In21  1  0.837791  0.675583  0.737298  1
  Cu  Cu22  1  0.333333  0.666667  0.705347  1
  Ir  Ir23  1  0.666667  0.333333  0.202551  1
