# generated using pymatgen
data_Er4Al3ZnPt4
_symmetry_space_group_name_H-M   'P 1'
_cell_length_a   4.41535400
_cell_length_b   6.78449577
_cell_length_c   7.76454717
_cell_angle_alpha   89.75598646
_cell_angle_beta   90.00000000
_cell_angle_gamma   90.00000000
_symmetry_Int_Tables_number   1
_chemical_formula_structural   Er4Al3ZnPt4
_chemical_formula_sum   'Er4 Al3 Zn1 Pt4'
_cell_volume   232.59228145
_cell_formula_units_Z   1
loop_
 _symmetry_equiv_pos_site_id
 _symmetry_equiv_pos_as_xyz
  1  'x, y, z'
loop_
 _atom_site_type_symbol
 _atom_site_label
 _atom_site_symmetry_multiplicity
 _atom_site_fract_x
 _atom_site_fract_y
 _atom_site_fract_z
 _atom_site_occupancy
  Er  Er0  1  0.250000  0.473994  0.181952  1
  Er  Er1  1  0.750000  0.529988  0.819434  1
  Er  Er2  1  0.750000  0.026675  0.684526  1
  Er  Er3  1  0.250000  0.973248  0.313789  1
  Al  Al4  1  0.750000  0.147796  0.064035  1
  Al  Al5  1  0.750000  0.646121  0.438576  1
  Al  Al6  1  0.250000  0.350013  0.563076  1
  Zn  Zn7  1  0.250000  0.847628  0.933287  1
  Pt  Pt8  1  0.250000  0.727101  0.607951  1
  Pt  Pt9  1  0.750000  0.271294  0.385088  1
  Pt  Pt10  1  0.750000  0.770096  0.122829  1
  Pt  Pt11  1  0.250000  0.236047  0.885457  1
