# generated using pymatgen
data_ErTh3(InNi2)2
_symmetry_space_group_name_H-M   'P 1'
_cell_length_a   7.62116388
_cell_length_b   7.62116388
_cell_length_c   3.66375700
_cell_angle_alpha   90.00000000
_cell_angle_beta   90.00000000
_cell_angle_gamma   91.18992260
_symmetry_Int_Tables_number   1
_chemical_formula_structural   ErTh3(InNi2)2
_chemical_formula_sum   'Er1 Th3 In2 Ni4'
_cell_volume   212.75295340
_cell_formula_units_Z   1
loop_
 _symmetry_equiv_pos_site_id
 _symmetry_equiv_pos_as_xyz
  1  'x, y, z'
loop_
 _atom_site_type_symbol
 _atom_site_label
 _atom_site_symmetry_multiplicity
 _atom_site_fract_x
 _atom_site_fract_y
 _atom_site_fract_z
 _atom_site_occupancy
  Er  Er0  1  0.827209  0.672791  0.500000  1
  Th  Th1  1  0.674808  0.170598  0.500000  1
  Th  Th2  1  0.329402  0.825192  0.500000  1
  Th  Th3  1  0.169238  0.330762  0.500000  1
  In  In4  1  0.510448  0.503569  0.000000  1
  In  In5  1  0.996431  0.989552  0.000000  1
  Ni  Ni6  1  0.126551  0.623492  0.000000  1
  Ni  Ni7  1  0.876508  0.373449  0.000000  1
  Ni  Ni8  1  0.618648  0.881352  0.000000  1
  Ni  Ni9  1  0.370757  0.129243  0.000000  1
