# generated using pymatgen
data_K2Rb4ScAlAs4
_symmetry_space_group_name_H-M   'P 1'
_cell_length_a   9.39993473
_cell_length_b   9.39993501
_cell_length_c   9.39993446
_cell_angle_alpha   130.22772778
_cell_angle_beta   67.31488360
_cell_angle_gamma   137.71771744
_symmetry_Int_Tables_number   1
_chemical_formula_structural   K2Rb4ScAlAs4
_chemical_formula_sum   'K2 Rb4 Sc1 Al1 As4'
_cell_volume   419.70812793
_cell_formula_units_Z   1
loop_
 _symmetry_equiv_pos_site_id
 _symmetry_equiv_pos_as_xyz
  1  'x, y, z'
loop_
 _atom_site_type_symbol
 _atom_site_label
 _atom_site_symmetry_multiplicity
 _atom_site_fract_x
 _atom_site_fract_y
 _atom_site_fract_z
 _atom_site_occupancy
  K  K0  1  0.750000  0.250000  0.500000  1
  K  K1  1  0.250000  0.750000  0.500000  1
  Rb  Rb2  1  0.322981  0.720157  0.031942  1
  Rb  Rb3  1  0.177019  0.208960  0.397176  1
  Rb  Rb4  1  0.811784  0.779842  0.602824  1
  Rb  Rb5  1  0.688216  0.291040  0.968059  1
  Sc  Sc6  1  0.250000  0.250000  0.000000  1
  Al  Al7  1  0.749999  0.749999  0.000000  1
  As  As8  1  0.898457  0.172746  0.093601  1
  As  As9  1  0.601542  0.695143  0.274289  1
  As  As10  1  0.420854  0.327254  0.725712  1
  As  As11  1  0.079146  0.804857  0.906400  1
