# generated using pymatgen
data_CaHf3(Ga3Rh)6
_symmetry_space_group_name_H-M   'P 1'
_cell_length_a   7.48937515
_cell_length_b   7.48630497
_cell_length_c   9.37827500
_cell_angle_alpha   90.00000000
_cell_angle_beta   90.00000000
_cell_angle_gamma   119.94423824
_symmetry_Int_Tables_number   1
_chemical_formula_structural   CaHf3(Ga3Rh)6
_chemical_formula_sum   'Ca1 Hf3 Ga18 Rh6'
_cell_volume   455.62804503
_cell_formula_units_Z   1
loop_
 _symmetry_equiv_pos_site_id
 _symmetry_equiv_pos_as_xyz
  1  'x, y, z'
loop_
 _atom_site_type_symbol
 _atom_site_label
 _atom_site_symmetry_multiplicity
 _atom_site_fract_x
 _atom_site_fract_y
 _atom_site_fract_z
 _atom_site_occupancy
  Ca  Ca0  1  0.330161  0.003272  0.750000  1
  Hf  Hf1  1  0.996910  0.670917  0.250000  1
  Hf  Hf2  1  0.004376  0.330968  0.750000  1
  Hf  Hf3  1  0.669027  0.996020  0.250000  1
  Ga  Ga4  1  0.337873  0.552425  0.250000  1
  Ga  Ga5  1  0.664964  0.452417  0.750000  1
  Ga  Ga6  1  0.554431  0.338385  0.250000  1
  Ga  Ga7  1  0.448173  0.659593  0.750000  1
  Ga  Ga8  1  0.995668  0.334293  0.083599  1
  Ga  Ga9  1  0.000866  0.662566  0.921153  1
  Ga  Ga10  1  0.000866  0.662566  0.578847  1
  Ga  Ga11  1  0.334663  0.996635  0.414192  1
  Ga  Ga12  1  0.995668  0.334293  0.416401  1
  Ga  Ga13  1  0.668700  0.003519  0.579050  1
  Ga  Ga14  1  0.668700  0.003519  0.920950  1
  Ga  Ga15  1  0.334663  0.996635  0.085808  1
  Ga  Ga16  1  0.329849  0.332467  0.569854  1
  Ga  Ga17  1  0.670346  0.670228  0.425986  1
  Ga  Ga18  1  0.670346  0.670228  0.074014  1
  Ga  Ga19  1  0.329849  0.332467  0.930146  1
  Ga  Ga20  1  0.122144  0.123093  0.250000  1
  Ga  Ga21  1  0.872828  0.874997  0.750000  1
  Rh  Rh22  1  0.672710  0.328495  0.001462  1
  Rh  Rh23  1  0.328194  0.671680  0.002321  1
  Rh  Rh24  1  0.328194  0.671680  0.497679  1
  Rh  Rh25  1  0.672710  0.328495  0.498538  1
  Rh  Rh26  1  0.998562  0.999076  0.001921  1
  Rh  Rh27  1  0.998562  0.999076  0.498079  1
