# generated using pymatgen
data_Ho5Tm5In8(PtAu)2
_symmetry_space_group_name_H-M   'P 1'
_cell_length_a   3.62959900
_cell_length_b   8.13895325
_cell_length_c   18.23543291
_cell_angle_alpha   90.00550238
_cell_angle_beta   90.00000000
_cell_angle_gamma   90.00000000
_symmetry_Int_Tables_number   1
_chemical_formula_structural   Ho5Tm5In8(PtAu)2
_chemical_formula_sum   'Ho5 Tm5 In8 Pt2 Au2'
_cell_volume   538.69541159
_cell_formula_units_Z   1
loop_
 _symmetry_equiv_pos_site_id
 _symmetry_equiv_pos_as_xyz
  1  'x, y, z'
loop_
 _atom_site_type_symbol
 _atom_site_label
 _atom_site_symmetry_multiplicity
 _atom_site_fract_x
 _atom_site_fract_y
 _atom_site_fract_z
 _atom_site_occupancy
  Ho  Ho0  1  0.000000  0.747147  0.783246  1
  Ho  Ho1  1  0.000000  0.268054  0.721108  1
  Ho  Ho2  1  0.000000  0.731926  0.278876  1
  Ho  Ho3  1  0.000000  0.999943  0.999986  1
  Ho  Ho4  1  0.000000  0.500041  0.500010  1
  Tm  Tm5  1  0.000000  0.119475  0.419045  1
  Tm  Tm6  1  0.000000  0.880581  0.580878  1
  Tm  Tm7  1  0.000000  0.384692  0.916164  1
  Tm  Tm8  1  0.000000  0.615183  0.083890  1
  Tm  Tm9  1  0.000000  0.253229  0.216883  1
  In  In10  1  0.500000  0.421388  0.352398  1
  In  In11  1  0.500000  0.578451  0.647481  1
  In  In12  1  0.500000  0.078394  0.852806  1
  In  In13  1  0.500000  0.921804  0.147238  1
  In  In14  1  0.500000  0.291996  0.065417  1
  In  In15  1  0.500000  0.707954  0.934797  1
  In  In16  1  0.500000  0.209526  0.567177  1
  In  In17  1  0.500000  0.790569  0.432816  1
  Pt  Pt18  1  0.500000  0.471948  0.804436  1
  Pt  Pt19  1  0.500000  0.526981  0.195643  1
  Au  Au20  1  0.500000  0.030297  0.302401  1
  Au  Au21  1  0.500000  0.970423  0.697306  1
