# generated using pymatgen
data_Gd8Cu3Si12H
_symmetry_space_group_name_H-M   'P 1'
_cell_length_a   7.89970400
_cell_length_b   7.89970457
_cell_length_c   8.29873800
_cell_angle_alpha   90.00000000
_cell_angle_beta   90.00000000
_cell_angle_gamma   119.99999763
_symmetry_Int_Tables_number   1
_chemical_formula_structural   Gd8Cu3Si12H
_chemical_formula_sum   'Gd8 Cu3 Si12 H1'
_cell_volume   448.50197955
_cell_formula_units_Z   1
loop_
 _symmetry_equiv_pos_site_id
 _symmetry_equiv_pos_as_xyz
  1  'x, y, z'
loop_
 _atom_site_type_symbol
 _atom_site_label
 _atom_site_symmetry_multiplicity
 _atom_site_fract_x
 _atom_site_fract_y
 _atom_site_fract_z
 _atom_site_occupancy
  Gd  Gd0  1  0.000000  0.000000  0.743000  1
  Gd  Gd1  1  0.000000  0.000000  0.234972  1
  Gd  Gd2  1  0.499839  0.500161  0.740130  1
  Gd  Gd3  1  0.499839  0.999679  0.740130  1
  Gd  Gd4  1  0.000321  0.500161  0.740130  1
  Gd  Gd5  1  0.498029  0.501971  0.235907  1
  Gd  Gd6  1  0.003942  0.501971  0.235907  1
  Gd  Gd7  1  0.498029  0.996058  0.235907  1
  Cu  Cu8  1  0.666667  0.333333  0.987071  1
  Cu  Cu9  1  0.666667  0.333333  0.491343  1
  Cu  Cu10  1  0.333333  0.666667  0.478340  1
  Si  Si11  1  0.833265  0.166735  0.987939  1
  Si  Si12  1  0.833265  0.666531  0.987939  1
  Si  Si13  1  0.333469  0.166735  0.987939  1
  Si  Si14  1  0.830360  0.169640  0.484367  1
  Si  Si15  1  0.830360  0.660719  0.484367  1
  Si  Si16  1  0.339281  0.169640  0.484367  1
  Si  Si17  1  0.167103  0.832897  0.497902  1
  Si  Si18  1  0.665795  0.832897  0.497902  1
  Si  Si19  1  0.167103  0.334205  0.497902  1
  Si  Si20  1  0.179555  0.820445  0.988018  1
  Si  Si21  1  0.640891  0.820445  0.988018  1
  Si  Si22  1  0.179555  0.359109  0.988018  1
  H  H23  1  0.333333  0.666667  0.262483  1
