# generated using pymatgen
data_DyTmReC2
_symmetry_space_group_name_H-M   'P 1'
_cell_length_a   5.07465500
_cell_length_b   6.56195900
_cell_length_c   9.80045500
_cell_angle_alpha   90.00000000
_cell_angle_beta   90.00000000
_cell_angle_gamma   90.00000000
_symmetry_Int_Tables_number   1
_chemical_formula_structural   DyTmReC2
_chemical_formula_sum   'Dy4 Tm4 Re4 C8'
_cell_volume   326.35199624
_cell_formula_units_Z   4
loop_
 _symmetry_equiv_pos_site_id
 _symmetry_equiv_pos_as_xyz
  1  'x, y, z'
loop_
 _atom_site_type_symbol
 _atom_site_label
 _atom_site_symmetry_multiplicity
 _atom_site_fract_x
 _atom_site_fract_y
 _atom_site_fract_z
 _atom_site_occupancy
  Dy  Dy0  1  0.250000  0.467276  0.216084  1
  Dy  Dy1  1  0.250000  0.967276  0.283916  1
  Dy  Dy2  1  0.750000  0.532724  0.783916  1
  Dy  Dy3  1  0.750000  0.032724  0.716084  1
  Tm  Tm4  1  0.250000  0.822397  0.942590  1
  Tm  Tm5  1  0.250000  0.322397  0.557410  1
  Tm  Tm6  1  0.750000  0.177603  0.057410  1
  Tm  Tm7  1  0.750000  0.677603  0.442590  1
  Re  Re8  1  0.250000  0.278278  0.867140  1
  Re  Re9  1  0.250000  0.778278  0.632860  1
  Re  Re10  1  0.750000  0.721722  0.132860  1
  Re  Re11  1  0.750000  0.221722  0.367140  1
  C  C12  1  0.250000  0.046268  0.740535  1
  C  C13  1  0.250000  0.546268  0.759465  1
  C  C14  1  0.750000  0.953732  0.259465  1
  C  C15  1  0.750000  0.453732  0.240535  1
  C  C16  1  0.250000  0.673226  0.449398  1
  C  C17  1  0.250000  0.173226  0.050602  1
  C  C18  1  0.750000  0.326774  0.550602  1
  C  C19  1  0.750000  0.826774  0.949398  1
