# generated using pymatgen
data_Nb4Te8C
_symmetry_space_group_name_H-M   'P 1'
_cell_length_a   3.54013500
_cell_length_b   11.54455500
_cell_length_c   17.04067800
_cell_angle_alpha   90.00000000
_cell_angle_beta   90.00000000
_cell_angle_gamma   90.00000000
_symmetry_Int_Tables_number   1
_chemical_formula_structural   Nb4Te8C
_chemical_formula_sum   'Nb8 Te16 C2'
_cell_volume   696.44029536
_cell_formula_units_Z   2
loop_
 _symmetry_equiv_pos_site_id
 _symmetry_equiv_pos_as_xyz
  1  'x, y, z'
loop_
 _atom_site_type_symbol
 _atom_site_label
 _atom_site_symmetry_multiplicity
 _atom_site_fract_x
 _atom_site_fract_y
 _atom_site_fract_z
 _atom_site_occupancy
  Nb  Nb0  1  0.500000  0.074053  0.070046  1
  Nb  Nb1  1  0.500000  0.925946  0.929954  1
  Nb  Nb2  1  0.500000  0.574054  0.429954  1
  Nb  Nb3  1  0.500000  0.425946  0.570046  1
  Nb  Nb4  1  0.000000  0.344875  0.425612  1
  Nb  Nb5  1  0.000000  0.655125  0.574388  1
  Nb  Nb6  1  0.000000  0.844875  0.074388  1
  Nb  Nb7  1  0.000000  0.155125  0.925612  1
  Te  Te8  1  0.500000  0.301002  0.008010  1
  Te  Te9  1  0.500000  0.698998  0.991990  1
  Te  Te10  1  0.500000  0.801002  0.491990  1
  Te  Te11  1  0.500000  0.198998  0.508010  1
  Te  Te12  1  0.500000  0.415497  0.308172  1
  Te  Te13  1  0.500000  0.584503  0.691828  1
  Te  Te14  1  0.500000  0.915497  0.191828  1
  Te  Te15  1  0.500000  0.084503  0.808172  1
  Te  Te16  1  0.000000  0.127637  0.329014  1
  Te  Te17  1  0.000000  0.872363  0.670986  1
  Te  Te18  1  0.000000  0.627637  0.170986  1
  Te  Te19  1  0.000000  0.372363  0.829014  1
  Te  Te20  1  0.000000  0.206181  0.172199  1
  Te  Te21  1  0.000000  0.793819  0.827801  1
  Te  Te22  1  0.000000  0.706181  0.327801  1
  Te  Te23  1  0.000000  0.293819  0.672199  1
  C  C24  1  0.000000  0.000000  0.000000  1
  C  C25  1  0.000000  0.500000  0.500000  1
