# generated using pymatgen
data_Sm2Y3Ho3(WO6)4
_symmetry_space_group_name_H-M   'P 1'
_cell_length_a   5.43216605
_cell_length_b   7.74369365
_cell_length_c   11.51266130
_cell_angle_alpha   75.60075567
_cell_angle_beta   89.99836981
_cell_angle_gamma   90.01531902
_symmetry_Int_Tables_number   1
_chemical_formula_structural   Sm2Y3Ho3(WO6)4
_chemical_formula_sum   'Sm2 Y3 Ho3 W4 O24'
_cell_volume   469.06744905
_cell_formula_units_Z   1
loop_
 _symmetry_equiv_pos_site_id
 _symmetry_equiv_pos_as_xyz
  1  'x, y, z'
loop_
 _atom_site_type_symbol
 _atom_site_label
 _atom_site_symmetry_multiplicity
 _atom_site_fract_x
 _atom_site_fract_y
 _atom_site_fract_z
 _atom_site_occupancy
  Sm  Sm0  1  0.683829  0.500122  0.750050  1
  Sm  Sm1  1  0.315979  0.500331  0.249711  1
  Y  Y2  1  0.740553  0.999776  0.750278  1
  Y  Y3  1  0.259325  0.999735  0.249623  1
  Y  Y4  1  0.813919  0.203951  0.422729  1
  Ho  Ho5  1  0.185890  0.795584  0.577584  1
  Ho  Ho6  1  0.814336  0.795854  0.077457  1
  Ho  Ho7  1  0.185731  0.204086  0.922625  1
  W  W8  1  0.254031  0.725688  0.885090  1
  W  W9  1  0.745958  0.725890  0.385097  1
  W  W10  1  0.253880  0.274515  0.615370  1
  W  W11  1  0.745797  0.274429  0.114546  1
  O  O12  1  0.043862  0.940854  0.896125  1
  O  O13  1  0.532750  0.846220  0.931253  1
  O  O14  1  0.957659  0.939616  0.396020  1
  O  O15  1  0.455231  0.791952  0.727394  1
  O  O16  1  0.467600  0.846601  0.431227  1
  O  O17  1  0.983881  0.714720  0.770925  1
  O  O18  1  0.544928  0.792285  0.227240  1
  O  O19  1  0.852702  0.638982  0.547043  1
  O  O20  1  0.353584  0.491578  0.887189  1
  O  O21  1  0.015953  0.714487  0.270681  1
  O  O22  1  0.353904  0.508697  0.613124  1
  O  O23  1  0.852826  0.360981  0.952822  1
  O  O24  1  0.147171  0.639153  0.046940  1
  O  O25  1  0.645163  0.492307  0.387112  1
  O  O26  1  0.983551  0.285263  0.729217  1
  O  O27  1  0.646485  0.508538  0.112761  1
  O  O28  1  0.149213  0.361737  0.453235  1
  O  O29  1  0.455107  0.208186  0.772948  1
  O  O30  1  0.016629  0.285467  0.228296  1
  O  O31  1  0.531472  0.152811  0.569835  1
  O  O32  1  0.543471  0.208174  0.271800  1
  O  O33  1  0.044268  0.058751  0.604462  1
  O  O34  1  0.467336  0.153619  0.068367  1
  O  O35  1  0.956026  0.059062  0.103825  1
