# generated using pymatgen
data_Ho16MgIn3Co3Ni
_symmetry_space_group_name_H-M   'P 1'
_cell_length_a   9.51263725
_cell_length_b   9.52671518
_cell_length_c   9.52671512
_cell_angle_alpha   59.79785304
_cell_angle_beta   60.07786208
_cell_angle_gamma   60.07786363
_symmetry_Int_Tables_number   1
_chemical_formula_structural   Ho16MgIn3Co3Ni
_chemical_formula_sum   'Ho16 Mg1 In3 Co3 Ni1'
_cell_volume   610.25730676
_cell_formula_units_Z   1
loop_
 _symmetry_equiv_pos_site_id
 _symmetry_equiv_pos_as_xyz
  1  'x, y, z'
loop_
 _atom_site_type_symbol
 _atom_site_label
 _atom_site_symmetry_multiplicity
 _atom_site_fract_x
 _atom_site_fract_y
 _atom_site_fract_z
 _atom_site_occupancy
  Ho  Ho0  1  0.343444  0.343786  0.343786  1
  Ho  Ho1  1  0.351774  0.349919  0.957636  1
  Ho  Ho2  1  0.351774  0.957636  0.349919  1
  Ho  Ho3  1  0.952668  0.353593  0.353593  1
  Ho  Ho4  1  0.804992  0.189121  0.189121  1
  Ho  Ho5  1  0.184736  0.812937  0.812937  1
  Ho  Ho6  1  0.187286  0.807396  0.187674  1
  Ho  Ho7  1  0.809418  0.189313  0.809873  1
  Ho  Ho8  1  0.187286  0.187674  0.807396  1
  Ho  Ho9  1  0.809418  0.809873  0.189313  1
  Ho  Ho10  1  0.938848  0.564690  0.564690  1
  Ho  Ho11  1  0.561913  0.938703  0.938703  1
  Ho  Ho12  1  0.563708  0.938005  0.561778  1
  Ho  Ho13  1  0.941028  0.561455  0.939541  1
  Ho  Ho14  1  0.563708  0.561778  0.938005  1
  Ho  Ho15  1  0.941028  0.939541  0.561455  1
  Mg  Mg16  1  0.269969  0.575797  0.575797  1
  In  In17  1  0.582319  0.583549  0.583549  1
  In  In18  1  0.581107  0.582300  0.252605  1
  In  In19  1  0.581107  0.252605  0.582300  1
  Co  Co20  1  0.137814  0.140381  0.576535  1
  Co  Co21  1  0.137814  0.576535  0.140381  1
  Co  Co22  1  0.576069  0.140933  0.140933  1
  Ni  Ni23  1  0.140774  0.142483  0.142483  1
