# generated using pymatgen
data_Th10Sn4Bi3Au
_symmetry_space_group_name_H-M   'P 1'
_cell_length_a   9.66718700
_cell_length_b   9.66718630
_cell_length_c   6.65229100
_cell_angle_alpha   90.00000000
_cell_angle_beta   90.00000000
_cell_angle_gamma   119.99999899
_symmetry_Int_Tables_number   1
_chemical_formula_structural   Th10Sn4Bi3Au
_chemical_formula_sum   'Th10 Sn4 Bi3 Au1'
_cell_volume   538.39631964
_cell_formula_units_Z   1
loop_
 _symmetry_equiv_pos_site_id
 _symmetry_equiv_pos_as_xyz
  1  'x, y, z'
loop_
 _atom_site_type_symbol
 _atom_site_label
 _atom_site_symmetry_multiplicity
 _atom_site_fract_x
 _atom_site_fract_y
 _atom_site_fract_z
 _atom_site_occupancy
  Th  Th0  1  0.000000  0.726473  0.755182  1
  Th  Th1  1  0.273527  0.273527  0.755182  1
  Th  Th2  1  0.333333  0.666667  0.494944  1
  Th  Th3  1  0.666667  0.333333  0.494944  1
  Th  Th4  1  0.726144  0.726144  0.245192  1
  Th  Th5  1  0.726473  0.000000  0.755182  1
  Th  Th6  1  0.000000  0.273856  0.245192  1
  Th  Th7  1  0.273856  0.000000  0.245192  1
  Th  Th8  1  0.333333  0.666667  0.004652  1
  Th  Th9  1  0.666667  0.333333  0.004652  1
  Sn  Sn10  1  0.619336  0.000000  0.250889  1
  Sn  Sn11  1  0.380664  0.380664  0.250889  1
  Sn  Sn12  1  0.000000  0.619336  0.250889  1
  Sn  Sn13  1  0.000000  0.000000  0.499934  1
  Bi  Bi14  1  0.618398  0.618398  0.748462  1
  Bi  Bi15  1  0.000000  0.381602  0.748462  1
  Bi  Bi16  1  0.381602  0.000000  0.748462  1
  Au  Au17  1  0.000000  0.000000  0.001699  1
