# generated using pymatgen
data_Zr6Sc3Re4Ni
_symmetry_space_group_name_H-M   'P 1'
_cell_length_a   8.74401600
_cell_length_b   8.74401415
_cell_length_c   8.42129600
_cell_angle_alpha   90.00000000
_cell_angle_beta   90.00000000
_cell_angle_gamma   119.99999188
_symmetry_Int_Tables_number   1
_chemical_formula_structural   Zr6Sc3Re4Ni
_chemical_formula_sum   'Zr12 Sc6 Re8 Ni2'
_cell_volume   557.61108019
_cell_formula_units_Z   2
loop_
 _symmetry_equiv_pos_site_id
 _symmetry_equiv_pos_as_xyz
  1  'x, y, z'
loop_
 _atom_site_type_symbol
 _atom_site_label
 _atom_site_symmetry_multiplicity
 _atom_site_fract_x
 _atom_site_fract_y
 _atom_site_fract_z
 _atom_site_occupancy
  Zr  Zr0  1  0.198003  0.801997  0.443809  1
  Zr  Zr1  1  0.198003  0.396006  0.443809  1
  Zr  Zr2  1  0.603994  0.801997  0.443809  1
  Zr  Zr3  1  0.801997  0.198003  0.556191  1
  Zr  Zr4  1  0.801997  0.603994  0.556191  1
  Zr  Zr5  1  0.396006  0.198003  0.556191  1
  Zr  Zr6  1  0.801997  0.198003  0.943809  1
  Zr  Zr7  1  0.801997  0.603994  0.943809  1
  Zr  Zr8  1  0.396006  0.198003  0.943809  1
  Zr  Zr9  1  0.198003  0.801997  0.056191  1
  Zr  Zr10  1  0.198003  0.396006  0.056191  1
  Zr  Zr11  1  0.603994  0.801997  0.056191  1
  Sc  Sc12  1  0.541996  0.458004  0.250000  1
  Sc  Sc13  1  0.541996  0.083992  0.250000  1
  Sc  Sc14  1  0.916008  0.458004  0.250000  1
  Sc  Sc15  1  0.458004  0.541996  0.750000  1
  Sc  Sc16  1  0.458004  0.916008  0.750000  1
  Sc  Sc17  1  0.083992  0.541996  0.750000  1
  Re  Re18  1  0.891766  0.108234  0.250000  1
  Re  Re19  1  0.891766  0.783531  0.250000  1
  Re  Re20  1  0.216469  0.108234  0.250000  1
  Re  Re21  1  0.108234  0.891766  0.750000  1
  Re  Re22  1  0.108234  0.216469  0.750000  1
  Re  Re23  1  0.783531  0.891766  0.750000  1
  Re  Re24  1  0.000000  0.000000  0.500000  1
  Re  Re25  1  0.000000  0.000000  0.000000  1
  Ni  Ni26  1  0.333333  0.666667  0.250000  1
  Ni  Ni27  1  0.666667  0.333333  0.750000  1
