# generated using pymatgen
data_Ho2Ga2CuRu
_symmetry_space_group_name_H-M   'P 1'
_cell_length_a   4.33383100
_cell_length_b   6.84160100
_cell_length_c   7.61092300
_cell_angle_alpha   90.00000000
_cell_angle_beta   90.00000000
_cell_angle_gamma   90.00000000
_symmetry_Int_Tables_number   1
_chemical_formula_structural   Ho2Ga2CuRu
_chemical_formula_sum   'Ho4 Ga4 Cu2 Ru2'
_cell_volume   225.66647372
_cell_formula_units_Z   2
loop_
 _symmetry_equiv_pos_site_id
 _symmetry_equiv_pos_as_xyz
  1  'x, y, z'
loop_
 _atom_site_type_symbol
 _atom_site_label
 _atom_site_symmetry_multiplicity
 _atom_site_fract_x
 _atom_site_fract_y
 _atom_site_fract_z
 _atom_site_occupancy
  Ho  Ho0  1  0.250000  0.524643  0.686750  1
  Ho  Ho1  1  0.250000  0.024643  0.813250  1
  Ho  Ho2  1  0.750000  0.989146  0.201349  1
  Ho  Ho3  1  0.750000  0.489146  0.298651  1
  Ga  Ga4  1  0.750000  0.324659  0.922322  1
  Ga  Ga5  1  0.250000  0.171626  0.432043  1
  Ga  Ga6  1  0.750000  0.824659  0.577678  1
  Ga  Ga7  1  0.250000  0.671626  0.067957  1
  Cu  Cu8  1  0.750000  0.710483  0.897434  1
  Cu  Cu9  1  0.750000  0.210483  0.602566  1
  Ru  Ru10  1  0.250000  0.279441  0.103480  1
  Ru  Ru11  1  0.250000  0.779441  0.396520  1
