# generated using pymatgen
data_Ho4Al24Pt6RhAu2
_symmetry_space_group_name_H-M   'P 1'
_cell_length_a   7.55349282
_cell_length_b   7.57385726
_cell_length_c   13.15743063
_cell_angle_alpha   84.55245613
_cell_angle_beta   79.01930071
_cell_angle_gamma   59.90030544
_symmetry_Int_Tables_number   1
_chemical_formula_structural   Ho4Al24Pt6RhAu2
_chemical_formula_sum   'Ho4 Al24 Pt6 Rh1 Au2'
_cell_volume   639.29951561
_cell_formula_units_Z   1
loop_
 _symmetry_equiv_pos_site_id
 _symmetry_equiv_pos_as_xyz
  1  'x, y, z'
loop_
 _atom_site_type_symbol
 _atom_site_label
 _atom_site_symmetry_multiplicity
 _atom_site_fract_x
 _atom_site_fract_y
 _atom_site_fract_z
 _atom_site_occupancy
  Ho  Ho0  1  0.392685  0.169041  0.809526  1
  Ho  Ho1  1  0.607315  0.830959  0.190474  1
  Ho  Ho2  1  0.733367  0.498903  0.810112  1
  Ho  Ho3  1  0.266633  0.501097  0.189888  1
  Al  Al4  1  0.685864  0.831018  0.946366  1
  Al  Al5  1  0.314136  0.168982  0.053634  1
  Al  Al6  1  0.145754  0.839200  0.562007  1
  Al  Al7  1  0.854246  0.160800  0.437993  1
  Al  Al8  1  0.488184  0.159171  0.559042  1
  Al  Al9  1  0.511816  0.840829  0.440958  1
  Al  Al10  1  0.223108  0.160581  0.324622  1
  Al  Al11  1  0.776892  0.839419  0.675378  1
  Al  Al12  1  0.439193  0.507390  0.675521  1
  Al  Al13  1  0.560807  0.492610  0.324479  1
  Al  Al14  1  0.108474  0.155303  0.673702  1
  Al  Al15  1  0.891526  0.844697  0.326298  1
  Al  Al16  1  0.349815  0.498813  0.946102  1
  Al  Al17  1  0.650185  0.501187  0.053898  1
  Al  Al18  1  0.015145  0.171576  0.954711  1
  Al  Al19  1  0.984855  0.828424  0.045289  1
  Al  Al20  1  0.195323  0.499578  0.437978  1
  Al  Al21  1  0.804677  0.500422  0.562022  1
  Al  Al22  1  0.733689  0.164002  0.182603  1
  Al  Al23  1  0.266311  0.835998  0.817397  1
  Al  Al24  1  0.059414  0.631501  0.820446  1
  Al  Al25  1  0.940586  0.368499  0.179554  1
  Al  Al26  1  0.854390  0.042452  0.816918  1
  Al  Al27  1  0.145610  0.957548  0.183082  1
  Pt  Pt28  1  0.656921  0.171737  0.999820  1
  Pt  Pt29  1  0.343079  0.828263  0.000180  1
  Pt  Pt30  1  0.537441  0.166569  0.362140  1
  Pt  Pt31  1  0.462559  0.833431  0.637860  1
  Pt  Pt32  1  0.779228  0.175445  0.636600  1
  Pt  Pt33  1  0.220772  0.824555  0.363400  1
  Rh  Rh34  1  0.000000  0.500000  0.000000  1
  Au  Au35  1  0.120122  0.491175  0.638428  1
  Au  Au36  1  0.879878  0.508825  0.361572  1
