# generated using pymatgen
data_TlRh(S2O7)2
_symmetry_space_group_name_H-M   'P 1'
_cell_length_a   5.05235187
_cell_length_b   7.45481556
_cell_length_c   9.46109800
_cell_angle_alpha   108.49535867
_cell_angle_beta   82.63144321
_cell_angle_gamma   101.19028979
_symmetry_Int_Tables_number   1
_chemical_formula_structural   TlRh(S2O7)2
_chemical_formula_sum   'Tl1 Rh1 S4 O14'
_cell_volume   330.66288291
_cell_formula_units_Z   1
loop_
 _symmetry_equiv_pos_site_id
 _symmetry_equiv_pos_as_xyz
  1  'x, y, z'
loop_
 _atom_site_type_symbol
 _atom_site_label
 _atom_site_symmetry_multiplicity
 _atom_site_fract_x
 _atom_site_fract_y
 _atom_site_fract_z
 _atom_site_occupancy
  Tl  Tl0  1  0.500000  0.000000  0.000000  1
  Rh  Rh1  1  0.500000  0.500000  0.500000  1
  S  S2  1  0.007004  0.691687  0.711471  1
  S  S3  1  0.992996  0.308313  0.288529  1
  S  S4  1  0.673703  0.306241  0.724162  1
  S  S5  1  0.326297  0.693759  0.275838  1
  O  O6  1  0.856295  0.660050  0.578550  1
  O  O7  1  0.143705  0.339950  0.421450  1
  O  O8  1  0.459399  0.365273  0.660860  1
  O  O9  1  0.540601  0.634727  0.339140  1
  O  O10  1  0.303011  0.696435  0.663479  1
  O  O11  1  0.696989  0.303565  0.336521  1
  O  O12  1  0.978805  0.866261  0.830469  1
  O  O13  1  0.021195  0.133739  0.169531  1
  O  O14  1  0.577069  0.287499  0.869250  1
  O  O15  1  0.422931  0.712501  0.130750  1
  O  O16  1  0.909685  0.522276  0.781300  1
  O  O17  1  0.090315  0.477724  0.218700  1
  O  O18  1  0.825976  0.170633  0.622611  1
  O  O19  1  0.174024  0.829367  0.377389  1
