# generated using pymatgen
data_PrHo3Ir3RhO14
_symmetry_space_group_name_H-M   'P 1'
_cell_length_a   7.31734344
_cell_length_b   7.23905098
_cell_length_c   7.23497000
_cell_angle_alpha   60.01864678
_cell_angle_beta   60.37169460
_cell_angle_gamma   60.30589392
_symmetry_Int_Tables_number   1
_chemical_formula_structural   PrHo3Ir3RhO14
_chemical_formula_sum   'Pr1 Ho3 Ir3 Rh1 O14'
_cell_volume   272.41021983
_cell_formula_units_Z   1
loop_
 _symmetry_equiv_pos_site_id
 _symmetry_equiv_pos_as_xyz
  1  'x, y, z'
loop_
 _atom_site_type_symbol
 _atom_site_label
 _atom_site_symmetry_multiplicity
 _atom_site_fract_x
 _atom_site_fract_y
 _atom_site_fract_z
 _atom_site_occupancy
  Pr  Pr0  1  0.625000  0.125000  0.125000  1
  Ho  Ho1  1  0.125000  0.125000  0.625000  1
  Ho  Ho2  1  0.125000  0.125000  0.125000  1
  Ho  Ho3  1  0.125000  0.625000  0.125000  1
  Ir  Ir4  1  0.625000  0.625000  0.625000  1
  Ir  Ir5  1  0.125000  0.625000  0.625000  1
  Ir  Ir6  1  0.625000  0.625000  0.125000  1
  Rh  Rh7  1  0.625000  0.125000  0.625000  1
  O  O8  1  0.960991  0.542540  0.536721  1
  O  O9  1  0.284311  0.290470  0.712609  1
  O  O10  1  0.960991  0.542540  0.959749  1
  O  O11  1  0.723317  0.290262  0.284410  1
  O  O12  1  0.527592  0.554037  0.959185  1
  O  O13  1  0.526683  0.959738  0.547988  1
  O  O14  1  0.526683  0.959738  0.965590  1
  O  O15  1  0.237502  0.255493  0.253503  1
  O  O16  1  0.289009  0.707460  0.713279  1
  O  O17  1  0.723317  0.290262  0.702012  1
  O  O18  1  0.012498  0.994507  0.996497  1
  O  O19  1  0.965689  0.959530  0.537391  1
  O  O20  1  0.289009  0.707460  0.290251  1
  O  O21  1  0.722408  0.695963  0.290815  1
