# generated using pymatgen
data_La4Pr5NdCo4
_symmetry_space_group_name_H-M   'P 1'
_cell_length_a   9.12529603
_cell_length_b   9.12529587
_cell_length_c   7.05396699
_cell_angle_alpha   85.32476970
_cell_angle_beta   85.32477397
_cell_angle_gamma   42.39723788
_symmetry_Int_Tables_number   1
_chemical_formula_structural   La4Pr5NdCo4
_chemical_formula_sum   'La4 Pr5 Nd1 Co4'
_cell_volume   394.54188223
_cell_formula_units_Z   1
loop_
 _symmetry_equiv_pos_site_id
 _symmetry_equiv_pos_as_xyz
  1  'x, y, z'
loop_
 _atom_site_type_symbol
 _atom_site_label
 _atom_site_symmetry_multiplicity
 _atom_site_fract_x
 _atom_site_fract_y
 _atom_site_fract_z
 _atom_site_occupancy
  La  La0  1  0.015058  0.794224  0.900074  1
  La  La1  1  0.205776  0.984942  0.599926  1
  La  La2  1  0.985082  0.205483  0.100184  1
  La  La3  1  0.794517  0.014918  0.399816  1
  Pr  Pr4  1  0.357745  0.215946  0.827254  1
  Pr  Pr5  1  0.784054  0.642255  0.672746  1
  Pr  Pr6  1  0.642045  0.783963  0.172823  1
  Pr  Pr7  1  0.216037  0.357955  0.327177  1
  Pr  Pr8  1  0.570978  0.429022  0.750000  1
  Nd  Nd9  1  0.429224  0.570776  0.250000  1
  Co  Co10  1  0.173904  0.607522  0.584739  1
  Co  Co11  1  0.392478  0.826096  0.915261  1
  Co  Co12  1  0.825840  0.392738  0.414681  1
  Co  Co13  1  0.607262  0.174160  0.085319  1
