# generated using pymatgen
data_TbYEr2(AlPt)4
_symmetry_space_group_name_H-M   'P 1'
_cell_length_a   4.43424400
_cell_length_b   6.87281666
_cell_length_c   7.74184438
_cell_angle_alpha   91.46494738
_cell_angle_beta   90.00000000
_cell_angle_gamma   90.00000000
_symmetry_Int_Tables_number   1
_chemical_formula_structural   TbYEr2(AlPt)4
_chemical_formula_sum   'Tb1 Y1 Er2 Al4 Pt4'
_cell_volume   235.86136738
_cell_formula_units_Z   1
loop_
 _symmetry_equiv_pos_site_id
 _symmetry_equiv_pos_as_xyz
  1  'x, y, z'
loop_
 _atom_site_type_symbol
 _atom_site_label
 _atom_site_symmetry_multiplicity
 _atom_site_fract_x
 _atom_site_fract_y
 _atom_site_fract_z
 _atom_site_occupancy
  Tb  Tb0  1  0.750000  0.529975  0.817605  1
  Y  Y1  1  0.250000  0.470081  0.183213  1
  Er  Er2  1  0.750000  0.028134  0.680996  1
  Er  Er3  1  0.250000  0.972196  0.318778  1
  Al  Al4  1  0.250000  0.852902  0.936805  1
  Al  Al5  1  0.750000  0.147144  0.063563  1
  Al  Al6  1  0.750000  0.649029  0.436063  1
  Al  Al7  1  0.250000  0.350692  0.563508  1
  Pt  Pt8  1  0.250000  0.729143  0.612320  1
  Pt  Pt9  1  0.750000  0.270939  0.387484  1
  Pt  Pt10  1  0.750000  0.777704  0.118422  1
  Pt  Pt11  1  0.250000  0.222060  0.881243  1
