# generated using pymatgen
data_Tb8Dy2Si5Bi
_symmetry_space_group_name_H-M   'P 1'
_cell_length_a   8.57812800
_cell_length_b   8.62301334
_cell_length_c   6.40099800
_cell_angle_alpha   89.99690654
_cell_angle_beta   90.00000000
_cell_angle_gamma   119.82795905
_symmetry_Int_Tables_number   1
_chemical_formula_structural   Tb8Dy2Si5Bi
_chemical_formula_sum   'Tb8 Dy2 Si5 Bi1'
_cell_volume   410.75247386
_cell_formula_units_Z   1
loop_
 _symmetry_equiv_pos_site_id
 _symmetry_equiv_pos_as_xyz
  1  'x, y, z'
loop_
 _atom_site_type_symbol
 _atom_site_label
 _atom_site_symmetry_multiplicity
 _atom_site_fract_x
 _atom_site_fract_y
 _atom_site_fract_z
 _atom_site_occupancy
  Tb  Tb0  1  0.984710  0.744643  0.749990  1
  Tb  Tb1  1  0.998369  0.243527  0.250003  1
  Tb  Tb2  1  0.754842  0.756473  0.249997  1
  Tb  Tb3  1  0.767598  0.000000  0.750000  1
  Tb  Tb4  1  0.240067  0.255357  0.750010  1
  Tb  Tb5  1  0.240450  0.000000  0.250000  1
  Tb  Tb6  1  0.676759  0.345955  0.005138  1
  Tb  Tb7  1  0.330803  0.654045  0.494862  1
  Dy  Dy8  1  0.330789  0.654000  0.005136  1
  Dy  Dy9  1  0.676791  0.346000  0.494864  1
  Si  Si10  1  0.393089  0.390656  0.249980  1
  Si  Si11  1  0.002433  0.609344  0.250020  1
  Si  Si12  1  0.998694  0.394286  0.749995  1
  Si  Si13  1  0.604408  0.605714  0.750005  1
  Si  Si14  1  0.607139  0.000000  0.250000  1
  Bi  Bi15  1  0.393058  0.000000  0.750000  1
