# generated using pymatgen
data_Nd8HfPd23Pt
_symmetry_space_group_name_H-M   'P 1'
_cell_length_a   8.50958400
_cell_length_b   8.51833500
_cell_length_c   8.51833500
_cell_angle_alpha   90.00000000
_cell_angle_beta   90.00000000
_cell_angle_gamma   90.00000000
_symmetry_Int_Tables_number   1
_chemical_formula_structural   Nd8HfPd23Pt
_chemical_formula_sum   'Nd8 Hf1 Pd23 Pt1'
_cell_volume   617.47269947
_cell_formula_units_Z   1
loop_
 _symmetry_equiv_pos_site_id
 _symmetry_equiv_pos_as_xyz
  1  'x, y, z'
loop_
 _atom_site_type_symbol
 _atom_site_label
 _atom_site_symmetry_multiplicity
 _atom_site_fract_x
 _atom_site_fract_y
 _atom_site_fract_z
 _atom_site_occupancy
  Nd  Nd0  1  0.252303  0.251864  0.251864  1
  Nd  Nd1  1  0.747495  0.746769  0.746769  1
  Nd  Nd2  1  0.747495  0.746769  0.253231  1
  Nd  Nd3  1  0.747495  0.253231  0.746769  1
  Nd  Nd4  1  0.252303  0.251864  0.748136  1
  Nd  Nd5  1  0.252303  0.748136  0.251864  1
  Nd  Nd6  1  0.252303  0.748136  0.748136  1
  Nd  Nd7  1  0.747495  0.253231  0.253231  1
  Hf  Hf8  1  0.003879  0.000000  0.000000  1
  Pd  Pd9  1  0.265082  0.500000  0.000000  1
  Pd  Pd10  1  0.733592  0.500000  0.000000  1
  Pd  Pd11  1  0.000393  0.265852  0.500000  1
  Pd  Pd12  1  0.500209  0.266194  0.000000  1
  Pd  Pd13  1  0.000393  0.734148  0.500000  1
  Pd  Pd14  1  0.500209  0.733806  0.000000  1
  Pd  Pd15  1  0.500209  0.000000  0.266194  1
  Pd  Pd16  1  0.265082  0.000000  0.500000  1
  Pd  Pd17  1  0.500209  0.000000  0.733806  1
  Pd  Pd18  1  0.733592  0.000000  0.500000  1
  Pd  Pd19  1  0.000393  0.500000  0.265852  1
  Pd  Pd20  1  0.000393  0.500000  0.734148  1
  Pd  Pd21  1  0.254810  0.500000  0.500000  1
  Pd  Pd22  1  0.745379  0.500000  0.500000  1
  Pd  Pd23  1  0.499685  0.254847  0.500000  1
  Pd  Pd24  1  0.499685  0.745153  0.500000  1
  Pd  Pd25  1  0.499685  0.500000  0.254847  1
  Pd  Pd26  1  0.499685  0.500000  0.745153  1
  Pd  Pd27  1  0.693786  0.000000  0.000000  1
  Pd  Pd28  1  0.998606  0.308833  0.000000  1
  Pd  Pd29  1  0.998606  0.691167  0.000000  1
  Pd  Pd30  1  0.998606  0.000000  0.308833  1
  Pd  Pd31  1  0.998606  0.000000  0.691167  1
  Pt  Pt32  1  0.310037  0.000000  0.000000  1
