# generated using pymatgen
data_Dy4MnOsC4
_symmetry_space_group_name_H-M   'P 1'
_cell_length_a   5.08249000
_cell_length_b   6.40299496
_cell_length_c   9.73089192
_cell_angle_alpha   90.50039010
_cell_angle_beta   90.00000000
_cell_angle_gamma   90.00000000
_symmetry_Int_Tables_number   1
_chemical_formula_structural   Dy4MnOsC4
_chemical_formula_sum   'Dy8 Mn2 Os2 C8'
_cell_volume   316.66187463
_cell_formula_units_Z   2
loop_
 _symmetry_equiv_pos_site_id
 _symmetry_equiv_pos_as_xyz
  1  'x, y, z'
loop_
 _atom_site_type_symbol
 _atom_site_label
 _atom_site_symmetry_multiplicity
 _atom_site_fract_x
 _atom_site_fract_y
 _atom_site_fract_z
 _atom_site_occupancy
  Dy  Dy0  1  0.250000  0.686173  0.556479  1
  Dy  Dy1  1  0.750000  0.313827  0.443521  1
  Dy  Dy2  1  0.750000  0.818151  0.051645  1
  Dy  Dy3  1  0.250000  0.181849  0.948355  1
  Dy  Dy4  1  0.250000  0.524355  0.216389  1
  Dy  Dy5  1  0.750000  0.475645  0.783611  1
  Dy  Dy6  1  0.750000  0.975965  0.715154  1
  Dy  Dy7  1  0.250000  0.024035  0.284846  1
  Mn  Mn8  1  0.250000  0.729277  0.860719  1
  Mn  Mn9  1  0.750000  0.270723  0.139281  1
  Os  Os10  1  0.750000  0.772696  0.360169  1
  Os  Os11  1  0.250000  0.227304  0.639831  1
  C  C12  1  0.250000  0.471235  0.764084  1
  C  C13  1  0.750000  0.528765  0.235916  1
  C  C14  1  0.750000  0.043516  0.253890  1
  C  C15  1  0.250000  0.956484  0.746110  1
  C  C16  1  0.250000  0.811819  0.038243  1
  C  C17  1  0.750000  0.188181  0.961757  1
  C  C18  1  0.750000  0.679289  0.548686  1
  C  C19  1  0.250000  0.320711  0.451314  1
