# generated using pymatgen
data_Dy16Ho3MgIr12
_symmetry_space_group_name_H-M   'P 1'
_cell_length_a   10.85592500
_cell_length_b   10.85592500
_cell_length_c   6.31111400
_cell_angle_alpha   90.00000000
_cell_angle_beta   90.00000000
_cell_angle_gamma   90.00000000
_symmetry_Int_Tables_number   1
_chemical_formula_structural   Dy16Ho3MgIr12
_chemical_formula_sum   'Dy16 Ho3 Mg1 Ir12'
_cell_volume   743.77177513
_cell_formula_units_Z   1
loop_
 _symmetry_equiv_pos_site_id
 _symmetry_equiv_pos_as_xyz
  1  'x, y, z'
loop_
 _atom_site_type_symbol
 _atom_site_label
 _atom_site_symmetry_multiplicity
 _atom_site_fract_x
 _atom_site_fract_y
 _atom_site_fract_z
 _atom_site_occupancy
  Dy  Dy0  1  0.284472  0.084964  0.379058  1
  Dy  Dy1  1  0.290294  0.911913  0.879270  1
  Dy  Dy2  1  0.709706  0.088087  0.879270  1
  Dy  Dy3  1  0.715528  0.915036  0.379058  1
  Dy  Dy4  1  0.588817  0.791680  0.879456  1
  Dy  Dy5  1  0.587929  0.208147  0.377736  1
  Dy  Dy6  1  0.412071  0.791853  0.377736  1
  Dy  Dy7  1  0.411183  0.208320  0.879456  1
  Dy  Dy8  1  0.208147  0.412071  0.622264  1
  Dy  Dy9  1  0.208320  0.588817  0.120544  1
  Dy  Dy10  1  0.791680  0.411183  0.120544  1
  Dy  Dy11  1  0.791853  0.587929  0.622264  1
  Dy  Dy12  1  0.911913  0.709706  0.120730  1
  Dy  Dy13  1  0.915036  0.284472  0.620942  1
  Dy  Dy14  1  0.084964  0.715528  0.620942  1
  Dy  Dy15  1  0.088087  0.290294  0.120730  1
  Ho  Ho16  1  0.000000  0.000000  0.000000  1
  Ho  Ho17  1  0.500000  0.500000  0.000000  1
  Ho  Ho18  1  0.500000  0.500000  0.500000  1
  Mg  Mg19  1  0.000000  0.000000  0.500000  1
  Ir  Ir20  1  0.846504  0.153867  0.248046  1
  Ir  Ir21  1  0.846133  0.846504  0.751954  1
  Ir  Ir22  1  0.153867  0.153496  0.751954  1
  Ir  Ir23  1  0.153496  0.846133  0.248046  1
  Ir  Ir24  1  0.654062  0.346389  0.748491  1
  Ir  Ir25  1  0.653611  0.654062  0.251509  1
  Ir  Ir26  1  0.346389  0.345938  0.251509  1
  Ir  Ir27  1  0.345938  0.653611  0.748491  1
  Ir  Ir28  1  0.500000  0.000000  0.123500  1
  Ir  Ir29  1  0.500000  0.000000  0.620325  1
  Ir  Ir30  1  0.000000  0.500000  0.876500  1
  Ir  Ir31  1  0.000000  0.500000  0.379675  1
