# generated using pymatgen
data_TbTh3(Zn5Sn)2
_symmetry_space_group_name_H-M   'P 1'
_cell_length_a   8.53338676
_cell_length_b   8.53338840
_cell_length_c   9.03788546
_cell_angle_alpha   89.01889333
_cell_angle_beta   90.98110846
_cell_angle_gamma   149.52985516
_symmetry_Int_Tables_number   1
_chemical_formula_structural   TbTh3(Zn5Sn)2
_chemical_formula_sum   'Tb1 Th3 Zn10 Sn2'
_cell_volume   333.67667164
_cell_formula_units_Z   1
loop_
 _symmetry_equiv_pos_site_id
 _symmetry_equiv_pos_as_xyz
  1  'x, y, z'
loop_
 _atom_site_type_symbol
 _atom_site_label
 _atom_site_symmetry_multiplicity
 _atom_site_fract_x
 _atom_site_fract_y
 _atom_site_fract_z
 _atom_site_occupancy
  Tb  Tb0  1  0.000000  0.000000  0.000000  1
  Th  Th1  1  0.204024  0.795976  0.249484  1
  Th  Th2  1  0.795976  0.204024  0.750516  1
  Th  Th3  1  0.000000  0.000000  0.500000  1
  Zn  Zn4  1  0.814918  0.185082  0.393899  1
  Zn  Zn5  1  0.185082  0.814918  0.606101  1
  Zn  Zn6  1  0.817251  0.182749  0.109010  1
  Zn  Zn7  1  0.182749  0.817251  0.890990  1
  Zn  Zn8  1  0.656503  0.343497  0.481379  1
  Zn  Zn9  1  0.343497  0.656503  0.518621  1
  Zn  Zn10  1  0.657182  0.342818  0.016139  1
  Zn  Zn11  1  0.342818  0.657182  0.983861  1
  Zn  Zn12  1  0.394205  0.605795  0.253140  1
  Zn  Zn13  1  0.605795  0.394205  0.746860  1
  Sn  Sn14  1  0.553637  0.446363  0.245125  1
  Sn  Sn15  1  0.446363  0.553637  0.754875  1
