# generated using pymatgen
data_Ti8Al14GaPt4Rh3
_symmetry_space_group_name_H-M   'P 1'
_cell_length_a   8.68010630
_cell_length_b   8.67878351
_cell_length_c   8.69534230
_cell_angle_alpha   120.04486168
_cell_angle_beta   119.89846893
_cell_angle_gamma   90.03916430
_symmetry_Int_Tables_number   1
_chemical_formula_structural   Ti8Al14GaPt4Rh3
_chemical_formula_sum   'Ti8 Al14 Ga1 Pt4 Rh3'
_cell_volume   463.42373579
_cell_formula_units_Z   1
loop_
 _symmetry_equiv_pos_site_id
 _symmetry_equiv_pos_as_xyz
  1  'x, y, z'
loop_
 _atom_site_type_symbol
 _atom_site_label
 _atom_site_symmetry_multiplicity
 _atom_site_fract_x
 _atom_site_fract_y
 _atom_site_fract_z
 _atom_site_occupancy
  Ti  Ti0  1  0.790580  0.292550  0.080122  1
  Ti  Ti1  1  0.213440  0.291770  0.502183  1
  Ti  Ti2  1  0.209360  0.709725  0.500773  1
  Ti  Ti3  1  0.212093  0.710919  0.918927  1
  Ti  Ti4  1  0.792007  0.712136  0.499823  1
  Ti  Ti5  1  0.787001  0.287095  0.499855  1
  Ti  Ti6  1  0.379270  0.121080  0.740659  1
  Ti  Ti7  1  0.374932  0.637810  0.256189  1
  Al  Al8  1  0.153289  0.341198  0.182763  1
  Al  Al9  1  0.156066  0.973968  0.817086  1
  Al  Al10  1  0.153450  0.343374  0.814010  1
  Al  Al11  1  0.528976  0.342791  0.186721  1
  Al  Al12  1  0.847353  0.657024  0.815135  1
  Al  Al13  1  0.846532  0.032469  0.186690  1
  Al  Al14  1  0.844689  0.655268  0.183184  1
  Al  Al15  1  0.472660  0.656820  0.814424  1
  Al  Al16  1  0.374429  0.117793  0.258365  1
  Al  Al17  1  0.860401  0.122660  0.745369  1
  Al  Al18  1  0.620910  0.879370  0.259939  1
  Al  Al19  1  0.625123  0.362063  0.743507  1
  Al  Al20  1  0.626040  0.881125  0.743205  1
  Al  Al21  1  0.136531  0.877061  0.253500  1
  Ga  Ga22  1  0.997936  0.497463  0.499396  1
  Pt  Pt23  1  0.998460  0.998699  0.498458  1
  Pt  Pt24  1  0.500201  0.998999  0.000328  1
  Pt  Pt25  1  0.500016  0.500854  0.000488  1
  Pt  Pt26  1  0.499526  0.499759  0.499779  1
  Rh  Rh27  1  0.000110  0.499663  0.999998  1
  Rh  Rh28  1  0.000630  0.000159  0.999410  1
  Rh  Rh29  1  0.497985  0.998332  0.499713  1
