# generated using pymatgen
data_Yb7ZrBi6
_symmetry_space_group_name_H-M   'P 1'
_cell_length_a   8.13171660
_cell_length_b   8.30434541
_cell_length_c   8.30434470
_cell_angle_alpha   109.88848534
_cell_angle_beta   109.05066360
_cell_angle_gamma   109.05066124
_symmetry_Int_Tables_number   1
_chemical_formula_structural   Yb7ZrBi6
_chemical_formula_sum   'Yb7 Zr1 Bi6'
_cell_volume   433.90927497
_cell_formula_units_Z   1
loop_
 _symmetry_equiv_pos_site_id
 _symmetry_equiv_pos_as_xyz
  1  'x, y, z'
loop_
 _atom_site_type_symbol
 _atom_site_label
 _atom_site_symmetry_multiplicity
 _atom_site_fract_x
 _atom_site_fract_y
 _atom_site_fract_z
 _atom_site_occupancy
  Yb  Yb0  1  0.643525  0.500000  0.000000  1
  Yb  Yb1  1  0.501376  0.003030  0.653343  1
  Yb  Yb2  1  0.361138  0.356059  0.356674  1
  Yb  Yb3  1  0.505080  0.000615  0.143941  1
  Yb  Yb4  1  0.998346  0.650313  0.496970  1
  Yb  Yb5  1  0.848033  0.846657  0.849687  1
  Yb  Yb6  1  0.004464  0.143326  0.499385  1
  Zr  Zr7  1  0.131774  0.500000  0.000000  1
  Bi  Bi8  1  0.364340  0.618923  0.754890  1
  Bi  Bi9  1  0.888974  0.258240  0.121626  1
  Bi  Bi10  1  0.609450  0.745110  0.364034  1
  Bi  Bi11  1  0.130734  0.863386  0.241760  1
  Bi  Bi12  1  0.245417  0.135966  0.881077  1
  Bi  Bi13  1  0.767348  0.378374  0.636614  1
