# generated using pymatgen
data_Ho6Si24Os3Ru5
_symmetry_space_group_name_H-M   'P 1'
_cell_length_a   10.11333402
_cell_length_b   10.11333453
_cell_length_c   8.14208500
_cell_angle_alpha   90.00022282
_cell_angle_beta   90.00022433
_cell_angle_gamma   132.52358762
_symmetry_Int_Tables_number   1
_chemical_formula_structural   Ho6Si24Os3Ru5
_chemical_formula_sum   'Ho6 Si24 Os3 Ru5'
_cell_volume   613.74976805
_cell_formula_units_Z   1
loop_
 _symmetry_equiv_pos_site_id
 _symmetry_equiv_pos_as_xyz
  1  'x, y, z'
loop_
 _atom_site_type_symbol
 _atom_site_label
 _atom_site_symmetry_multiplicity
 _atom_site_fract_x
 _atom_site_fract_y
 _atom_site_fract_z
 _atom_site_occupancy
  Ho  Ho0  1  0.500011  0.499989  0.500000  1
  Ho  Ho1  1  0.999941  0.000059  0.000000  1
  Ho  Ho2  1  0.502430  0.002494  0.750191  1
  Ho  Ho3  1  0.997506  0.497570  0.249809  1
  Ho  Ho4  1  0.497663  0.997445  0.249692  1
  Ho  Ho5  1  0.002555  0.502337  0.750308  1
  Si  Si6  1  0.795899  0.204101  0.500000  1
  Si  Si7  1  0.295816  0.704184  0.000000  1
  Si  Si8  1  0.204194  0.795806  0.500000  1
  Si  Si9  1  0.704782  0.295218  0.000000  1
  Si  Si10  1  0.332635  0.332411  0.833579  1
  Si  Si11  1  0.667589  0.667365  0.166421  1
  Si  Si12  1  0.166587  0.166705  0.332649  1
  Si  Si13  1  0.833295  0.833413  0.667351  1
  Si  Si14  1  0.121779  0.888489  0.728358  1
  Si  Si15  1  0.111511  0.878221  0.271642  1
  Si  Si16  1  0.612232  0.378401  0.227382  1
  Si  Si17  1  0.621599  0.387768  0.772618  1
  Si  Si18  1  0.877741  0.111473  0.270652  1
  Si  Si19  1  0.888527  0.122259  0.729348  1
  Si  Si20  1  0.388455  0.622185  0.772243  1
  Si  Si21  1  0.377815  0.611545  0.227757  1
  Si  Si22  1  0.344875  0.111675  0.505751  1
  Si  Si23  1  0.888325  0.655125  0.494249  1
  Si  Si24  1  0.388476  0.155480  0.004829  1
  Si  Si25  1  0.844520  0.611524  0.995171  1
  Si  Si26  1  0.655343  0.888499  0.494041  1
  Si  Si27  1  0.111501  0.344657  0.505959  1
  Si  Si28  1  0.612853  0.846210  0.994499  1
  Si  Si29  1  0.153790  0.387147  0.005501  1
  Os  Os30  1  0.669857  0.330143  0.500000  1
  Os  Os31  1  0.169863  0.830137  0.000000  1
  Os  Os32  1  0.330132  0.669868  0.500000  1
  Ru  Ru33  1  0.830035  0.169965  0.000000  1
  Ru  Ru34  1  0.127917  0.127767  0.626934  1
  Ru  Ru35  1  0.872233  0.872083  0.373066  1
  Ru  Ru36  1  0.373433  0.373710  0.128092  1
  Ru  Ru37  1  0.626290  0.626567  0.871908  1
