# generated using pymatgen
data_Ce3Tm2Zr5Sn6
_symmetry_space_group_name_H-M   'P 1'
_cell_length_a   6.03455101
_cell_length_b   8.91213269
_cell_length_c   8.81597841
_cell_angle_alpha   120.36145946
_cell_angle_beta   89.99967628
_cell_angle_gamma   90.00061439
_symmetry_Int_Tables_number   1
_chemical_formula_structural   Ce3Tm2Zr5Sn6
_chemical_formula_sum   'Ce3 Tm2 Zr5 Sn6'
_cell_volume   409.10460887
_cell_formula_units_Z   1
loop_
 _symmetry_equiv_pos_site_id
 _symmetry_equiv_pos_as_xyz
  1  'x, y, z'
loop_
 _atom_site_type_symbol
 _atom_site_label
 _atom_site_symmetry_multiplicity
 _atom_site_fract_x
 _atom_site_fract_y
 _atom_site_fract_z
 _atom_site_occupancy
  Ce  Ce0  1  0.750000  0.763229  0.767621  1
  Ce  Ce1  1  0.750000  0.995606  0.232379  1
  Ce  Ce2  1  0.250043  0.755141  0.000000  1
  Tm  Tm3  1  0.249976  0.242315  0.240182  1
  Tm  Tm4  1  0.249976  0.002132  0.759818  1
  Zr  Zr5  1  0.500539  0.334666  0.667243  1
  Zr  Zr6  1  0.500539  0.667423  0.332757  1
  Zr  Zr7  1  0.999472  0.667411  0.332755  1
  Zr  Zr8  1  0.999472  0.334656  0.667245  1
  Zr  Zr9  1  0.750006  0.247932  0.000000  1
  Sn  Sn10  1  0.750034  0.586433  0.000000  1
  Sn  Sn11  1  0.749968  0.399214  0.392085  1
  Sn  Sn12  1  0.749968  0.007129  0.607915  1
  Sn  Sn13  1  0.250029  0.394102  0.000000  1
  Sn  Sn14  1  0.249990  0.598110  0.593611  1
  Sn  Sn15  1  0.249990  0.004499  0.406389  1
