# generated using pymatgen
data_Li4Ac3SmSi8
_symmetry_space_group_name_H-M   'P 1'
_cell_length_a   3.96821200
_cell_length_b   7.92208927
_cell_length_c   10.92984946
_cell_angle_alpha   90.10373244
_cell_angle_beta   90.00000000
_cell_angle_gamma   90.00000000
_symmetry_Int_Tables_number   1
_chemical_formula_structural   Li4Ac3SmSi8
_chemical_formula_sum   'Li4 Ac3 Sm1 Si8'
_cell_volume   343.59597412
_cell_formula_units_Z   1
loop_
 _symmetry_equiv_pos_site_id
 _symmetry_equiv_pos_as_xyz
  1  'x, y, z'
loop_
 _atom_site_type_symbol
 _atom_site_label
 _atom_site_symmetry_multiplicity
 _atom_site_fract_x
 _atom_site_fract_y
 _atom_site_fract_z
 _atom_site_occupancy
  Li  Li0  1  0.250000  0.993585  0.389623  1
  Li  Li1  1  0.250000  0.501358  0.113239  1
  Li  Li2  1  0.750000  0.000641  0.606207  1
  Li  Li3  1  0.750000  0.503421  0.888664  1
  Ac  Ac4  1  0.250000  0.143062  0.867462  1
  Ac  Ac5  1  0.250000  0.636562  0.632198  1
  Ac  Ac6  1  0.750000  0.863141  0.135466  1
  Sm  Sm7  1  0.750000  0.366156  0.367130  1
  Si  Si8  1  0.250000  0.219553  0.566538  1
  Si  Si9  1  0.250000  0.719174  0.924042  1
  Si  Si10  1  0.750000  0.768892  0.423226  1
  Si  Si11  1  0.750000  0.288877  0.084513  1
  Si  Si12  1  0.250000  0.658170  0.322833  1
  Si  Si13  1  0.250000  0.178536  0.186111  1
  Si  Si14  1  0.750000  0.327660  0.668728  1
  Si  Si15  1  0.750000  0.831212  0.824022  1
