# generated using pymatgen
data_Ce(Sc2Co)2
_symmetry_space_group_name_H-M   'P 1'
_cell_length_a   8.21818565
_cell_length_b   8.21818629
_cell_length_c   6.46507800
_cell_angle_alpha   84.75428716
_cell_angle_beta   84.75428674
_cell_angle_gamma   42.66444246
_symmetry_Int_Tables_number   1
_chemical_formula_structural   Ce(Sc2Co)2
_chemical_formula_sum   'Ce2 Sc8 Co4'
_cell_volume   294.48508766
_cell_formula_units_Z   2
loop_
 _symmetry_equiv_pos_site_id
 _symmetry_equiv_pos_as_xyz
  1  'x, y, z'
loop_
 _atom_site_type_symbol
 _atom_site_label
 _atom_site_symmetry_multiplicity
 _atom_site_fract_x
 _atom_site_fract_y
 _atom_site_fract_z
 _atom_site_occupancy
  Ce  Ce0  1  0.205871  0.990463  0.594907  1
  Ce  Ce1  1  0.009537  0.794129  0.905093  1
  Sc  Sc2  1  0.221556  0.350917  0.315097  1
  Sc  Sc3  1  0.649083  0.778444  0.184903  1
  Sc  Sc4  1  0.790746  0.641495  0.677526  1
  Sc  Sc5  1  0.358505  0.209254  0.822474  1
  Sc  Sc6  1  0.975610  0.214966  0.087551  1
  Sc  Sc7  1  0.785034  0.024390  0.412449  1
  Sc  Sc8  1  0.569852  0.430148  0.750000  1
  Sc  Sc9  1  0.426757  0.573243  0.250000  1
  Co  Co10  1  0.165220  0.611773  0.584083  1
  Co  Co11  1  0.388227  0.834780  0.915917  1
  Co  Co12  1  0.838975  0.384973  0.431729  1
  Co  Co13  1  0.615027  0.161025  0.068271  1
