# generated using pymatgen
data_Y5Er11Cd4IrOsPt2
_symmetry_space_group_name_H-M   'P 1'
_cell_length_a   9.66581013
_cell_length_b   9.63298933
_cell_length_c   9.63298647
_cell_angle_alpha   59.37840674
_cell_angle_beta   59.44426034
_cell_angle_gamma   59.44423861
_symmetry_Int_Tables_number   1
_chemical_formula_structural   Y5Er11Cd4IrOsPt2
_chemical_formula_sum   'Y5 Er11 Cd4 Ir1 Os1 Pt2'
_cell_volume   625.89060474
_cell_formula_units_Z   1
loop_
 _symmetry_equiv_pos_site_id
 _symmetry_equiv_pos_as_xyz
  1  'x, y, z'
loop_
 _atom_site_type_symbol
 _atom_site_label
 _atom_site_symmetry_multiplicity
 _atom_site_fract_x
 _atom_site_fract_y
 _atom_site_fract_z
 _atom_site_occupancy
  Y  Y0  1  0.558520  0.938789  0.938790  1
  Y  Y1  1  0.566631  0.936408  0.560600  1
  Y  Y2  1  0.939301  0.556234  0.938256  1
  Y  Y3  1  0.566631  0.560600  0.936408  1
  Y  Y4  1  0.939301  0.938256  0.556234  1
  Er  Er5  1  0.353280  0.349414  0.349415  1
  Er  Er6  1  0.350517  0.347364  0.954184  1
  Er  Er7  1  0.350518  0.954184  0.347364  1
  Er  Er8  1  0.946528  0.351257  0.351257  1
  Er  Er9  1  0.812770  0.188115  0.188114  1
  Er  Er10  1  0.189205  0.809224  0.809223  1
  Er  Er11  1  0.189329  0.814635  0.188659  1
  Er  Er12  1  0.807328  0.187381  0.813509  1
  Er  Er13  1  0.189327  0.188659  0.814636  1
  Er  Er14  1  0.807329  0.813509  0.187381  1
  Er  Er15  1  0.939411  0.562578  0.562577  1
  Cd  Cd16  1  0.579490  0.579289  0.579287  1
  Cd  Cd17  1  0.580221  0.580819  0.255116  1
  Cd  Cd18  1  0.580222  0.255115  0.580818  1
  Cd  Cd19  1  0.255614  0.580375  0.580373  1
  Ir  Ir20  1  0.575120  0.144061  0.144062  1
  Os  Os21  1  0.140121  0.144397  0.144398  1
  Pt  Pt22  1  0.141644  0.144899  0.574439  1
  Pt  Pt23  1  0.141645  0.574438  0.144900  1
