# generated using pymatgen
data_Lu3In(HgPt)2
_symmetry_space_group_name_H-M   'P 1'
_cell_length_a   7.64365610
_cell_length_b   7.64365650
_cell_length_c   3.53414800
_cell_angle_alpha   90.00000000
_cell_angle_beta   90.00000000
_cell_angle_gamma   120.27553412
_symmetry_Int_Tables_number   1
_chemical_formula_structural   Lu3In(HgPt)2
_chemical_formula_sum   'Lu3 In1 Hg2 Pt2'
_cell_volume   178.32209331
_cell_formula_units_Z   1
loop_
 _symmetry_equiv_pos_site_id
 _symmetry_equiv_pos_as_xyz
  1  'x, y, z'
loop_
 _atom_site_type_symbol
 _atom_site_label
 _atom_site_symmetry_multiplicity
 _atom_site_fract_x
 _atom_site_fract_y
 _atom_site_fract_z
 _atom_site_occupancy
  Lu  Lu0  1  0.577477  0.998912  0.500000  1
  Lu  Lu1  1  0.418799  0.418798  0.500000  1
  Lu  Lu2  1  0.998912  0.577477  0.500000  1
  In  In3  1  0.772579  0.772579  0.000000  1
  Hg  Hg4  1  0.229902  0.999249  0.000000  1
  Hg  Hg5  1  0.999249  0.229903  0.000000  1
  Pt  Pt6  1  0.666945  0.336137  0.000000  1
  Pt  Pt7  1  0.336138  0.666946  0.000000  1
