# generated using pymatgen
data_Er2LuFe9
_symmetry_space_group_name_H-M   'P 1'
_cell_length_a   5.05840039
_cell_length_b   5.05840116
_cell_length_c   8.56164282
_cell_angle_alpha   107.18216868
_cell_angle_beta   72.81784145
_cell_angle_gamma   120.00000863
_symmetry_Int_Tables_number   1
_chemical_formula_structural   Er2LuFe9
_chemical_formula_sum   'Er2 Lu1 Fe9'
_cell_volume   178.34161300
_cell_formula_units_Z   1
loop_
 _symmetry_equiv_pos_site_id
 _symmetry_equiv_pos_as_xyz
  1  'x, y, z'
loop_
 _atom_site_type_symbol
 _atom_site_label
 _atom_site_symmetry_multiplicity
 _atom_site_fract_x
 _atom_site_fract_y
 _atom_site_fract_z
 _atom_site_occupancy
  Er  Er0  1  0.999928  0.000072  0.000215  1
  Er  Er1  1  0.141931  0.858069  0.574208  1
  Lu  Lu2  1  0.858152  0.141850  0.425548  1
  Fe  Fe3  1  0.667301  0.332701  0.998099  1
  Fe  Fe4  1  0.332721  0.667279  0.001838  1
  Fe  Fe5  1  0.918299  0.582093  0.245886  1
  Fe  Fe6  1  0.417909  0.081701  0.245886  1
  Fe  Fe7  1  0.417909  0.582094  0.245886  1
  Fe  Fe8  1  0.500048  0.499953  0.499859  1
  Fe  Fe9  1  0.582174  0.417826  0.754191  1
  Fe  Fe10  1  0.582174  0.918541  0.754191  1
  Fe  Fe11  1  0.081459  0.417826  0.754191  1
