# generated using pymatgen
data_Tm4Ta2B4(IrRu)5
_symmetry_space_group_name_H-M   'P 1'
_cell_length_a   9.69640705
_cell_length_b   9.69037205
_cell_length_c   3.10832800
_cell_angle_alpha   90.00000000
_cell_angle_beta   90.00000000
_cell_angle_gamma   90.01189255
_symmetry_Int_Tables_number   1
_chemical_formula_structural   Tm4Ta2B4(IrRu)5
_chemical_formula_sum   'Tm4 Ta2 B4 Ir5 Ru5'
_cell_volume   292.06406242
_cell_formula_units_Z   1
loop_
 _symmetry_equiv_pos_site_id
 _symmetry_equiv_pos_as_xyz
  1  'x, y, z'
loop_
 _atom_site_type_symbol
 _atom_site_label
 _atom_site_symmetry_multiplicity
 _atom_site_fract_x
 _atom_site_fract_y
 _atom_site_fract_z
 _atom_site_occupancy
  Tm  Tm0  1  0.824686  0.674740  0.000000  1
  Tm  Tm1  1  0.173429  0.322680  0.000000  1
  Tm  Tm2  1  0.325723  0.829249  0.000000  1
  Tm  Tm3  1  0.675017  0.173542  0.000000  1
  Ta  Ta4  1  0.504987  0.498345  0.000000  1
  Ta  Ta5  1  0.999256  0.000088  0.000000  1
  B  B6  1  0.623632  0.885869  0.000000  1
  B  B7  1  0.375817  0.114649  0.000000  1
  B  B8  1  0.118495  0.616882  0.000000  1
  B  B9  1  0.877151  0.383472  0.000000  1
  Ir  Ir10  1  0.569872  0.719980  0.500000  1
  Ir  Ir11  1  0.428626  0.280726  0.500000  1
  Ir  Ir12  1  0.072387  0.779642  0.500000  1
  Ir  Ir13  1  0.928647  0.220047  0.500000  1
  Ir  Ir14  1  0.282420  0.570292  0.500000  1
  Ru  Ru15  1  0.718877  0.429683  0.500000  1
  Ru  Ru16  1  0.217744  0.070795  0.500000  1
  Ru  Ru17  1  0.782048  0.928527  0.500000  1
  Ru  Ru18  1  0.500335  0.000769  0.500000  1
  Ru  Ru19  1  0.000853  0.500023  0.500000  1
