# generated using pymatgen
data_LiNdNi3Ir
_symmetry_space_group_name_H-M   'P 1'
_cell_length_a   5.09442863
_cell_length_b   5.09442899
_cell_length_c   5.09442802
_cell_angle_alpha   58.94333792
_cell_angle_beta   58.94334081
_cell_angle_gamma   58.94332667
_symmetry_Int_Tables_number   1
_chemical_formula_structural   LiNdNi3Ir
_chemical_formula_sum   'Li1 Nd1 Ni3 Ir1'
_cell_volume   91.23718137
_cell_formula_units_Z   1
loop_
 _symmetry_equiv_pos_site_id
 _symmetry_equiv_pos_as_xyz
  1  'x, y, z'
loop_
 _atom_site_type_symbol
 _atom_site_label
 _atom_site_symmetry_multiplicity
 _atom_site_fract_x
 _atom_site_fract_y
 _atom_site_fract_z
 _atom_site_occupancy
  Li  Li0  1  0.999805  0.999805  0.999805  1
  Nd  Nd1  1  0.250777  0.250777  0.250777  1
  Ni  Ni2  1  0.123012  0.625396  0.625396  1
  Ni  Ni3  1  0.625396  0.123012  0.625396  1
  Ni  Ni4  1  0.625396  0.625396  0.123012  1
  Ir  Ir5  1  0.625615  0.625615  0.625615  1
