# generated using pymatgen
data_DyLuU8(Re3C8)2
_symmetry_space_group_name_H-M   'P 1'
_cell_length_a   11.35116005
_cell_length_b   11.35116005
_cell_length_c   3.26156500
_cell_angle_alpha   90.00000000
_cell_angle_beta   90.00000000
_cell_angle_gamma   90.01031723
_symmetry_Int_Tables_number   1
_chemical_formula_structural   DyLuU8(Re3C8)2
_chemical_formula_sum   'Dy1 Lu1 U8 Re6 C16'
_cell_volume   420.24884172
_cell_formula_units_Z   1
loop_
 _symmetry_equiv_pos_site_id
 _symmetry_equiv_pos_as_xyz
  1  'x, y, z'
loop_
 _atom_site_type_symbol
 _atom_site_label
 _atom_site_symmetry_multiplicity
 _atom_site_fract_x
 _atom_site_fract_y
 _atom_site_fract_z
 _atom_site_occupancy
  Dy  Dy0  1  0.500000  0.000000  0.000000  1
  Lu  Lu1  1  0.000000  0.500000  0.000000  1
  U  U2  1  0.270144  0.542148  0.500000  1
  U  U3  1  0.729856  0.457852  0.500000  1
  U  U4  1  0.542484  0.728588  0.500000  1
  U  U5  1  0.771412  0.957516  0.500000  1
  U  U6  1  0.228588  0.042484  0.500000  1
  U  U7  1  0.957852  0.229856  0.500000  1
  U  U8  1  0.457516  0.271412  0.500000  1
  U  U9  1  0.042148  0.770144  0.500000  1
  Re  Re10  1  0.201988  0.298012  0.000000  1
  Re  Re11  1  0.703669  0.203669  0.000000  1
  Re  Re12  1  0.296331  0.796331  0.000000  1
  Re  Re13  1  0.500000  0.500000  0.000000  1
  Re  Re14  1  0.798012  0.701988  0.000000  1
  Re  Re15  1  0.000000  0.000000  0.000000  1
  C  C16  1  0.346795  0.403007  0.000000  1
  C  C17  1  0.619202  0.119202  0.500000  1
  C  C18  1  0.903007  0.846795  0.000000  1
  C  C19  1  0.655968  0.844032  0.000000  1
  C  C20  1  0.344032  0.155968  0.000000  1
  C  C21  1  0.116237  0.383763  0.500000  1
  C  C22  1  0.152685  0.902463  0.000000  1
  C  C23  1  0.846553  0.346553  0.000000  1
  C  C24  1  0.653205  0.596993  0.000000  1
  C  C25  1  0.597537  0.347315  0.000000  1
  C  C26  1  0.883763  0.616237  0.500000  1
  C  C27  1  0.847315  0.097537  0.000000  1
  C  C28  1  0.380798  0.880798  0.500000  1
  C  C29  1  0.153447  0.653447  0.000000  1
  C  C30  1  0.096993  0.153205  0.000000  1
  C  C31  1  0.402463  0.652685  0.000000  1
