# generated using pymatgen
data_Tb2Ho2Sc3AlPt4
_symmetry_space_group_name_H-M   'P 1'
_cell_length_a   4.51634300
_cell_length_b   7.03296613
_cell_length_c   8.29184527
_cell_angle_alpha   86.89758210
_cell_angle_beta   90.00000000
_cell_angle_gamma   90.00000000
_symmetry_Int_Tables_number   1
_chemical_formula_structural   Tb2Ho2Sc3AlPt4
_chemical_formula_sum   'Tb2 Ho2 Sc3 Al1 Pt4'
_cell_volume   262.99025627
_cell_formula_units_Z   1
loop_
 _symmetry_equiv_pos_site_id
 _symmetry_equiv_pos_as_xyz
  1  'x, y, z'
loop_
 _atom_site_type_symbol
 _atom_site_label
 _atom_site_symmetry_multiplicity
 _atom_site_fract_x
 _atom_site_fract_y
 _atom_site_fract_z
 _atom_site_occupancy
  Tb  Tb0  1  0.250000  0.040288  0.672199  1
  Tb  Tb1  1  0.750000  0.986648  0.339423  1
  Ho  Ho2  1  0.250000  0.522524  0.815761  1
  Ho  Ho3  1  0.750000  0.468328  0.183792  1
  Sc  Sc4  1  0.250000  0.134113  0.069585  1
  Sc  Sc5  1  0.250000  0.637563  0.435964  1
  Sc  Sc6  1  0.750000  0.863199  0.929148  1
  Al  Al7  1  0.750000  0.360225  0.567678  1
  Pt  Pt8  1  0.250000  0.264464  0.382784  1
  Pt  Pt9  1  0.250000  0.748125  0.101342  1
  Pt  Pt10  1  0.750000  0.728564  0.615063  1
  Pt  Pt11  1  0.750000  0.245961  0.887260  1
