# generated using pymatgen
data_Y12CoCuTc2
_symmetry_space_group_name_H-M   'P 1'
_cell_length_a   6.40921886
_cell_length_b   7.24047008
_cell_length_c   9.27230300
_cell_angle_alpha   90.00000000
_cell_angle_beta   90.00000000
_cell_angle_gamma   89.83376376
_symmetry_Int_Tables_number   1
_chemical_formula_structural   Y12CoCuTc2
_chemical_formula_sum   'Y12 Co1 Cu1 Tc2'
_cell_volume   430.28643232
_cell_formula_units_Z   1
loop_
 _symmetry_equiv_pos_site_id
 _symmetry_equiv_pos_as_xyz
  1  'x, y, z'
loop_
 _atom_site_type_symbol
 _atom_site_label
 _atom_site_symmetry_multiplicity
 _atom_site_fract_x
 _atom_site_fract_y
 _atom_site_fract_z
 _atom_site_occupancy
  Y  Y0  1  0.334206  0.677727  0.062195  1
  Y  Y1  1  0.171014  0.182094  0.442093  1
  Y  Y2  1  0.669116  0.324218  0.565457  1
  Y  Y3  1  0.821331  0.818356  0.930722  1
  Y  Y4  1  0.669116  0.324218  0.934543  1
  Y  Y5  1  0.821331  0.818356  0.569278  1
  Y  Y6  1  0.334206  0.677727  0.437805  1
  Y  Y7  1  0.171014  0.182094  0.057907  1
  Y  Y8  1  0.867370  0.531398  0.250000  1
  Y  Y9  1  0.628097  0.043016  0.250000  1
  Y  Y10  1  0.139590  0.460558  0.750000  1
  Y  Y11  1  0.369905  0.953704  0.750000  1
  Co  Co12  1  0.536041  0.614913  0.750000  1
  Cu  Cu13  1  0.046509  0.891989  0.250000  1
  Tc  Tc14  1  0.454956  0.390419  0.250000  1
  Tc  Tc15  1  0.966199  0.109211  0.750000  1
