# generated using pymatgen
data_Ce3Th(ZnRh)4
_symmetry_space_group_name_H-M   'P 1'
_cell_length_a   3.90360900
_cell_length_b   7.48721700
_cell_length_c   16.35707800
_cell_angle_alpha   90.00000000
_cell_angle_beta   90.00000000
_cell_angle_gamma   90.00000000
_symmetry_Int_Tables_number   1
_chemical_formula_structural   Ce3Th(ZnRh)4
_chemical_formula_sum   'Ce6 Th2 Zn8 Rh8'
_cell_volume   478.07106123
_cell_formula_units_Z   2
loop_
 _symmetry_equiv_pos_site_id
 _symmetry_equiv_pos_as_xyz
  1  'x, y, z'
loop_
 _atom_site_type_symbol
 _atom_site_label
 _atom_site_symmetry_multiplicity
 _atom_site_fract_x
 _atom_site_fract_y
 _atom_site_fract_z
 _atom_site_occupancy
  Ce  Ce0  1  0.250000  0.063172  0.716121  1
  Ce  Ce1  1  0.250000  0.174781  0.940139  1
  Ce  Ce2  1  0.750000  0.939499  0.285113  1
  Ce  Ce3  1  0.250000  0.560501  0.785113  1
  Ce  Ce4  1  0.750000  0.436828  0.216121  1
  Ce  Ce5  1  0.750000  0.325219  0.440139  1
  Th  Th6  1  0.250000  0.676926  0.560064  1
  Th  Th7  1  0.750000  0.823074  0.060064  1
  Zn  Zn8  1  0.250000  0.112765  0.154739  1
  Zn  Zn9  1  0.750000  0.500860  0.939250  1
  Zn  Zn10  1  0.750000  0.009021  0.560753  1
  Zn  Zn11  1  0.750000  0.387235  0.654739  1
  Zn  Zn12  1  0.750000  0.890149  0.845617  1
  Zn  Zn13  1  0.250000  0.490979  0.060753  1
  Zn  Zn14  1  0.250000  0.609851  0.345617  1
  Zn  Zn15  1  0.250000  0.999140  0.439250  1
  Rh  Rh16  1  0.750000  0.747989  0.436810  1
  Rh  Rh17  1  0.750000  0.260036  0.814322  1
  Rh  Rh18  1  0.750000  0.762306  0.685984  1
  Rh  Rh19  1  0.250000  0.737694  0.185984  1
  Rh  Rh20  1  0.250000  0.752011  0.936810  1
  Rh  Rh21  1  0.250000  0.259392  0.561088  1
  Rh  Rh22  1  0.750000  0.240608  0.061088  1
  Rh  Rh23  1  0.250000  0.239964  0.314322  1
