# generated using pymatgen
data_Ho2Be(SiMo)3
_symmetry_space_group_name_H-M   'P 1'
_cell_length_a   6.70899700
_cell_length_b   6.82776700
_cell_length_c   12.89819900
_cell_angle_alpha   90.00000000
_cell_angle_beta   90.00000000
_cell_angle_gamma   90.00000000
_symmetry_Int_Tables_number   1
_chemical_formula_structural   Ho2Be(SiMo)3
_chemical_formula_sum   'Ho8 Be4 Si12 Mo12'
_cell_volume   590.83384207
_cell_formula_units_Z   4
loop_
 _symmetry_equiv_pos_site_id
 _symmetry_equiv_pos_as_xyz
  1  'x, y, z'
loop_
 _atom_site_type_symbol
 _atom_site_label
 _atom_site_symmetry_multiplicity
 _atom_site_fract_x
 _atom_site_fract_y
 _atom_site_fract_z
 _atom_site_occupancy
  Ho  Ho0  1  0.501097  0.333674  0.096028  1
  Ho  Ho1  1  0.001097  0.166326  0.403972  1
  Ho  Ho2  1  0.498903  0.666326  0.596028  1
  Ho  Ho3  1  0.998903  0.833674  0.903972  1
  Ho  Ho4  1  0.498903  0.666326  0.903972  1
  Ho  Ho5  1  0.998903  0.833674  0.596028  1
  Ho  Ho6  1  0.501097  0.333674  0.403972  1
  Ho  Ho7  1  0.001097  0.166326  0.096028  1
  Be  Be8  1  0.543033  0.367716  0.750000  1
  Be  Be9  1  0.043033  0.132284  0.750000  1
  Be  Be10  1  0.456967  0.632284  0.250000  1
  Be  Be11  1  0.956967  0.867716  0.250000  1
  Si  Si12  1  0.660567  0.043708  0.543569  1
  Si  Si13  1  0.160567  0.456292  0.956431  1
  Si  Si14  1  0.339433  0.956292  0.043569  1
  Si  Si15  1  0.839433  0.543708  0.456431  1
  Si  Si16  1  0.339433  0.956292  0.456431  1
  Si  Si17  1  0.839433  0.543708  0.043569  1
  Si  Si18  1  0.660567  0.043708  0.956431  1
  Si  Si19  1  0.160567  0.456292  0.543569  1
  Si  Si20  1  0.795272  0.619580  0.750000  1
  Si  Si21  1  0.295272  0.880420  0.750000  1
  Si  Si22  1  0.204728  0.380420  0.250000  1
  Si  Si23  1  0.704728  0.119580  0.250000  1
  Mo  Mo24  1  0.838443  0.328265  0.628366  1
  Mo  Mo25  1  0.338443  0.171735  0.871634  1
  Mo  Mo26  1  0.161557  0.671735  0.128366  1
  Mo  Mo27  1  0.661557  0.828265  0.371634  1
  Mo  Mo28  1  0.161557  0.671735  0.371634  1
  Mo  Mo29  1  0.661557  0.828265  0.128366  1
  Mo  Mo30  1  0.838443  0.328265  0.871634  1
  Mo  Mo31  1  0.338443  0.171735  0.628366  1
  Mo  Mo32  1  0.664871  0.013350  0.750000  1
  Mo  Mo33  1  0.164871  0.486650  0.750000  1
  Mo  Mo34  1  0.335129  0.986650  0.250000  1
  Mo  Mo35  1  0.835129  0.513350  0.250000  1
