# generated using pymatgen
data_LaSm3V4(WO6)4
_symmetry_space_group_name_H-M   'P 1'
_cell_length_a   5.36931680
_cell_length_b   7.53939494
_cell_length_c   11.21395316
_cell_angle_alpha   90.09679428
_cell_angle_beta   90.19367379
_cell_angle_gamma   89.96916531
_symmetry_Int_Tables_number   1
_chemical_formula_structural   LaSm3V4(WO6)4
_chemical_formula_sum   'La1 Sm3 V4 W4 O24'
_cell_volume   453.95321729
_cell_formula_units_Z   1
loop_
 _symmetry_equiv_pos_site_id
 _symmetry_equiv_pos_as_xyz
  1  'x, y, z'
loop_
 _atom_site_type_symbol
 _atom_site_label
 _atom_site_symmetry_multiplicity
 _atom_site_fract_x
 _atom_site_fract_y
 _atom_site_fract_z
 _atom_site_occupancy
  La  La0  1  0.541243  0.253154  0.043752  1
  Sm  Sm1  1  0.045387  0.752951  0.454771  1
  Sm  Sm2  1  0.954747  0.253306  0.545556  1
  Sm  Sm3  1  0.453312  0.753094  0.953838  1
  V  V4  1  0.049856  0.507823  0.134503  1
  V  V5  1  0.549891  0.005303  0.366762  1
  V  V6  1  0.449709  0.505762  0.634218  1
  V  V7  1  0.949948  0.004944  0.864887  1
  W  W8  1  0.053372  0.996328  0.144744  1
  W  W9  1  0.555340  0.499576  0.357673  1
  W  W10  1  0.444338  0.999222  0.643449  1
  W  W11  1  0.945184  0.500921  0.854682  1
  O  O12  1  0.765490  0.545167  0.018748  1
  O  O13  1  0.769282  0.957441  0.029999  1
  O  O14  1  0.169390  0.754703  0.119428  1
  O  O15  1  0.954004  0.245129  0.142200  1
  O  O16  1  0.364949  0.060952  0.210876  1
  O  O17  1  0.380385  0.444233  0.217960  1
  O  O18  1  0.884339  0.939882  0.285374  1
  O  O19  1  0.865850  0.566506  0.292239  1
  O  O20  1  0.443161  0.746249  0.358973  1
  O  O21  1  0.666700  0.255918  0.381218  1
  O  O22  1  0.267538  0.461503  0.470905  1
  O  O23  1  0.261103  0.041496  0.480976  1
  O  O24  1  0.738407  0.541950  0.520245  1
  O  O25  1  0.732078  0.961821  0.529848  1
  O  O26  1  0.334005  0.756075  0.618375  1
  O  O27  1  0.557206  0.246003  0.642785  1
  O  O28  1  0.133398  0.066772  0.707825  1
  O  O29  1  0.113810  0.442895  0.713415  1
  O  O30  1  0.613723  0.941338  0.785291  1
  O  O31  1  0.630138  0.566151  0.792454  1
  O  O32  1  0.056492  0.746865  0.854250  1
  O  O33  1  0.842726  0.256590  0.878508  1
  O  O34  1  0.229322  0.467194  0.969314  1
  O  O35  1  0.234167  0.035176  0.979961  1
