# generated using pymatgen
data_PaAs2Cl13
_symmetry_space_group_name_H-M   'P 1'
_cell_length_a   10.05943324
_cell_length_b   10.05943277
_cell_length_c   12.39302000
_cell_angle_alpha   90.00000000
_cell_angle_beta   90.00000000
_cell_angle_gamma   113.76213791
_symmetry_Int_Tables_number   1
_chemical_formula_structural   PaAs2Cl13
_chemical_formula_sum   'Pa2 As4 Cl26'
_cell_volume   1147.76392495
_cell_formula_units_Z   2
loop_
 _symmetry_equiv_pos_site_id
 _symmetry_equiv_pos_as_xyz
  1  'x, y, z'
loop_
 _atom_site_type_symbol
 _atom_site_label
 _atom_site_symmetry_multiplicity
 _atom_site_fract_x
 _atom_site_fract_y
 _atom_site_fract_z
 _atom_site_occupancy
  Pa  Pa0  1  0.790484  0.209516  0.000975  1
  Pa  Pa1  1  0.209516  0.790484  0.500975  1
  As  As2  1  0.550976  0.449024  0.848578  1
  As  As3  1  0.856648  0.143352  0.538166  1
  As  As4  1  0.449024  0.550976  0.348578  1
  As  As5  1  0.143352  0.856648  0.038166  1
  Cl  Cl6  1  0.070281  0.240682  0.597788  1
  Cl  Cl7  1  0.314007  0.378924  0.869165  1
  Cl  Cl8  1  0.337424  0.662576  0.612145  1
  Cl  Cl9  1  0.662576  0.337424  0.112145  1
  Cl  Cl10  1  0.083252  0.916748  0.385565  1
  Cl  Cl11  1  0.916748  0.083252  0.885565  1
  Cl  Cl12  1  0.314207  0.013665  0.622885  1
  Cl  Cl13  1  0.685793  0.986335  0.122885  1
  Cl  Cl14  1  0.986335  0.685793  0.622885  1
  Cl  Cl15  1  0.013665  0.314207  0.122885  1
  Cl  Cl16  1  0.434260  0.896253  0.378132  1
  Cl  Cl17  1  0.565740  0.103747  0.878132  1
  Cl  Cl18  1  0.103747  0.565740  0.378132  1
  Cl  Cl19  1  0.896253  0.434260  0.878132  1
  Cl  Cl20  1  0.621076  0.685993  0.869165  1
  Cl  Cl21  1  0.240682  0.070281  0.097788  1
  Cl  Cl22  1  0.759318  0.929719  0.597788  1
  Cl  Cl23  1  0.929719  0.759318  0.097788  1
  Cl  Cl24  1  0.737577  0.262423  0.590732  1
  Cl  Cl25  1  0.262423  0.737577  0.090732  1
  Cl  Cl26  1  0.859879  0.140121  0.368411  1
  Cl  Cl27  1  0.140121  0.859879  0.868411  1
  Cl  Cl28  1  0.558636  0.441364  0.668287  1
  Cl  Cl29  1  0.441364  0.558636  0.168287  1
  Cl  Cl30  1  0.378924  0.314007  0.369165  1
  Cl  Cl31  1  0.685993  0.621076  0.369165  1
