# generated using pymatgen
data_La3Gd(MoN3)4
_symmetry_space_group_name_H-M   'P 1'
_cell_length_a   7.35546865
_cell_length_b   7.35546933
_cell_length_c   6.28643000
_cell_angle_alpha   76.00579683
_cell_angle_beta   76.00580353
_cell_angle_gamma   83.83477591
_symmetry_Int_Tables_number   1
_chemical_formula_structural   La3Gd(MoN3)4
_chemical_formula_sum   'La3 Gd1 Mo4 N12'
_cell_volume   319.79231462
_cell_formula_units_Z   1
loop_
 _symmetry_equiv_pos_site_id
 _symmetry_equiv_pos_as_xyz
  1  'x, y, z'
loop_
 _atom_site_type_symbol
 _atom_site_label
 _atom_site_symmetry_multiplicity
 _atom_site_fract_x
 _atom_site_fract_y
 _atom_site_fract_z
 _atom_site_occupancy
  La  La0  1  0.686031  0.313969  0.750000  1
  La  La1  1  0.088717  0.911283  0.750000  1
  La  La2  1  0.315667  0.684333  0.250000  1
  Gd  Gd3  1  0.907989  0.092011  0.250000  1
  Mo  Mo4  1  0.379995  0.198529  0.253626  1
  Mo  Mo5  1  0.621164  0.801409  0.740217  1
  Mo  Mo6  1  0.801471  0.620005  0.246374  1
  Mo  Mo7  1  0.198591  0.378836  0.759783  1
  N  N8  1  0.614933  0.114054  0.154514  1
  N  N9  1  0.368759  0.325629  0.497490  1
  N  N10  1  0.999220  0.223351  0.860271  1
  N  N11  1  0.389415  0.883460  0.853156  1
  N  N12  1  0.776649  0.000780  0.639729  1
  N  N13  1  0.116540  0.610585  0.646844  1
  N  N14  1  0.885946  0.385067  0.345486  1
  N  N15  1  0.621949  0.661605  0.509539  1
  N  N16  1  0.674371  0.631241  0.002510  1
  N  N17  1  0.338395  0.378051  0.990461  1
  N  N18  1  0.995331  0.781135  0.158712  1
  N  N19  1  0.218865  0.004669  0.341288  1
