# generated using pymatgen
data_TbEr2Al12CuRu3
_symmetry_space_group_name_H-M   'P 1'
_cell_length_a   8.81077502
_cell_length_b   8.80825276
_cell_length_c   9.45309200
_cell_angle_alpha   90.00000000
_cell_angle_beta   90.00000000
_cell_angle_gamma   119.55568265
_symmetry_Int_Tables_number   1
_chemical_formula_structural   TbEr2Al12CuRu3
_chemical_formula_sum   'Tb2 Er4 Al24 Cu2 Ru6'
_cell_volume   638.16866457
_cell_formula_units_Z   2
loop_
 _symmetry_equiv_pos_site_id
 _symmetry_equiv_pos_as_xyz
  1  'x, y, z'
loop_
 _atom_site_type_symbol
 _atom_site_label
 _atom_site_symmetry_multiplicity
 _atom_site_fract_x
 _atom_site_fract_y
 _atom_site_fract_z
 _atom_site_occupancy
  Tb  Tb0  1  0.188583  0.383888  0.250000  1
  Tb  Tb1  1  0.811417  0.616112  0.750000  1
  Er  Er2  1  0.615099  0.811558  0.250000  1
  Er  Er3  1  0.384901  0.188442  0.750000  1
  Er  Er4  1  0.194695  0.805367  0.250000  1
  Er  Er5  1  0.805305  0.194633  0.750000  1
  Al  Al6  1  0.332503  0.668132  0.020849  1
  Al  Al7  1  0.667497  0.331868  0.979151  1
  Al  Al8  1  0.667497  0.331868  0.520849  1
  Al  Al9  1  0.332503  0.668132  0.479151  1
  Al  Al10  1  0.157324  0.323823  0.578652  1
  Al  Al11  1  0.842676  0.676177  0.421348  1
  Al  Al12  1  0.676077  0.842974  0.577978  1
  Al  Al13  1  0.842676  0.676177  0.078652  1
  Al  Al14  1  0.323923  0.157026  0.422022  1
  Al  Al15  1  0.157324  0.323823  0.921348  1
  Al  Al16  1  0.164173  0.836479  0.576924  1
  Al  Al17  1  0.323923  0.157026  0.077978  1
  Al  Al18  1  0.835827  0.163521  0.423076  1
  Al  Al19  1  0.676077  0.842974  0.922022  1
  Al  Al20  1  0.835827  0.163521  0.076924  1
  Al  Al21  1  0.164173  0.836479  0.923076  1
  Al  Al22  1  0.559653  0.121465  0.250000  1
  Al  Al23  1  0.440347  0.878535  0.750000  1
  Al  Al24  1  0.877847  0.440525  0.250000  1
  Al  Al25  1  0.122153  0.559475  0.750000  1
  Al  Al26  1  0.561012  0.440141  0.250000  1
  Al  Al27  1  0.438988  0.559859  0.750000  1
  Al  Al28  1  0.997562  0.000773  0.250000  1
  Al  Al29  1  0.002438  0.999227  0.750000  1
  Cu  Cu30  1  0.500000  0.500000  0.000000  1
  Cu  Cu31  1  0.500000  0.500000  0.500000  1
  Ru  Ru32  1  0.500000  0.000000  0.000000  1
  Ru  Ru33  1  0.000000  0.500000  0.000000  1
  Ru  Ru34  1  0.500000  0.000000  0.500000  1
  Ru  Ru35  1  0.000000  0.500000  0.500000  1
  Ru  Ru36  1  0.000000  0.000000  0.000000  1
  Ru  Ru37  1  0.000000  0.000000  0.500000  1
