# generated using pymatgen
data_Y4ErHf5(Si5Ir2)4
_symmetry_space_group_name_H-M   'P 1'
_cell_length_a   12.48241300
_cell_length_b   12.48241300
_cell_length_c   4.16462600
_cell_angle_alpha   90.00000000
_cell_angle_beta   90.00000000
_cell_angle_gamma   90.00000000
_symmetry_Int_Tables_number   1
_chemical_formula_structural   Y4ErHf5(Si5Ir2)4
_chemical_formula_sum   'Y4 Er1 Hf5 Si20 Ir8'
_cell_volume   648.89301869
_cell_formula_units_Z   1
loop_
 _symmetry_equiv_pos_site_id
 _symmetry_equiv_pos_as_xyz
  1  'x, y, z'
loop_
 _atom_site_type_symbol
 _atom_site_label
 _atom_site_symmetry_multiplicity
 _atom_site_fract_x
 _atom_site_fract_y
 _atom_site_fract_z
 _atom_site_occupancy
  Y  Y0  1  0.884134  0.384469  0.500000  1
  Y  Y1  1  0.115866  0.615531  0.500000  1
  Y  Y2  1  0.384469  0.115866  0.500000  1
  Y  Y3  1  0.615531  0.884134  0.500000  1
  Er  Er4  1  0.000000  0.000000  0.000000  1
  Hf  Hf5  1  0.500000  0.500000  0.000000  1
  Hf  Hf6  1  0.673489  0.175002  0.500000  1
  Hf  Hf7  1  0.326511  0.824998  0.500000  1
  Hf  Hf8  1  0.175002  0.326511  0.500000  1
  Hf  Hf9  1  0.824998  0.673489  0.500000  1
  Si  Si10  1  0.565952  0.067814  0.000000  1
  Si  Si11  1  0.434048  0.932186  0.000000  1
  Si  Si12  1  0.067814  0.434048  0.000000  1
  Si  Si13  1  0.932186  0.565952  0.000000  1
  Si  Si14  1  0.665770  0.701119  0.000000  1
  Si  Si15  1  0.334230  0.298881  0.000000  1
  Si  Si16  1  0.164146  0.800966  0.000000  1
  Si  Si17  1  0.835854  0.199034  0.000000  1
  Si  Si18  1  0.298881  0.665770  0.000000  1
  Si  Si19  1  0.701119  0.334230  0.000000  1
  Si  Si20  1  0.199034  0.164146  0.000000  1
  Si  Si21  1  0.800966  0.835854  0.000000  1
  Si  Si22  1  0.651189  0.507687  0.500000  1
  Si  Si23  1  0.348811  0.492313  0.500000  1
  Si  Si24  1  0.156113  0.992743  0.500000  1
  Si  Si25  1  0.843887  0.007257  0.500000  1
  Si  Si26  1  0.492313  0.651189  0.500000  1
  Si  Si27  1  0.507687  0.348811  0.500000  1
  Si  Si28  1  0.007257  0.156113  0.500000  1
  Si  Si29  1  0.992743  0.843887  0.500000  1
  Ir  Ir30  1  0.741913  0.521570  0.000000  1
  Ir  Ir31  1  0.258087  0.478430  0.000000  1
  Ir  Ir32  1  0.246062  0.978008  0.000000  1
  Ir  Ir33  1  0.753938  0.021992  0.000000  1
  Ir  Ir34  1  0.478430  0.741913  0.000000  1
  Ir  Ir35  1  0.521570  0.258087  0.000000  1
  Ir  Ir36  1  0.021992  0.246062  0.000000  1
  Ir  Ir37  1  0.978008  0.753938  0.000000  1
