# generated using pymatgen
data_Tb2Er3TmCo2
_symmetry_space_group_name_H-M   'P 1'
_cell_length_a   6.20103376
_cell_length_b   6.92068100
_cell_length_c   9.37419573
_cell_angle_alpha   90.00000000
_cell_angle_beta   89.77098847
_cell_angle_gamma   90.00000000
_symmetry_Int_Tables_number   1
_chemical_formula_structural   Tb2Er3TmCo2
_chemical_formula_sum   'Tb4 Er6 Tm2 Co4'
_cell_volume   402.29392602
_cell_formula_units_Z   2
loop_
 _symmetry_equiv_pos_site_id
 _symmetry_equiv_pos_as_xyz
  1  'x, y, z'
loop_
 _atom_site_type_symbol
 _atom_site_label
 _atom_site_symmetry_multiplicity
 _atom_site_fract_x
 _atom_site_fract_y
 _atom_site_fract_z
 _atom_site_occupancy
  Tb  Tb0  1  0.862324  0.542482  0.249810  1
  Tb  Tb1  1  0.637676  0.042482  0.250190  1
  Tb  Tb2  1  0.138366  0.457721  0.750178  1
  Tb  Tb3  1  0.361634  0.957721  0.749822  1
  Er  Er4  1  0.325243  0.675094  0.067510  1
  Er  Er5  1  0.174757  0.175094  0.432490  1
  Er  Er6  1  0.674377  0.325438  0.568057  1
  Er  Er7  1  0.825623  0.825438  0.931943  1
  Er  Er8  1  0.675923  0.323884  0.932753  1
  Er  Er9  1  0.824077  0.823884  0.567247  1
  Tm  Tm10  1  0.323885  0.675486  0.431554  1
  Tm  Tm11  1  0.176115  0.175486  0.068446  1
  Co  Co12  1  0.051639  0.887654  0.250537  1
  Co  Co13  1  0.448361  0.387654  0.249463  1
  Co  Co14  1  0.948646  0.112242  0.747069  1
  Co  Co15  1  0.551354  0.612242  0.752931  1
