# generated using pymatgen
data_ScMnFeSiC
_symmetry_space_group_name_H-M   'P 1'
_cell_length_a   5.45896425
_cell_length_b   5.45896538
_cell_length_c   6.75731799
_cell_angle_alpha   91.10142653
_cell_angle_beta   88.89857187
_cell_angle_gamma   141.63558227
_symmetry_Int_Tables_number   1
_chemical_formula_structural   ScMnFeSiC
_chemical_formula_sum   'Sc2 Mn2 Fe2 Si2 C2'
_cell_volume   124.95666188
_cell_formula_units_Z   2
loop_
 _symmetry_equiv_pos_site_id
 _symmetry_equiv_pos_as_xyz
  1  'x, y, z'
loop_
 _atom_site_type_symbol
 _atom_site_label
 _atom_site_symmetry_multiplicity
 _atom_site_fract_x
 _atom_site_fract_y
 _atom_site_fract_z
 _atom_site_occupancy
  Sc  Sc0  1  0.542381  0.457619  0.248251  1
  Sc  Sc1  1  0.457619  0.542381  0.751749  1
  Mn  Mn2  1  0.170538  0.829462  0.558989  1
  Mn  Mn3  1  0.829462  0.170538  0.441011  1
  Fe  Fe4  1  0.835105  0.164895  0.062339  1
  Fe  Fe5  1  0.164895  0.835105  0.937661  1
  Si  Si6  1  0.263622  0.736378  0.236970  1
  Si  Si7  1  0.736378  0.263622  0.763030  1
  C  C8  1  0.000000  0.000000  0.000000  1
  C  C9  1  0.000000  0.000000  0.500000  1
