# generated using pymatgen
data_Ta4MnCu3Pt8
_symmetry_space_group_name_H-M   'P 1'
_cell_length_a   4.59619200
_cell_length_b   4.82308200
_cell_length_c   11.04241600
_cell_angle_alpha   90.00000000
_cell_angle_beta   90.00000000
_cell_angle_gamma   90.00000000
_symmetry_Int_Tables_number   1
_chemical_formula_structural   Ta4MnCu3Pt8
_chemical_formula_sum   'Ta4 Mn1 Cu3 Pt8'
_cell_volume   244.78618981
_cell_formula_units_Z   1
loop_
 _symmetry_equiv_pos_site_id
 _symmetry_equiv_pos_as_xyz
  1  'x, y, z'
loop_
 _atom_site_type_symbol
 _atom_site_label
 _atom_site_symmetry_multiplicity
 _atom_site_fract_x
 _atom_site_fract_y
 _atom_site_fract_z
 _atom_site_occupancy
  Ta  Ta0  1  0.500000  0.662202  0.252940  1
  Ta  Ta1  1  0.500000  0.662202  0.747060  1
  Ta  Ta2  1  0.000000  0.338450  0.000000  1
  Ta  Ta3  1  0.000000  0.331328  0.500000  1
  Mn  Mn4  1  0.500000  0.680374  0.500000  1
  Cu  Cu5  1  0.000000  0.325395  0.249468  1
  Cu  Cu6  1  0.000000  0.325395  0.750532  1
  Cu  Cu7  1  0.500000  0.673292  0.000000  1
  Pt  Pt8  1  0.500000  0.181811  0.374871  1
  Pt  Pt9  1  0.500000  0.179735  0.875886  1
  Pt  Pt10  1  0.500000  0.179735  0.124114  1
  Pt  Pt11  1  0.500000  0.181811  0.625129  1
  Pt  Pt12  1  0.000000  0.821804  0.374194  1
  Pt  Pt13  1  0.000000  0.817332  0.874387  1
  Pt  Pt14  1  0.000000  0.817332  0.125613  1
  Pt  Pt15  1  0.000000  0.821804  0.625806  1
