# generated using pymatgen
data_Tb3Dy(Hf3Si4)2
_symmetry_space_group_name_H-M   'P 1'
_cell_length_a   7.29425301
_cell_length_b   7.29367701
_cell_length_c   13.40355900
_cell_angle_alpha   90.00000000
_cell_angle_beta   90.00000000
_cell_angle_gamma   89.99440708
_symmetry_Int_Tables_number   1
_chemical_formula_structural   Tb3Dy(Hf3Si4)2
_chemical_formula_sum   'Tb6 Dy2 Hf12 Si16'
_cell_volume   713.09514349
_cell_formula_units_Z   2
loop_
 _symmetry_equiv_pos_site_id
 _symmetry_equiv_pos_as_xyz
  1  'x, y, z'
loop_
 _atom_site_type_symbol
 _atom_site_label
 _atom_site_symmetry_multiplicity
 _atom_site_fract_x
 _atom_site_fract_y
 _atom_site_fract_z
 _atom_site_occupancy
  Tb  Tb0  1  0.156386  0.496394  0.465140  1
  Tb  Tb1  1  0.503610  0.843538  0.034853  1
  Tb  Tb2  1  0.843614  0.503606  0.965140  1
  Tb  Tb3  1  0.496390  0.156462  0.534853  1
  Tb  Tb4  1  0.343498  0.996381  0.784830  1
  Tb  Tb5  1  0.656502  0.003619  0.284830  1
  Dy  Dy6  1  0.996620  0.343680  0.215117  1
  Dy  Dy7  1  0.003380  0.656320  0.715117  1
  Hf  Hf8  1  0.174268  0.174362  0.000025  1
  Hf  Hf9  1  0.825732  0.825638  0.500025  1
  Hf  Hf10  1  0.325580  0.674247  0.250001  1
  Hf  Hf11  1  0.674420  0.325753  0.750001  1
  Hf  Hf12  1  0.149736  0.995589  0.374341  1
  Hf  Hf13  1  0.850264  0.004411  0.874341  1
  Hf  Hf14  1  0.504421  0.649819  0.624377  1
  Hf  Hf15  1  0.350105  0.495637  0.875633  1
  Hf  Hf16  1  0.495579  0.350181  0.124377  1
  Hf  Hf17  1  0.649895  0.504363  0.375633  1
  Hf  Hf18  1  0.995585  0.149733  0.625643  1
  Hf  Hf19  1  0.004415  0.850267  0.125643  1
  Si  Si20  1  0.363502  0.295063  0.317011  1
  Si  Si21  1  0.636498  0.704937  0.817011  1
  Si  Si22  1  0.204778  0.863525  0.567212  1
  Si  Si23  1  0.136266  0.795005  0.932870  1
  Si  Si24  1  0.795222  0.136475  0.067212  1
  Si  Si25  1  0.863734  0.204995  0.432870  1
  Si  Si26  1  0.294879  0.363864  0.682931  1
  Si  Si27  1  0.705121  0.636136  0.182931  1
  Si  Si28  1  0.295049  0.048485  0.185497  1
  Si  Si29  1  0.704951  0.951515  0.685497  1
  Si  Si30  1  0.451636  0.795131  0.435489  1
  Si  Si31  1  0.204705  0.548191  0.064601  1
  Si  Si32  1  0.548364  0.204869  0.935489  1
  Si  Si33  1  0.795295  0.451809  0.564601  1
  Si  Si34  1  0.048302  0.295389  0.814429  1
  Si  Si35  1  0.951698  0.704611  0.314429  1
