# generated using pymatgen
data_AcFe3CoP12
_symmetry_space_group_name_H-M   'P 1'
_cell_length_a   6.80722025
_cell_length_b   6.80721999
_cell_length_c   6.80721939
_cell_angle_alpha   109.45992433
_cell_angle_beta   109.45992050
_cell_angle_gamma   109.45993173
_symmetry_Int_Tables_number   1
_chemical_formula_structural   AcFe3CoP12
_chemical_formula_sum   'Ac1 Fe3 Co1 P12'
_cell_volume   242.92316464
_cell_formula_units_Z   1
loop_
 _symmetry_equiv_pos_site_id
 _symmetry_equiv_pos_as_xyz
  1  'x, y, z'
loop_
 _atom_site_type_symbol
 _atom_site_label
 _atom_site_symmetry_multiplicity
 _atom_site_fract_x
 _atom_site_fract_y
 _atom_site_fract_z
 _atom_site_occupancy
  Ac  Ac0  1  0.000000  0.000000  0.000000  1
  Fe  Fe1  1  0.000000  0.000000  0.500000  1
  Fe  Fe2  1  0.000000  0.500000  0.000000  1
  Fe  Fe3  1  0.500000  0.000000  0.000000  1
  Co  Co4  1  0.500000  0.500000  0.500000  1
  P  P5  1  0.850892  0.648125  0.494485  1
  P  P6  1  0.847426  0.353092  0.200935  1
  P  P7  1  0.152574  0.646908  0.799065  1
  P  P8  1  0.351875  0.505515  0.149108  1
  P  P9  1  0.505515  0.149108  0.351875  1
  P  P10  1  0.149108  0.351875  0.505515  1
  P  P11  1  0.646908  0.799065  0.152574  1
  P  P12  1  0.200935  0.847426  0.353092  1
  P  P13  1  0.648125  0.494485  0.850892  1
  P  P14  1  0.799065  0.152574  0.646908  1
  P  P15  1  0.353092  0.200935  0.847426  1
  P  P16  1  0.494485  0.850892  0.648125  1
