# generated using pymatgen
data_Er6NbCo22
_symmetry_space_group_name_H-M   'P 1'
_cell_length_a   8.36132674
_cell_length_b   8.36132674
_cell_length_c   8.36132500
_cell_angle_alpha   59.99999502
_cell_angle_beta   59.99999501
_cell_angle_gamma   59.99998983
_symmetry_Int_Tables_number   1
_chemical_formula_structural   Er6NbCo22
_chemical_formula_sum   'Er6 Nb1 Co22'
_cell_volume   413.34285072
_cell_formula_units_Z   1
loop_
 _symmetry_equiv_pos_site_id
 _symmetry_equiv_pos_as_xyz
  1  'x, y, z'
loop_
 _atom_site_type_symbol
 _atom_site_label
 _atom_site_symmetry_multiplicity
 _atom_site_fract_x
 _atom_site_fract_y
 _atom_site_fract_z
 _atom_site_occupancy
  Er  Er0  1  0.787222  0.212778  0.787222  1
  Er  Er1  1  0.212778  0.212778  0.787222  1
  Er  Er2  1  0.787222  0.787222  0.212778  1
  Er  Er3  1  0.787222  0.212778  0.212778  1
  Er  Er4  1  0.212778  0.787222  0.787222  1
  Er  Er5  1  0.212778  0.787222  0.212778  1
  Nb  Nb6  1  0.500000  0.500000  0.500000  1
  Co  Co7  1  0.823120  0.823120  0.823120  1
  Co  Co8  1  0.469360  0.176880  0.176880  1
  Co  Co9  1  0.176880  0.176880  0.469360  1
  Co  Co10  1  0.176880  0.469360  0.176880  1
  Co  Co11  1  0.823120  0.823120  0.530640  1
  Co  Co12  1  0.823120  0.530640  0.823120  1
  Co  Co13  1  0.000000  0.500000  0.000000  1
  Co  Co14  1  0.500000  0.000000  0.000000  1
  Co  Co15  1  0.000000  0.500000  0.500000  1
  Co  Co16  1  0.500000  0.000000  0.500000  1
  Co  Co17  1  0.000000  0.000000  0.500000  1
  Co  Co18  1  0.500000  0.500000  0.000000  1
  Co  Co19  1  0.374215  0.374215  0.374215  1
  Co  Co20  1  0.122646  0.625785  0.625784  1
  Co  Co21  1  0.625784  0.122646  0.625784  1
  Co  Co22  1  0.625785  0.625785  0.122646  1
  Co  Co23  1  0.374216  0.877354  0.374215  1
  Co  Co24  1  0.374216  0.374215  0.877353  1
  Co  Co25  1  0.877353  0.374216  0.374215  1
  Co  Co26  1  0.625785  0.625785  0.625784  1
  Co  Co27  1  0.176880  0.176880  0.176880  1
  Co  Co28  1  0.530640  0.823120  0.823120  1
