# generated using pymatgen
data_HfZr2Ti2Sn3
_symmetry_space_group_name_H-M   'P 1'
_cell_length_a   8.34753958
_cell_length_b   8.34754039
_cell_length_c   5.57768900
_cell_angle_alpha   90.00000000
_cell_angle_beta   90.00000000
_cell_angle_gamma   120.12008979
_symmetry_Int_Tables_number   1
_chemical_formula_structural   HfZr2Ti2Sn3
_chemical_formula_sum   'Hf2 Zr4 Ti4 Sn6'
_cell_volume   336.18252003
_cell_formula_units_Z   2
loop_
 _symmetry_equiv_pos_site_id
 _symmetry_equiv_pos_as_xyz
  1  'x, y, z'
loop_
 _atom_site_type_symbol
 _atom_site_label
 _atom_site_symmetry_multiplicity
 _atom_site_fract_x
 _atom_site_fract_y
 _atom_site_fract_z
 _atom_site_occupancy
  Hf  Hf0  1  0.760015  0.999941  0.250000  1
  Hf  Hf1  1  0.999941  0.760015  0.250000  1
  Zr  Zr2  1  0.760891  0.760891  0.750000  1
  Zr  Zr3  1  0.240512  0.999057  0.750000  1
  Zr  Zr4  1  0.999057  0.240512  0.750000  1
  Zr  Zr5  1  0.238657  0.238657  0.250000  1
  Ti  Ti6  1  0.666814  0.333295  0.000396  1
  Ti  Ti7  1  0.333295  0.666814  0.000396  1
  Ti  Ti8  1  0.333295  0.666814  0.499604  1
  Ti  Ti9  1  0.666814  0.333295  0.499604  1
  Sn  Sn10  1  0.400801  0.400801  0.750000  1
  Sn  Sn11  1  0.599232  0.999995  0.750000  1
  Sn  Sn12  1  0.999995  0.599232  0.750000  1
  Sn  Sn13  1  0.600249  0.600249  0.250000  1
  Sn  Sn14  1  0.400992  0.999438  0.250000  1
  Sn  Sn15  1  0.999438  0.400992  0.250000  1
