# generated using pymatgen
data_Yb2TmU(B4Ru)4
_symmetry_space_group_name_H-M   'P 1'
_cell_length_a   3.54364500
_cell_length_b   5.93777020
_cell_length_c   11.47226622
_cell_angle_alpha   89.97393482
_cell_angle_beta   90.00000000
_cell_angle_gamma   90.00000000
_symmetry_Int_Tables_number   1
_chemical_formula_structural   Yb2TmU(B4Ru)4
_chemical_formula_sum   'Yb2 Tm1 U1 B16 Ru4'
_cell_volume   241.39194017
_cell_formula_units_Z   1
loop_
 _symmetry_equiv_pos_site_id
 _symmetry_equiv_pos_as_xyz
  1  'x, y, z'
loop_
 _atom_site_type_symbol
 _atom_site_label
 _atom_site_symmetry_multiplicity
 _atom_site_fract_x
 _atom_site_fract_y
 _atom_site_fract_z
 _atom_site_occupancy
  Yb  Yb0  1  0.500000  0.127914  0.353179  1
  Yb  Yb1  1  0.500000  0.871195  0.649193  1
  Tm  Tm2  1  0.500000  0.370699  0.847342  1
  U  U3  1  0.500000  0.629064  0.152130  1
  B  B4  1  0.000000  0.974435  0.191717  1
  B  B5  1  0.000000  0.025079  0.807898  1
  B  B6  1  0.000000  0.477245  0.307986  1
  B  B7  1  0.000000  0.523966  0.691796  1
  B  B8  1  0.000000  0.788087  0.313758  1
  B  B9  1  0.000000  0.211237  0.684891  1
  B  B10  1  0.000000  0.290565  0.185740  1
  B  B11  1  0.000000  0.712937  0.813190  1
  B  B12  1  0.000000  0.862916  0.469188  1
  B  B13  1  0.000000  0.135801  0.530101  1
  B  B14  1  0.000000  0.366689  0.031091  1
  B  B15  1  0.000000  0.634644  0.969153  1
  B  B16  1  0.000000  0.887065  0.047015  1
  B  B17  1  0.000000  0.112422  0.952009  1
  B  B18  1  0.000000  0.385919  0.453809  1
  B  B19  1  0.000000  0.612552  0.546263  1
  Ru  Ru20  1  0.500000  0.637072  0.406402  1
  Ru  Ru21  1  0.500000  0.362730  0.591356  1
  Ru  Ru22  1  0.500000  0.142390  0.093903  1
  Ru  Ru23  1  0.500000  0.857378  0.910892  1
