# generated using pymatgen
data_LaPr3In2RuRh2
_symmetry_space_group_name_H-M   'P 1'
_cell_length_a   7.89427318
_cell_length_b   7.89427483
_cell_length_c   4.14371100
_cell_angle_alpha   90.00000000
_cell_angle_beta   90.00000000
_cell_angle_gamma   121.65199887
_symmetry_Int_Tables_number   1
_chemical_formula_structural   LaPr3In2RuRh2
_chemical_formula_sum   'La1 Pr3 In2 Ru1 Rh2'
_cell_volume   219.82217764
_cell_formula_units_Z   1
loop_
 _symmetry_equiv_pos_site_id
 _symmetry_equiv_pos_as_xyz
  1  'x, y, z'
loop_
 _atom_site_type_symbol
 _atom_site_label
 _atom_site_symmetry_multiplicity
 _atom_site_fract_x
 _atom_site_fract_y
 _atom_site_fract_z
 _atom_site_occupancy
  La  La0  1  0.756985  0.756985  0.000000  1
  Pr  Pr1  1  0.031918  0.585868  0.500000  1
  Pr  Pr2  1  0.375679  0.375679  0.500000  1
  Pr  Pr3  1  0.585868  0.031918  0.500000  1
  In  In4  1  0.992703  0.248984  0.000000  1
  In  In5  1  0.248984  0.992703  0.000000  1
  Ru  Ru6  1  0.006456  0.006456  0.500000  1
  Rh  Rh7  1  0.334239  0.667169  0.000000  1
  Rh  Rh8  1  0.667169  0.334239  0.000000  1
