# generated using pymatgen
data_Ca2Ni3B8Os5
_symmetry_space_group_name_H-M   'P 1'
_cell_length_a   7.33953116
_cell_length_b   7.28965779
_cell_length_c   4.01791033
_cell_angle_alpha   90.02959786
_cell_angle_beta   90.18036536
_cell_angle_gamma   90.98953730
_symmetry_Int_Tables_number   1
_chemical_formula_structural   Ca2Ni3B8Os5
_chemical_formula_sum   'Ca2 Ni3 B8 Os5'
_cell_volume   214.93577304
_cell_formula_units_Z   1
loop_
 _symmetry_equiv_pos_site_id
 _symmetry_equiv_pos_as_xyz
  1  'x, y, z'
loop_
 _atom_site_type_symbol
 _atom_site_label
 _atom_site_symmetry_multiplicity
 _atom_site_fract_x
 _atom_site_fract_y
 _atom_site_fract_z
 _atom_site_occupancy
  Ca  Ca0  1  0.999414  0.998455  0.929261  1
  Ca  Ca1  1  0.504658  0.500633  0.400000  1
  Ni  Ni2  1  0.874289  0.632952  0.624707  1
  Ni  Ni3  1  0.116832  0.628086  0.123351  1
  Ni  Ni4  1  0.865804  0.386435  0.126005  1
  B  B5  1  0.808177  0.664872  0.117285  1
  B  B6  1  0.195675  0.332000  0.124957  1
  B  B7  1  0.843890  0.304829  0.619948  1
  B  B8  1  0.166050  0.677874  0.618663  1
  B  B9  1  0.718549  0.830319  0.399555  1
  B  B10  1  0.283523  0.169094  0.399513  1
  B  B11  1  0.670950  0.221370  0.897390  1
  B  B12  1  0.325126  0.784434  0.899876  1
  Os  Os13  1  0.390118  0.148561  0.898047  1
  Os  Os14  1  0.614358  0.844994  0.897520  1
  Os  Os15  1  0.346944  0.881764  0.397818  1
  Os  Os16  1  0.655506  0.113445  0.396134  1
  Os  Os17  1  0.120136  0.379885  0.629970  1
