# generated using pymatgen
data_Li2P2Ir
_symmetry_space_group_name_H-M   'P 1'
_cell_length_a   4.16431900
_cell_length_b   5.91709500
_cell_length_c   5.91709500
_cell_angle_alpha   90.00000000
_cell_angle_beta   90.00000000
_cell_angle_gamma   90.00000000
_symmetry_Int_Tables_number   1
_chemical_formula_structural   Li2P2Ir
_chemical_formula_sum   'Li4 P4 Ir2'
_cell_volume   145.80119196
_cell_formula_units_Z   2
loop_
 _symmetry_equiv_pos_site_id
 _symmetry_equiv_pos_as_xyz
  1  'x, y, z'
loop_
 _atom_site_type_symbol
 _atom_site_label
 _atom_site_symmetry_multiplicity
 _atom_site_fract_x
 _atom_site_fract_y
 _atom_site_fract_z
 _atom_site_occupancy
  Li  Li0  1  0.500002  0.318146  0.181853  1
  Li  Li1  1  0.500002  0.818147  0.318146  1
  Li  Li2  1  0.500002  0.181853  0.681854  1
  Li  Li3  1  0.500002  0.681854  0.818147  1
  P  P4  1  0.000000  0.630469  0.130469  1
  P  P5  1  0.000000  0.130469  0.369530  1
  P  P6  1  0.000000  0.869531  0.630469  1
  P  P7  1  0.000000  0.369530  0.869531  1
  Ir  Ir8  1  0.000000  0.000000  0.000000  1
  Ir  Ir9  1  0.000000  0.500001  0.500001  1
