# generated using pymatgen
data_TbTm2Ni2Ir7
_symmetry_space_group_name_H-M   'P 1'
_cell_length_a   5.27542817
_cell_length_b   5.27542899
_cell_length_c   8.96741138
_cell_angle_alpha   72.89374611
_cell_angle_beta   72.89374614
_cell_angle_gamma   60.00000286
_symmetry_Int_Tables_number   1
_chemical_formula_structural   TbTm2Ni2Ir7
_chemical_formula_sum   'Tb1 Tm2 Ni2 Ir7'
_cell_volume   203.28070931
_cell_formula_units_Z   1
loop_
 _symmetry_equiv_pos_site_id
 _symmetry_equiv_pos_as_xyz
  1  'x, y, z'
loop_
 _atom_site_type_symbol
 _atom_site_label
 _atom_site_symmetry_multiplicity
 _atom_site_fract_x
 _atom_site_fract_y
 _atom_site_fract_z
 _atom_site_occupancy
  Tb  Tb0  1  0.000000  0.000000  0.000000  1
  Tm  Tm1  1  0.140304  0.140304  0.579091  1
  Tm  Tm2  1  0.859696  0.859696  0.420909  1
  Ni  Ni3  1  0.333529  0.333529  0.999411  1
  Ni  Ni4  1  0.666471  0.666471  0.000589  1
  Ir  Ir5  1  0.078233  0.581511  0.758745  1
  Ir  Ir6  1  0.581511  0.581511  0.758745  1
  Ir  Ir7  1  0.581511  0.078233  0.758745  1
  Ir  Ir8  1  0.921767  0.418489  0.241255  1
  Ir  Ir9  1  0.418489  0.418489  0.241255  1
  Ir  Ir10  1  0.418489  0.921767  0.241255  1
  Ir  Ir11  1  0.500000  0.500000  0.500000  1
