# generated using pymatgen
data_Sc4CuNi13
_symmetry_space_group_name_H-M   'P 1'
_cell_length_a   4.79416053
_cell_length_b   4.79930824
_cell_length_c   12.20529503
_cell_angle_alpha   78.66135310
_cell_angle_beta   78.67106880
_cell_angle_gamma   59.96448609
_symmetry_Int_Tables_number   1
_chemical_formula_structural   Sc4CuNi13
_chemical_formula_sum   'Sc4 Cu1 Ni13'
_cell_volume   236.77641599
_cell_formula_units_Z   1
loop_
 _symmetry_equiv_pos_site_id
 _symmetry_equiv_pos_as_xyz
  1  'x, y, z'
loop_
 _atom_site_type_symbol
 _atom_site_label
 _atom_site_symmetry_multiplicity
 _atom_site_fract_x
 _atom_site_fract_y
 _atom_site_fract_z
 _atom_site_occupancy
  Sc  Sc0  1  0.949424  0.947714  0.155146  1
  Sc  Sc1  1  0.050576  0.052286  0.844854  1
  Sc  Sc2  1  0.851919  0.852356  0.443371  1
  Sc  Sc3  1  0.148081  0.147644  0.556629  1
  Cu  Cu4  1  0.000000  0.500000  0.000000  1
  Ni  Ni5  1  0.500000  0.500000  0.500000  1
  Ni  Ni6  1  0.712495  0.727899  0.831707  1
  Ni  Ni7  1  0.287505  0.272101  0.168293  1
  Ni  Ni8  1  0.601580  0.615023  0.168375  1
  Ni  Ni9  1  0.398420  0.384977  0.831625  1
  Ni  Ni10  1  0.500000  0.000000  0.000000  1
  Ni  Ni11  1  0.500000  0.500000  0.000000  1
  Ni  Ni12  1  0.386783  0.387108  0.335567  1
  Ni  Ni13  1  0.890811  0.387902  0.333387  1
  Ni  Ni14  1  0.386783  0.890544  0.335567  1
  Ni  Ni15  1  0.613217  0.612892  0.664433  1
  Ni  Ni16  1  0.109189  0.612098  0.666613  1
  Ni  Ni17  1  0.613217  0.109456  0.664433  1
