# generated using pymatgen
data_Er2HfCrF14
_symmetry_space_group_name_H-M   'P 1'
_cell_length_a   5.60204400
_cell_length_b   8.87134568
_cell_length_c   11.90725500
_cell_angle_alpha   63.88758221
_cell_angle_beta   90.00000000
_cell_angle_gamma   90.00000000
_symmetry_Int_Tables_number   1
_chemical_formula_structural   Er2HfCrF14
_chemical_formula_sum   'Er4 Hf2 Cr2 F28'
_cell_volume   531.36289081
_cell_formula_units_Z   2
loop_
 _symmetry_equiv_pos_site_id
 _symmetry_equiv_pos_as_xyz
  1  'x, y, z'
loop_
 _atom_site_type_symbol
 _atom_site_label
 _atom_site_symmetry_multiplicity
 _atom_site_fract_x
 _atom_site_fract_y
 _atom_site_fract_z
 _atom_site_occupancy
  Er  Er0  1  0.757157  0.804317  0.782870  1
  Er  Er1  1  0.257157  0.195683  0.717130  1
  Er  Er2  1  0.242857  0.188537  0.236853  1
  Er  Er3  1  0.742857  0.811463  0.263147  1
  Hf  Hf4  1  0.754070  0.266848  0.956403  1
  Hf  Hf5  1  0.254070  0.733152  0.543597  1
  Cr  Cr6  1  0.246980  0.720329  0.051708  1
  Cr  Cr7  1  0.746980  0.279671  0.448292  1
  F  F8  1  0.458885  0.703849  0.935333  1
  F  F9  1  0.958885  0.296151  0.564667  1
  F  F10  1  0.530440  0.288746  0.078804  1
  F  F11  1  0.030440  0.711254  0.421196  1
  F  F12  1  0.475740  0.288495  0.542117  1
  F  F13  1  0.975740  0.711505  0.957883  1
  F  F14  1  0.543407  0.719573  0.448367  1
  F  F15  1  0.043407  0.280427  0.051633  1
  F  F16  1  0.763519  0.518291  0.858162  1
  F  F17  1  0.263519  0.481709  0.641838  1
  F  F18  1  0.235606  0.489227  0.138816  1
  F  F19  1  0.735606  0.510773  0.361184  1
  F  F20  1  0.757955  0.017495  0.055816  1
  F  F21  1  0.257955  0.982505  0.444184  1
  F  F22  1  0.249031  0.946294  0.966132  1
  F  F23  1  0.749031  0.053706  0.533868  1
  F  F24  1  0.980410  0.743134  0.650138  1
  F  F25  1  0.480410  0.256866  0.849862  1
  F  F26  1  0.007570  0.277874  0.348995  1
  F  F27  1  0.507570  0.722126  0.151005  1
  F  F28  1  0.041655  0.736646  0.171402  1
  F  F29  1  0.541655  0.263354  0.328598  1
  F  F30  1  0.972016  0.243113  0.829031  1
  F  F31  1  0.472016  0.756887  0.670969  1
  F  F32  1  0.430712  0.975114  0.235835  1
  F  F33  1  0.930712  0.024886  0.264165  1
  F  F34  1  0.551988  0.019584  0.761601  1
  F  F35  1  0.051988  0.980416  0.738399  1
