# generated using pymatgen
data_U4CoGe2Ir4Rh
_symmetry_space_group_name_H-M   'P 1'
_cell_length_a   5.50430110
_cell_length_b   5.48822925
_cell_length_c   7.79639300
_cell_angle_alpha   90.00000000
_cell_angle_beta   90.00000000
_cell_angle_gamma   119.39804875
_symmetry_Int_Tables_number   1
_chemical_formula_structural   U4CoGe2Ir4Rh
_chemical_formula_sum   'U4 Co1 Ge2 Ir4 Rh1'
_cell_volume   205.19238318
_cell_formula_units_Z   1
loop_
 _symmetry_equiv_pos_site_id
 _symmetry_equiv_pos_as_xyz
  1  'x, y, z'
loop_
 _atom_site_type_symbol
 _atom_site_label
 _atom_site_symmetry_multiplicity
 _atom_site_fract_x
 _atom_site_fract_y
 _atom_site_fract_z
 _atom_site_occupancy
  U  U0  1  0.665827  0.333675  0.580770  1
  U  U1  1  0.335829  0.667458  0.416827  1
  U  U2  1  0.335829  0.667458  0.083173  1
  U  U3  1  0.665827  0.333675  0.919230  1
  Co  Co4  1  0.833642  0.167226  0.250000  1
  Ge  Ge5  1  0.993411  0.007925  0.005345  1
  Ge  Ge6  1  0.993411  0.007925  0.494655  1
  Ir  Ir7  1  0.655246  0.827435  0.750000  1
  Ir  Ir8  1  0.166818  0.829925  0.750000  1
  Ir  Ir9  1  0.835092  0.650929  0.250000  1
  Ir  Ir10  1  0.350826  0.166795  0.250000  1
  Rh  Rh11  1  0.168243  0.339574  0.750000  1
