# generated using pymatgen
data_TbEr15(ZnCo)4
_symmetry_space_group_name_H-M   'P 1'
_cell_length_a   9.26753364
_cell_length_b   9.26753369
_cell_length_c   9.26754100
_cell_angle_alpha   59.99997033
_cell_angle_beta   59.99997014
_cell_angle_gamma   59.95002565
_symmetry_Int_Tables_number   1
_chemical_formula_structural   TbEr15(ZnCo)4
_chemical_formula_sum   'Tb1 Er15 Zn4 Co4'
_cell_volume   562.61767811
_cell_formula_units_Z   1
loop_
 _symmetry_equiv_pos_site_id
 _symmetry_equiv_pos_as_xyz
  1  'x, y, z'
loop_
 _atom_site_type_symbol
 _atom_site_label
 _atom_site_symmetry_multiplicity
 _atom_site_fract_x
 _atom_site_fract_y
 _atom_site_fract_z
 _atom_site_occupancy
  Tb  Tb0  1  0.937532  0.937532  0.562468  1
  Er  Er1  1  0.350108  0.350108  0.349993  1
  Er  Er2  1  0.350108  0.350108  0.949789  1
  Er  Er3  1  0.350261  0.950024  0.349857  1
  Er  Er4  1  0.950024  0.350261  0.349857  1
  Er  Er5  1  0.809498  0.190747  0.190033  1
  Er  Er6  1  0.190747  0.809498  0.809722  1
  Er  Er7  1  0.190747  0.809498  0.190033  1
  Er  Er8  1  0.809498  0.190747  0.809722  1
  Er  Er9  1  0.190410  0.190410  0.809590  1
  Er  Er10  1  0.809522  0.809522  0.190478  1
  Er  Er11  1  0.937547  0.561859  0.562313  1
  Er  Er12  1  0.561859  0.937547  0.938282  1
  Er  Er13  1  0.561859  0.937547  0.562313  1
  Er  Er14  1  0.937547  0.561859  0.938282  1
  Er  Er15  1  0.562280  0.562280  0.937720  1
  Zn  Zn16  1  0.577705  0.577705  0.577647  1
  Zn  Zn17  1  0.577705  0.577705  0.266943  1
  Zn  Zn18  1  0.577312  0.267471  0.577609  1
  Zn  Zn19  1  0.267471  0.577312  0.577609  1
  Co  Co20  1  0.141944  0.141944  0.141352  1
  Co  Co21  1  0.141944  0.141944  0.574760  1
  Co  Co22  1  0.141706  0.574664  0.141815  1
  Co  Co23  1  0.574664  0.141706  0.141815  1
