# generated using pymatgen
data_Pr2Cu2AsPt6
_symmetry_space_group_name_H-M   'P 1'
_cell_length_a   9.29157117
_cell_length_b   9.29156998
_cell_length_c   4.12916700
_cell_angle_alpha   90.00000000
_cell_angle_beta   90.00000000
_cell_angle_gamma   145.30247054
_symmetry_Int_Tables_number   1
_chemical_formula_structural   Pr2Cu2AsPt6
_chemical_formula_sum   'Pr2 Cu2 As1 Pt6'
_cell_volume   202.92671503
_cell_formula_units_Z   1
loop_
 _symmetry_equiv_pos_site_id
 _symmetry_equiv_pos_as_xyz
  1  'x, y, z'
loop_
 _atom_site_type_symbol
 _atom_site_label
 _atom_site_symmetry_multiplicity
 _atom_site_fract_x
 _atom_site_fract_y
 _atom_site_fract_z
 _atom_site_occupancy
  Pr  Pr0  1  0.625438  0.379387  0.500000  1
  Pr  Pr1  1  0.379387  0.625438  0.500000  1
  Cu  Cu2  1  0.196732  0.790529  0.500000  1
  Cu  Cu3  1  0.790529  0.196732  0.500000  1
  As  As4  1  0.231453  0.231453  0.000000  1
  Pt  Pt5  1  0.106723  0.873322  0.000000  1
  Pt  Pt6  1  0.873322  0.106723  0.000000  1
  Pt  Pt7  1  0.488171  0.985247  0.000000  1
  Pt  Pt8  1  0.985247  0.488171  0.000000  1
  Pt  Pt9  1  0.983081  0.983081  0.500000  1
  Pt  Pt10  1  0.653515  0.653515  0.000000  1
