# generated using pymatgen
data_Yb12SiAg11Ge12
_symmetry_space_group_name_H-M   'P 1'
_cell_length_a   4.56208700
_cell_length_b   7.85166840
_cell_length_c   21.30557503
_cell_angle_alpha   90.03735872
_cell_angle_beta   90.00000000
_cell_angle_gamma   90.00000000
_symmetry_Int_Tables_number   1
_chemical_formula_structural   Yb12SiAg11Ge12
_chemical_formula_sum   'Yb12 Si1 Ag11 Ge12'
_cell_volume   763.16541470
_cell_formula_units_Z   1
loop_
 _symmetry_equiv_pos_site_id
 _symmetry_equiv_pos_as_xyz
  1  'x, y, z'
loop_
 _atom_site_type_symbol
 _atom_site_label
 _atom_site_symmetry_multiplicity
 _atom_site_fract_x
 _atom_site_fract_y
 _atom_site_fract_z
 _atom_site_occupancy
  Yb  Yb0  1  0.250000  0.786457  0.165905  1
  Yb  Yb1  1  0.250000  0.778871  0.499927  1
  Yb  Yb2  1  0.250000  0.712247  0.332764  1
  Yb  Yb3  1  0.750000  0.221832  0.499719  1
  Yb  Yb4  1  0.750000  0.292573  0.665659  1
  Yb  Yb5  1  0.750000  0.283323  0.999363  1
  Yb  Yb6  1  0.250000  0.785238  0.836094  1
  Yb  Yb7  1  0.250000  0.719828  0.999610  1
  Yb  Yb8  1  0.750000  0.212857  0.167230  1
  Yb  Yb9  1  0.750000  0.288186  0.333768  1
  Yb  Yb10  1  0.250000  0.710852  0.664854  1
  Yb  Yb11  1  0.750000  0.208538  0.836697  1
  Si  Si12  1  0.750000  0.593691  0.764715  1
  Ag  Ag13  1  0.750000  0.583856  0.898776  1
  Ag  Ag14  1  0.250000  0.417101  0.433532  1
  Ag  Ag15  1  0.750000  0.584437  0.565097  1
  Ag  Ag16  1  0.750000  0.918289  0.406081  1
  Ag  Ag17  1  0.250000  0.417598  0.093417  1
  Ag  Ag18  1  0.250000  0.412373  0.238090  1
  Ag  Ag19  1  0.750000  0.912930  0.261475  1
  Ag  Ag20  1  0.250000  0.086912  0.737072  1
  Ag  Ag21  1  0.250000  0.083325  0.934624  1
  Ag  Ag22  1  0.750000  0.917221  0.065833  1
  Ag  Ag23  1  0.250000  0.082701  0.594556  1
  Ge  Ge24  1  0.250000  0.410296  0.899827  1
  Ge  Ge25  1  0.750000  0.909147  0.729184  1
  Ge  Ge26  1  0.750000  0.582086  0.229302  1
  Ge  Ge27  1  0.250000  0.087712  0.070705  1
  Ge  Ge28  1  0.750000  0.910493  0.930611  1
  Ge  Ge29  1  0.750000  0.913695  0.601666  1
  Ge  Ge30  1  0.250000  0.411258  0.572673  1
  Ge  Ge31  1  0.250000  0.086637  0.397309  1
  Ge  Ge32  1  0.250000  0.081984  0.270775  1
  Ge  Ge33  1  0.750000  0.588759  0.428302  1
  Ge  Ge34  1  0.250000  0.419973  0.771843  1
  Ge  Ge35  1  0.750000  0.586722  0.102941  1
