# generated using pymatgen
data_AcCeRe2F14
_symmetry_space_group_name_H-M   'P 1'
_cell_length_a   5.81842662
_cell_length_b   6.22901041
_cell_length_c   8.44690000
_cell_angle_alpha   101.56308598
_cell_angle_beta   89.77560905
_cell_angle_gamma   90.05614488
_symmetry_Int_Tables_number   1
_chemical_formula_structural   AcCeRe2F14
_chemical_formula_sum   'Ac1 Ce1 Re2 F14'
_cell_volume   299.92576607
_cell_formula_units_Z   1
loop_
 _symmetry_equiv_pos_site_id
 _symmetry_equiv_pos_as_xyz
  1  'x, y, z'
loop_
 _atom_site_type_symbol
 _atom_site_label
 _atom_site_symmetry_multiplicity
 _atom_site_fract_x
 _atom_site_fract_y
 _atom_site_fract_z
 _atom_site_occupancy
  Ac  Ac0  1  0.705029  0.660718  0.685246  1
  Ce  Ce1  1  0.202199  0.334039  0.308948  1
  Re  Re2  1  0.713501  0.809810  0.222235  1
  Re  Re3  1  0.212199  0.192989  0.780460  1
  F  F4  1  0.875542  0.419185  0.459392  1
  F  F5  1  0.359819  0.559392  0.522721  1
  F  F6  1  0.395153  0.927352  0.780499  1
  F  F7  1  0.925989  0.055504  0.217621  1
  F  F8  1  0.932482  0.009893  0.770505  1
  F  F9  1  0.451168  0.018251  0.237609  1
  F  F10  1  0.028796  0.462946  0.791677  1
  F  F11  1  0.504900  0.555915  0.215283  1
  F  F12  1  0.700932  0.758250  0.985623  1
  F  F13  1  0.206173  0.243578  0.018634  1
  F  F14  1  0.727971  0.874250  0.461173  1
  F  F15  1  0.224097  0.135957  0.540698  1
  F  F16  1  0.499812  0.365592  0.792774  1
  F  F17  1  0.986953  0.616380  0.208902  1
