# generated using pymatgen
data_Al2GeCl8
_symmetry_space_group_name_H-M   'P 1'
_cell_length_a   7.16862300
_cell_length_b   7.25494765
_cell_length_c   13.29708570
_cell_angle_alpha   87.54053326
_cell_angle_beta   90.00000000
_cell_angle_gamma   90.00000000
_symmetry_Int_Tables_number   1
_chemical_formula_structural   Al2GeCl8
_chemical_formula_sum   'Al4 Ge2 Cl16'
_cell_volume   690.91758809
_cell_formula_units_Z   2
loop_
 _symmetry_equiv_pos_site_id
 _symmetry_equiv_pos_as_xyz
  1  'x, y, z'
loop_
 _atom_site_type_symbol
 _atom_site_label
 _atom_site_symmetry_multiplicity
 _atom_site_fract_x
 _atom_site_fract_y
 _atom_site_fract_z
 _atom_site_occupancy
  Al  Al0  1  0.927585  0.436852  0.540262  1
  Al  Al1  1  0.437486  0.854173  0.241703  1
  Al  Al2  1  0.562514  0.854173  0.741703  1
  Al  Al3  1  0.072415  0.436852  0.040262  1
  Ge  Ge4  1  0.741839  0.003548  0.508167  1
  Ge  Ge5  1  0.258161  0.003548  0.008167  1
  Cl  Cl6  1  0.929163  0.463937  0.176351  1
  Cl  Cl7  1  0.070837  0.463937  0.676351  1
  Cl  Cl8  1  0.637338  0.340112  0.558402  1
  Cl  Cl9  1  0.362662  0.340112  0.058402  1
  Cl  Cl10  1  0.930107  0.689299  0.446329  1
  Cl  Cl11  1  0.069893  0.689299  0.946329  1
  Cl  Cl12  1  0.436408  0.847687  0.591329  1
  Cl  Cl13  1  0.563592  0.847687  0.091329  1
  Cl  Cl14  1  0.042030  0.211906  0.453974  1
  Cl  Cl15  1  0.957970  0.211906  0.953974  1
  Cl  Cl16  1  0.154905  0.950113  0.200652  1
  Cl  Cl17  1  0.845095  0.950113  0.700652  1
  Cl  Cl18  1  0.437296  0.599407  0.321902  1
  Cl  Cl19  1  0.562704  0.599407  0.821902  1
  Cl  Cl20  1  0.578471  0.071566  0.319931  1
  Cl  Cl21  1  0.421529  0.071566  0.819931  1
