# generated using pymatgen
data_Pr6Nd4Tl7InPt4
_symmetry_space_group_name_H-M   'P 1'
_cell_length_a   3.79590900
_cell_length_b   8.40746399
_cell_length_c   19.04565825
_cell_angle_alpha   89.87533042
_cell_angle_beta   90.00000000
_cell_angle_gamma   90.00000000
_symmetry_Int_Tables_number   1
_chemical_formula_structural   Pr6Nd4Tl7InPt4
_chemical_formula_sum   'Pr6 Nd4 Tl7 In1 Pt4'
_cell_volume   607.82109303
_cell_formula_units_Z   1
loop_
 _symmetry_equiv_pos_site_id
 _symmetry_equiv_pos_as_xyz
  1  'x, y, z'
loop_
 _atom_site_type_symbol
 _atom_site_label
 _atom_site_symmetry_multiplicity
 _atom_site_fract_x
 _atom_site_fract_y
 _atom_site_fract_z
 _atom_site_occupancy
  Pr  Pr0  1  0.000000  0.117402  0.413636  1
  Pr  Pr1  1  0.000000  0.882228  0.585359  1
  Pr  Pr2  1  0.000000  0.382601  0.913520  1
  Pr  Pr3  1  0.000000  0.617147  0.086712  1
  Pr  Pr4  1  0.000000  0.000257  0.000004  1
  Pr  Pr5  1  0.000000  0.502432  0.499373  1
  Nd  Nd6  1  0.000000  0.243859  0.219675  1
  Nd  Nd7  1  0.000000  0.756825  0.780379  1
  Nd  Nd8  1  0.000000  0.256134  0.719222  1
  Nd  Nd9  1  0.000000  0.743237  0.281005  1
  Tl  Tl10  1  0.500000  0.428265  0.351840  1
  Tl  Tl11  1  0.500000  0.574428  0.648788  1
  Tl  Tl12  1  0.500000  0.074084  0.851114  1
  Tl  Tl13  1  0.500000  0.926226  0.149028  1
  Tl  Tl14  1  0.500000  0.291689  0.068662  1
  Tl  Tl15  1  0.500000  0.708249  0.931465  1
  Tl  Tl16  1  0.500000  0.208395  0.568445  1
  In  In17  1  0.500000  0.792871  0.430613  1
  Pt  Pt18  1  0.500000  0.020546  0.303991  1
  Pt  Pt19  1  0.500000  0.974681  0.697248  1
  Pt  Pt20  1  0.500000  0.474630  0.802455  1
  Pt  Pt21  1  0.500000  0.523816  0.197466  1
