# generated using pymatgen
data_Ho20Si12F
_symmetry_space_group_name_H-M   'P 1'
_cell_length_a   6.28198111
_cell_length_b   8.39276026
_cell_length_c   14.64520100
_cell_angle_alpha   90.00000683
_cell_angle_beta   90.00000000
_cell_angle_gamma   89.95771333
_symmetry_Int_Tables_number   1
_chemical_formula_structural   Ho20Si12F
_chemical_formula_sum   'Ho20 Si12 F1'
_cell_volume   772.14108614
_cell_formula_units_Z   1
loop_
 _symmetry_equiv_pos_site_id
 _symmetry_equiv_pos_as_xyz
  1  'x, y, z'
loop_
 _atom_site_type_symbol
 _atom_site_label
 _atom_site_symmetry_multiplicity
 _atom_site_fract_x
 _atom_site_fract_y
 _atom_site_fract_z
 _atom_site_occupancy
  Ho  Ho0  1  0.500006  0.000002  0.332930  1
  Ho  Ho1  1  0.500002  0.500002  0.831461  1
  Ho  Ho2  1  0.500002  0.500002  0.168539  1
  Ho  Ho3  1  0.500006  0.000002  0.667070  1
  Ho  Ho4  1  0.000003  0.499996  0.165676  1
  Ho  Ho5  1  0.000004  0.000006  0.666829  1
  Ho  Ho6  1  0.000004  0.000006  0.333171  1
  Ho  Ho7  1  0.000003  0.499996  0.834324  1
  Ho  Ho8  1  0.750884  0.247222  0.000000  1
  Ho  Ho9  1  0.750795  0.743795  0.500000  1
  Ho  Ho10  1  0.750769  0.377095  0.378987  1
  Ho  Ho11  1  0.755276  0.875497  0.876831  1
  Ho  Ho12  1  0.755276  0.875497  0.123169  1
  Ho  Ho13  1  0.750769  0.377095  0.621013  1
  Ho  Ho14  1  0.249120  0.752783  0.000000  1
  Ho  Ho15  1  0.249215  0.256202  0.500000  1
  Ho  Ho16  1  0.244731  0.124498  0.123167  1
  Ho  Ho17  1  0.249238  0.622909  0.621014  1
  Ho  Ho18  1  0.249238  0.622909  0.378986  1
  Ho  Ho19  1  0.244731  0.124498  0.876833  1
  Si  Si20  1  0.747765  0.607230  0.000000  1
  Si  Si21  1  0.750507  0.106398  0.500000  1
  Si  Si22  1  0.751930  0.195590  0.196287  1
  Si  Si23  1  0.752018  0.696299  0.697267  1
  Si  Si24  1  0.752018  0.696299  0.302733  1
  Si  Si25  1  0.751930  0.195590  0.803713  1
  Si  Si26  1  0.252234  0.392771  0.000000  1
  Si  Si27  1  0.249509  0.893605  0.500000  1
  Si  Si28  1  0.247999  0.303704  0.302733  1
  Si  Si29  1  0.248069  0.804407  0.803711  1
  Si  Si30  1  0.248069  0.804407  0.196289  1
  Si  Si31  1  0.247999  0.303704  0.697267  1
  F  F32  1  0.499885  0.999991  0.000000  1
