# generated using pymatgen
data_TbYb3Re3B16W
_symmetry_space_group_name_H-M   'P 1'
_cell_length_a   3.56595900
_cell_length_b   6.01427800
_cell_length_c   11.63242603
_cell_angle_alpha   90.00254753
_cell_angle_beta   90.00000000
_cell_angle_gamma   90.00000000
_symmetry_Int_Tables_number   1
_chemical_formula_structural   TbYb3Re3B16W
_chemical_formula_sum   'Tb1 Yb3 Re3 B16 W1'
_cell_volume   249.47678778
_cell_formula_units_Z   1
loop_
 _symmetry_equiv_pos_site_id
 _symmetry_equiv_pos_as_xyz
  1  'x, y, z'
loop_
 _atom_site_type_symbol
 _atom_site_label
 _atom_site_symmetry_multiplicity
 _atom_site_fract_x
 _atom_site_fract_y
 _atom_site_fract_z
 _atom_site_occupancy
  Tb  Tb0  1  0.000000  0.873256  0.849625  1
  Yb  Yb1  1  0.000000  0.628098  0.350504  1
  Yb  Yb2  1  0.000000  0.372645  0.649588  1
  Yb  Yb3  1  0.000000  0.127388  0.150992  1
  Re  Re4  1  0.000000  0.371499  0.914386  1
  Re  Re5  1  0.000000  0.131406  0.417211  1
  Re  Re6  1  0.000000  0.870638  0.583266  1
  B  B7  1  0.500000  0.787182  0.187410  1
  B  B8  1  0.500000  0.215775  0.814554  1
  B  B9  1  0.500000  0.283922  0.315648  1
  B  B10  1  0.500000  0.713982  0.684171  1
  B  B11  1  0.500000  0.867036  0.031823  1
  B  B12  1  0.500000  0.135290  0.967538  1
  B  B13  1  0.500000  0.365398  0.467999  1
  B  B14  1  0.500000  0.634032  0.531482  1
  B  B15  1  0.500000  0.884634  0.452566  1
  B  B16  1  0.500000  0.114643  0.548188  1
  B  B17  1  0.500000  0.381875  0.046655  1
  B  B18  1  0.500000  0.611264  0.951057  1
  B  B19  1  0.500000  0.976887  0.307860  1
  B  B20  1  0.500000  0.025304  0.692140  1
  B  B21  1  0.500000  0.474266  0.194139  1
  B  B22  1  0.500000  0.523260  0.806341  1
  W  W23  1  0.000000  0.630319  0.084856  1
