# generated using pymatgen
data_MoPt3Rh5
_symmetry_space_group_name_H-M   'P 1'
_cell_length_a   6.17898368
_cell_length_b   6.17898238
_cell_length_c   6.17898335
_cell_angle_alpha   95.74238213
_cell_angle_beta   95.60431519
_cell_angle_gamma   143.34898927
_symmetry_Int_Tables_number   1
_chemical_formula_structural   MoPt3Rh5
_chemical_formula_sum   'Mo1 Pt3 Rh5'
_cell_volume   133.68349474
_cell_formula_units_Z   1
loop_
 _symmetry_equiv_pos_site_id
 _symmetry_equiv_pos_as_xyz
  1  'x, y, z'
loop_
 _atom_site_type_symbol
 _atom_site_label
 _atom_site_symmetry_multiplicity
 _atom_site_fract_x
 _atom_site_fract_y
 _atom_site_fract_z
 _atom_site_occupancy
  Mo  Mo0  1  0.000000  0.003354  0.003354  1
  Pt  Pt1  1  0.000000  0.672060  0.672060  1
  Pt  Pt2  1  0.671811  0.998390  0.670201  1
  Pt  Pt3  1  0.328189  0.998390  0.326579  1
  Rh  Rh4  1  0.338032  0.339758  0.677790  1
  Rh  Rh5  1  0.659161  0.661748  0.320908  1
  Rh  Rh6  1  0.661968  0.339758  0.001725  1
  Rh  Rh7  1  0.340839  0.661748  0.002588  1
  Rh  Rh8  1  0.000000  0.324795  0.324795  1
