# generated using pymatgen
data_Tm3Ga2SnRu2
_symmetry_space_group_name_H-M   'P 1'
_cell_length_a   5.75468880
_cell_length_b   5.75468929
_cell_length_c   14.57376100
_cell_angle_alpha   90.00000000
_cell_angle_beta   90.00000000
_cell_angle_gamma   136.29972198
_symmetry_Int_Tables_number   1
_chemical_formula_structural   Tm3Ga2SnRu2
_chemical_formula_sum   'Tm6 Ga4 Sn2 Ru4'
_cell_volume   333.44307897
_cell_formula_units_Z   2
loop_
 _symmetry_equiv_pos_site_id
 _symmetry_equiv_pos_as_xyz
  1  'x, y, z'
loop_
 _atom_site_type_symbol
 _atom_site_label
 _atom_site_symmetry_multiplicity
 _atom_site_fract_x
 _atom_site_fract_y
 _atom_site_fract_z
 _atom_site_occupancy
  Tm  Tm0  1  0.916671  0.083329  0.397021  1
  Tm  Tm1  1  0.083329  0.916671  0.602979  1
  Tm  Tm2  1  0.916671  0.083329  0.102979  1
  Tm  Tm3  1  0.083329  0.916671  0.897021  1
  Tm  Tm4  1  0.635082  0.364918  0.250000  1
  Tm  Tm5  1  0.364918  0.635082  0.750000  1
  Ga  Ga6  1  0.615209  0.384791  0.457280  1
  Ga  Ga7  1  0.384791  0.615209  0.542720  1
  Ga  Ga8  1  0.615209  0.384791  0.042720  1
  Ga  Ga9  1  0.384791  0.615209  0.957280  1
  Sn  Sn10  1  0.341969  0.658031  0.250000  1
  Sn  Sn11  1  0.658031  0.341969  0.750000  1
  Ru  Ru12  1  0.784321  0.215679  0.914659  1
  Ru  Ru13  1  0.215679  0.784321  0.085341  1
  Ru  Ru14  1  0.784321  0.215679  0.585341  1
  Ru  Ru15  1  0.215679  0.784321  0.414659  1
