# generated using pymatgen
data_Rb4Na2TmAlBi4
_symmetry_space_group_name_H-M   'P 1'
_cell_length_a   10.12055930
_cell_length_b   10.12056098
_cell_length_c   10.12056028
_cell_angle_alpha   136.26116135
_cell_angle_beta   62.46458094
_cell_angle_gamma   137.71422764
_symmetry_Int_Tables_number   1
_chemical_formula_structural   Rb4Na2TmAlBi4
_chemical_formula_sum   'Rb4 Na2 Tm1 Al1 Bi4'
_cell_volume   476.35872562
_cell_formula_units_Z   1
loop_
 _symmetry_equiv_pos_site_id
 _symmetry_equiv_pos_as_xyz
  1  'x, y, z'
loop_
 _atom_site_type_symbol
 _atom_site_label
 _atom_site_symmetry_multiplicity
 _atom_site_fract_x
 _atom_site_fract_y
 _atom_site_fract_z
 _atom_site_occupancy
  Rb  Rb0  1  0.331076  0.772430  0.095982  1
  Rb  Rb1  1  0.168925  0.264905  0.441355  1
  Rb  Rb2  1  0.823550  0.727570  0.558645  1
  Rb  Rb3  1  0.676450  0.235095  0.904019  1
  Na  Na4  1  0.749999  0.249999  0.500000  1
  Na  Na5  1  0.249999  0.749999  0.500000  1
  Tm  Tm6  1  0.249999  0.249999  0.000000  1
  Al  Al7  1  0.750000  0.750000  0.000000  1
  Bi  Bi8  1  0.885712  0.201400  0.116968  1
  Bi  Bi9  1  0.614288  0.731256  0.315688  1
  Bi  Bi10  1  0.415570  0.298600  0.684312  1
  Bi  Bi11  1  0.084430  0.768744  0.883031  1
