# generated using pymatgen
data_Sm5DyP13Rh20
_symmetry_space_group_name_H-M   'P 1'
_cell_length_a   13.41529532
_cell_length_b   13.40978478
_cell_length_c   3.93728905
_cell_angle_alpha   89.99776474
_cell_angle_beta   89.98554528
_cell_angle_gamma   119.99290908
_symmetry_Int_Tables_number   1
_chemical_formula_structural   Sm5DyP13Rh20
_chemical_formula_sum   'Sm5 Dy1 P13 Rh20'
_cell_volume   613.45255752
_cell_formula_units_Z   1
loop_
 _symmetry_equiv_pos_site_id
 _symmetry_equiv_pos_as_xyz
  1  'x, y, z'
loop_
 _atom_site_type_symbol
 _atom_site_label
 _atom_site_symmetry_multiplicity
 _atom_site_fract_x
 _atom_site_fract_y
 _atom_site_fract_z
 _atom_site_occupancy
  Sm  Sm0  1  0.283077  0.812925  0.247334  1
  Sm  Sm1  1  0.187290  0.470183  0.247367  1
  Sm  Sm2  1  0.469759  0.282880  0.752572  1
  Sm  Sm3  1  0.717058  0.186693  0.752749  1
  Sm  Sm4  1  0.813082  0.530377  0.752651  1
  Dy  Dy5  1  0.530484  0.717126  0.247465  1
  P  P6  1  0.524173  0.137576  0.250869  1
  P  P7  1  0.862189  0.386355  0.250939  1
  P  P8  1  0.613647  0.475941  0.250751  1
  P  P9  1  0.947195  0.717325  0.254759  1
  P  P10  1  0.282741  0.230375  0.254853  1
  P  P11  1  0.770000  0.052524  0.255057  1
  P  P12  1  0.387383  0.525627  0.749163  1
  P  P13  1  0.475845  0.861075  0.749089  1
  P  P14  1  0.138337  0.613891  0.749078  1
  P  P15  1  0.715894  0.769312  0.745274  1
  P  P16  1  0.230100  0.947429  0.745305  1
  P  P17  1  0.052691  0.282663  0.745419  1
  P  P18  1  0.999773  0.999887  0.999994  1
  Rh  Rh19  1  0.334625  0.666874  0.751211  1
  Rh  Rh20  1  0.922058  0.249345  0.255062  1
  Rh  Rh21  1  0.750111  0.672714  0.255063  1
  Rh  Rh22  1  0.327383  0.077917  0.255165  1
  Rh  Rh23  1  0.439737  0.024145  0.751825  1
  Rh  Rh24  1  0.975729  0.415280  0.751742  1
  Rh  Rh25  1  0.584503  0.561746  0.751911  1
  Rh  Rh26  1  0.666615  0.333399  0.248590  1
  Rh  Rh27  1  0.093036  0.186120  0.246315  1
  Rh  Rh28  1  0.813601  0.906787  0.245746  1
  Rh  Rh29  1  0.092814  0.906980  0.246528  1
  Rh  Rh30  1  0.024469  0.584884  0.248248  1
  Rh  Rh31  1  0.415803  0.440712  0.248243  1
  Rh  Rh32  1  0.560452  0.974786  0.248132  1
  Rh  Rh33  1  0.671459  0.919734  0.744571  1
  Rh  Rh34  1  0.078143  0.750825  0.745006  1
  Rh  Rh35  1  0.249824  0.327910  0.744991  1
  Rh  Rh36  1  0.906183  0.813629  0.753639  1
  Rh  Rh37  1  0.186138  0.093062  0.753901  1
  Rh  Rh38  1  0.906596  0.092988  0.753425  1
