# generated using pymatgen
data_SnSb11Ir3Pt
_symmetry_space_group_name_H-M   'P 1'
_cell_length_a   8.14817118
_cell_length_b   8.14997843
_cell_length_c   8.14367100
_cell_angle_alpha   109.54209292
_cell_angle_beta   109.17454641
_cell_angle_gamma   109.65775565
_symmetry_Int_Tables_number   1
_chemical_formula_structural   SnSb11Ir3Pt
_chemical_formula_sum   'Sn1 Sb11 Ir3 Pt1'
_cell_volume   416.50373956
_cell_formula_units_Z   1
loop_
 _symmetry_equiv_pos_site_id
 _symmetry_equiv_pos_as_xyz
  1  'x, y, z'
loop_
 _atom_site_type_symbol
 _atom_site_label
 _atom_site_symmetry_multiplicity
 _atom_site_fract_x
 _atom_site_fract_y
 _atom_site_fract_z
 _atom_site_occupancy
  Sn  Sn0  1  0.151717  0.813764  0.656768  1
  Sb  Sb1  1  0.851683  0.192918  0.346115  1
  Sb  Sb2  1  0.848240  0.509041  0.661040  1
  Sb  Sb3  1  0.156289  0.498241  0.342886  1
  Sb  Sb4  1  0.817171  0.661827  0.155629  1
  Sb  Sb5  1  0.182447  0.336748  0.844752  1
  Sb  Sb6  1  0.504065  0.655080  0.844016  1
  Sb  Sb7  1  0.494095  0.343099  0.154820  1
  Sb  Sb8  1  0.657993  0.153891  0.809148  1
  Sb  Sb9  1  0.338747  0.842320  0.187806  1
  Sb  Sb10  1  0.661655  0.843674  0.506128  1
  Sb  Sb11  1  0.337465  0.152698  0.493225  1
  Ir  Ir12  1  0.998611  0.001736  0.498286  1
  Ir  Ir13  1  0.998006  0.497004  0.998237  1
  Ir  Ir14  1  0.499258  0.496961  0.499046  1
  Pt  Pt15  1  0.502558  0.001002  0.002099  1
