# generated using pymatgen
data_Ho3Mg(Si4Tc3)2
_symmetry_space_group_name_H-M   'P 1'
_cell_length_a   6.77234911
_cell_length_b   6.62554244
_cell_length_c   6.75918148
_cell_angle_alpha   70.53524798
_cell_angle_beta   89.81902212
_cell_angle_gamma   90.05029107
_symmetry_Int_Tables_number   1
_chemical_formula_structural   Ho3Mg(Si4Tc3)2
_chemical_formula_sum   'Ho3 Mg1 Si8 Tc6'
_cell_volume   285.95182920
_cell_formula_units_Z   1
loop_
 _symmetry_equiv_pos_site_id
 _symmetry_equiv_pos_as_xyz
  1  'x, y, z'
loop_
 _atom_site_type_symbol
 _atom_site_label
 _atom_site_symmetry_multiplicity
 _atom_site_fract_x
 _atom_site_fract_y
 _atom_site_fract_z
 _atom_site_occupancy
  Ho  Ho0  1  0.166466  0.059433  0.806691  1
  Ho  Ho1  1  0.334523  0.556839  0.810914  1
  Ho  Ho2  1  0.830869  0.942122  0.192738  1
  Mg  Mg3  1  0.669688  0.449366  0.186741  1
  Si  Si4  1  0.453287  0.125192  0.106094  1
  Si  Si5  1  0.948946  0.378366  0.902041  1
  Si  Si6  1  0.549136  0.876168  0.900904  1
  Si  Si7  1  0.041485  0.618538  0.104118  1
  Si  Si8  1  0.853065  0.142265  0.503989  1
  Si  Si9  1  0.367252  0.366866  0.483337  1
  Si  Si10  1  0.140617  0.866168  0.487911  1
  Si  Si11  1  0.642098  0.625620  0.507959  1
  Tc  Tc12  1  0.503187  0.002478  0.498946  1
  Tc  Tc13  1  0.998397  0.498105  0.500771  1
  Tc  Tc14  1  0.154248  0.242007  0.237486  1
  Tc  Tc15  1  0.653287  0.253432  0.770913  1
  Tc  Tc16  1  0.846122  0.758189  0.763324  1
  Tc  Tc17  1  0.347328  0.738847  0.235124  1
