# generated using pymatgen
data_Ho4Tm4CdInNi2
_symmetry_space_group_name_H-M   'P 1'
_cell_length_a   9.47379516
_cell_length_b   9.47384074
_cell_length_c   9.49241500
_cell_angle_alpha   59.93552439
_cell_angle_beta   59.93526182
_cell_angle_gamma   60.05725986
_symmetry_Int_Tables_number   1
_chemical_formula_structural   Ho4Tm4CdInNi2
_chemical_formula_sum   'Ho8 Tm8 Cd2 In2 Ni4'
_cell_volume   602.10774250
_cell_formula_units_Z   2
loop_
 _symmetry_equiv_pos_site_id
 _symmetry_equiv_pos_as_xyz
  1  'x, y, z'
loop_
 _atom_site_type_symbol
 _atom_site_label
 _atom_site_symmetry_multiplicity
 _atom_site_fract_x
 _atom_site_fract_y
 _atom_site_fract_z
 _atom_site_occupancy
  Ho  Ho0  1  0.347927  0.347919  0.348717  1
  Ho  Ho1  1  0.347932  0.347923  0.955434  1
  Ho  Ho2  1  0.350329  0.952457  0.348613  1
  Ho  Ho3  1  0.952453  0.350327  0.348616  1
  Ho  Ho4  1  0.811925  0.188797  0.188123  1
  Ho  Ho5  1  0.188789  0.811930  0.811150  1
  Ho  Ho6  1  0.188792  0.811929  0.188123  1
  Ho  Ho7  1  0.811927  0.188793  0.811148  1
  Tm  Tm8  1  0.188045  0.188049  0.811951  1
  Tm  Tm9  1  0.810124  0.810123  0.189873  1
  Tm  Tm10  1  0.937584  0.564370  0.564013  1
  Tm  Tm11  1  0.564358  0.937586  0.934042  1
  Tm  Tm12  1  0.564370  0.937581  0.564016  1
  Tm  Tm13  1  0.937590  0.564358  0.934044  1
  Tm  Tm14  1  0.564903  0.564907  0.935098  1
  Tm  Tm15  1  0.937092  0.937091  0.562905  1
  Cd  Cd16  1  0.580727  0.252828  0.583219  1
  Cd  Cd17  1  0.252828  0.580728  0.583218  1
  In  In18  1  0.581856  0.581855  0.583404  1
  In  In19  1  0.581854  0.581853  0.252883  1
  Ni  Ni20  1  0.142272  0.142278  0.142802  1
  Ni  Ni21  1  0.142269  0.142270  0.572652  1
  Ni  Ni22  1  0.140818  0.573245  0.142973  1
  Ni  Ni23  1  0.573237  0.140801  0.142988  1
