# generated using pymatgen
data_Tb3ErGa18(Pd2Ru)2
_symmetry_space_group_name_H-M   'P 1'
_cell_length_a   7.62798846
_cell_length_b   7.62948116
_cell_length_c   9.57248669
_cell_angle_alpha   89.92925764
_cell_angle_beta   89.86926815
_cell_angle_gamma   119.93464853
_symmetry_Int_Tables_number   1
_chemical_formula_structural   Tb3ErGa18(Pd2Ru)2
_chemical_formula_sum   'Tb3 Er1 Ga18 Pd4 Ru2'
_cell_volume   482.77335542
_cell_formula_units_Z   1
loop_
 _symmetry_equiv_pos_site_id
 _symmetry_equiv_pos_as_xyz
  1  'x, y, z'
loop_
 _atom_site_type_symbol
 _atom_site_label
 _atom_site_symmetry_multiplicity
 _atom_site_fract_x
 _atom_site_fract_y
 _atom_site_fract_z
 _atom_site_occupancy
  Tb  Tb0  1  0.996307  0.668547  0.250130  1
  Tb  Tb1  1  0.003731  0.331677  0.749921  1
  Tb  Tb2  1  0.668239  0.995984  0.250205  1
  Er  Er3  1  0.331595  0.003837  0.749299  1
  Ga  Ga4  1  0.130256  0.129779  0.251071  1
  Ga  Ga5  1  0.870478  0.870282  0.749052  1
  Ga  Ga6  1  0.000965  0.334018  0.082565  1
  Ga  Ga7  1  0.000496  0.667234  0.916547  1
  Ga  Ga8  1  0.001555  0.661529  0.577422  1
  Ga  Ga9  1  0.339162  0.999170  0.424312  1
  Ga  Ga10  1  0.998688  0.339129  0.423634  1
  Ga  Ga11  1  0.660160  0.001398  0.577502  1
  Ga  Ga12  1  0.664959  0.999401  0.916570  1
  Ga  Ga13  1  0.334089  0.000770  0.081382  1
  Ga  Ga14  1  0.336782  0.336162  0.563790  1
  Ga  Ga15  1  0.662803  0.662615  0.437812  1
  Ga  Ga16  1  0.664346  0.664324  0.073990  1
  Ga  Ga17  1  0.335508  0.334504  0.924321  1
  Ga  Ga18  1  0.335534  0.544883  0.254824  1
  Ga  Ga19  1  0.664248  0.454481  0.745388  1
  Ga  Ga20  1  0.544831  0.335078  0.254951  1
  Ga  Ga21  1  0.455215  0.665099  0.745449  1
  Pd  Pd22  1  0.670797  0.330283  0.999627  1
  Pd  Pd23  1  0.329638  0.669662  0.999914  1
  Pd  Pd24  1  0.999771  0.999979  0.999514  1
  Pd  Pd25  1  0.000118  0.000316  0.500005  1
  Ru  Ru26  1  0.327889  0.671858  0.500396  1
  Ru  Ru27  1  0.671840  0.328003  0.500407  1
