# generated using pymatgen
data_CeTh3(Si2Ag)2
_symmetry_space_group_name_H-M   'P 1'
_cell_length_a   7.32814533
_cell_length_b   7.32814503
_cell_length_c   4.29415600
_cell_angle_alpha   90.00000000
_cell_angle_beta   90.00000000
_cell_angle_gamma   90.42847579
_symmetry_Int_Tables_number   1
_chemical_formula_structural   CeTh3(Si2Ag)2
_chemical_formula_sum   'Ce1 Th3 Si4 Ag2'
_cell_volume   230.59707961
_cell_formula_units_Z   1
loop_
 _symmetry_equiv_pos_site_id
 _symmetry_equiv_pos_as_xyz
  1  'x, y, z'
loop_
 _atom_site_type_symbol
 _atom_site_label
 _atom_site_symmetry_multiplicity
 _atom_site_fract_x
 _atom_site_fract_y
 _atom_site_fract_z
 _atom_site_occupancy
  Ce  Ce0  1  0.680962  0.680962  0.500000  1
  Th  Th1  1  0.320228  0.320228  0.500000  1
  Th  Th2  1  0.179258  0.818383  0.500000  1
  Th  Th3  1  0.818383  0.179258  0.500000  1
  Si  Si4  1  0.113821  0.113821  0.000000  1
  Si  Si5  1  0.882264  0.882264  0.000000  1
  Si  Si6  1  0.617713  0.389309  0.000000  1
  Si  Si7  1  0.389309  0.617713  0.000000  1
  Ag  Ag8  1  0.500792  0.997269  0.000000  1
  Ag  Ag9  1  0.997269  0.500792  0.000000  1
