# generated using pymatgen
data_Dy4TmGe6P6Ir19
_symmetry_space_group_name_H-M   'P 1'
_cell_length_a   12.95462461
_cell_length_b   12.95568368
_cell_length_c   3.97054400
_cell_angle_alpha   90.00000000
_cell_angle_beta   90.00000000
_cell_angle_gamma   119.91173917
_symmetry_Int_Tables_number   1
_chemical_formula_structural   Dy4TmGe6P6Ir19
_chemical_formula_sum   'Dy4 Tm1 Ge6 P6 Ir19'
_cell_volume   577.63217679
_cell_formula_units_Z   1
loop_
 _symmetry_equiv_pos_site_id
 _symmetry_equiv_pos_as_xyz
  1  'x, y, z'
loop_
 _atom_site_type_symbol
 _atom_site_label
 _atom_site_symmetry_multiplicity
 _atom_site_fract_x
 _atom_site_fract_y
 _atom_site_fract_z
 _atom_site_occupancy
  Dy  Dy0  1  0.333383  0.666682  0.500000  1
  Dy  Dy1  1  0.666643  0.333334  0.500000  1
  Dy  Dy2  1  0.180883  0.182455  0.000000  1
  Dy  Dy3  1  0.817447  0.998263  0.000000  1
  Tm  Tm4  1  0.002045  0.819621  0.000000  1
  Ge  Ge5  1  0.998450  0.639834  0.500000  1
  Ge  Ge6  1  0.360655  0.359357  0.500000  1
  Ge  Ge7  1  0.640646  0.001264  0.500000  1
  Ge  Ge8  1  0.518908  0.678213  0.000000  1
  Ge  Ge9  1  0.321814  0.840502  0.000000  1
  Ge  Ge10  1  0.159456  0.481509  0.000000  1
  P  P11  1  0.483771  0.178288  0.000000  1
  P  P12  1  0.694446  0.516143  0.000000  1
  P  P13  1  0.821501  0.305507  0.000000  1
  P  P14  1  0.994716  0.174752  0.500000  1
  P  P15  1  0.825352  0.819373  0.500000  1
  P  P16  1  0.180128  0.004977  0.500000  1
  Ir  Ir17  1  0.520852  0.870218  0.000000  1
  Ir  Ir18  1  0.129693  0.650992  0.000000  1
  Ir  Ir19  1  0.349446  0.479307  0.000000  1
  Ir  Ir20  1  0.499898  0.368753  0.000000  1
  Ir  Ir21  1  0.868902  0.500121  0.000000  1
  Ir  Ir22  1  0.631164  0.131076  0.000000  1
  Ir  Ir23  1  0.007953  0.454321  0.500000  1
  Ir  Ir24  1  0.545972  0.554058  0.500000  1
  Ir  Ir25  1  0.445745  0.991900  0.500000  1
  Ir  Ir26  1  0.989764  0.270613  0.000000  1
  Ir  Ir27  1  0.730578  0.719634  0.000000  1
  Ir  Ir28  1  0.280586  0.009999  0.000000  1
  Ir  Ir29  1  0.639098  0.808902  0.500000  1
  Ir  Ir30  1  0.189530  0.829922  0.500000  1
  Ir  Ir31  1  0.170005  0.360974  0.500000  1
  Ir  Ir32  1  0.386167  0.179649  0.500000  1
  Ir  Ir33  1  0.794264  0.614170  0.500000  1
  Ir  Ir34  1  0.820184  0.206407  0.500000  1
  Ir  Ir35  1  0.999960  0.998908  0.500000  1
