# generated using pymatgen
data_YMgP6Pd20Pb
_symmetry_space_group_name_H-M   'P 1'
_cell_length_a   8.66862213
_cell_length_b   8.66840451
_cell_length_c   8.66867000
_cell_angle_alpha   60.00026175
_cell_angle_beta   59.99635852
_cell_angle_gamma   59.99608826
_symmetry_Int_Tables_number   1
_chemical_formula_structural   YMgP6Pd20Pb
_chemical_formula_sum   'Y1 Mg1 P6 Pd20 Pb1'
_cell_volume   460.57756601
_cell_formula_units_Z   1
loop_
 _symmetry_equiv_pos_site_id
 _symmetry_equiv_pos_as_xyz
  1  'x, y, z'
loop_
 _atom_site_type_symbol
 _atom_site_label
 _atom_site_symmetry_multiplicity
 _atom_site_fract_x
 _atom_site_fract_y
 _atom_site_fract_z
 _atom_site_occupancy
  Y  Y0  1  0.749988  0.749986  0.749999  1
  Mg  Mg1  1  0.999988  0.000004  0.000005  1
  P  P2  1  0.736707  0.263262  0.263249  1
  P  P3  1  0.263285  0.736731  0.736754  1
  P  P4  1  0.263255  0.736724  0.263234  1
  P  P5  1  0.736738  0.263269  0.736772  1
  P  P6  1  0.263247  0.263237  0.736737  1
  P  P7  1  0.736744  0.736759  0.263266  1
  Pd  Pd8  1  0.384292  0.384298  0.384303  1
  Pd  Pd9  1  0.615075  0.615066  0.615074  1
  Pd  Pd10  1  0.384291  0.384287  0.847139  1
  Pd  Pd11  1  0.384272  0.847198  0.384270  1
  Pd  Pd12  1  0.615060  0.615071  0.154781  1
  Pd  Pd13  1  0.615062  0.154772  0.615077  1
  Pd  Pd14  1  0.847204  0.384271  0.384273  1
  Pd  Pd15  1  0.154772  0.615062  0.615069  1
  Pd  Pd16  1  0.345942  0.996871  0.996877  1
  Pd  Pd17  1  0.660295  0.996876  0.996881  1
  Pd  Pd18  1  0.996876  0.345953  0.660287  1
  Pd  Pd19  1  0.996879  0.660278  0.345956  1
  Pd  Pd20  1  0.996870  0.345944  0.996874  1
  Pd  Pd21  1  0.660277  0.996877  0.345960  1
  Pd  Pd22  1  0.996877  0.660296  0.996881  1
  Pd  Pd23  1  0.345950  0.996874  0.660289  1
  Pd  Pd24  1  0.996867  0.996867  0.345949  1
  Pd  Pd25  1  0.996879  0.996875  0.660304  1
  Pd  Pd26  1  0.660272  0.345956  0.996886  1
  Pd  Pd27  1  0.345947  0.660271  0.996889  1
  Pb  Pb28  1  0.250086  0.250068  0.249963  1
