# generated using pymatgen
data_KCeSmSe6
_symmetry_space_group_name_H-M   'P 1'
_cell_length_a   11.70245652
_cell_length_b   11.70245658
_cell_length_c   11.70245658
_cell_angle_alpha   159.03036806
_cell_angle_beta   152.01611717
_cell_angle_gamma   35.22931398
_symmetry_Int_Tables_number   1
_chemical_formula_structural   KCeSmSe6
_chemical_formula_sum   'K1 Ce1 Sm1 Se6'
_cell_volume   268.82975645
_cell_formula_units_Z   1
loop_
 _symmetry_equiv_pos_site_id
 _symmetry_equiv_pos_as_xyz
  1  'x, y, z'
loop_
 _atom_site_type_symbol
 _atom_site_label
 _atom_site_symmetry_multiplicity
 _atom_site_fract_x
 _atom_site_fract_y
 _atom_site_fract_z
 _atom_site_occupancy
  K  K0  1  0.995693  0.995693  0.000000  1
  Ce  Ce1  1  0.686753  0.186753  0.500000  1
  Sm  Sm2  1  0.316973  0.816973  0.500000  1
  Se  Se3  1  0.180895  0.395772  0.785123  1
  Se  Se4  1  0.222605  0.222605  0.000000  1
  Se  Se5  1  0.395269  0.606487  0.788783  1
  Se  Se6  1  0.610650  0.395772  0.214877  1
  Se  Se7  1  0.817704  0.606487  0.211217  1
  Se  Se8  1  0.773460  0.773460  0.000000  1
