# generated using pymatgen
data_DyY2Ho9Co5Sn
_symmetry_space_group_name_H-M   'P 1'
_cell_length_a   8.24137120
_cell_length_b   8.24143806
_cell_length_c   8.24035232
_cell_angle_alpha   106.95365319
_cell_angle_beta   110.74532195
_cell_angle_gamma   110.74845193
_symmetry_Int_Tables_number   1
_chemical_formula_structural   DyY2Ho9Co5Sn
_chemical_formula_sum   'Dy1 Y2 Ho9 Co5 Sn1'
_cell_volume   430.20366993
_cell_formula_units_Z   1
loop_
 _symmetry_equiv_pos_site_id
 _symmetry_equiv_pos_as_xyz
  1  'x, y, z'
loop_
 _atom_site_type_symbol
 _atom_site_label
 _atom_site_symmetry_multiplicity
 _atom_site_fract_x
 _atom_site_fract_y
 _atom_site_fract_z
 _atom_site_occupancy
  Dy  Dy0  1  0.807166  0.208456  0.015927  1
  Y  Y1  1  0.478131  0.291111  0.187213  1
  Y  Y2  1  0.104229  0.291515  0.812491  1
  Ho  Ho3  1  0.894668  0.708883  0.185979  1
  Ho  Ho4  1  0.522001  0.708053  0.813723  1
  Ho  Ho5  1  0.306413  0.620501  0.314552  1
  Ho  Ho6  1  0.305718  0.991787  0.685643  1
  Ho  Ho7  1  0.693713  0.380603  0.686474  1
  Ho  Ho8  1  0.693904  0.007174  0.313739  1
  Ho  Ho9  1  0.193056  0.208745  0.402109  1
  Ho  Ho10  1  0.807088  0.791059  0.598444  1
  Ho  Ho11  1  0.192846  0.791015  0.984167  1
  Co  Co12  1  0.501373  0.613686  0.112623  1
  Co  Co13  1  0.500694  0.388803  0.887075  1
  Co  Co14  1  0.376253  0.999958  0.376602  1
  Co  Co15  1  0.622763  0.999638  0.622782  1
  Co  Co16  1  0.000040  0.998925  0.000311  1
  Sn  Sn17  1  0.999944  0.500086  0.500147  1
