# generated using pymatgen
data_Sm2Co10As7Ru2
_symmetry_space_group_name_H-M   'P 1'
_cell_length_a   3.82390400
_cell_length_b   9.41715196
_cell_length_c   9.42450404
_cell_angle_alpha   120.29614101
_cell_angle_beta   90.00000000
_cell_angle_gamma   90.00000000
_symmetry_Int_Tables_number   1
_chemical_formula_structural   Sm2Co10As7Ru2
_chemical_formula_sum   'Sm2 Co10 As7 Ru2'
_cell_volume   293.02991701
_cell_formula_units_Z   1
loop_
 _symmetry_equiv_pos_site_id
 _symmetry_equiv_pos_as_xyz
  1  'x, y, z'
loop_
 _atom_site_type_symbol
 _atom_site_label
 _atom_site_symmetry_multiplicity
 _atom_site_fract_x
 _atom_site_fract_y
 _atom_site_fract_z
 _atom_site_occupancy
  Sm  Sm0  1  0.000000  0.668081  0.336096  1
  Sm  Sm1  1  0.500000  0.335518  0.667395  1
  Co  Co2  1  0.000000  0.568640  0.942126  1
  Co  Co3  1  0.000000  0.370278  0.428989  1
  Co  Co4  1  0.000000  0.057364  0.626169  1
  Co  Co5  1  0.500000  0.103700  0.876585  1
  Co  Co6  1  0.000000  0.875390  0.156050  1
  Co  Co7  1  0.000000  0.278918  0.122513  1
  Co  Co8  1  0.000000  0.846733  0.722140  1
  Co  Co9  1  0.500000  0.946945  0.381429  1
  Co  Co10  1  0.500000  0.430328  0.050537  1
  Co  Co11  1  0.500000  0.618265  0.565903  1
  As  As12  1  0.000000  0.001049  0.999530  1
  As  As13  1  0.500000  0.705086  0.114571  1
  As  As14  1  0.500000  0.406127  0.292082  1
  As  As15  1  0.500000  0.889472  0.598079  1
  As  As16  1  0.000000  0.591772  0.702298  1
  As  As17  1  0.000000  0.111077  0.410295  1
  As  As18  1  0.000000  0.295313  0.887099  1
  Ru  Ru19  1  0.500000  0.783632  0.903496  1
  Ru  Ru20  1  0.500000  0.116312  0.216621  1
