# generated using pymatgen
data_Yb2PrTmCu2Sn5
_symmetry_space_group_name_H-M   'P 1'
_cell_length_a   4.42693400
_cell_length_b   8.75154200
_cell_length_c   14.18862800
_cell_angle_alpha   90.00000000
_cell_angle_beta   90.00000000
_cell_angle_gamma   90.00000000
_symmetry_Int_Tables_number   1
_chemical_formula_structural   Yb2PrTmCu2Sn5
_chemical_formula_sum   'Yb4 Pr2 Tm2 Cu4 Sn10'
_cell_volume   549.70290372
_cell_formula_units_Z   2
loop_
 _symmetry_equiv_pos_site_id
 _symmetry_equiv_pos_as_xyz
  1  'x, y, z'
loop_
 _atom_site_type_symbol
 _atom_site_label
 _atom_site_symmetry_multiplicity
 _atom_site_fract_x
 _atom_site_fract_y
 _atom_site_fract_z
 _atom_site_occupancy
  Yb  Yb0  1  0.500000  0.791324  0.744293  1
  Yb  Yb1  1  0.000000  0.208676  0.755707  1
  Yb  Yb2  1  0.000000  0.208676  0.244293  1
  Yb  Yb3  1  0.500000  0.791324  0.255707  1
  Pr  Pr4  1  0.500000  0.140137  0.000000  1
  Pr  Pr5  1  0.000000  0.859863  0.500000  1
  Tm  Tm6  1  0.500000  0.694517  0.000000  1
  Tm  Tm7  1  0.000000  0.305483  0.500000  1
  Cu  Cu8  1  0.500000  0.377557  0.644678  1
  Cu  Cu9  1  0.000000  0.622443  0.855322  1
  Cu  Cu10  1  0.000000  0.622443  0.144678  1
  Cu  Cu11  1  0.500000  0.377557  0.355322  1
  Sn  Sn12  1  0.500000  0.085376  0.396328  1
  Sn  Sn13  1  0.000000  0.556149  0.663838  1
  Sn  Sn14  1  0.000000  0.414886  0.000000  1
  Sn  Sn15  1  0.500000  0.443851  0.163838  1
  Sn  Sn16  1  0.500000  0.585114  0.500000  1
  Sn  Sn17  1  0.500000  0.443851  0.836162  1
  Sn  Sn18  1  0.000000  0.914624  0.896328  1
  Sn  Sn19  1  0.000000  0.556149  0.336162  1
  Sn  Sn20  1  0.500000  0.085376  0.603672  1
  Sn  Sn21  1  0.000000  0.914624  0.103672  1
