# generated using pymatgen
data_Zr4Mn3Al2Re3
_symmetry_space_group_name_H-M   'P 1'
_cell_length_a   5.20170900
_cell_length_b   5.11619040
_cell_length_c   8.53717000
_cell_angle_alpha   90.00000000
_cell_angle_beta   90.00000000
_cell_angle_gamma   120.55447554
_symmetry_Int_Tables_number   1
_chemical_formula_structural   Zr4Mn3Al2Re3
_chemical_formula_sum   'Zr4 Mn3 Al2 Re3'
_cell_volume   195.65167848
_cell_formula_units_Z   1
loop_
 _symmetry_equiv_pos_site_id
 _symmetry_equiv_pos_as_xyz
  1  'x, y, z'
loop_
 _atom_site_type_symbol
 _atom_site_label
 _atom_site_symmetry_multiplicity
 _atom_site_fract_x
 _atom_site_fract_y
 _atom_site_fract_z
 _atom_site_occupancy
  Zr  Zr0  1  0.333326  0.666653  0.436936  1
  Zr  Zr1  1  0.665754  0.331506  0.932353  1
  Zr  Zr2  1  0.665754  0.331506  0.567647  1
  Zr  Zr3  1  0.333326  0.666653  0.063064  1
  Mn  Mn4  1  0.659396  0.831363  0.750000  1
  Mn  Mn5  1  0.832166  0.664333  0.250000  1
  Mn  Mn6  1  0.171967  0.831363  0.750000  1
  Al  Al7  1  0.993821  0.987643  0.993569  1
  Al  Al8  1  0.993821  0.987643  0.506431  1
  Re  Re9  1  0.177200  0.354400  0.750000  1
  Re  Re10  1  0.831491  0.173469  0.250000  1
  Re  Re11  1  0.341977  0.173469  0.250000  1
