# generated using pymatgen
data_Tb3Dy5Ti7Si16Mo5
_symmetry_space_group_name_H-M   'P 1'
_cell_length_a   6.80188878
_cell_length_b   6.99650126
_cell_length_c   13.20675338
_cell_angle_alpha   89.95598220
_cell_angle_beta   89.97010819
_cell_angle_gamma   90.05443882
_symmetry_Int_Tables_number   1
_chemical_formula_structural   Tb3Dy5Ti7Si16Mo5
_chemical_formula_sum   'Tb3 Dy5 Ti7 Si16 Mo5'
_cell_volume   628.50122303
_cell_formula_units_Z   1
loop_
 _symmetry_equiv_pos_site_id
 _symmetry_equiv_pos_as_xyz
  1  'x, y, z'
loop_
 _atom_site_type_symbol
 _atom_site_label
 _atom_site_symmetry_multiplicity
 _atom_site_fract_x
 _atom_site_fract_y
 _atom_site_fract_z
 _atom_site_occupancy
  Tb  Tb0  1  0.502483  0.670411  0.904884  1
  Tb  Tb1  1  0.496279  0.330991  0.401808  1
  Tb  Tb2  1  0.998943  0.169022  0.095985  1
  Dy  Dy3  1  0.997641  0.169706  0.402815  1
  Dy  Dy4  1  0.497774  0.328323  0.096588  1
  Dy  Dy5  1  0.502697  0.669852  0.597365  1
  Dy  Dy6  1  0.001796  0.829241  0.903020  1
  Dy  Dy7  1  0.002516  0.829506  0.597543  1
  Ti  Ti8  1  0.833820  0.675316  0.371222  1
  Ti  Ti9  1  0.666406  0.173221  0.626976  1
  Ti  Ti10  1  0.165607  0.326023  0.874375  1
  Ti  Ti11  1  0.165224  0.326783  0.626739  1
  Ti  Ti12  1  0.665028  0.171651  0.873912  1
  Ti  Ti13  1  0.838029  0.673886  0.126451  1
  Ti  Ti14  1  0.333427  0.826178  0.372737  1
  Si  Si15  1  0.340665  0.040092  0.543648  1
  Si  Si16  1  0.840866  0.460341  0.956707  1
  Si  Si17  1  0.656536  0.959906  0.044673  1
  Si  Si18  1  0.158018  0.541274  0.456623  1
  Si  Si19  1  0.162706  0.541697  0.043762  1
  Si  Si20  1  0.658442  0.959612  0.456654  1
  Si  Si21  1  0.841076  0.459935  0.543759  1
  Si  Si22  1  0.337958  0.041109  0.958194  1
  Si  Si23  1  0.799757  0.377685  0.248912  1
  Si  Si24  1  0.301905  0.121370  0.249780  1
  Si  Si25  1  0.700135  0.876474  0.750004  1
  Si  Si26  1  0.201152  0.623035  0.750460  1
  Si  Si27  1  0.039881  0.873344  0.249811  1
  Si  Si28  1  0.536720  0.629666  0.247739  1
  Si  Si29  1  0.461173  0.371252  0.750490  1
  Si  Si30  1  0.962071  0.127357  0.750396  1
  Mo  Mo31  1  0.332632  0.828154  0.126392  1
  Mo  Mo32  1  0.336647  0.008421  0.750241  1
  Mo  Mo33  1  0.664649  0.988835  0.249678  1
  Mo  Mo34  1  0.161356  0.511421  0.249516  1
  Mo  Mo35  1  0.837980  0.488911  0.750143  1
