# generated using pymatgen
data_Ba14MgBi11
_symmetry_space_group_name_H-M   'P 1'
_cell_length_a   18.29122655
_cell_length_b   18.29122711
_cell_length_c   18.29122700
_cell_angle_alpha   117.53088405
_cell_angle_beta   117.53088497
_cell_angle_gamma   94.33263014
_symmetry_Int_Tables_number   1
_chemical_formula_structural   Ba14MgBi11
_chemical_formula_sum   'Ba56 Mg4 Bi44'
_cell_volume   4474.91995289
_cell_formula_units_Z   4
loop_
 _symmetry_equiv_pos_site_id
 _symmetry_equiv_pos_as_xyz
  1  'x, y, z'
loop_
 _atom_site_type_symbol
 _atom_site_label
 _atom_site_symmetry_multiplicity
 _atom_site_fract_x
 _atom_site_fract_y
 _atom_site_fract_z
 _atom_site_occupancy
  Ba  Ba0  1  0.499755  0.603269  0.851515  1
  Ba  Ba1  1  0.625000  0.229323  0.104323  1
  Ba  Ba2  1  0.159937  0.025844  0.780562  1
  Ba  Ba3  1  0.897115  0.376267  0.836974  1
  Ba  Ba4  1  0.125000  0.020677  0.395677  1
  Ba  Ba5  1  0.770678  0.875000  0.395678  1
  Ba  Ba6  1  0.129376  0.409939  0.634096  1
  Ba  Ba7  1  0.751753  0.648238  0.148483  1
  Ba  Ba8  1  0.710707  0.373733  0.020848  1
  Ba  Ba9  1  0.439859  0.960707  0.836974  1
  Ba  Ba10  1  0.310141  0.289293  0.663026  1
  Ba  Ba11  1  0.039293  0.876267  0.479152  1
  Ba  Ba12  1  0.498246  0.146731  0.396486  1
  Ba  Ba13  1  0.353269  0.001753  0.603513  1
  Ba  Ba14  1  0.125001  0.520677  0.895678  1
  Ba  Ba15  1  0.998247  0.601762  0.351517  1
  Ba  Ba16  1  0.939860  0.102885  0.479152  1
  Ba  Ba17  1  0.626267  0.647115  0.336975  1
  Ba  Ba18  1  0.896732  0.000244  0.148484  1
  Ba  Ba19  1  0.352884  0.689858  0.979150  1
  Ba  Ba20  1  0.123733  0.602885  0.163025  1
  Ba  Ba21  1  0.999755  0.148238  0.896485  1
  Ba  Ba22  1  0.659939  0.879376  0.134095  1
  Ba  Ba23  1  0.504720  0.870624  0.280563  1
  Ba  Ba24  1  0.852885  0.873733  0.663026  1
  Ba  Ba25  1  0.210708  0.189858  0.336974  1
  Ba  Ba26  1  0.004720  0.724156  0.634094  1
  Ba  Ba27  1  0.745280  0.525844  0.865906  1
  Ba  Ba28  1  0.251754  0.103269  0.103514  1
  Ba  Ba29  1  0.245280  0.379376  0.219437  1
  Ba  Ba30  1  0.351761  0.500244  0.103513  1
  Ba  Ba31  1  0.250245  0.646731  0.648485  1
  Ba  Ba32  1  0.750245  0.101762  0.603515  1
  Ba  Ba33  1  0.624999  0.729323  0.604322  1
  Ba  Ba34  1  0.898240  0.501753  0.648483  1
  Ba  Ba35  1  0.851760  0.748247  0.851517  1
  Ba  Ba36  1  0.620624  0.840061  0.865904  1
  Ba  Ba37  1  0.275844  0.909939  0.280562  1
  Ba  Ba38  1  0.853268  0.249756  0.351516  1
  Ba  Ba39  1  0.126267  0.789293  0.979152  1
  Ba  Ba40  1  0.775844  0.495282  0.365905  1
  Ba  Ba41  1  0.974156  0.754718  0.134095  1
  Ba  Ba42  1  0.120623  0.254718  0.780561  1
  Ba  Ba43  1  0.590063  0.224156  0.719438  1
  Ba  Ba44  1  0.623733  0.460707  0.520848  1
  Ba  Ba45  1  0.979322  0.375000  0.104322  1
  Ba  Ba46  1  0.539292  0.060142  0.163026  1
  Ba  Ba47  1  0.396731  0.248247  0.896487  1
  Ba  Ba48  1  0.398239  0.749756  0.396487  1
  Ba  Ba49  1  0.479324  0.375000  0.604324  1
  Ba  Ba50  1  0.090061  0.370624  0.365905  1
  Ba  Ba51  1  0.810140  0.147115  0.020848  1
  Ba  Ba52  1  0.270676  0.875000  0.895676  1
  Ba  Ba53  1  0.474156  0.340061  0.219438  1
  Ba  Ba54  1  0.397116  0.560142  0.520850  1
  Ba  Ba55  1  0.629377  0.995282  0.719439  1
  Mg  Mg56  1  0.250010  0.750006  0.499998  1
  Mg  Mg57  1  0.750008  0.250006  0.499996  1
  Mg  Mg58  1  0.999992  0.999994  0.000004  1
  Mg  Mg59  1  0.499990  0.499994  0.000002  1
  Bi  Bi60  1  0.867884  0.367885  0.235770  1
  Bi  Bi61  1  0.289832  0.698440  0.144315  1
  Bi  Bi62  1  0.882116  0.882115  0.264230  1
  Bi  Bi63  1  0.554125  0.145518  0.855685  1
  Bi  Bi64  1  0.948439  0.039832  0.644315  1
  Bi  Bi65  1  0.367885  0.132115  0.500000  1
  Bi  Bi66  1  0.460168  0.551560  0.355685  1
  Bi  Bi67  1  0.354483  0.945876  0.144315  1
  Bi  Bi68  1  0.057357  0.199355  0.133468  1
  Bi  Bi69  1  0.054126  0.198440  0.408609  1
  Bi  Bi70  1  0.500000  0.000000  0.500000  1
  Bi  Bi71  1  0.195875  0.104482  0.644315  1
  Bi  Bi72  1  0.800645  0.934113  0.858002  1
  Bi  Bi73  1  0.684112  0.326113  0.633467  1
  Bi  Bi74  1  0.449355  0.807357  0.633468  1
  Bi  Bi75  1  0.173887  0.815887  0.366532  1
  Bi  Bi76  1  0.565887  0.699355  0.141999  1
  Bi  Bi77  1  0.673888  0.307357  0.358002  1
  Bi  Bi78  1  0.076112  0.942643  0.141998  1
  Bi  Bi79  1  0.750000  0.750000  0.000000  1
  Bi  Bi80  1  0.557356  0.423887  0.858001  1
  Bi  Bi81  1  0.382115  0.117885  0.000000  1
  Bi  Bi82  1  0.065888  0.923887  0.866533  1
  Bi  Bi83  1  0.000000  0.500000  0.500000  1
  Bi  Bi84  1  0.300645  0.442643  0.866532  1
  Bi  Bi85  1  0.801561  0.210168  0.855685  1
  Bi  Bi86  1  0.250000  0.250000  0.000000  1
  Bi  Bi87  1  0.395517  0.304124  0.355685  1
  Bi  Bi88  1  0.301561  0.445876  0.591393  1
  Bi  Bi89  1  0.695874  0.051560  0.091391  1
  Bi  Bi90  1  0.789833  0.645518  0.591393  1
  Bi  Bi91  1  0.192644  0.826113  0.641999  1
  Bi  Bi92  1  0.960167  0.604482  0.908607  1
  Bi  Bi93  1  0.117885  0.382115  0.999999  1
  Bi  Bi94  1  0.949355  0.315887  0.641998  1
  Bi  Bi95  1  0.632115  0.867885  0.500001  1
  Bi  Bi96  1  0.692643  0.050645  0.366532  1
  Bi  Bi97  1  0.576113  0.434113  0.133468  1
  Bi  Bi98  1  0.854483  0.710168  0.408608  1
  Bi  Bi99  1  0.895517  0.539832  0.091392  1
  Bi  Bi100  1  0.448439  0.804124  0.908607  1
  Bi  Bi101  1  0.132115  0.632115  0.764231  1
  Bi  Bi102  1  0.617885  0.617885  0.735769  1
  Bi  Bi103  1  0.184113  0.550645  0.358001  1
