# generated using pymatgen
data_ErLuU(SnRu)3
_symmetry_space_group_name_H-M   'P 1'
_cell_length_a   7.82100775
_cell_length_b   7.40031702
_cell_length_c   3.80110500
_cell_angle_alpha   90.00000000
_cell_angle_beta   90.00000000
_cell_angle_gamma   122.05133013
_symmetry_Int_Tables_number   1
_chemical_formula_structural   ErLuU(SnRu)3
_chemical_formula_sum   'Er1 Lu1 U1 Sn3 Ru3'
_cell_volume   186.46616004
_cell_formula_units_Z   1
loop_
 _symmetry_equiv_pos_site_id
 _symmetry_equiv_pos_as_xyz
  1  'x, y, z'
loop_
 _atom_site_type_symbol
 _atom_site_label
 _atom_site_symmetry_multiplicity
 _atom_site_fract_x
 _atom_site_fract_y
 _atom_site_fract_z
 _atom_site_occupancy
  Er  Er0  1  0.004292  0.404574  0.500000  1
  Lu  Lu1  1  0.600578  0.596363  0.500000  1
  U  U2  1  0.415133  0.000283  0.500000  1
  Sn  Sn3  1  0.983950  0.722118  0.000000  1
  Sn  Sn4  1  0.262577  0.278323  0.000000  1
  Sn  Sn5  1  0.757566  0.999084  0.000000  1
  Ru  Ru6  1  0.340671  0.716911  0.000000  1
  Ru  Ru7  1  0.623411  0.284345  0.000000  1
  Ru  Ru8  1  0.011823  0.997998  0.500000  1
