# generated using pymatgen
data_Cs3FeBrCl4
_symmetry_space_group_name_H-M   'P 1'
_cell_length_a   9.43759600
_cell_length_b   10.70791100
_cell_length_c   13.66815600
_cell_angle_alpha   90.00000000
_cell_angle_beta   90.00000000
_cell_angle_gamma   90.00000000
_symmetry_Int_Tables_number   1
_chemical_formula_structural   Cs3FeBrCl4
_chemical_formula_sum   'Cs12 Fe4 Br4 Cl16'
_cell_volume   1381.26199377
_cell_formula_units_Z   4
loop_
 _symmetry_equiv_pos_site_id
 _symmetry_equiv_pos_as_xyz
  1  'x, y, z'
loop_
 _atom_site_type_symbol
 _atom_site_label
 _atom_site_symmetry_multiplicity
 _atom_site_fract_x
 _atom_site_fract_y
 _atom_site_fract_z
 _atom_site_occupancy
  Cs  Cs0  1  0.896336  0.750000  0.471027  1
  Cs  Cs1  1  0.603664  0.750000  0.971027  1
  Cs  Cs2  1  0.103664  0.250000  0.528973  1
  Cs  Cs3  1  0.396336  0.250000  0.028973  1
  Cs  Cs4  1  0.583773  0.481013  0.674342  1
  Cs  Cs5  1  0.916227  0.018987  0.174342  1
  Cs  Cs6  1  0.416227  0.981013  0.325658  1
  Cs  Cs7  1  0.083773  0.518987  0.825658  1
  Cs  Cs8  1  0.416227  0.518987  0.325658  1
  Cs  Cs9  1  0.083773  0.981013  0.825658  1
  Cs  Cs10  1  0.583773  0.018987  0.674342  1
  Cs  Cs11  1  0.916227  0.481013  0.174342  1
  Fe  Fe12  1  0.307110  0.750000  0.603070  1
  Fe  Fe13  1  0.192890  0.750000  0.103070  1
  Fe  Fe14  1  0.692890  0.250000  0.396930  1
  Fe  Fe15  1  0.807110  0.250000  0.896930  1
  Br  Br16  1  0.676098  0.750000  0.231963  1
  Br  Br17  1  0.823902  0.750000  0.731963  1
  Br  Br18  1  0.323902  0.250000  0.768037  1
  Br  Br19  1  0.176098  0.250000  0.268037  1
  Cl  Cl20  1  0.801220  0.435797  0.432785  1
  Cl  Cl21  1  0.698780  0.064203  0.932785  1
  Cl  Cl22  1  0.198780  0.935797  0.567215  1
  Cl  Cl23  1  0.301220  0.564203  0.067215  1
  Cl  Cl24  1  0.198780  0.564203  0.567215  1
  Cl  Cl25  1  0.301220  0.935797  0.067215  1
  Cl  Cl26  1  0.801220  0.064203  0.432785  1
  Cl  Cl27  1  0.698780  0.435797  0.932785  1
  Cl  Cl28  1  0.149070  0.750000  0.270013  1
  Cl  Cl29  1  0.350930  0.750000  0.770013  1
  Cl  Cl30  1  0.850930  0.250000  0.729987  1
  Cl  Cl31  1  0.649070  0.250000  0.229987  1
  Cl  Cl32  1  0.510946  0.750000  0.509531  1
  Cl  Cl33  1  0.989054  0.750000  0.009531  1
  Cl  Cl34  1  0.489054  0.250000  0.490469  1
  Cl  Cl35  1  0.010946  0.250000  0.990469  1
