# generated using pymatgen
data_Tb5HoFe2(Co4P3)4
_symmetry_space_group_name_H-M   'P 1'
_cell_length_a   3.70616700
_cell_length_b   10.53663387
_cell_length_c   12.18614818
_cell_angle_alpha   89.93165569
_cell_angle_beta   90.00000000
_cell_angle_gamma   90.00000000
_symmetry_Int_Tables_number   1
_chemical_formula_structural   Tb5HoFe2(Co4P3)4
_chemical_formula_sum   'Tb5 Ho1 Fe2 Co16 P12'
_cell_volume   475.87514213
_cell_formula_units_Z   1
loop_
 _symmetry_equiv_pos_site_id
 _symmetry_equiv_pos_as_xyz
  1  'x, y, z'
loop_
 _atom_site_type_symbol
 _atom_site_label
 _atom_site_symmetry_multiplicity
 _atom_site_fract_x
 _atom_site_fract_y
 _atom_site_fract_z
 _atom_site_occupancy
  Tb  Tb0  1  0.000000  0.500169  0.521494  1
  Tb  Tb1  1  0.500000  0.999842  0.478214  1
  Tb  Tb2  1  0.500000  0.181751  0.205220  1
  Tb  Tb3  1  0.000000  0.682208  0.794729  1
  Tb  Tb4  1  0.000000  0.317943  0.794998  1
  Ho  Ho5  1  0.500000  0.817755  0.205125  1
  Fe  Fe6  1  0.500000  0.500059  0.156636  1
  Fe  Fe7  1  0.000000  0.999880  0.843472  1
  Co  Co8  1  0.500000  0.500097  0.702119  1
  Co  Co9  1  0.000000  0.999399  0.297662  1
  Co  Co10  1  0.000000  0.500415  0.986952  1
  Co  Co11  1  0.500000  0.999515  0.013849  1
  Co  Co12  1  0.500000  0.333025  0.994620  1
  Co  Co13  1  0.500000  0.667290  0.994842  1
  Co  Co14  1  0.000000  0.166656  0.005746  1
  Co  Co15  1  0.000000  0.833012  0.006075  1
  Co  Co16  1  0.500000  0.296794  0.430510  1
  Co  Co17  1  0.500000  0.703335  0.429954  1
  Co  Co18  1  0.000000  0.203075  0.569426  1
  Co  Co19  1  0.000000  0.796841  0.568954  1
  Co  Co20  1  0.500000  0.879199  0.709178  1
  Co  Co21  1  0.500000  0.120723  0.709524  1
  Co  Co22  1  0.000000  0.621390  0.290174  1
  Co  Co23  1  0.000000  0.379419  0.290567  1
  P  P24  1  0.500000  0.500236  0.882979  1
  P  P25  1  0.000000  0.999266  0.117719  1
  P  P26  1  0.500000  0.499963  0.341883  1
  P  P27  1  0.000000  0.000083  0.657954  1
  P  P28  1  0.500000  0.309884  0.615806  1
  P  P29  1  0.500000  0.690294  0.615473  1
  P  P30  1  0.000000  0.189953  0.384171  1
  P  P31  1  0.000000  0.809972  0.383270  1
  P  P32  1  0.500000  0.847616  0.893034  1
  P  P33  1  0.500000  0.152180  0.893294  1
  P  P34  1  0.000000  0.653199  0.107380  1
  P  P35  1  0.000000  0.347562  0.106997  1
