# generated using pymatgen
data_NdBeRe2C
_symmetry_space_group_name_H-M   'P 1'
_cell_length_a   5.64183946
_cell_length_b   5.64183834
_cell_length_c   7.37909900
_cell_angle_alpha   90.00000000
_cell_angle_beta   90.00000000
_cell_angle_gamma   139.31915845
_symmetry_Int_Tables_number   1
_chemical_formula_structural   NdBeRe2C
_chemical_formula_sum   'Nd2 Be2 Re4 C2'
_cell_volume   153.10484959
_cell_formula_units_Z   2
loop_
 _symmetry_equiv_pos_site_id
 _symmetry_equiv_pos_as_xyz
  1  'x, y, z'
loop_
 _atom_site_type_symbol
 _atom_site_label
 _atom_site_symmetry_multiplicity
 _atom_site_fract_x
 _atom_site_fract_y
 _atom_site_fract_z
 _atom_site_occupancy
  Nd  Nd0  1  0.533905  0.466095  0.250000  1
  Nd  Nd1  1  0.466095  0.533905  0.750000  1
  Be  Be2  1  0.257967  0.742033  0.250000  1
  Be  Be3  1  0.742033  0.257967  0.750000  1
  Re  Re4  1  0.817788  0.182212  0.062482  1
  Re  Re5  1  0.182212  0.817788  0.937518  1
  Re  Re6  1  0.182212  0.817788  0.562482  1
  Re  Re7  1  0.817788  0.182212  0.437518  1
  C  C8  1  0.000000  0.000000  0.000000  1
  C  C9  1  0.000000  0.000000  0.500000  1
