# generated using pymatgen
data_Sr5Mn2N7
_symmetry_space_group_name_H-M   'P 1'
_cell_length_a   6.36576675
_cell_length_b   8.95493611
_cell_length_c   9.04113186
_cell_angle_alpha   114.65179241
_cell_angle_beta   97.61396070
_cell_angle_gamma   89.93181076
_symmetry_Int_Tables_number   1
_chemical_formula_structural   Sr5Mn2N7
_chemical_formula_sum   'Sr10 Mn4 N14'
_cell_volume   463.44997467
_cell_formula_units_Z   2
loop_
 _symmetry_equiv_pos_site_id
 _symmetry_equiv_pos_as_xyz
  1  'x, y, z'
loop_
 _atom_site_type_symbol
 _atom_site_label
 _atom_site_symmetry_multiplicity
 _atom_site_fract_x
 _atom_site_fract_y
 _atom_site_fract_z
 _atom_site_occupancy
  Sr  Sr0  1  0.852744  0.588642  0.333018  1
  Sr  Sr1  1  0.271370  0.985190  0.575604  1
  Sr  Sr2  1  0.712803  0.412550  0.849969  1
  Sr  Sr3  1  0.287197  0.587450  0.150031  1
  Sr  Sr4  1  0.407276  0.789870  0.916849  1
  Sr  Sr5  1  0.592724  0.210130  0.083151  1
  Sr  Sr6  1  0.147256  0.411358  0.666982  1
  Sr  Sr7  1  0.891219  0.847036  0.770518  1
  Sr  Sr8  1  0.108781  0.152964  0.229482  1
  Sr  Sr9  1  0.728630  0.014810  0.424396  1
  Mn  Mn10  1  0.571087  0.366058  0.475680  1
  Mn  Mn11  1  0.428913  0.633942  0.524320  1
  Mn  Mn12  1  0.121313  0.217772  0.907658  1
  Mn  Mn13  1  0.878687  0.782228  0.092342  1
  N  N14  1  0.552280  0.552959  0.666783  1
  N  N15  1  0.447720  0.447041  0.333217  1
  N  N16  1  0.179048  0.691229  0.570516  1
  N  N17  1  0.820952  0.308771  0.429484  1
  N  N18  1  0.419857  0.205217  0.475260  1
  N  N19  1  0.580143  0.794783  0.524740  1
  N  N20  1  0.954147  0.146571  0.718056  1
  N  N21  1  0.045853  0.853429  0.281944  1
  N  N22  1  0.228243  0.051494  0.943478  1
  N  N23  1  0.771757  0.948506  0.056522  1
  N  N24  1  0.344144  0.326333  0.895729  1
  N  N25  1  0.981571  0.339509  0.068224  1
  N  N26  1  0.018429  0.660491  0.931776  1
  N  N27  1  0.655856  0.673667  0.104271  1
