# generated using pymatgen
data_DyEr5TaBiO14
_symmetry_space_group_name_H-M   'P 1'
_cell_length_a   6.42072387
_cell_length_b   6.47363019
_cell_length_c   7.61628831
_cell_angle_alpha   106.59666399
_cell_angle_beta   89.86987827
_cell_angle_gamma   97.99990555
_symmetry_Int_Tables_number   1
_chemical_formula_structural   DyEr5TaBiO14
_chemical_formula_sum   'Dy1 Er5 Ta1 Bi1 O14'
_cell_volume   300.19842685
_cell_formula_units_Z   1
loop_
 _symmetry_equiv_pos_site_id
 _symmetry_equiv_pos_as_xyz
  1  'x, y, z'
loop_
 _atom_site_type_symbol
 _atom_site_label
 _atom_site_symmetry_multiplicity
 _atom_site_fract_x
 _atom_site_fract_y
 _atom_site_fract_z
 _atom_site_occupancy
  Dy  Dy0  1  0.734086  0.460356  0.113872  1
  Er  Er1  1  0.730078  0.465521  0.605208  1
  Er  Er2  1  0.541651  0.994230  0.754341  1
  Er  Er3  1  0.457654  0.005208  0.245419  1
  Er  Er4  1  0.269385  0.534913  0.395868  1
  Er  Er5  1  0.266465  0.539832  0.885809  1
  Ta  Ta6  1  0.000705  0.000267  0.999779  1
  Bi  Bi7  1  0.000513  0.000956  0.500734  1
  O  O8  1  0.695605  0.074089  0.488258  1
  O  O9  1  0.927727  0.688111  0.979315  1
  O  O10  1  0.709148  0.072567  0.053968  1
  O  O11  1  0.931409  0.644149  0.385647  1
  O  O12  1  0.885915  0.911951  0.736646  1
  O  O13  1  0.555581  0.349821  0.832147  1
  O  O14  1  0.541437  0.359890  0.343959  1
  O  O15  1  0.457293  0.640048  0.657625  1
  O  O16  1  0.440230  0.649483  0.165972  1
  O  O17  1  0.113562  0.088826  0.263544  1
  O  O18  1  0.069568  0.356863  0.616574  1
  O  O19  1  0.291575  0.926034  0.946098  1
  O  O20  1  0.075417  0.311076  0.017747  1
  O  O21  1  0.304995  0.925810  0.511470  1
