# generated using pymatgen
data_Tm12TcIrOs2
_symmetry_space_group_name_H-M   'P 1'
_cell_length_a   7.34542508
_cell_length_b   8.93610500
_cell_length_c   6.22769724
_cell_angle_alpha   90.00000000
_cell_angle_beta   89.88461334
_cell_angle_gamma   90.00000000
_symmetry_Int_Tables_number   1
_chemical_formula_structural   Tm12TcIrOs2
_chemical_formula_sum   'Tm12 Tc1 Ir1 Os2'
_cell_volume   408.78204024
_cell_formula_units_Z   1
loop_
 _symmetry_equiv_pos_site_id
 _symmetry_equiv_pos_as_xyz
  1  'x, y, z'
loop_
 _atom_site_type_symbol
 _atom_site_label
 _atom_site_symmetry_multiplicity
 _atom_site_fract_x
 _atom_site_fract_y
 _atom_site_fract_z
 _atom_site_occupancy
  Tm  Tm0  1  0.039257  0.250000  0.628095  1
  Tm  Tm1  1  0.961553  0.750000  0.370202  1
  Tm  Tm2  1  0.459736  0.750000  0.130053  1
  Tm  Tm3  1  0.539545  0.250000  0.873935  1
  Tm  Tm4  1  0.174660  0.062576  0.165000  1
  Tm  Tm5  1  0.826141  0.939003  0.834580  1
  Tm  Tm6  1  0.323493  0.938612  0.665614  1
  Tm  Tm7  1  0.826141  0.560997  0.834580  1
  Tm  Tm8  1  0.675412  0.064633  0.332473  1
  Tm  Tm9  1  0.174660  0.437424  0.165000  1
  Tm  Tm10  1  0.675412  0.435367  0.332473  1
  Tm  Tm11  1  0.323493  0.561388  0.665614  1
  Tc  Tc12  1  0.383976  0.250000  0.464155  1
  Ir  Ir13  1  0.617694  0.750000  0.539970  1
  Os  Os14  1  0.116645  0.750000  0.960537  1
  Os  Os15  1  0.882181  0.250000  0.037717  1
