# generated using pymatgen
data_Sr4Ga10RuPt5
_symmetry_space_group_name_H-M   'P 1'
_cell_length_a   8.77089971
_cell_length_b   8.77022922
_cell_length_c   8.76932000
_cell_angle_alpha   140.52110626
_cell_angle_beta   107.09652666
_cell_angle_gamma   86.22967159
_symmetry_Int_Tables_number   1
_chemical_formula_structural   Sr4Ga10RuPt5
_chemical_formula_sum   'Sr4 Ga10 Ru1 Pt5'
_cell_volume   395.25258341
_cell_formula_units_Z   1
loop_
 _symmetry_equiv_pos_site_id
 _symmetry_equiv_pos_as_xyz
  1  'x, y, z'
loop_
 _atom_site_type_symbol
 _atom_site_label
 _atom_site_symmetry_multiplicity
 _atom_site_fract_x
 _atom_site_fract_y
 _atom_site_fract_z
 _atom_site_occupancy
  Sr  Sr0  1  0.090776  0.863077  0.226333  1
  Sr  Sr1  1  0.636761  0.364872  0.274102  1
  Sr  Sr2  1  0.909054  0.135237  0.771957  1
  Sr  Sr3  1  0.363365  0.636960  0.727421  1
  Ga  Ga4  1  0.290203  0.039612  0.749518  1
  Ga  Ga5  1  0.287951  0.537821  0.250362  1
  Ga  Ga6  1  0.999986  0.249844  0.249837  1
  Ga  Ga7  1  0.243045  0.397959  0.833103  1
  Ga  Ga8  1  0.756809  0.590176  0.155212  1
  Ga  Ga9  1  0.709971  0.459753  0.750025  1
  Ga  Ga10  1  0.564677  0.909561  0.666765  1
  Ga  Ga11  1  0.712423  0.962549  0.250213  1
  Ga  Ga12  1  0.434966  0.101981  0.344906  1
  Ga  Ga13  1  0.999985  0.750356  0.750339  1
  Ru  Ru14  1  0.500062  0.250134  0.750120  1
  Pt  Pt15  1  0.040723  0.643958  0.400678  1
  Pt  Pt16  1  0.756413  0.855807  0.896674  1
  Pt  Pt17  1  0.959468  0.360214  0.603518  1
  Pt  Pt18  1  0.243486  0.140094  0.099086  1
  Pt  Pt19  1  0.499875  0.750033  0.249831  1
