# generated using pymatgen
data_Mg4U3TaRu8
_symmetry_space_group_name_H-M   'P 1'
_cell_length_a   6.30640000
_cell_length_b   6.30670500
_cell_length_c   6.66418400
_cell_angle_alpha   90.00000000
_cell_angle_beta   89.99961195
_cell_angle_gamma   89.99861906
_symmetry_Int_Tables_number   1
_chemical_formula_structural   Mg4U3TaRu8
_chemical_formula_sum   'Mg4 U3 Ta1 Ru8'
_cell_volume   265.05195392
_cell_formula_units_Z   1
loop_
 _symmetry_equiv_pos_site_id
 _symmetry_equiv_pos_as_xyz
  1  'x, y, z'
loop_
 _atom_site_type_symbol
 _atom_site_label
 _atom_site_symmetry_multiplicity
 _atom_site_fract_x
 _atom_site_fract_y
 _atom_site_fract_z
 _atom_site_occupancy
  Mg  Mg0  1  0.750005  0.250001  0.000000  1
  Mg  Mg1  1  0.249995  0.750000  0.000001  1
  Mg  Mg2  1  0.749998  0.250001  0.499991  1
  Mg  Mg3  1  0.249998  0.750000  0.500005  1
  U  U4  1  0.250005  0.250000  0.000013  1
  U  U5  1  0.749995  0.750001  0.000028  1
  U  U6  1  0.249998  0.250000  0.499976  1
  Ta  Ta7  1  0.749998  0.750000  0.499999  1
  Ru  Ru8  1  0.997261  0.997256  0.254576  1
  Ru  Ru9  1  0.997261  0.502744  0.254576  1
  Ru  Ru10  1  0.502741  0.997260  0.254579  1
  Ru  Ru11  1  0.502740  0.502744  0.254579  1
  Ru  Ru12  1  0.997264  0.997271  0.745418  1
  Ru  Ru13  1  0.997264  0.502731  0.745418  1
  Ru  Ru14  1  0.502736  0.997269  0.745421  1
  Ru  Ru15  1  0.502736  0.502727  0.745422  1
