# generated using pymatgen
data_La2P7(Ru5Rh)2
_symmetry_space_group_name_H-M   'P 1'
_cell_length_a   9.51987169
_cell_length_b   9.55923991
_cell_length_c   3.97030000
_cell_angle_alpha   90.00000000
_cell_angle_beta   90.00000000
_cell_angle_gamma   120.14066095
_symmetry_Int_Tables_number   1
_chemical_formula_structural   La2P7(Ru5Rh)2
_chemical_formula_sum   'La2 P7 Ru10 Rh2'
_cell_volume   312.45760483
_cell_formula_units_Z   1
loop_
 _symmetry_equiv_pos_site_id
 _symmetry_equiv_pos_as_xyz
  1  'x, y, z'
loop_
 _atom_site_type_symbol
 _atom_site_label
 _atom_site_symmetry_multiplicity
 _atom_site_fract_x
 _atom_site_fract_y
 _atom_site_fract_z
 _atom_site_occupancy
  La  La0  1  0.667247  0.332936  0.500000  1
  La  La1  1  0.331404  0.665732  0.000000  1
  P  P2  1  0.606831  0.712062  0.500000  1
  P  P3  1  0.999655  0.001565  0.000000  1
  P  P4  1  0.282327  0.889085  0.500000  1
  P  P5  1  0.104955  0.396948  0.500000  1
  P  P6  1  0.891370  0.582081  0.000000  1
  P  P7  1  0.417561  0.302508  0.000000  1
  P  P8  1  0.696480  0.112559  0.000000  1
  Ru  Ru9  1  0.912549  0.123573  0.500000  1
  Ru  Ru10  1  0.213432  0.089543  0.500000  1
  Ru  Ru11  1  0.878307  0.792695  0.500000  1
  Ru  Ru12  1  0.728915  0.889849  0.000000  1
  Ru  Ru13  1  0.109166  0.842437  0.000000  1
  Ru  Ru14  1  0.161620  0.270297  0.000000  1
  Ru  Ru15  1  0.427240  0.061824  0.000000  1
  Ru  Ru16  1  0.937349  0.361767  0.000000  1
  Ru  Ru17  1  0.637638  0.573104  0.000000  1
  Ru  Ru18  1  0.049186  0.612886  0.500000  1
  Rh  Rh19  1  0.558050  0.946696  0.500000  1
  Rh  Rh20  1  0.388720  0.439853  0.500000  1
