# generated using pymatgen
data_Nd2Cu18Si7Au
_symmetry_space_group_name_H-M   'P 1'
_cell_length_a   8.18253617
_cell_length_b   8.18253601
_cell_length_c   8.22769738
_cell_angle_alpha   120.68524786
_cell_angle_beta   120.68524580
_cell_angle_gamma   88.85641759
_symmetry_Int_Tables_number   1
_chemical_formula_structural   Nd2Cu18Si7Au
_chemical_formula_sum   'Nd2 Cu18 Si7 Au1'
_cell_volume   385.27526866
_cell_formula_units_Z   1
loop_
 _symmetry_equiv_pos_site_id
 _symmetry_equiv_pos_as_xyz
  1  'x, y, z'
loop_
 _atom_site_type_symbol
 _atom_site_label
 _atom_site_symmetry_multiplicity
 _atom_site_fract_x
 _atom_site_fract_y
 _atom_site_fract_z
 _atom_site_occupancy
  Nd  Nd0  1  0.747277  0.751597  0.997899  1
  Nd  Nd1  1  0.251597  0.247277  0.997899  1
  Cu  Cu2  1  0.433776  0.694255  0.143746  1
  Cu  Cu3  1  0.701527  0.561339  0.265364  1
  Cu  Cu4  1  0.295470  0.425005  0.730682  1
  Cu  Cu5  1  0.925005  0.795470  0.730682  1
  Cu  Cu6  1  0.571610  0.301036  0.864191  1
  Cu  Cu7  1  0.304427  0.548771  0.486658  1
  Cu  Cu8  1  0.048771  0.804427  0.486658  1
  Cu  Cu9  1  0.691416  0.447184  0.504537  1
  Cu  Cu10  1  0.947184  0.191416  0.504537  1
  Cu  Cu11  1  0.445120  0.945120  0.733906  1
  Cu  Cu12  1  0.189625  0.689625  0.248451  1
  Cu  Cu13  1  0.575856  0.075856  0.284148  1
  Cu  Cu14  1  0.194255  0.933776  0.143746  1
  Cu  Cu15  1  0.061339  0.201527  0.265364  1
  Cu  Cu16  1  0.991706  0.491706  0.490335  1
  Cu  Cu17  1  0.501541  0.001541  0.498752  1
  Cu  Cu18  1  0.814520  0.314520  0.755137  1
  Cu  Cu19  1  0.801036  0.071610  0.864191  1
  Si  Si20  1  0.062914  0.562914  0.850420  1
  Si  Si21  1  0.555712  0.707058  0.497991  1
  Si  Si22  1  0.793439  0.941122  0.500889  1
  Si  Si23  1  0.441122  0.293439  0.500889  1
  Si  Si24  1  0.942871  0.442871  0.149961  1
  Si  Si25  1  0.699077  0.199077  0.144795  1
  Si  Si26  1  0.207058  0.055712  0.497991  1
  Au  Au27  1  0.304748  0.804748  0.860184  1
