# generated using pymatgen
data_Zr5Ta(AlCo2)6
_symmetry_space_group_name_H-M   'P 1'
_cell_length_a   4.27906200
_cell_length_b   6.05976100
_cell_length_c   12.88147600
_cell_angle_alpha   90.00000000
_cell_angle_beta   90.00000422
_cell_angle_gamma   90.00000000
_symmetry_Int_Tables_number   1
_chemical_formula_structural   Zr5Ta(AlCo2)6
_chemical_formula_sum   'Zr5 Ta1 Al6 Co12'
_cell_volume   334.01787097
_cell_formula_units_Z   1
loop_
 _symmetry_equiv_pos_site_id
 _symmetry_equiv_pos_as_xyz
  1  'x, y, z'
loop_
 _atom_site_type_symbol
 _atom_site_label
 _atom_site_symmetry_multiplicity
 _atom_site_fract_x
 _atom_site_fract_y
 _atom_site_fract_z
 _atom_site_occupancy
  Zr  Zr0  1  0.999995  0.000000  0.999539  1
  Zr  Zr1  1  0.500213  0.500000  0.166093  1
  Zr  Zr2  1  0.000191  0.000000  0.333312  1
  Zr  Zr3  1  0.499996  0.500000  0.500554  1
  Zr  Zr4  1  0.999809  0.000000  0.667146  1
  Ta  Ta5  1  0.499788  0.500000  0.833346  1
  Al  Al6  1  0.000009  0.500000  0.998501  1
  Al  Al7  1  0.500189  0.000000  0.165953  1
  Al  Al8  1  0.000172  0.500000  0.333313  1
  Al  Al9  1  0.499997  0.000000  0.500691  1
  Al  Al10  1  0.999808  0.500000  0.668189  1
  Al  Al11  1  0.499821  0.000000  0.833351  1
  Co  Co12  1  0.499989  0.255978  0.995246  1
  Co  Co13  1  0.499989  0.744020  0.995246  1
  Co  Co14  1  0.000253  0.249725  0.166211  1
  Co  Co15  1  0.000253  0.750275  0.166211  1
  Co  Co16  1  0.500230  0.250337  0.333324  1
  Co  Co17  1  0.500230  0.749663  0.333324  1
  Co  Co18  1  0.000000  0.249715  0.500447  1
  Co  Co19  1  0.000000  0.750285  0.500447  1
  Co  Co20  1  0.499773  0.256005  0.671434  1
  Co  Co21  1  0.499773  0.743995  0.671434  1
  Co  Co22  1  0.999760  0.262043  0.833342  1
  Co  Co23  1  0.999760  0.737957  0.833342  1
