# generated using pymatgen
data_Zr6FeSi(As2Ru3)2
_symmetry_space_group_name_H-M   'P 1'
_cell_length_a   7.69002641
_cell_length_b   7.69037895
_cell_length_c   7.69002800
_cell_angle_alpha   128.09587506
_cell_angle_beta   122.19494931
_cell_angle_gamma   81.38453886
_symmetry_Int_Tables_number   1
_chemical_formula_structural   Zr6FeSi(As2Ru3)2
_chemical_formula_sum   'Zr6 Fe1 Si1 As4 Ru6'
_cell_volume   291.73722902
_cell_formula_units_Z   1
loop_
 _symmetry_equiv_pos_site_id
 _symmetry_equiv_pos_as_xyz
  1  'x, y, z'
loop_
 _atom_site_type_symbol
 _atom_site_label
 _atom_site_symmetry_multiplicity
 _atom_site_fract_x
 _atom_site_fract_y
 _atom_site_fract_z
 _atom_site_occupancy
  Zr  Zr0  1  0.459349  0.670669  0.711321  1
  Zr  Zr1  1  0.563655  0.255172  0.191519  1
  Zr  Zr2  1  0.750002  0.867568  0.617566  1
  Zr  Zr3  1  0.250054  0.848851  0.098797  1
  Zr  Zr4  1  0.040745  0.251967  0.711221  1
  Zr  Zr5  1  0.936248  0.627690  0.191442  1
  Fe  Fe6  1  0.749898  0.245381  0.995485  1
  Si  Si7  1  0.250065  0.263504  0.513439  1
  As  As8  1  0.333475  0.585979  0.252738  1
  As  As9  1  0.666817  0.919275  0.252803  1
  As  As10  1  0.166473  0.919275  0.752457  1
  As  As11  1  0.833241  0.585979  0.752504  1
  Ru  Ru12  1  0.490150  0.492427  0.982569  1
  Ru  Ru13  1  0.009858  0.492427  0.502277  1
  Ru  Ru14  1  0.137676  0.253440  0.150971  1
  Ru  Ru15  1  0.897683  0.013278  0.151135  1
  Ru  Ru16  1  0.362143  0.013278  0.615596  1
  Ru  Ru17  1  0.602469  0.253440  0.615763  1
