# generated using pymatgen
data_TbEr3(TcB4)4
_symmetry_space_group_name_H-M   'P 1'
_cell_length_a   3.58946500
_cell_length_b   5.95735305
_cell_length_c   11.53333867
_cell_angle_alpha   89.96194704
_cell_angle_beta   89.99993024
_cell_angle_gamma   89.99990935
_symmetry_Int_Tables_number   1
_chemical_formula_structural   TbEr3(TcB4)4
_chemical_formula_sum   'Tb1 Er3 Tc4 B16'
_cell_volume   246.62551799
_cell_formula_units_Z   1
loop_
 _symmetry_equiv_pos_site_id
 _symmetry_equiv_pos_as_xyz
  1  'x, y, z'
loop_
 _atom_site_type_symbol
 _atom_site_label
 _atom_site_symmetry_multiplicity
 _atom_site_fract_x
 _atom_site_fract_y
 _atom_site_fract_z
 _atom_site_occupancy
  Tb  Tb0  1  0.000001  0.626972  0.349918  1
  Er  Er1  1  0.000000  0.372593  0.650177  1
  Er  Er2  1  0.000000  0.127305  0.149732  1
  Er  Er3  1  0.999996  0.872801  0.849880  1
  Tc  Tc4  1  0.000001  0.633723  0.087249  1
  Tc  Tc5  1  0.000000  0.366524  0.911911  1
  Tc  Tc6  1  0.000002  0.133111  0.412515  1
  Tc  Tc7  1  0.000002  0.866824  0.588427  1
  B  B8  1  0.500000  0.787685  0.184720  1
  B  B9  1  0.499999  0.212663  0.814692  1
  B  B10  1  0.499999  0.286034  0.314562  1
  B  B11  1  0.500002  0.712411  0.685466  1
  B  B12  1  0.499998  0.865032  0.031276  1
  B  B13  1  0.500000  0.135437  0.968271  1
  B  B14  1  0.500000  0.364149  0.468912  1
  B  B15  1  0.500001  0.635446  0.532191  1
  B  B16  1  0.500001  0.887014  0.453315  1
  B  B17  1  0.500000  0.114204  0.547832  1
  B  B18  1  0.500000  0.385924  0.046998  1
  B  B19  1  0.499998  0.614225  0.952457  1
  B  B20  1  0.500000  0.977073  0.307458  1
  B  B21  1  0.500000  0.023598  0.692837  1
  B  B22  1  0.500000  0.475617  0.191866  1
  B  B23  1  0.500000  0.523635  0.807338  1
