# generated using pymatgen
data_Nd4Co7AgO20
_symmetry_space_group_name_H-M   'P 1'
_cell_length_a   5.75225600
_cell_length_b   7.58454662
_cell_length_c   8.60337773
_cell_angle_alpha   89.50600893
_cell_angle_beta   90.00000000
_cell_angle_gamma   90.00000000
_symmetry_Int_Tables_number   1
_chemical_formula_structural   Nd4Co7AgO20
_chemical_formula_sum   'Nd4 Co7 Ag1 O20'
_cell_volume   375.33639609
_cell_formula_units_Z   1
loop_
 _symmetry_equiv_pos_site_id
 _symmetry_equiv_pos_as_xyz
  1  'x, y, z'
loop_
 _atom_site_type_symbol
 _atom_site_label
 _atom_site_symmetry_multiplicity
 _atom_site_fract_x
 _atom_site_fract_y
 _atom_site_fract_z
 _atom_site_occupancy
  Nd  Nd0  1  0.000000  0.360559  0.674424  1
  Nd  Nd1  1  0.000000  0.644391  0.327059  1
  Nd  Nd2  1  0.000000  0.851160  0.824984  1
  Nd  Nd3  1  0.000000  0.147789  0.172391  1
  Co  Co4  1  0.500000  0.901048  0.153491  1
  Co  Co5  1  0.500000  0.595609  0.649224  1
  Co  Co6  1  0.500000  0.416893  0.351382  1
  Co  Co7  1  0.259165  0.505871  0.003983  1
  Co  Co8  1  0.743118  0.998300  0.494900  1
  Co  Co9  1  0.740835  0.505871  0.003983  1
  Co  Co10  1  0.256882  0.998300  0.494900  1
  Ag  Ag11  1  0.500000  0.063060  0.842183  1
  O  O12  1  0.249493  0.902059  0.293436  1
  O  O13  1  0.234002  0.093220  0.694118  1
  O  O14  1  0.748523  0.409889  0.208789  1
  O  O15  1  0.749242  0.598865  0.793196  1
  O  O16  1  0.765998  0.093220  0.694118  1
  O  O17  1  0.750507  0.902059  0.293436  1
  O  O18  1  0.250758  0.598865  0.793196  1
  O  O19  1  0.251477  0.409889  0.208789  1
  O  O20  1  0.500000  0.367093  0.949266  1
  O  O21  1  0.500000  0.659705  0.069022  1
  O  O22  1  0.500000  0.847196  0.562051  1
  O  O23  1  0.500000  0.146458  0.434611  1
  O  O24  1  0.268536  0.991342  0.008946  1
  O  O25  1  0.718171  0.499505  0.501792  1
  O  O26  1  0.731464  0.991342  0.008946  1
  O  O27  1  0.281829  0.499505  0.501792  1
  O  O28  1  0.000000  0.156248  0.445484  1
  O  O29  1  0.000000  0.843804  0.545644  1
  O  O30  1  0.000000  0.654828  0.050474  1
  O  O31  1  0.000000  0.346058  0.949991  1
