# generated using pymatgen
data_PrTiSiIr2
_symmetry_space_group_name_H-M   'P 1'
_cell_length_a   4.22504600
_cell_length_b   4.22519500
_cell_length_c   10.42822600
_cell_angle_alpha   90.00000000
_cell_angle_beta   90.00000000
_cell_angle_gamma   90.00000000
_symmetry_Int_Tables_number   1
_chemical_formula_structural   PrTiSiIr2
_chemical_formula_sum   'Pr2 Ti2 Si2 Ir4'
_cell_volume   186.16097012
_cell_formula_units_Z   2
loop_
 _symmetry_equiv_pos_site_id
 _symmetry_equiv_pos_as_xyz
  1  'x, y, z'
loop_
 _atom_site_type_symbol
 _atom_site_label
 _atom_site_symmetry_multiplicity
 _atom_site_fract_x
 _atom_site_fract_y
 _atom_site_fract_z
 _atom_site_occupancy
  Pr  Pr0  1  0.000000  0.500000  0.237165  1
  Pr  Pr1  1  0.500000  0.000000  0.762835  1
  Ti  Ti2  1  0.000000  0.000000  0.500004  1
  Ti  Ti3  1  0.500000  0.500000  0.499996  1
  Si  Si4  1  0.000000  0.500000  0.876464  1
  Si  Si5  1  0.500000  0.000000  0.123536  1
  Ir  Ir6  1  0.000000  0.000000  0.999999  1
  Ir  Ir7  1  0.500000  0.500000  0.000001  1
  Ir  Ir8  1  0.000000  0.500000  0.637506  1
  Ir  Ir9  1  0.500000  0.000000  0.362494  1
