# generated using pymatgen
data_Tb8Tm12Si15Rh
_symmetry_space_group_name_H-M   'P 1'
_cell_length_a   7.34460306
_cell_length_b   7.64543396
_cell_length_c   14.49763800
_cell_angle_alpha   90.02771325
_cell_angle_beta   89.76070141
_cell_angle_gamma   90.06609339
_symmetry_Int_Tables_number   1
_chemical_formula_structural   Tb8Tm12Si15Rh
_chemical_formula_sum   'Tb8 Tm12 Si15 Rh1'
_cell_volume   814.07345834
_cell_formula_units_Z   1
loop_
 _symmetry_equiv_pos_site_id
 _symmetry_equiv_pos_as_xyz
  1  'x, y, z'
loop_
 _atom_site_type_symbol
 _atom_site_label
 _atom_site_symmetry_multiplicity
 _atom_site_fract_x
 _atom_site_fract_y
 _atom_site_fract_z
 _atom_site_occupancy
  Tb  Tb0  1  0.019739  0.179679  0.098331  1
  Tb  Tb1  1  0.980874  0.818854  0.902266  1
  Tb  Tb2  1  0.480726  0.679364  0.902404  1
  Tb  Tb3  1  0.982170  0.818537  0.597291  1
  Tb  Tb4  1  0.518722  0.320757  0.097236  1
  Tb  Tb5  1  0.016581  0.181945  0.402433  1
  Tb  Tb6  1  0.515824  0.320653  0.401424  1
  Tb  Tb7  1  0.480686  0.674664  0.598153  1
  Tm  Tm8  1  0.161182  0.511375  0.742912  1
  Tm  Tm9  1  0.842524  0.491042  0.252490  1
  Tm  Tm10  1  0.341603  0.005915  0.250526  1
  Tm  Tm11  1  0.658811  0.990063  0.748513  1
  Tm  Tm12  1  0.324179  0.189328  0.618445  1
  Tm  Tm13  1  0.670875  0.821277  0.375447  1
  Tm  Tm14  1  0.175177  0.665478  0.380779  1
  Tm  Tm15  1  0.676663  0.822434  0.124884  1
  Tm  Tm16  1  0.831960  0.324452  0.621801  1
  Tm  Tm17  1  0.325070  0.180958  0.876756  1
  Tm  Tm18  1  0.828178  0.318999  0.877568  1
  Tm  Tm19  1  0.174114  0.679568  0.123310  1
  Si  Si20  1  0.032150  0.106371  0.750690  1
  Si  Si21  1  0.972298  0.888811  0.252264  1
  Si  Si22  1  0.469063  0.607171  0.248215  1
  Si  Si23  1  0.536204  0.390712  0.752720  1
  Si  Si24  1  0.278196  0.877649  0.750645  1
  Si  Si25  1  0.722298  0.128096  0.249335  1
  Si  Si26  1  0.224071  0.370174  0.247956  1
  Si  Si27  1  0.775400  0.626610  0.753653  1
  Si  Si28  1  0.838172  0.531484  0.460356  1
  Si  Si29  1  0.346291  0.968293  0.460034  1
  Si  Si30  1  0.846189  0.532156  0.039027  1
  Si  Si31  1  0.652227  0.032043  0.537911  1
  Si  Si32  1  0.152490  0.469061  0.961904  1
  Si  Si33  1  0.652855  0.030204  0.961651  1
  Si  Si34  1  0.349230  0.968929  0.038844  1
  Rh  Rh35  1  0.147203  0.476888  0.541821  1
