# generated using pymatgen
data_Ba6DyTl(BO3)6
_symmetry_space_group_name_H-M   'P 1'
_cell_length_a   8.21664487
_cell_length_b   8.21664610
_cell_length_c   8.21664564
_cell_angle_alpha   105.76898255
_cell_angle_beta   105.76898577
_cell_angle_gamma   105.76899088
_symmetry_Int_Tables_number   1
_chemical_formula_structural   Ba6DyTl(BO3)6
_chemical_formula_sum   'Ba6 Dy1 Tl1 B6 O18'
_cell_volume   476.65052917
_cell_formula_units_Z   1
loop_
 _symmetry_equiv_pos_site_id
 _symmetry_equiv_pos_as_xyz
  1  'x, y, z'
loop_
 _atom_site_type_symbol
 _atom_site_label
 _atom_site_symmetry_multiplicity
 _atom_site_fract_x
 _atom_site_fract_y
 _atom_site_fract_z
 _atom_site_occupancy
  Ba  Ba0  1  0.348701  0.732368  0.837633  1
  Ba  Ba1  1  0.837633  0.348701  0.732368  1
  Ba  Ba2  1  0.732368  0.837633  0.348701  1
  Ba  Ba3  1  0.651299  0.267632  0.162367  1
  Ba  Ba4  1  0.162367  0.651299  0.267632  1
  Ba  Ba5  1  0.267632  0.162367  0.651299  1
  Dy  Dy6  1  0.000000  0.000000  0.000000  1
  Tl  Tl7  1  0.500000  0.500000  0.500000  1
  B  B8  1  0.710323  0.624243  0.956540  1
  B  B9  1  0.956540  0.710323  0.624243  1
  B  B10  1  0.624243  0.956540  0.710323  1
  B  B11  1  0.043460  0.289677  0.375757  1
  B  B12  1  0.375757  0.043460  0.289677  1
  B  B13  1  0.289677  0.375757  0.043460  1
  O  O14  1  0.066643  0.807035  0.555664  1
  O  O15  1  0.555664  0.066643  0.807035  1
  O  O16  1  0.431138  0.500462  0.209391  1
  O  O17  1  0.500462  0.209391  0.431138  1
  O  O18  1  0.209391  0.431138  0.500462  1
  O  O19  1  0.790609  0.568862  0.499538  1
  O  O20  1  0.568862  0.499538  0.790609  1
  O  O21  1  0.499538  0.790609  0.568862  1
  O  O22  1  0.259166  0.190306  0.989416  1
  O  O23  1  0.190306  0.989416  0.259166  1
  O  O24  1  0.989416  0.259166  0.190306  1
  O  O25  1  0.740834  0.809694  0.010584  1
  O  O26  1  0.809694  0.010584  0.740834  1
  O  O27  1  0.010584  0.740834  0.809694  1
  O  O28  1  0.192965  0.444336  0.933357  1
  O  O29  1  0.444336  0.933357  0.192965  1
  O  O30  1  0.933357  0.192965  0.444336  1
  O  O31  1  0.807035  0.555664  0.066643  1
