# generated using pymatgen
data_GdHo2Tm(ZnSn)4
_symmetry_space_group_name_H-M   'P 1'
_cell_length_a   4.52879600
_cell_length_b   4.52879653
_cell_length_c   15.60772400
_cell_angle_alpha   90.00000000
_cell_angle_beta   90.00000000
_cell_angle_gamma   119.99999611
_symmetry_Int_Tables_number   1
_chemical_formula_structural   GdHo2Tm(ZnSn)4
_chemical_formula_sum   'Gd1 Ho2 Tm1 Zn4 Sn4'
_cell_volume   277.22717090
_cell_formula_units_Z   1
loop_
 _symmetry_equiv_pos_site_id
 _symmetry_equiv_pos_as_xyz
  1  'x, y, z'
loop_
 _atom_site_type_symbol
 _atom_site_label
 _atom_site_symmetry_multiplicity
 _atom_site_fract_x
 _atom_site_fract_y
 _atom_site_fract_z
 _atom_site_occupancy
  Gd  Gd0  1  0.000000  0.000000  0.998943  1
  Ho  Ho1  1  0.000000  0.000000  0.252400  1
  Ho  Ho2  1  0.000000  0.000000  0.501008  1
  Tm  Tm3  1  0.000000  0.000000  0.747673  1
  Zn  Zn4  1  0.333333  0.666667  0.162182  1
  Zn  Zn5  1  0.666667  0.333333  0.836221  1
  Zn  Zn6  1  0.666667  0.333333  0.659438  1
  Zn  Zn7  1  0.333333  0.666667  0.342266  1
  Sn  Sn8  1  0.333333  0.666667  0.612722  1
  Sn  Sn9  1  0.666667  0.333333  0.388420  1
  Sn  Sn10  1  0.666667  0.333333  0.115583  1
  Sn  Sn11  1  0.333333  0.666667  0.883146  1
