# generated using pymatgen
data_Ta2FeB3W
_symmetry_space_group_name_H-M   'P 1'
_cell_length_a   4.59507382
_cell_length_b   4.59507360
_cell_length_c   11.04856000
_cell_angle_alpha   90.00000000
_cell_angle_beta   90.00000000
_cell_angle_gamma   138.81987861
_symmetry_Int_Tables_number   1
_chemical_formula_structural   Ta2FeB3W
_chemical_formula_sum   'Ta4 Fe2 B6 W2'
_cell_volume   153.60281672
_cell_formula_units_Z   2
loop_
 _symmetry_equiv_pos_site_id
 _symmetry_equiv_pos_as_xyz
  1  'x, y, z'
loop_
 _atom_site_type_symbol
 _atom_site_label
 _atom_site_symmetry_multiplicity
 _atom_site_fract_x
 _atom_site_fract_y
 _atom_site_fract_z
 _atom_site_occupancy
  Ta  Ta0  1  0.793828  0.206172  0.605145  1
  Ta  Ta1  1  0.206172  0.793828  0.394855  1
  Ta  Ta2  1  0.206172  0.793828  0.105145  1
  Ta  Ta3  1  0.793828  0.206172  0.894855  1
  Fe  Fe4  1  0.500000  0.500000  0.000000  1
  Fe  Fe5  1  0.500000  0.500000  0.500000  1
  B  B6  1  0.793463  0.206537  0.250000  1
  B  B7  1  0.206537  0.793463  0.750000  1
  B  B8  1  0.087097  0.912903  0.606220  1
  B  B9  1  0.912903  0.087097  0.393780  1
  B  B10  1  0.912903  0.087097  0.106220  1
  B  B11  1  0.087097  0.912903  0.893780  1
  W  W12  1  0.496732  0.503268  0.250000  1
  W  W13  1  0.503268  0.496732  0.750000  1
