# generated using pymatgen
data_Y3Ho7Cd3Ir
_symmetry_space_group_name_H-M   'P 1'
_cell_length_a   9.61631000
_cell_length_b   9.61631022
_cell_length_c   9.81752900
_cell_angle_alpha   90.00000000
_cell_angle_beta   90.00000000
_cell_angle_gamma   119.99999926
_symmetry_Int_Tables_number   1
_chemical_formula_structural   Y3Ho7Cd3Ir
_chemical_formula_sum   'Y6 Ho14 Cd6 Ir2'
_cell_volume   786.23024768
_cell_formula_units_Z   2
loop_
 _symmetry_equiv_pos_site_id
 _symmetry_equiv_pos_as_xyz
  1  'x, y, z'
loop_
 _atom_site_type_symbol
 _atom_site_label
 _atom_site_symmetry_multiplicity
 _atom_site_fract_x
 _atom_site_fract_y
 _atom_site_fract_z
 _atom_site_occupancy
  Y  Y0  1  0.541280  0.458720  0.250000  1
  Y  Y1  1  0.541280  0.082561  0.250000  1
  Y  Y2  1  0.917439  0.458720  0.250000  1
  Y  Y3  1  0.458720  0.541280  0.750000  1
  Y  Y4  1  0.458720  0.917439  0.750000  1
  Y  Y5  1  0.082561  0.541280  0.750000  1
  Ho  Ho6  1  0.000000  0.000000  0.500000  1
  Ho  Ho7  1  0.000000  0.000000  0.000000  1
  Ho  Ho8  1  0.209595  0.790405  0.440503  1
  Ho  Ho9  1  0.209595  0.419190  0.440503  1
  Ho  Ho10  1  0.580810  0.790405  0.440503  1
  Ho  Ho11  1  0.790405  0.209595  0.559497  1
  Ho  Ho12  1  0.790405  0.580810  0.559497  1
  Ho  Ho13  1  0.419190  0.209595  0.559497  1
  Ho  Ho14  1  0.790405  0.209595  0.940503  1
  Ho  Ho15  1  0.790405  0.580810  0.940503  1
  Ho  Ho16  1  0.419190  0.209595  0.940503  1
  Ho  Ho17  1  0.209595  0.790405  0.059497  1
  Ho  Ho18  1  0.209595  0.419190  0.059497  1
  Ho  Ho19  1  0.580810  0.790405  0.059497  1
  Cd  Cd20  1  0.885504  0.114496  0.250000  1
  Cd  Cd21  1  0.885504  0.771008  0.250000  1
  Cd  Cd22  1  0.228992  0.114496  0.250000  1
  Cd  Cd23  1  0.114496  0.885504  0.750000  1
  Cd  Cd24  1  0.114496  0.228992  0.750000  1
  Cd  Cd25  1  0.771008  0.885504  0.750000  1
  Ir  Ir26  1  0.333333  0.666667  0.250000  1
  Ir  Ir27  1  0.666667  0.333333  0.750000  1
