# generated using pymatgen
data_Ta2BeNb2Co4Si2P
_symmetry_space_group_name_H-M   'P 1'
_cell_length_a   3.61236100
_cell_length_b   6.18625762
_cell_length_c   7.01775900
_cell_angle_alpha   89.95853499
_cell_angle_beta   90.00000000
_cell_angle_gamma   90.00000000
_symmetry_Int_Tables_number   1
_chemical_formula_structural   Ta2BeNb2Co4Si2P
_chemical_formula_sum   'Ta2 Be1 Nb2 Co4 Si2 P1'
_cell_volume   156.82578957
_cell_formula_units_Z   1
loop_
 _symmetry_equiv_pos_site_id
 _symmetry_equiv_pos_as_xyz
  1  'x, y, z'
loop_
 _atom_site_type_symbol
 _atom_site_label
 _atom_site_symmetry_multiplicity
 _atom_site_fract_x
 _atom_site_fract_y
 _atom_site_fract_z
 _atom_site_occupancy
  Ta  Ta0  1  0.750000  0.971732  0.188642  1
  Ta  Ta1  1  0.750000  0.491945  0.321835  1
  Be  Be2  1  0.250000  0.777352  0.382274  1
  Nb  Nb3  1  0.250000  0.017975  0.820958  1
  Nb  Nb4  1  0.250000  0.528517  0.675453  1
  Co  Co5  1  0.250000  0.137698  0.434151  1
  Co  Co6  1  0.250000  0.642302  0.063035  1
  Co  Co7  1  0.750000  0.851909  0.557814  1
  Co  Co8  1  0.750000  0.361016  0.937178  1
  Si  Si9  1  0.250000  0.271865  0.120732  1
  Si  Si10  1  0.750000  0.223416  0.615255  1
  P  P11  1  0.750000  0.724271  0.882673  1
