# generated using pymatgen
data_Tb2TiBe2Ir5
_symmetry_space_group_name_H-M   'P 1'
_cell_length_a   9.73124200
_cell_length_b   9.73124200
_cell_length_c   3.22258900
_cell_angle_alpha   90.00000000
_cell_angle_beta   90.00000000
_cell_angle_gamma   90.00000000
_symmetry_Int_Tables_number   1
_chemical_formula_structural   Tb2TiBe2Ir5
_chemical_formula_sum   'Tb4 Ti2 Be4 Ir10'
_cell_volume   305.16973889
_cell_formula_units_Z   2
loop_
 _symmetry_equiv_pos_site_id
 _symmetry_equiv_pos_as_xyz
  1  'x, y, z'
loop_
 _atom_site_type_symbol
 _atom_site_label
 _atom_site_symmetry_multiplicity
 _atom_site_fract_x
 _atom_site_fract_y
 _atom_site_fract_z
 _atom_site_occupancy
  Tb  Tb0  1  0.676245  0.176245  0.000000  1
  Tb  Tb1  1  0.323755  0.823755  0.000000  1
  Tb  Tb2  1  0.176245  0.323755  0.000000  1
  Tb  Tb3  1  0.823755  0.676245  0.000000  1
  Ti  Ti4  1  0.000000  0.000000  0.000000  1
  Ti  Ti5  1  0.500000  0.500000  0.000000  1
  Be  Be6  1  0.121847  0.621847  0.000000  1
  Be  Be7  1  0.878153  0.378153  0.000000  1
  Be  Be8  1  0.621847  0.878153  0.000000  1
  Be  Be9  1  0.378153  0.121847  0.000000  1
  Ir  Ir10  1  0.212050  0.066813  0.500000  1
  Ir  Ir11  1  0.787950  0.933187  0.500000  1
  Ir  Ir12  1  0.066813  0.787950  0.500000  1
  Ir  Ir13  1  0.712050  0.433187  0.500000  1
  Ir  Ir14  1  0.933187  0.212050  0.500000  1
  Ir  Ir15  1  0.287950  0.566813  0.500000  1
  Ir  Ir16  1  0.566813  0.712050  0.500000  1
  Ir  Ir17  1  0.433187  0.287950  0.500000  1
  Ir  Ir18  1  0.500000  0.000000  0.500000  1
  Ir  Ir19  1  0.000000  0.500000  0.500000  1
