# generated using pymatgen
data_Nd16Zn2CdInIr4
_symmetry_space_group_name_H-M   'P 1'
_cell_length_a   9.90461101
_cell_length_b   9.90532756
_cell_length_c   9.90532860
_cell_angle_alpha   60.08844486
_cell_angle_beta   60.05052024
_cell_angle_gamma   60.05052198
_symmetry_Int_Tables_number   1
_chemical_formula_structural   Nd16Zn2CdInIr4
_chemical_formula_sum   'Nd16 Zn2 Cd1 In1 Ir4'
_cell_volume   688.14707281
_cell_formula_units_Z   1
loop_
 _symmetry_equiv_pos_site_id
 _symmetry_equiv_pos_as_xyz
  1  'x, y, z'
loop_
 _atom_site_type_symbol
 _atom_site_label
 _atom_site_symmetry_multiplicity
 _atom_site_fract_x
 _atom_site_fract_y
 _atom_site_fract_z
 _atom_site_occupancy
  Nd  Nd0  1  0.350821  0.349887  0.349887  1
  Nd  Nd1  1  0.350281  0.349466  0.951086  1
  Nd  Nd2  1  0.350281  0.951086  0.349466  1
  Nd  Nd3  1  0.949437  0.350256  0.350256  1
  Nd  Nd4  1  0.808369  0.191401  0.191401  1
  Nd  Nd5  1  0.192813  0.807372  0.807372  1
  Nd  Nd6  1  0.190829  0.809117  0.190436  1
  Nd  Nd7  1  0.806746  0.192976  0.806736  1
  Nd  Nd8  1  0.190829  0.190436  0.809117  1
  Nd  Nd9  1  0.806746  0.806736  0.192976  1
  Nd  Nd10  1  0.940023  0.561359  0.561359  1
  Nd  Nd11  1  0.560683  0.939245  0.939245  1
  Nd  Nd12  1  0.561224  0.944113  0.561570  1
  Nd  Nd13  1  0.935687  0.560864  0.942807  1
  Nd  Nd14  1  0.561224  0.561570  0.944113  1
  Nd  Nd15  1  0.935687  0.942807  0.560864  1
  Zn  Zn16  1  0.581006  0.578729  0.257566  1
  Zn  Zn17  1  0.581006  0.257566  0.578729  1
  Cd  Cd18  1  0.265590  0.576412  0.576412  1
  In  In19  1  0.580798  0.577726  0.577726  1
  Ir  Ir20  1  0.141423  0.142129  0.142129  1
  Ir  Ir21  1  0.141639  0.142536  0.574278  1
  Ir  Ir22  1  0.141639  0.574278  0.142536  1
  Ir  Ir23  1  0.575216  0.141931  0.141931  1
