# generated using pymatgen
data_BaV2HgO7
_symmetry_space_group_name_H-M   'P 1'
_cell_length_a   5.92812847
_cell_length_b   7.72480659
_cell_length_c   8.17986145
_cell_angle_alpha   102.16247520
_cell_angle_beta   95.34292687
_cell_angle_gamma   96.42968468
_symmetry_Int_Tables_number   1
_chemical_formula_structural   BaV2HgO7
_chemical_formula_sum   'Ba2 V4 Hg2 O14'
_cell_volume   361.23872251
_cell_formula_units_Z   2
loop_
 _symmetry_equiv_pos_site_id
 _symmetry_equiv_pos_as_xyz
  1  'x, y, z'
loop_
 _atom_site_type_symbol
 _atom_site_label
 _atom_site_symmetry_multiplicity
 _atom_site_fract_x
 _atom_site_fract_y
 _atom_site_fract_z
 _atom_site_occupancy
  Ba  Ba0  1  0.715454  0.265196  0.927110  1
  Ba  Ba1  1  0.284546  0.734804  0.072890  1
  V  V2  1  0.789613  0.757375  0.801826  1
  V  V3  1  0.210387  0.242625  0.198174  1
  V  V4  1  0.790517  0.664295  0.389434  1
  V  V5  1  0.209483  0.335705  0.610566  1
  Hg  Hg6  1  0.310020  0.848778  0.602246  1
  Hg  Hg7  1  0.689980  0.151222  0.397754  1
  O  O8  1  0.926766  0.234297  0.618750  1
  O  O9  1  0.073234  0.765703  0.381250  1
  O  O10  1  0.793305  0.636902  0.953569  1
  O  O11  1  0.206695  0.363098  0.046431  1
  O  O12  1  0.766802  0.612556  0.593871  1
  O  O13  1  0.233198  0.387444  0.406129  1
  O  O14  1  0.566721  0.896764  0.816000  1
  O  O15  1  0.433279  0.103236  0.184000  1
  O  O16  1  0.598065  0.811318  0.362702  1
  O  O17  1  0.401935  0.188682  0.637298  1
  O  O18  1  0.280644  0.527287  0.757223  1
  O  O19  1  0.719356  0.472713  0.242777  1
  O  O20  1  0.046300  0.888122  0.832923  1
  O  O21  1  0.953700  0.111878  0.167077  1
