# generated using pymatgen
data_Tb5Ho5Os4
_symmetry_space_group_name_H-M   'P 1'
_cell_length_a   6.37726533
_cell_length_b   7.35394044
_cell_length_c   8.45263716
_cell_angle_alpha   96.88526018
_cell_angle_beta   112.28599544
_cell_angle_gamma   90.02912800
_symmetry_Int_Tables_number   1
_chemical_formula_structural   Tb5Ho5Os4
_chemical_formula_sum   'Tb5 Ho5 Os4'
_cell_volume   363.69945984
_cell_formula_units_Z   1
loop_
 _symmetry_equiv_pos_site_id
 _symmetry_equiv_pos_as_xyz
  1  'x, y, z'
loop_
 _atom_site_type_symbol
 _atom_site_label
 _atom_site_symmetry_multiplicity
 _atom_site_fract_x
 _atom_site_fract_y
 _atom_site_fract_z
 _atom_site_occupancy
  Tb  Tb0  1  0.976786  0.916553  0.183847  1
  Tb  Tb1  1  0.792512  0.583115  0.815583  1
  Tb  Tb2  1  0.023821  0.083943  0.816175  1
  Tb  Tb3  1  0.206996  0.416411  0.184472  1
  Tb  Tb4  1  0.639358  0.816377  0.435440  1
  Ho  Ho5  1  0.203856  0.683144  0.565571  1
  Ho  Ho6  1  0.360753  0.183624  0.564941  1
  Ho  Ho7  1  0.796720  0.316636  0.434704  1
  Ho  Ho8  1  0.422329  0.749556  0.999257  1
  Ho  Ho9  1  0.577398  0.250279  0.000136  1
  Os  Os10  1  0.821738  0.576748  0.219486  1
  Os  Os11  1  0.600943  0.923416  0.780666  1
  Os  Os12  1  0.178635  0.422612  0.779888  1
  Os  Os13  1  0.398155  0.077587  0.219833  1
