# generated using pymatgen
data_Sm9DyB2I15
_symmetry_space_group_name_H-M   'P 1'
_cell_length_a   9.78564300
_cell_length_b   10.52536114
_cell_length_c   11.48167709
_cell_angle_alpha   91.67883500
_cell_angle_beta   114.42363026
_cell_angle_gamma   110.46048053
_symmetry_Int_Tables_number   1
_chemical_formula_structural   Sm9DyB2I15
_chemical_formula_sum   'Sm9 Dy1 B2 I15'
_cell_volume   987.66156416
_cell_formula_units_Z   1
loop_
 _symmetry_equiv_pos_site_id
 _symmetry_equiv_pos_as_xyz
  1  'x, y, z'
loop_
 _atom_site_type_symbol
 _atom_site_label
 _atom_site_symmetry_multiplicity
 _atom_site_fract_x
 _atom_site_fract_y
 _atom_site_fract_z
 _atom_site_occupancy
  Sm  Sm0  1  0.786713  0.396772  0.269266  1
  Sm  Sm1  1  0.211601  0.602534  0.729852  1
  Sm  Sm2  1  0.663571  0.750290  0.824155  1
  Sm  Sm3  1  0.334863  0.249281  0.175918  1
  Sm  Sm4  1  0.523221  0.709677  0.087750  1
  Sm  Sm5  1  0.476122  0.290035  0.912046  1
  Sm  Sm6  1  0.581428  0.041542  0.312466  1
  Sm  Sm7  1  0.417260  0.957937  0.687087  1
  Sm  Sm8  1  0.712543  0.071270  0.046214  1
  Dy  Dy9  1  0.295114  0.930602  0.954947  1
  B  B10  1  0.466033  0.822066  0.878904  1
  B  B11  1  0.530001  0.176365  0.120006  1
  I  I12  1  0.002058  0.998527  0.999113  1
  I  I13  1  0.638360  0.882360  0.581486  1
  I  I14  1  0.360607  0.116986  0.418345  1
  I  I15  1  0.885045  0.298669  0.532159  1
  I  I16  1  0.114237  0.701000  0.467331  1
  I  I17  1  0.280863  0.761204  0.173497  1
  I  I18  1  0.716247  0.240971  0.821638  1
  I  I19  1  0.056358  0.341748  0.226104  1
  I  I20  1  0.157540  0.053008  0.705397  1
  I  I21  1  0.841918  0.943807  0.298745  1
  I  I22  1  0.225393  0.408538  0.941797  1
  I  I23  1  0.773878  0.591130  0.057988  1
  I  I24  1  0.408397  0.458294  0.657685  1
  I  I25  1  0.590962  0.541371  0.342215  1
  I  I26  1  0.949668  0.664017  0.777889  1
