# generated using pymatgen
data_SrZrPa2Sb5
_symmetry_space_group_name_H-M   'P 1'
_cell_length_a   9.45900400
_cell_length_b   9.43850279
_cell_length_c   6.27910500
_cell_angle_alpha   90.00000000
_cell_angle_beta   90.00000000
_cell_angle_gamma   120.07187097
_symmetry_Int_Tables_number   1
_chemical_formula_structural   SrZrPa2Sb5
_chemical_formula_sum   'Sr2 Zr2 Pa4 Sb10'
_cell_volume   485.13422528
_cell_formula_units_Z   2
loop_
 _symmetry_equiv_pos_site_id
 _symmetry_equiv_pos_as_xyz
  1  'x, y, z'
loop_
 _atom_site_type_symbol
 _atom_site_label
 _atom_site_symmetry_multiplicity
 _atom_site_fract_x
 _atom_site_fract_y
 _atom_site_fract_z
 _atom_site_occupancy
  Sr  Sr0  1  0.614066  0.000000  0.250000  1
  Sr  Sr1  1  0.385934  0.000000  0.750000  1
  Zr  Zr2  1  0.000000  0.000000  0.000000  1
  Zr  Zr3  1  0.000000  0.000000  0.500000  1
  Pa  Pa4  1  0.011832  0.619652  0.250000  1
  Pa  Pa5  1  0.988168  0.380348  0.750000  1
  Pa  Pa6  1  0.392180  0.380348  0.250000  1
  Pa  Pa7  1  0.607820  0.619652  0.750000  1
  Sb  Sb8  1  0.261021  0.000000  0.250000  1
  Sb  Sb9  1  0.738979  0.000000  0.750000  1
  Sb  Sb10  1  0.010338  0.275140  0.250000  1
  Sb  Sb11  1  0.989662  0.724860  0.750000  1
  Sb  Sb12  1  0.735198  0.724860  0.250000  1
  Sb  Sb13  1  0.264802  0.275140  0.750000  1
  Sb  Sb14  1  0.323347  0.646696  0.000000  1
  Sb  Sb15  1  0.676653  0.353304  0.000000  1
  Sb  Sb16  1  0.676653  0.353304  0.500000  1
  Sb  Sb17  1  0.323347  0.646696  0.500000  1
