# generated using pymatgen
data_NdTh3(ReC2)2
_symmetry_space_group_name_H-M   'P 1'
_cell_length_a   5.37656100
_cell_length_b   6.68458500
_cell_length_c   10.13947400
_cell_angle_alpha   90.00000000
_cell_angle_beta   90.00000000
_cell_angle_gamma   90.00000000
_symmetry_Int_Tables_number   1
_chemical_formula_structural   NdTh3(ReC2)2
_chemical_formula_sum   'Nd2 Th6 Re4 C8'
_cell_volume   364.41349670
_cell_formula_units_Z   2
loop_
 _symmetry_equiv_pos_site_id
 _symmetry_equiv_pos_as_xyz
  1  'x, y, z'
loop_
 _atom_site_type_symbol
 _atom_site_label
 _atom_site_symmetry_multiplicity
 _atom_site_fract_x
 _atom_site_fract_y
 _atom_site_fract_z
 _atom_site_occupancy
  Nd  Nd0  1  0.250000  0.308576  0.449176  1
  Nd  Nd1  1  0.750000  0.191424  0.949176  1
  Th  Th2  1  0.250000  0.473396  0.779400  1
  Th  Th3  1  0.750000  0.026604  0.279400  1
  Th  Th4  1  0.250000  0.978095  0.723186  1
  Th  Th5  1  0.750000  0.521905  0.223186  1
  Th  Th6  1  0.250000  0.811301  0.048365  1
  Th  Th7  1  0.750000  0.688699  0.548365  1
  Re  Re8  1  0.250000  0.270930  0.137985  1
  Re  Re9  1  0.750000  0.229070  0.637985  1
  Re  Re10  1  0.250000  0.770036  0.362433  1
  Re  Re11  1  0.750000  0.729964  0.862433  1
  C  C12  1  0.250000  0.677583  0.551215  1
  C  C13  1  0.750000  0.822417  0.051215  1
  C  C14  1  0.250000  0.171289  0.950744  1
  C  C15  1  0.750000  0.328711  0.450744  1
  C  C16  1  0.250000  0.032152  0.256259  1
  C  C17  1  0.750000  0.467848  0.756259  1
  C  C18  1  0.250000  0.533719  0.241236  1
  C  C19  1  0.750000  0.966281  0.741236  1
