# generated using pymatgen
data_Ta3Ru5
_symmetry_space_group_name_H-M   'P 1'
_cell_length_a   4.32796200
_cell_length_b   5.45581100
_cell_length_c   10.57494800
_cell_angle_alpha   90.00000000
_cell_angle_beta   90.00000000
_cell_angle_gamma   90.00000000
_symmetry_Int_Tables_number   1
_chemical_formula_structural   Ta3Ru5
_chemical_formula_sum   'Ta6 Ru10'
_cell_volume   249.70141106
_cell_formula_units_Z   2
loop_
 _symmetry_equiv_pos_site_id
 _symmetry_equiv_pos_as_xyz
  1  'x, y, z'
loop_
 _atom_site_type_symbol
 _atom_site_label
 _atom_site_symmetry_multiplicity
 _atom_site_fract_x
 _atom_site_fract_y
 _atom_site_fract_z
 _atom_site_occupancy
  Ta  Ta0  1  0.000000  0.500000  0.500000  1
  Ta  Ta1  1  0.000000  0.000000  0.000000  1
  Ta  Ta2  1  0.500000  0.849783  0.358206  1
  Ta  Ta3  1  0.500000  0.150217  0.641794  1
  Ta  Ta4  1  0.500000  0.349783  0.141794  1
  Ta  Ta5  1  0.500000  0.650217  0.858206  1
  Ru  Ru6  1  0.000000  0.500000  0.000000  1
  Ru  Ru7  1  0.000000  0.000000  0.500000  1
  Ru  Ru8  1  0.000000  0.626640  0.263981  1
  Ru  Ru9  1  0.000000  0.373360  0.736019  1
  Ru  Ru10  1  0.000000  0.126640  0.236019  1
  Ru  Ru11  1  0.000000  0.873360  0.763981  1
  Ru  Ru12  1  0.500000  0.826420  0.108826  1
  Ru  Ru13  1  0.500000  0.173580  0.891174  1
  Ru  Ru14  1  0.500000  0.326420  0.391174  1
  Ru  Ru15  1  0.500000  0.673580  0.608826  1
