# generated using pymatgen
data_EuZrNiSb2
_symmetry_space_group_name_H-M   'P 1'
_cell_length_a   8.11137928
_cell_length_b   8.11137958
_cell_length_c   8.11137965
_cell_angle_alpha   31.10007986
_cell_angle_beta   31.10007782
_cell_angle_gamma   31.10007289
_symmetry_Int_Tables_number   1
_chemical_formula_structural   EuZrNiSb2
_chemical_formula_sum   'Eu1 Zr1 Ni1 Sb2'
_cell_volume   126.33683383
_cell_formula_units_Z   1
loop_
 _symmetry_equiv_pos_site_id
 _symmetry_equiv_pos_as_xyz
  1  'x, y, z'
loop_
 _atom_site_type_symbol
 _atom_site_label
 _atom_site_symmetry_multiplicity
 _atom_site_fract_x
 _atom_site_fract_y
 _atom_site_fract_z
 _atom_site_occupancy
  Eu  Eu0  1  0.505105  0.505105  0.505105  1
  Zr  Zr1  1  0.995515  0.995515  0.995515  1
  Ni  Ni2  1  0.371764  0.371764  0.371764  1
  Sb  Sb3  1  0.743867  0.743867  0.743867  1
  Sb  Sb4  1  0.258751  0.258751  0.258751  1
