# generated using pymatgen
data_SrAc3(CrN3)2
_symmetry_space_group_name_H-M   'P 1'
_cell_length_a   6.39504777
_cell_length_b   6.39504768
_cell_length_c   12.47674614
_cell_angle_alpha   89.60735326
_cell_angle_beta   90.39264857
_cell_angle_gamma   127.20553344
_symmetry_Int_Tables_number   1
_chemical_formula_structural   SrAc3(CrN3)2
_chemical_formula_sum   'Sr2 Ac6 Cr4 N12'
_cell_volume   406.39322716
_cell_formula_units_Z   2
loop_
 _symmetry_equiv_pos_site_id
 _symmetry_equiv_pos_as_xyz
  1  'x, y, z'
loop_
 _atom_site_type_symbol
 _atom_site_label
 _atom_site_symmetry_multiplicity
 _atom_site_fract_x
 _atom_site_fract_y
 _atom_site_fract_z
 _atom_site_occupancy
  Sr  Sr0  1  0.560342  0.439658  0.641641  1
  Sr  Sr1  1  0.439658  0.560342  0.358359  1
  Ac  Ac2  1  0.939906  0.060094  0.145261  1
  Ac  Ac3  1  0.060094  0.939906  0.854739  1
  Ac  Ac4  1  0.857308  0.142692  0.579484  1
  Ac  Ac5  1  0.142692  0.857308  0.420516  1
  Ac  Ac6  1  0.642833  0.357167  0.077138  1
  Ac  Ac7  1  0.357167  0.642833  0.922862  1
  Cr  Cr8  1  0.737560  0.262440  0.837765  1
  Cr  Cr9  1  0.262440  0.737560  0.162235  1
  Cr  Cr10  1  0.761846  0.238154  0.337655  1
  Cr  Cr11  1  0.238154  0.761846  0.662345  1
  N  N12  1  0.844835  0.155165  0.955251  1
  N  N13  1  0.155165  0.844835  0.044749  1
  N  N14  1  0.663716  0.336284  0.452852  1
  N  N15  1  0.336284  0.663716  0.547148  1
  N  N16  1  0.574628  0.425372  0.870463  1
  N  N17  1  0.425372  0.574628  0.129537  1
  N  N18  1  0.924046  0.075954  0.370638  1
  N  N19  1  0.075954  0.924046  0.629362  1
  N  N20  1  0.508023  0.991041  0.749747  1
  N  N21  1  0.991041  0.508023  0.250253  1
  N  N22  1  0.491977  0.008959  0.250253  1
  N  N23  1  0.008959  0.491977  0.749747  1
