# generated using pymatgen
data_Ce3Er13(CdCo)4
_symmetry_space_group_name_H-M   'P 1'
_cell_length_a   9.41709531
_cell_length_b   9.45982977
_cell_length_c   9.45982800
_cell_angle_alpha   60.00000618
_cell_angle_beta   59.84977762
_cell_angle_gamma   59.84978051
_symmetry_Int_Tables_number   1
_chemical_formula_structural   Ce3Er13(CdCo)4
_chemical_formula_sum   'Ce3 Er13 Cd4 Co4'
_cell_volume   594.53674945
_cell_formula_units_Z   1
loop_
 _symmetry_equiv_pos_site_id
 _symmetry_equiv_pos_as_xyz
  1  'x, y, z'
loop_
 _atom_site_type_symbol
 _atom_site_label
 _atom_site_symmetry_multiplicity
 _atom_site_fract_x
 _atom_site_fract_y
 _atom_site_fract_z
 _atom_site_occupancy
  Ce  Ce0  1  0.588833  0.595419  0.595419  1
  Ce  Ce1  1  0.588833  0.595419  0.220328  1
  Ce  Ce2  1  0.588833  0.220328  0.595419  1
  Er  Er3  1  0.203357  0.598881  0.598881  1
  Er  Er4  1  0.063592  0.437350  0.437350  1
  Er  Er5  1  0.438188  0.062499  0.062499  1
  Er  Er6  1  0.438188  0.062499  0.436814  1
  Er  Er7  1  0.063592  0.437350  0.061707  1
  Er  Er8  1  0.438188  0.436814  0.062499  1
  Er  Er9  1  0.063592  0.061707  0.437350  1
  Er  Er10  1  0.184831  0.814972  0.814972  1
  Er  Er11  1  0.811511  0.187943  0.187943  1
  Er  Er12  1  0.811511  0.187943  0.812604  1
  Er  Er13  1  0.184831  0.814972  0.185225  1
  Er  Er14  1  0.811511  0.812604  0.187943  1
  Er  Er15  1  0.184831  0.185225  0.814972  1
  Cd  Cd16  1  0.830830  0.831214  0.831214  1
  Cd  Cd17  1  0.830830  0.831214  0.506741  1
  Cd  Cd18  1  0.830830  0.506741  0.831214  1
  Cd  Cd19  1  0.504609  0.831797  0.831797  1
  Co  Co20  1  0.407803  0.387912  0.387912  1
  Co  Co21  1  0.407803  0.387912  0.816374  1
  Co  Co22  1  0.407803  0.816374  0.387912  1
  Co  Co23  1  0.815272  0.394909  0.394909  1
