# generated using pymatgen
data_Yb3GaAs3
_symmetry_space_group_name_H-M   'P 1'
_cell_length_a   4.22628100
_cell_length_b   12.19472100
_cell_length_c   13.28757800
_cell_angle_alpha   90.00000000
_cell_angle_beta   90.00000000
_cell_angle_gamma   90.00000000
_symmetry_Int_Tables_number   1
_chemical_formula_structural   Yb3GaAs3
_chemical_formula_sum   'Yb12 Ga4 As12'
_cell_volume   684.81941593
_cell_formula_units_Z   4
loop_
 _symmetry_equiv_pos_site_id
 _symmetry_equiv_pos_as_xyz
  1  'x, y, z'
loop_
 _atom_site_type_symbol
 _atom_site_label
 _atom_site_symmetry_multiplicity
 _atom_site_fract_x
 _atom_site_fract_y
 _atom_site_fract_z
 _atom_site_occupancy
  Yb  Yb0  1  0.750000  0.226516  0.216644  1
  Yb  Yb1  1  0.250000  0.773484  0.783356  1
  Yb  Yb2  1  0.750000  0.726516  0.283356  1
  Yb  Yb3  1  0.250000  0.273484  0.716644  1
  Yb  Yb4  1  0.750000  0.936633  0.109600  1
  Yb  Yb5  1  0.250000  0.063367  0.890400  1
  Yb  Yb6  1  0.750000  0.436633  0.390400  1
  Yb  Yb7  1  0.250000  0.563367  0.609600  1
  Yb  Yb8  1  0.750000  0.147618  0.500855  1
  Yb  Yb9  1  0.250000  0.852382  0.499145  1
  Yb  Yb10  1  0.750000  0.647618  0.999145  1
  Yb  Yb11  1  0.250000  0.352382  0.000855  1
  Ga  Ga12  1  0.750000  0.936609  0.702078  1
  Ga  Ga13  1  0.250000  0.063391  0.297922  1
  Ga  Ga14  1  0.750000  0.436609  0.797922  1
  Ga  Ga15  1  0.250000  0.563391  0.202078  1
  As  As16  1  0.750000  0.892835  0.888182  1
  As  As17  1  0.250000  0.107165  0.111818  1
  As  As18  1  0.750000  0.392835  0.611818  1
  As  As19  1  0.250000  0.607165  0.388182  1
  As  As20  1  0.750000  0.747879  0.621256  1
  As  As21  1  0.250000  0.252121  0.378744  1
  As  As22  1  0.750000  0.247879  0.878744  1
  As  As23  1  0.250000  0.752121  0.121256  1
  As  As24  1  0.750000  0.457641  0.147841  1
  As  As25  1  0.250000  0.542359  0.852159  1
  As  As26  1  0.750000  0.957641  0.352159  1
  As  As27  1  0.250000  0.042359  0.647841  1
