# generated using pymatgen
data_Ba2GdPdO6
_symmetry_space_group_name_H-M   'P 1'
_cell_length_a   6.00063854
_cell_length_b   6.00062477
_cell_length_c   6.00058000
_cell_angle_alpha   119.99964197
_cell_angle_beta   119.99976915
_cell_angle_gamma   59.99966649
_symmetry_Int_Tables_number   1
_chemical_formula_structural   Ba2GdPdO6
_chemical_formula_sum   'Ba2 Gd1 Pd1 O6'
_cell_volume   152.78228731
_cell_formula_units_Z   1
loop_
 _symmetry_equiv_pos_site_id
 _symmetry_equiv_pos_as_xyz
  1  'x, y, z'
loop_
 _atom_site_type_symbol
 _atom_site_label
 _atom_site_symmetry_multiplicity
 _atom_site_fract_x
 _atom_site_fract_y
 _atom_site_fract_z
 _atom_site_occupancy
  Ba  Ba0  1  0.750001  0.750000  0.250000  1
  Ba  Ba1  1  0.249998  0.249999  0.749998  1
  Gd  Gd2  1  0.499999  0.500000  0.499999  1
  Pd  Pd3  1  0.000000  0.000000  0.999999  1
  O  O4  1  0.763207  0.236793  0.236794  1
  O  O5  1  0.236792  0.763207  0.236793  1
  O  O6  1  0.236792  0.236793  0.236793  1
  O  O7  1  0.763207  0.763207  0.763208  1
  O  O8  1  0.763207  0.236792  0.763206  1
  O  O9  1  0.236793  0.763206  0.763205  1
