# generated using pymatgen
data_Nd3CdIr2(RhO7)2
_symmetry_space_group_name_H-M   'P 1'
_cell_length_a   7.43110272
_cell_length_b   7.27709377
_cell_length_c   7.43110340
_cell_angle_alpha   59.33480756
_cell_angle_beta   60.01358414
_cell_angle_gamma   59.33480021
_symmetry_Int_Tables_number   1
_chemical_formula_structural   Nd3CdIr2(RhO7)2
_chemical_formula_sum   'Nd3 Cd1 Ir2 Rh2 O14'
_cell_volume   281.28892222
_cell_formula_units_Z   1
loop_
 _symmetry_equiv_pos_site_id
 _symmetry_equiv_pos_as_xyz
  1  'x, y, z'
loop_
 _atom_site_type_symbol
 _atom_site_label
 _atom_site_symmetry_multiplicity
 _atom_site_fract_x
 _atom_site_fract_y
 _atom_site_fract_z
 _atom_site_occupancy
  Nd  Nd0  1  0.625000  0.125000  0.125000  1
  Nd  Nd1  1  0.125000  0.125000  0.625000  1
  Nd  Nd2  1  0.125000  0.125000  0.125000  1
  Cd  Cd3  1  0.125000  0.625000  0.125000  1
  Ir  Ir4  1  0.125000  0.625000  0.625000  1
  Ir  Ir5  1  0.625000  0.625000  0.125000  1
  Rh  Rh6  1  0.625000  0.125000  0.625000  1
  Rh  Rh7  1  0.625000  0.625000  0.625000  1
  O  O8  1  0.700975  0.698501  0.296987  1
  O  O9  1  0.290842  0.292616  0.711130  1
  O  O10  1  0.711947  0.286451  0.711947  1
  O  O11  1  0.302467  0.699625  0.302467  1
  O  O12  1  0.296987  0.698501  0.700975  1
  O  O13  1  0.711130  0.292616  0.290842  1
  O  O14  1  0.549025  0.551499  0.953013  1
  O  O15  1  0.959158  0.957384  0.538870  1
  O  O16  1  0.538053  0.963549  0.538053  1
  O  O17  1  0.947533  0.550375  0.947533  1
  O  O18  1  0.953013  0.551499  0.549025  1
  O  O19  1  0.538870  0.957384  0.959158  1
  O  O20  1  0.245367  0.261590  0.245367  1
  O  O21  1  0.004633  0.988410  0.004633  1
