# generated using pymatgen
data_HoTh3Al17GaIr6
_symmetry_space_group_name_H-M   'P 1'
_cell_length_a   7.62459974
_cell_length_b   7.63226777
_cell_length_c   9.50772300
_cell_angle_alpha   90.00000000
_cell_angle_beta   90.00000000
_cell_angle_gamma   119.39981829
_symmetry_Int_Tables_number   1
_chemical_formula_structural   HoTh3Al17GaIr6
_chemical_formula_sum   'Ho1 Th3 Al17 Ga1 Ir6'
_cell_volume   482.02847766
_cell_formula_units_Z   1
loop_
 _symmetry_equiv_pos_site_id
 _symmetry_equiv_pos_as_xyz
  1  'x, y, z'
loop_
 _atom_site_type_symbol
 _atom_site_label
 _atom_site_symmetry_multiplicity
 _atom_site_fract_x
 _atom_site_fract_y
 _atom_site_fract_z
 _atom_site_occupancy
  Ho  Ho0  1  0.328459  0.005902  0.750000  1
  Th  Th1  1  0.994349  0.673878  0.250000  1
  Th  Th2  1  0.003429  0.328469  0.750000  1
  Th  Th3  1  0.672999  0.993556  0.250000  1
  Al  Al4  1  0.869614  0.868356  0.750000  1
  Al  Al5  1  0.005793  0.336424  0.074324  1
  Al  Al6  1  0.000306  0.669190  0.922594  1
  Al  Al7  1  0.000306  0.669190  0.577406  1
  Al  Al8  1  0.335974  0.004414  0.431688  1
  Al  Al9  1  0.005793  0.336424  0.425676  1
  Al  Al10  1  0.659062  0.995283  0.577326  1
  Al  Al11  1  0.659062  0.995283  0.922674  1
  Al  Al12  1  0.335974  0.004414  0.068312  1
  Al  Al13  1  0.336017  0.332539  0.554966  1
  Al  Al14  1  0.662717  0.662548  0.455266  1
  Al  Al15  1  0.662717  0.662548  0.044734  1
  Al  Al16  1  0.336017  0.332539  0.945034  1
  Al  Al17  1  0.340511  0.544935  0.250000  1
  Al  Al18  1  0.656707  0.450204  0.750000  1
  Al  Al19  1  0.544786  0.337065  0.250000  1
  Al  Al20  1  0.452767  0.662269  0.750000  1
  Ga  Ga21  1  0.140244  0.137275  0.250000  1
  Ir  Ir22  1  0.673069  0.328115  0.000140  1
  Ir  Ir23  1  0.327001  0.670734  0.000521  1
  Ir  Ir24  1  0.327001  0.670734  0.499479  1
  Ir  Ir25  1  0.673069  0.328115  0.499860  1
  Ir  Ir26  1  0.998130  0.999797  0.997608  1
  Ir  Ir27  1  0.998130  0.999797  0.502392  1
