# generated using pymatgen
data_Ba4InSb3Pt4
_symmetry_space_group_name_H-M   'P 1'
_cell_length_a   7.18538984
_cell_length_b   7.18538984
_cell_length_c   7.18538984
_cell_angle_alpha   89.08267570
_cell_angle_beta   89.08267570
_cell_angle_gamma   89.08267570
_symmetry_Int_Tables_number   1
_chemical_formula_structural   Ba4InSb3Pt4
_chemical_formula_sum   'Ba4 In1 Sb3 Pt4'
_cell_volume   370.83930301
_cell_formula_units_Z   1
loop_
 _symmetry_equiv_pos_site_id
 _symmetry_equiv_pos_as_xyz
  1  'x, y, z'
loop_
 _atom_site_type_symbol
 _atom_site_label
 _atom_site_symmetry_multiplicity
 _atom_site_fract_x
 _atom_site_fract_y
 _atom_site_fract_z
 _atom_site_occupancy
  Ba  Ba0  1  0.146629  0.146629  0.146629  1
  Ba  Ba1  1  0.862910  0.633411  0.356518  1
  Ba  Ba2  1  0.356518  0.862910  0.633411  1
  Ba  Ba3  1  0.633411  0.356518  0.862910  1
  In  In4  1  0.836738  0.836738  0.836738  1
  Sb  Sb5  1  0.327042  0.673020  0.168035  1
  Sb  Sb6  1  0.673020  0.168035  0.327042  1
  Sb  Sb7  1  0.168035  0.327042  0.673020  1
  Pt  Pt8  1  0.576349  0.920402  0.087501  1
  Pt  Pt9  1  0.411445  0.411445  0.411445  1
  Pt  Pt10  1  0.920402  0.087501  0.576349  1
  Pt  Pt11  1  0.087501  0.576349  0.920402  1
