# generated using pymatgen
data_Pr8Er8Lu3ScSi16
_symmetry_space_group_name_H-M   'P 1'
_cell_length_a   7.41961800
_cell_length_b   7.76386200
_cell_length_c   14.73743100
_cell_angle_alpha   90.00000000
_cell_angle_beta   90.00000000
_cell_angle_gamma   90.00159412
_symmetry_Int_Tables_number   1
_chemical_formula_structural   Pr8Er8Lu3ScSi16
_chemical_formula_sum   'Pr8 Er8 Lu3 Sc1 Si16'
_cell_volume   848.94809508
_cell_formula_units_Z   1
loop_
 _symmetry_equiv_pos_site_id
 _symmetry_equiv_pos_as_xyz
  1  'x, y, z'
loop_
 _atom_site_type_symbol
 _atom_site_label
 _atom_site_symmetry_multiplicity
 _atom_site_fract_x
 _atom_site_fract_y
 _atom_site_fract_z
 _atom_site_occupancy
  Pr  Pr0  1  0.017428  0.177325  0.402389  1
  Pr  Pr1  1  0.517612  0.322681  0.402357  1
  Pr  Pr2  1  0.481196  0.676483  0.901501  1
  Pr  Pr3  1  0.481196  0.676483  0.598499  1
  Pr  Pr4  1  0.983402  0.821236  0.598376  1
  Pr  Pr5  1  0.983402  0.821236  0.901624  1
  Pr  Pr6  1  0.517612  0.322681  0.097643  1
  Pr  Pr7  1  0.017428  0.177325  0.097611  1
  Er  Er8  1  0.323252  0.178617  0.624376  1
  Er  Er9  1  0.676326  0.822571  0.376226  1
  Er  Er10  1  0.176171  0.677385  0.376294  1
  Er  Er11  1  0.824744  0.323670  0.875411  1
  Er  Er12  1  0.824744  0.323670  0.624589  1
  Er  Er13  1  0.323252  0.178617  0.875624  1
  Er  Er14  1  0.176171  0.677385  0.123706  1
  Er  Er15  1  0.676326  0.822571  0.123774  1
  Lu  Lu16  1  0.656543  0.991164  0.750000  1
  Lu  Lu17  1  0.843392  0.491114  0.250000  1
  Lu  Lu18  1  0.343131  0.008925  0.250000  1
  Sc  Sc19  1  0.156635  0.508731  0.750000  1
  Si  Si20  1  0.277856  0.874495  0.750000  1
  Si  Si21  1  0.471286  0.613753  0.250000  1
  Si  Si22  1  0.028306  0.113016  0.750000  1
  Si  Si23  1  0.525398  0.389226  0.750000  1
  Si  Si24  1  0.148121  0.467502  0.540085  1
  Si  Si25  1  0.971675  0.886633  0.250000  1
  Si  Si26  1  0.721440  0.122907  0.250000  1
  Si  Si27  1  0.851844  0.532667  0.039193  1
  Si  Si28  1  0.351937  0.967438  0.038833  1
  Si  Si29  1  0.148121  0.467502  0.959915  1
  Si  Si30  1  0.648448  0.032704  0.539482  1
  Si  Si31  1  0.351937  0.967438  0.461167  1
  Si  Si32  1  0.851844  0.532667  0.460807  1
  Si  Si33  1  0.782020  0.622391  0.750000  1
  Si  Si34  1  0.221360  0.377085  0.250000  1
  Si  Si35  1  0.648448  0.032704  0.960518  1
