# generated using pymatgen
data_SrHo(Tm2Rh9)2
_symmetry_space_group_name_H-M   'P 1'
_cell_length_a   5.26896300
_cell_length_b   5.26896155
_cell_length_c   17.49462300
_cell_angle_alpha   90.00000000
_cell_angle_beta   90.00000000
_cell_angle_gamma   119.99999028
_symmetry_Int_Tables_number   1
_chemical_formula_structural   SrHo(Tm2Rh9)2
_chemical_formula_sum   'Sr1 Ho1 Tm4 Rh18'
_cell_volume   420.61566245
_cell_formula_units_Z   1
loop_
 _symmetry_equiv_pos_site_id
 _symmetry_equiv_pos_as_xyz
  1  'x, y, z'
loop_
 _atom_site_type_symbol
 _atom_site_label
 _atom_site_symmetry_multiplicity
 _atom_site_fract_x
 _atom_site_fract_y
 _atom_site_fract_z
 _atom_site_occupancy
  Sr  Sr0  1  0.666667  0.333333  0.250000  1
  Ho  Ho1  1  0.333333  0.666667  0.750000  1
  Tm  Tm2  1  0.333333  0.666667  0.541470  1
  Tm  Tm3  1  0.666667  0.333333  0.041191  1
  Tm  Tm4  1  0.666667  0.333333  0.458809  1
  Tm  Tm5  1  0.333333  0.666667  0.958530  1
  Rh  Rh6  1  0.167435  0.334872  0.123279  1
  Rh  Rh7  1  0.832487  0.664976  0.625278  1
  Rh  Rh8  1  0.665128  0.832565  0.123279  1
  Rh  Rh9  1  0.167435  0.832565  0.123279  1
  Rh  Rh10  1  0.832487  0.167513  0.625278  1
  Rh  Rh11  1  0.335024  0.167513  0.625278  1
  Rh  Rh12  1  0.832487  0.664976  0.874722  1
  Rh  Rh13  1  0.832487  0.167513  0.874722  1
  Rh  Rh14  1  0.335024  0.167513  0.874722  1
  Rh  Rh15  1  0.665128  0.832565  0.376721  1
  Rh  Rh16  1  0.167435  0.832565  0.376721  1
  Rh  Rh17  1  0.167435  0.334872  0.376721  1
  Rh  Rh18  1  0.000000  0.000000  0.250000  1
  Rh  Rh19  1  0.000000  0.000000  0.750000  1
  Rh  Rh20  1  0.333333  0.666667  0.250000  1
  Rh  Rh21  1  0.666667  0.333333  0.750000  1
  Rh  Rh22  1  0.000000  0.000000  0.999125  1
  Rh  Rh23  1  0.000000  0.000000  0.500875  1
