# generated using pymatgen
data_NaY(CuPt)2
_symmetry_space_group_name_H-M   'P 1'
_cell_length_a   5.05738693
_cell_length_b   5.25157468
_cell_length_c   5.25157374
_cell_angle_alpha   63.71480254
_cell_angle_beta   61.21583661
_cell_angle_gamma   61.21584035
_symmetry_Int_Tables_number   1
_chemical_formula_structural   NaY(CuPt)2
_chemical_formula_sum   'Na1 Y1 Cu2 Pt2'
_cell_volume   103.01872988
_cell_formula_units_Z   1
loop_
 _symmetry_equiv_pos_site_id
 _symmetry_equiv_pos_as_xyz
  1  'x, y, z'
loop_
 _atom_site_type_symbol
 _atom_site_label
 _atom_site_symmetry_multiplicity
 _atom_site_fract_x
 _atom_site_fract_y
 _atom_site_fract_z
 _atom_site_occupancy
  Na  Na0  1  0.246167  0.253833  0.253833  1
  Y  Y1  1  0.995706  0.004294  0.004294  1
  Cu  Cu2  1  0.128117  0.622350  0.622350  1
  Cu  Cu3  1  0.627181  0.622350  0.622350  1
  Pt  Pt4  1  0.626415  0.622580  0.124591  1
  Pt  Pt5  1  0.626415  0.124591  0.622580  1
