# generated using pymatgen
data_Rb4Zr6OsI18
_symmetry_space_group_name_H-M   'P 1'
_cell_length_a   11.55687148
_cell_length_b   11.74517790
_cell_length_c   11.87533103
_cell_angle_alpha   118.45500778
_cell_angle_beta   100.24734578
_cell_angle_gamma   103.88766481
_symmetry_Int_Tables_number   1
_chemical_formula_structural   Rb4Zr6OsI18
_chemical_formula_sum   'Rb4 Zr6 Os1 I18'
_cell_volume   1292.59286362
_cell_formula_units_Z   1
loop_
 _symmetry_equiv_pos_site_id
 _symmetry_equiv_pos_as_xyz
  1  'x, y, z'
loop_
 _atom_site_type_symbol
 _atom_site_label
 _atom_site_symmetry_multiplicity
 _atom_site_fract_x
 _atom_site_fract_y
 _atom_site_fract_z
 _atom_site_occupancy
  Rb  Rb0  1  0.651691  0.537561  0.226715  1
  Rb  Rb1  1  0.348309  0.462439  0.773285  1
  Rb  Rb2  1  0.686582  0.225685  0.564586  1
  Rb  Rb3  1  0.313418  0.774315  0.435414  1
  Zr  Zr4  1  0.149519  0.055251  0.227529  1
  Zr  Zr5  1  0.850481  0.944749  0.772471  1
  Zr  Zr6  1  0.862672  0.124522  0.130746  1
  Zr  Zr7  1  0.137328  0.875478  0.869254  1
  Zr  Zr8  1  0.144858  0.236400  0.045162  1
  Zr  Zr9  1  0.855142  0.763600  0.954838  1
  Os  Os10  1  0.000000  0.000000  0.000000  1
  I  I11  1  0.008092  0.404399  0.194190  1
  I  I12  1  0.991908  0.595601  0.805810  1
  I  I13  1  0.327036  0.329852  0.308091  1
  I  I14  1  0.672964  0.670148  0.691909  1
  I  I15  1  0.319008  0.517577  0.099243  1
  I  I16  1  0.680992  0.482423  0.900757  1
  I  I17  1  0.003879  0.797954  0.206231  1
  I  I18  1  0.996121  0.202046  0.793769  1
  I  I19  1  0.703186  0.271341  0.283956  1
  I  I20  1  0.296814  0.728659  0.716044  1
  I  I21  1  0.314432  0.126435  0.904701  1
  I  I22  1  0.685568  0.873565  0.095299  1
  I  I23  1  0.014806  0.201763  0.402320  1
  I  I24  1  0.985194  0.798237  0.597680  1
  I  I25  1  0.318959  0.924337  0.109246  1
  I  I26  1  0.681041  0.075663  0.890754  1
  I  I27  1  0.330741  0.120338  0.497274  1
  I  I28  1  0.669259  0.879662  0.502726  1
