# generated using pymatgen
data_Sm2Er8Tl7InPt4
_symmetry_space_group_name_H-M   'P 1'
_cell_length_a   3.61699000
_cell_length_b   8.24497028
_cell_length_c   18.43280705
_cell_angle_alpha   89.88486111
_cell_angle_beta   90.00000000
_cell_angle_gamma   90.00000000
_symmetry_Int_Tables_number   1
_chemical_formula_structural   Sm2Er8Tl7InPt4
_chemical_formula_sum   'Sm2 Er8 Tl7 In1 Pt4'
_cell_volume   549.70160190
_cell_formula_units_Z   1
loop_
 _symmetry_equiv_pos_site_id
 _symmetry_equiv_pos_as_xyz
  1  'x, y, z'
loop_
 _atom_site_type_symbol
 _atom_site_label
 _atom_site_symmetry_multiplicity
 _atom_site_fract_x
 _atom_site_fract_y
 _atom_site_fract_z
 _atom_site_occupancy
  Sm  Sm0  1  0.000000  0.999686  0.000271  1
  Sm  Sm1  1  0.000000  0.502997  0.499581  1
  Er  Er2  1  0.000000  0.117565  0.411832  1
  Er  Er3  1  0.000000  0.883304  0.587411  1
  Er  Er4  1  0.000000  0.382824  0.911008  1
  Er  Er5  1  0.000000  0.616848  0.089017  1
  Er  Er6  1  0.000000  0.242602  0.219797  1
  Er  Er7  1  0.000000  0.757014  0.780580  1
  Er  Er8  1  0.000000  0.256097  0.718657  1
  Er  Er9  1  0.000000  0.742285  0.281514  1
  Tl  Tl10  1  0.500000  0.422328  0.351420  1
  Tl  Tl11  1  0.500000  0.581621  0.648987  1
  Tl  Tl12  1  0.500000  0.079576  0.850771  1
  Tl  Tl13  1  0.500000  0.920257  0.149972  1
  Tl  Tl14  1  0.500000  0.298323  0.064377  1
  Tl  Tl15  1  0.500000  0.700271  0.935737  1
  Tl  Tl16  1  0.500000  0.202056  0.564375  1
  In  In17  1  0.500000  0.801750  0.434264  1
  Pt  Pt18  1  0.500000  0.022554  0.303945  1
  Pt  Pt19  1  0.500000  0.972923  0.697097  1
  Pt  Pt20  1  0.500000  0.471899  0.801816  1
  Pt  Pt21  1  0.500000  0.525219  0.197572  1
