# generated using pymatgen
data_CsTbNd2CBr6
_symmetry_space_group_name_H-M   'P 1'
_cell_length_a   9.04247520
_cell_length_b   9.07856686
_cell_length_c   9.61352243
_cell_angle_alpha   70.97501160
_cell_angle_beta   84.95133172
_cell_angle_gamma   89.25918887
_symmetry_Int_Tables_number   1
_chemical_formula_structural   CsTbNd2CBr6
_chemical_formula_sum   'Cs2 Tb2 Nd4 C2 Br12'
_cell_volume   743.09262693
_cell_formula_units_Z   2
loop_
 _symmetry_equiv_pos_site_id
 _symmetry_equiv_pos_as_xyz
  1  'x, y, z'
loop_
 _atom_site_type_symbol
 _atom_site_label
 _atom_site_symmetry_multiplicity
 _atom_site_fract_x
 _atom_site_fract_y
 _atom_site_fract_z
 _atom_site_occupancy
  Cs  Cs0  1  0.467383  0.361126  0.331231  1
  Cs  Cs1  1  0.532618  0.638874  0.668769  1
  Tb  Tb2  1  0.973402  0.887860  0.322273  1
  Tb  Tb3  1  0.026597  0.112140  0.677728  1
  Nd  Nd4  1  0.915401  0.738593  0.003948  1
  Nd  Nd5  1  0.084599  0.261407  0.996051  1
  Nd  Nd6  1  0.737691  0.086647  0.000742  1
  Nd  Nd7  1  0.262308  0.913353  0.999259  1
  C  C8  1  0.006439  0.026405  0.922201  1
  C  C9  1  0.993560  0.973595  0.077799  1
  Br  Br10  1  0.074123  0.189056  0.333355  1
  Br  Br11  1  0.925877  0.810944  0.666645  1
  Br  Br12  1  0.209489  0.589608  0.000656  1
  Br  Br13  1  0.790512  0.410392  0.999344  1
  Br  Br14  1  0.406229  0.205699  0.002151  1
  Br  Br15  1  0.593770  0.794302  0.997848  1
  Br  Br16  1  0.671984  0.997569  0.331054  1
  Br  Br17  1  0.328016  0.002431  0.668946  1
  Br  Br18  1  0.273456  0.775557  0.328260  1
  Br  Br19  1  0.726544  0.224443  0.671740  1
  Br  Br20  1  0.852587  0.594945  0.331437  1
  Br  Br21  1  0.147412  0.405055  0.668563  1
