# generated using pymatgen
data_Dy3In3Ag2Au
_symmetry_space_group_name_H-M   'P 1'
_cell_length_a   7.82747500
_cell_length_b   7.82747508
_cell_length_c   3.98239100
_cell_angle_alpha   90.00000000
_cell_angle_beta   90.00000000
_cell_angle_gamma   120.00000389
_symmetry_Int_Tables_number   1
_chemical_formula_structural   Dy3In3Ag2Au
_chemical_formula_sum   'Dy3 In3 Ag2 Au1'
_cell_volume   211.30895157
_cell_formula_units_Z   1
loop_
 _symmetry_equiv_pos_site_id
 _symmetry_equiv_pos_as_xyz
  1  'x, y, z'
loop_
 _atom_site_type_symbol
 _atom_site_label
 _atom_site_symmetry_multiplicity
 _atom_site_fract_x
 _atom_site_fract_y
 _atom_site_fract_z
 _atom_site_occupancy
  Dy  Dy0  1  0.597125  0.006474  0.500000  1
  Dy  Dy1  1  0.409349  0.402875  0.500000  1
  Dy  Dy2  1  0.993526  0.590651  0.500000  1
  In  In3  1  0.736864  0.742135  0.000000  1
  In  In4  1  0.005271  0.263136  0.000000  1
  In  In5  1  0.257865  0.994729  0.000000  1
  Ag  Ag6  1  0.333333  0.666667  0.000000  1
  Ag  Ag7  1  0.000000  0.000000  0.500000  1
  Au  Au8  1  0.666667  0.333333  0.000000  1
