# generated using pymatgen
data_Ca2Y(B3Ir4)2
_symmetry_space_group_name_H-M   'P 1'
_cell_length_a   9.94030243
_cell_length_b   9.07784061
_cell_length_c   5.64460987
_cell_angle_alpha   81.32390551
_cell_angle_beta   64.52668850
_cell_angle_gamma   34.14941090
_symmetry_Int_Tables_number   1
_chemical_formula_structural   Ca2Y(B3Ir4)2
_chemical_formula_sum   'Ca2 Y1 B6 Ir8'
_cell_volume   236.04812756
_cell_formula_units_Z   1
loop_
 _symmetry_equiv_pos_site_id
 _symmetry_equiv_pos_as_xyz
  1  'x, y, z'
loop_
 _atom_site_type_symbol
 _atom_site_label
 _atom_site_symmetry_multiplicity
 _atom_site_fract_x
 _atom_site_fract_y
 _atom_site_fract_z
 _atom_site_occupancy
  Ca  Ca0  1  0.318050  0.318050  0.681950  1
  Ca  Ca1  1  0.681950  0.681950  0.318050  1
  Y  Y2  1  0.500000  0.500000  0.500000  1
  B  B3  1  0.670528  0.984365  0.015635  1
  B  B4  1  0.984365  0.670528  0.329472  1
  B  B5  1  0.329472  0.015635  0.984365  1
  B  B6  1  0.015635  0.329472  0.670528  1
  B  B7  1  0.168072  0.831928  0.168072  1
  B  B8  1  0.831928  0.168072  0.831928  1
  Ir  Ir9  1  0.585026  0.585026  0.914974  1
  Ir  Ir10  1  0.913298  0.913298  0.086702  1
  Ir  Ir11  1  0.414974  0.414974  0.085026  1
  Ir  Ir12  1  0.085026  0.085026  0.414974  1
  Ir  Ir13  1  0.914974  0.914974  0.585026  1
  Ir  Ir14  1  0.250000  0.250000  0.250000  1
  Ir  Ir15  1  0.086702  0.086702  0.913298  1
  Ir  Ir16  1  0.750000  0.750000  0.750000  1
