# generated using pymatgen
data_Tm4Cu5Ni9
_symmetry_space_group_name_H-M   'P 1'
_cell_length_a   4.93838865
_cell_length_b   4.95539480
_cell_length_c   12.33958863
_cell_angle_alpha   78.41668021
_cell_angle_beta   78.50257044
_cell_angle_gamma   59.88601703
_symmetry_Int_Tables_number   1
_chemical_formula_structural   Tm4Cu5Ni9
_chemical_formula_sum   'Tm4 Cu5 Ni9'
_cell_volume   254.15567888
_cell_formula_units_Z   1
loop_
 _symmetry_equiv_pos_site_id
 _symmetry_equiv_pos_as_xyz
  1  'x, y, z'
loop_
 _atom_site_type_symbol
 _atom_site_label
 _atom_site_symmetry_multiplicity
 _atom_site_fract_x
 _atom_site_fract_y
 _atom_site_fract_z
 _atom_site_occupancy
  Tm  Tm0  1  0.948306  0.949281  0.153133  1
  Tm  Tm1  1  0.051694  0.050719  0.846867  1
  Tm  Tm2  1  0.852073  0.852800  0.442328  1
  Tm  Tm3  1  0.147927  0.147200  0.557672  1
  Cu  Cu4  1  0.718660  0.724200  0.832939  1
  Cu  Cu5  1  0.281340  0.275800  0.167061  1
  Cu  Cu6  1  0.606269  0.613029  0.167673  1
  Cu  Cu7  1  0.393731  0.386971  0.832327  1
  Cu  Cu8  1  0.000000  0.500000  0.000000  1
  Ni  Ni9  1  0.500000  0.500000  0.500000  1
  Ni  Ni10  1  0.500000  0.000000  0.000000  1
  Ni  Ni11  1  0.500000  0.500000  0.000000  1
  Ni  Ni12  1  0.386954  0.388298  0.333649  1
  Ni  Ni13  1  0.891274  0.387845  0.333036  1
  Ni  Ni14  1  0.386954  0.891100  0.333649  1
  Ni  Ni15  1  0.613046  0.611702  0.666351  1
  Ni  Ni16  1  0.108726  0.612155  0.666964  1
  Ni  Ni17  1  0.613046  0.108900  0.666351  1
