# generated using pymatgen
data_Y18Tm2Cd6RuPt
_symmetry_space_group_name_H-M   'P 1'
_cell_length_a   9.66835900
_cell_length_b   9.66835968
_cell_length_c   9.84418400
_cell_angle_alpha   90.00000000
_cell_angle_beta   90.00000000
_cell_angle_gamma   120.00000111
_symmetry_Int_Tables_number   1
_chemical_formula_structural   Y18Tm2Cd6RuPt
_chemical_formula_sum   'Y18 Tm2 Cd6 Ru1 Pt1'
_cell_volume   796.92218292
_cell_formula_units_Z   1
loop_
 _symmetry_equiv_pos_site_id
 _symmetry_equiv_pos_as_xyz
  1  'x, y, z'
loop_
 _atom_site_type_symbol
 _atom_site_label
 _atom_site_symmetry_multiplicity
 _atom_site_fract_x
 _atom_site_fract_y
 _atom_site_fract_z
 _atom_site_occupancy
  Y  Y0  1  0.207882  0.792118  0.442185  1
  Y  Y1  1  0.207882  0.415765  0.442185  1
  Y  Y2  1  0.584235  0.792118  0.442185  1
  Y  Y3  1  0.790551  0.209449  0.560422  1
  Y  Y4  1  0.790551  0.581100  0.560422  1
  Y  Y5  1  0.418900  0.209449  0.560422  1
  Y  Y6  1  0.790551  0.209449  0.939578  1
  Y  Y7  1  0.790551  0.581100  0.939578  1
  Y  Y8  1  0.418900  0.209449  0.939578  1
  Y  Y9  1  0.207882  0.792118  0.057815  1
  Y  Y10  1  0.207882  0.415765  0.057815  1
  Y  Y11  1  0.584235  0.792118  0.057815  1
  Y  Y12  1  0.542511  0.457489  0.250000  1
  Y  Y13  1  0.542511  0.085021  0.250000  1
  Y  Y14  1  0.914979  0.457489  0.250000  1
  Y  Y15  1  0.458739  0.541261  0.750000  1
  Y  Y16  1  0.458739  0.917479  0.750000  1
  Y  Y17  1  0.082521  0.541261  0.750000  1
  Tm  Tm18  1  0.000000  0.000000  0.499401  1
  Tm  Tm19  1  0.000000  0.000000  0.000599  1
  Cd  Cd20  1  0.885628  0.114372  0.250000  1
  Cd  Cd21  1  0.885628  0.771257  0.250000  1
  Cd  Cd22  1  0.228743  0.114372  0.250000  1
  Cd  Cd23  1  0.114278  0.885722  0.750000  1
  Cd  Cd24  1  0.114278  0.228554  0.750000  1
  Cd  Cd25  1  0.771446  0.885722  0.750000  1
  Ru  Ru26  1  0.666667  0.333333  0.750000  1
  Pt  Pt27  1  0.333333  0.666667  0.250000  1
