# generated using pymatgen
data_Zr8Ti12Si15B
_symmetry_space_group_name_H-M   'P 1'
_cell_length_a   6.81996945
_cell_length_b   6.83261632
_cell_length_c   12.48779799
_cell_angle_alpha   89.96252603
_cell_angle_beta   90.19092559
_cell_angle_gamma   89.93911160
_symmetry_Int_Tables_number   1
_chemical_formula_structural   Zr8Ti12Si15B
_chemical_formula_sum   'Zr8 Ti12 Si15 B1'
_cell_volume   581.90565484
_cell_formula_units_Z   1
loop_
 _symmetry_equiv_pos_site_id
 _symmetry_equiv_pos_as_xyz
  1  'x, y, z'
loop_
 _atom_site_type_symbol
 _atom_site_label
 _atom_site_symmetry_multiplicity
 _atom_site_fract_x
 _atom_site_fract_y
 _atom_site_fract_z
 _atom_site_occupancy
  Zr  Zr0  1  0.000352  0.656059  0.033072  1
  Zr  Zr1  1  0.999167  0.351682  0.530283  1
  Zr  Zr2  1  0.655866  0.000320  0.967461  1
  Zr  Zr3  1  0.154905  0.499300  0.782079  1
  Zr  Zr4  1  0.853253  0.508995  0.288927  1
  Zr  Zr5  1  0.499816  0.154883  0.217993  1
  Zr  Zr6  1  0.498228  0.843424  0.715502  1
  Zr  Zr7  1  0.339696  0.996798  0.466475  1
  Ti  Ti8  1  0.339875  0.508480  0.378011  1
  Ti  Ti9  1  0.859585  0.979245  0.379834  1
  Ti  Ti10  1  0.004144  0.152457  0.127111  1
  Ti  Ti11  1  0.993567  0.845131  0.619233  1
  Ti  Ti12  1  0.653002  0.496817  0.876660  1
  Ti  Ti13  1  0.500593  0.349652  0.620953  1
  Ti  Ti14  1  0.496819  0.653052  0.123705  1
  Ti  Ti15  1  0.152603  0.004570  0.873268  1
  Ti  Ti16  1  0.677446  0.671038  0.499041  1
  Ti  Ti17  1  0.828068  0.171874  0.749454  1
  Ti  Ti18  1  0.169539  0.825291  0.255050  1
  Ti  Ti19  1  0.328999  0.328466  0.000282  1
  Si  Si20  1  0.954160  0.292901  0.936295  1
  Si  Si21  1  0.705323  0.048110  0.563439  1
  Si  Si22  1  0.208025  0.453237  0.186756  1
  Si  Si23  1  0.791507  0.545901  0.685560  1
  Si  Si24  1  0.453545  0.207606  0.812654  1
  Si  Si25  1  0.547167  0.792219  0.314711  1
  Si  Si26  1  0.291914  0.953032  0.065488  1
  Si  Si27  1  0.865085  0.795600  0.820341  1
  Si  Si28  1  0.133780  0.205584  0.322568  1
  Si  Si29  1  0.795126  0.865323  0.179483  1
  Si  Si30  1  0.286060  0.637859  0.566585  1
  Si  Si31  1  0.706490  0.365393  0.073798  1
  Si  Si32  1  0.634679  0.292713  0.425132  1
  Si  Si33  1  0.364484  0.705930  0.927399  1
  Si  Si34  1  0.202296  0.134587  0.676066  1
  B  B35  1  0.054838  0.706469  0.439330  1
