# generated using pymatgen
data_Li6ScNb5Rh12
_symmetry_space_group_name_H-M   'P 1'
_cell_length_a   4.38275800
_cell_length_b   6.13214700
_cell_length_c   13.12342300
_cell_angle_alpha   89.99917412
_cell_angle_beta   89.99971649
_cell_angle_gamma   90.00013077
_symmetry_Int_Tables_number   1
_chemical_formula_structural   Li6ScNb5Rh12
_chemical_formula_sum   'Li6 Sc1 Nb5 Rh12'
_cell_volume   352.70139369
_cell_formula_units_Z   1
loop_
 _symmetry_equiv_pos_site_id
 _symmetry_equiv_pos_as_xyz
  1  'x, y, z'
loop_
 _atom_site_type_symbol
 _atom_site_label
 _atom_site_symmetry_multiplicity
 _atom_site_fract_x
 _atom_site_fract_y
 _atom_site_fract_z
 _atom_site_occupancy
  Li  Li0  1  0.000000  0.499999  0.000000  1
  Li  Li1  1  0.499888  0.999998  0.166710  1
  Li  Li2  1  0.999902  0.500000  0.332896  1
  Li  Li3  1  0.500001  0.000000  0.500000  1
  Li  Li4  1  0.000098  0.499998  0.667103  1
  Li  Li5  1  0.500114  0.000002  0.833289  1
  Sc  Sc6  1  0.000000  0.000000  0.000000  1
  Nb  Nb7  1  0.499898  0.499998  0.164752  1
  Nb  Nb8  1  0.999896  0.000001  0.332527  1
  Nb  Nb9  1  0.500001  0.499999  0.500000  1
  Nb  Nb10  1  0.000104  0.999999  0.667472  1
  Nb  Nb11  1  0.500104  0.500000  0.835249  1
  Rh  Rh12  1  0.500002  0.255440  0.000000  1
  Rh  Rh13  1  0.500000  0.744560  0.000000  1
  Rh  Rh14  1  0.999891  0.252694  0.169652  1
  Rh  Rh15  1  0.999894  0.747312  0.169654  1
  Rh  Rh16  1  0.499891  0.249946  0.333750  1
  Rh  Rh17  1  0.499896  0.750052  0.333749  1
  Rh  Rh18  1  0.000002  0.250092  0.500001  1
  Rh  Rh19  1  0.999998  0.749908  0.499999  1
  Rh  Rh20  1  0.500103  0.249948  0.666251  1
  Rh  Rh21  1  0.500108  0.750054  0.666250  1
  Rh  Rh22  1  0.000105  0.252688  0.830345  1
  Rh  Rh23  1  0.000108  0.747306  0.830347  1
