# generated using pymatgen
data_CaLa6FeI12
_symmetry_space_group_name_H-M   'P 1'
_cell_length_a   10.13174854
_cell_length_b   10.13174730
_cell_length_c   10.13174853
_cell_angle_alpha   107.02901120
_cell_angle_beta   107.02899681
_cell_angle_gamma   107.02899694
_symmetry_Int_Tables_number   1
_chemical_formula_structural   CaLa6FeI12
_chemical_formula_sum   'Ca1 La6 Fe1 I12'
_cell_volume   865.47530953
_cell_formula_units_Z   1
loop_
 _symmetry_equiv_pos_site_id
 _symmetry_equiv_pos_as_xyz
  1  'x, y, z'
loop_
 _atom_site_type_symbol
 _atom_site_label
 _atom_site_symmetry_multiplicity
 _atom_site_fract_x
 _atom_site_fract_y
 _atom_site_fract_z
 _atom_site_occupancy
  Ca  Ca0  1  0.500000  0.500000  0.500000  1
  La  La1  1  0.973894  0.901178  0.699172  1
  La  La2  1  0.026106  0.098822  0.300828  1
  La  La3  1  0.098822  0.300828  0.026106  1
  La  La4  1  0.300828  0.026106  0.098822  1
  La  La5  1  0.901178  0.699172  0.973894  1
  La  La6  1  0.699172  0.973894  0.901178  1
  Fe  Fe7  1  0.000000  0.000000  0.000000  1
  I  I8  1  0.536814  0.615403  0.840046  1
  I  I9  1  0.463186  0.384597  0.159954  1
  I  I10  1  0.318907  0.926109  0.772605  1
  I  I11  1  0.384597  0.159954  0.463186  1
  I  I12  1  0.926109  0.772605  0.318907  1
  I  I13  1  0.681093  0.073891  0.227395  1
  I  I14  1  0.073891  0.227395  0.681093  1
  I  I15  1  0.772605  0.318907  0.926109  1
  I  I16  1  0.227395  0.681093  0.073891  1
  I  I17  1  0.840046  0.536814  0.615403  1
  I  I18  1  0.159954  0.463186  0.384597  1
  I  I19  1  0.615403  0.840046  0.536814  1
