# generated using pymatgen
data_Tb3Er(Ga5Co3)2
_symmetry_space_group_name_H-M   'P 1'
_cell_length_a   8.33268733
_cell_length_b   8.33547596
_cell_length_c   5.50979605
_cell_angle_alpha   70.71146813
_cell_angle_beta   70.70691104
_cell_angle_gamma   96.69415291
_symmetry_Int_Tables_number   1
_chemical_formula_structural   Tb3Er(Ga5Co3)2
_chemical_formula_sum   'Tb3 Er1 Ga10 Co6'
_cell_volume   329.80258173
_cell_formula_units_Z   1
loop_
 _symmetry_equiv_pos_site_id
 _symmetry_equiv_pos_as_xyz
  1  'x, y, z'
loop_
 _atom_site_type_symbol
 _atom_site_label
 _atom_site_symmetry_multiplicity
 _atom_site_fract_x
 _atom_site_fract_y
 _atom_site_fract_z
 _atom_site_occupancy
  Tb  Tb0  1  0.422860  0.131457  0.722614  1
  Tb  Tb1  1  0.131522  0.423273  0.222144  1
  Tb  Tb2  1  0.576725  0.868564  0.277824  1
  Er  Er3  1  0.868745  0.576126  0.777626  1
  Ga  Ga4  1  0.263730  0.098902  0.318412  1
  Ga  Ga5  1  0.900826  0.736061  0.181866  1
  Ga  Ga6  1  0.736856  0.900125  0.681504  1
  Ga  Ga7  1  0.098533  0.262950  0.819259  1
  Ga  Ga8  1  0.201963  0.796569  0.750049  1
  Ga  Ga9  1  0.797328  0.202941  0.250258  1
  Ga  Ga10  1  0.500825  0.501039  0.748987  1
  Ga  Ga11  1  0.500788  0.501014  0.249244  1
  Ga  Ga12  1  0.797441  0.202862  0.749493  1
  Ga  Ga13  1  0.201593  0.796919  0.251430  1
  Co  Co14  1  0.999816  0.999589  0.750328  1
  Co  Co15  1  0.999657  0.999760  0.250269  1
  Co  Co16  1  0.735147  0.433984  0.415793  1
  Co  Co17  1  0.433011  0.734757  0.916415  1
  Co  Co18  1  0.265102  0.566033  0.584174  1
  Co  Co19  1  0.567533  0.267073  0.082311  1
