# generated using pymatgen
data_Tb3Al12Os3Ru
_symmetry_space_group_name_H-M   'P 1'
_cell_length_a   8.84186700
_cell_length_b   8.84186810
_cell_length_c   9.57737700
_cell_angle_alpha   90.00000000
_cell_angle_beta   90.00000000
_cell_angle_gamma   119.99999214
_symmetry_Int_Tables_number   1
_chemical_formula_structural   Tb3Al12Os3Ru
_chemical_formula_sum   'Tb6 Al24 Os6 Ru2'
_cell_volume   648.43322460
_cell_formula_units_Z   2
loop_
 _symmetry_equiv_pos_site_id
 _symmetry_equiv_pos_as_xyz
  1  'x, y, z'
loop_
 _atom_site_type_symbol
 _atom_site_label
 _atom_site_symmetry_multiplicity
 _atom_site_fract_x
 _atom_site_fract_y
 _atom_site_fract_z
 _atom_site_occupancy
  Tb  Tb0  1  0.193148  0.386295  0.250000  1
  Tb  Tb1  1  0.806852  0.613705  0.750000  1
  Tb  Tb2  1  0.613705  0.806852  0.250000  1
  Tb  Tb3  1  0.386295  0.193148  0.750000  1
  Tb  Tb4  1  0.193148  0.806852  0.250000  1
  Tb  Tb5  1  0.806852  0.193148  0.750000  1
  Al  Al6  1  0.333333  0.666667  0.014477  1
  Al  Al7  1  0.666667  0.333333  0.985523  1
  Al  Al8  1  0.666667  0.333333  0.514477  1
  Al  Al9  1  0.333333  0.666667  0.485523  1
  Al  Al10  1  0.162246  0.324490  0.575961  1
  Al  Al11  1  0.837754  0.675510  0.424039  1
  Al  Al12  1  0.675510  0.837754  0.575961  1
  Al  Al13  1  0.837754  0.675510  0.075961  1
  Al  Al14  1  0.324490  0.162246  0.424039  1
  Al  Al15  1  0.162246  0.324490  0.924039  1
  Al  Al16  1  0.162246  0.837754  0.575961  1
  Al  Al17  1  0.324490  0.162246  0.075961  1
  Al  Al18  1  0.837754  0.162246  0.424039  1
  Al  Al19  1  0.675510  0.837754  0.924039  1
  Al  Al20  1  0.837754  0.162246  0.075961  1
  Al  Al21  1  0.162246  0.837754  0.924039  1
  Al  Al22  1  0.560545  0.121089  0.250000  1
  Al  Al23  1  0.439455  0.878911  0.750000  1
  Al  Al24  1  0.878911  0.439455  0.250000  1
  Al  Al25  1  0.121089  0.560545  0.750000  1
  Al  Al26  1  0.560545  0.439455  0.250000  1
  Al  Al27  1  0.439455  0.560545  0.750000  1
  Al  Al28  1  0.000000  0.000000  0.250000  1
  Al  Al29  1  0.000000  0.000000  0.750000  1
  Os  Os30  1  0.500000  0.000000  0.000000  1
  Os  Os31  1  0.000000  0.500000  0.000000  1
  Os  Os32  1  0.500000  0.000000  0.500000  1
  Os  Os33  1  0.500000  0.500000  0.000000  1
  Os  Os34  1  0.000000  0.500000  0.500000  1
  Os  Os35  1  0.500000  0.500000  0.500000  1
  Ru  Ru36  1  0.000000  0.000000  0.000000  1
  Ru  Ru37  1  0.000000  0.000000  0.500000  1
