# generated using pymatgen
data_ErTmP7Ru12
_symmetry_space_group_name_H-M   'P 1'
_cell_length_a   9.39166800
_cell_length_b   9.39166694
_cell_length_c   3.94860300
_cell_angle_alpha   90.00000000
_cell_angle_beta   90.00000000
_cell_angle_gamma   119.99999575
_symmetry_Int_Tables_number   1
_chemical_formula_structural   ErTmP7Ru12
_chemical_formula_sum   'Er1 Tm1 P7 Ru12'
_cell_volume   301.61958330
_cell_formula_units_Z   1
loop_
 _symmetry_equiv_pos_site_id
 _symmetry_equiv_pos_as_xyz
  1  'x, y, z'
loop_
 _atom_site_type_symbol
 _atom_site_label
 _atom_site_symmetry_multiplicity
 _atom_site_fract_x
 _atom_site_fract_y
 _atom_site_fract_z
 _atom_site_occupancy
  Er  Er0  1  0.333333  0.666667  0.000000  1
  Tm  Tm1  1  0.666667  0.333333  0.500000  1
  P  P2  1  0.600050  0.718597  0.500000  1
  P  P3  1  0.000000  0.000000  0.000000  1
  P  P4  1  0.281403  0.881453  0.500000  1
  P  P5  1  0.118547  0.399950  0.500000  1
  P  P6  1  0.884467  0.573642  0.000000  1
  P  P7  1  0.426358  0.310824  0.000000  1
  P  P8  1  0.689176  0.115533  0.000000  1
  Ru  Ru9  1  0.555606  0.948919  0.500000  1
  Ru  Ru10  1  0.393315  0.444394  0.500000  1
  Ru  Ru11  1  0.914685  0.122158  0.500000  1
  Ru  Ru12  1  0.207473  0.085315  0.500000  1
  Ru  Ru13  1  0.877842  0.792527  0.500000  1
  Ru  Ru14  1  0.727362  0.892088  0.000000  1
  Ru  Ru15  1  0.107912  0.835273  0.000000  1
  Ru  Ru16  1  0.164727  0.272638  0.000000  1
  Ru  Ru17  1  0.424575  0.066804  0.000000  1
  Ru  Ru18  1  0.933196  0.357771  0.000000  1
  Ru  Ru19  1  0.642229  0.575425  0.000000  1
  Ru  Ru20  1  0.051081  0.606685  0.500000  1
