# generated using pymatgen
data_Er2Lu8CuSiPb6
_symmetry_space_group_name_H-M   'P 1'
_cell_length_a   9.08984597
_cell_length_b   9.07503556
_cell_length_c   6.56386271
_cell_angle_alpha   89.97345135
_cell_angle_beta   90.05301080
_cell_angle_gamma   120.05400428
_symmetry_Int_Tables_number   1
_chemical_formula_structural   Er2Lu8CuSiPb6
_chemical_formula_sum   'Er2 Lu8 Cu1 Si1 Pb6'
_cell_volume   468.66033752
_cell_formula_units_Z   1
loop_
 _symmetry_equiv_pos_site_id
 _symmetry_equiv_pos_as_xyz
  1  'x, y, z'
loop_
 _atom_site_type_symbol
 _atom_site_label
 _atom_site_symmetry_multiplicity
 _atom_site_fract_x
 _atom_site_fract_y
 _atom_site_fract_z
 _atom_site_occupancy
  Er  Er0  1  0.251497  0.000000  0.741095  1
  Er  Er1  1  0.748503  0.000000  0.258905  1
  Lu  Lu2  1  0.000532  0.250346  0.739157  1
  Lu  Lu3  1  0.999468  0.749654  0.260843  1
  Lu  Lu4  1  0.750186  0.749654  0.739157  1
  Lu  Lu5  1  0.249814  0.250346  0.260843  1
  Lu  Lu6  1  0.333618  0.667237  0.500000  1
  Lu  Lu7  1  0.666382  0.332763  0.500000  1
  Lu  Lu8  1  0.666679  0.333357  0.000000  1
  Lu  Lu9  1  0.333321  0.666643  0.000000  1
  Cu  Cu10  1  0.000000  0.000000  0.000000  1
  Si  Si11  1  0.000000  0.000000  0.500000  1
  Pb  Pb12  1  0.609210  0.000000  0.750357  1
  Pb  Pb13  1  0.390790  0.000000  0.249643  1
  Pb  Pb14  1  0.998582  0.605117  0.749340  1
  Pb  Pb15  1  0.001418  0.394883  0.250660  1
  Pb  Pb16  1  0.393465  0.394883  0.749340  1
  Pb  Pb17  1  0.606535  0.605117  0.250660  1
