# generated using pymatgen
data_Y4Al18Pd2PtRh3
_symmetry_space_group_name_H-M   'P 1'
_cell_length_a   7.60926409
_cell_length_b   7.60926555
_cell_length_c   9.45604801
_cell_angle_alpha   89.99374175
_cell_angle_beta   89.99374393
_cell_angle_gamma   119.59247030
_symmetry_Int_Tables_number   1
_chemical_formula_structural   Y4Al18Pd2PtRh3
_chemical_formula_sum   'Y4 Al18 Pd2 Pt1 Rh3'
_cell_volume   476.09599428
_cell_formula_units_Z   1
loop_
 _symmetry_equiv_pos_site_id
 _symmetry_equiv_pos_as_xyz
  1  'x, y, z'
loop_
 _atom_site_type_symbol
 _atom_site_label
 _atom_site_symmetry_multiplicity
 _atom_site_fract_x
 _atom_site_fract_y
 _atom_site_fract_z
 _atom_site_occupancy
  Y  Y0  1  0.995693  0.670073  0.250253  1
  Y  Y1  1  0.005723  0.331210  0.749951  1
  Y  Y2  1  0.668790  0.994277  0.250049  1
  Y  Y3  1  0.329927  0.004307  0.749747  1
  Al  Al4  1  0.125282  0.126060  0.250685  1
  Al  Al5  1  0.873940  0.874718  0.749315  1
  Al  Al6  1  0.000049  0.330978  0.076178  1
  Al  Al7  1  0.999158  0.669241  0.923471  1
  Al  Al8  1  0.996444  0.665041  0.574778  1
  Al  Al9  1  0.334959  0.003556  0.425222  1
  Al  Al10  1  0.996180  0.331014  0.425292  1
  Al  Al11  1  0.668986  0.003820  0.574708  1
  Al  Al12  1  0.669022  0.999951  0.923822  1
  Al  Al13  1  0.330759  0.000842  0.076529  1
  Al  Al14  1  0.332473  0.329168  0.552247  1
  Al  Al15  1  0.670832  0.667527  0.447753  1
  Al  Al16  1  0.669818  0.669797  0.054778  1
  Al  Al17  1  0.330203  0.330182  0.945222  1
  Al  Al18  1  0.339989  0.544759  0.250402  1
  Al  Al19  1  0.659545  0.451635  0.746670  1
  Al  Al20  1  0.548365  0.340455  0.253330  1
  Al  Al21  1  0.455241  0.660011  0.749598  1
  Pd  Pd22  1  0.671975  0.328025  0.000000  1
  Pd  Pd23  1  0.327415  0.672585  0.000000  1
  Pt  Pt24  1  0.327409  0.672591  0.500000  1
  Rh  Rh25  1  0.671911  0.328089  0.500000  1
  Rh  Rh26  1  0.999831  0.000169  0.000000  1
  Rh  Rh27  1  0.000081  0.999919  0.500000  1
