# generated using pymatgen
data_TbPa3(CoB10)2
_symmetry_space_group_name_H-M   'P 1'
_cell_length_a   4.11489800
_cell_length_b   5.51918530
_cell_length_c   11.03976561
_cell_angle_alpha   89.96198644
_cell_angle_beta   90.00000000
_cell_angle_gamma   90.00000000
_symmetry_Int_Tables_number   1
_chemical_formula_structural   TbPa3(CoB10)2
_chemical_formula_sum   'Tb1 Pa3 Co2 B20'
_cell_volume   250.72278718
_cell_formula_units_Z   1
loop_
 _symmetry_equiv_pos_site_id
 _symmetry_equiv_pos_as_xyz
  1  'x, y, z'
loop_
 _atom_site_type_symbol
 _atom_site_label
 _atom_site_symmetry_multiplicity
 _atom_site_fract_x
 _atom_site_fract_y
 _atom_site_fract_z
 _atom_site_occupancy
  Tb  Tb0  1  0.500000  0.196045  0.364279  1
  Pa  Pa1  1  0.500000  0.305827  0.864038  1
  Pa  Pa2  1  0.500000  0.694648  0.134351  1
  Pa  Pa3  1  0.500000  0.804362  0.636629  1
  Co  Co4  1  0.000000  0.504716  0.501802  1
  Co  Co5  1  0.000000  0.000875  0.999075  1
  B  B6  1  0.000000  0.127549  0.539353  1
  B  B7  1  0.000000  0.873533  0.460615  1
  B  B8  1  0.000000  0.627103  0.961526  1
  B  B9  1  0.000000  0.373480  0.039460  1
  B  B10  1  0.000000  0.152914  0.697114  1
  B  B11  1  0.000000  0.842398  0.301368  1
  B  B12  1  0.301831  0.198168  0.113669  1
  B  B13  1  0.302289  0.800603  0.886355  1
  B  B14  1  0.698629  0.701239  0.386891  1
  B  B15  1  0.698518  0.301351  0.613519  1
  B  B16  1  0.697711  0.800603  0.886355  1
  B  B17  1  0.698169  0.198168  0.113669  1
  B  B18  1  0.301482  0.301351  0.613519  1
  B  B19  1  0.301371  0.701239  0.386891  1
  B  B20  1  0.000000  0.027835  0.185408  1
  B  B21  1  0.000000  0.969335  0.812476  1
  B  B22  1  0.000000  0.529082  0.313960  1
  B  B23  1  0.000000  0.469127  0.687387  1
  B  B24  1  0.000000  0.346622  0.197249  1
  B  B25  1  0.000000  0.651826  0.803041  1
