# generated using pymatgen
data_Y3MgCd2Si2Ag
_symmetry_space_group_name_H-M   'P 1'
_cell_length_a   7.25678418
_cell_length_b   7.20026217
_cell_length_c   4.35315500
_cell_angle_alpha   90.00000000
_cell_angle_beta   90.00000000
_cell_angle_gamma   119.74268474
_symmetry_Int_Tables_number   1
_chemical_formula_structural   Y3MgCd2Si2Ag
_chemical_formula_sum   'Y3 Mg1 Cd2 Si2 Ag1'
_cell_volume   197.49109756
_cell_formula_units_Z   1
loop_
 _symmetry_equiv_pos_site_id
 _symmetry_equiv_pos_as_xyz
  1  'x, y, z'
loop_
 _atom_site_type_symbol
 _atom_site_label
 _atom_site_symmetry_multiplicity
 _atom_site_fract_x
 _atom_site_fract_y
 _atom_site_fract_z
 _atom_site_occupancy
  Y  Y0  1  0.424991  0.424603  0.500000  1
  Y  Y1  1  0.000000  0.577374  0.500000  1
  Y  Y2  1  0.575009  0.999612  0.500000  1
  Mg  Mg3  1  0.000000  0.243376  0.000000  1
  Cd  Cd4  1  0.747664  0.748598  0.000000  1
  Cd  Cd5  1  0.252336  0.000934  0.000000  1
  Si  Si6  1  0.669875  0.333652  0.000000  1
  Si  Si7  1  0.330125  0.663777  0.000000  1
  Ag  Ag8  1  0.000000  0.008073  0.500000  1
