# generated using pymatgen
data_Tb6HoErAl4
_symmetry_space_group_name_H-M   'P 1'
_cell_length_a   5.11692300
_cell_length_b   6.56027166
_cell_length_c   9.45200000
_cell_angle_alpha   90.35322133
_cell_angle_beta   90.00000000
_cell_angle_gamma   90.00000000
_symmetry_Int_Tables_number   1
_chemical_formula_structural   Tb6HoErAl4
_chemical_formula_sum   'Tb6 Ho1 Er1 Al4'
_cell_volume   317.28253432
_cell_formula_units_Z   1
loop_
 _symmetry_equiv_pos_site_id
 _symmetry_equiv_pos_as_xyz
  1  'x, y, z'
loop_
 _atom_site_type_symbol
 _atom_site_label
 _atom_site_symmetry_multiplicity
 _atom_site_fract_x
 _atom_site_fract_y
 _atom_site_fract_z
 _atom_site_occupancy
  Tb  Tb0  1  0.750000  0.690442  0.427478  1
  Tb  Tb1  1  0.250000  0.309096  0.573659  1
  Tb  Tb2  1  0.750000  0.187200  0.072999  1
  Tb  Tb3  1  0.250000  0.812784  0.925794  1
  Tb  Tb4  1  0.750000  0.527393  0.790829  1
  Tb  Tb5  1  0.250000  0.472605  0.209531  1
  Ho  Ho6  1  0.250000  0.971991  0.289022  1
  Er  Er7  1  0.750000  0.027485  0.709921  1
  Al  Al8  1  0.750000  0.207181  0.399067  1
  Al  Al9  1  0.250000  0.793526  0.601701  1
  Al  Al10  1  0.750000  0.708437  0.103001  1
  Al  Al11  1  0.250000  0.291859  0.896999  1
