# generated using pymatgen
data_Cd2Hg2SF6
_symmetry_space_group_name_H-M   'P 1'
_cell_length_a   8.10568018
_cell_length_b   8.10568102
_cell_length_c   8.10568100
_cell_angle_alpha   60.00000418
_cell_angle_beta   60.00000072
_cell_angle_gamma   59.99999922
_symmetry_Int_Tables_number   1
_chemical_formula_structural   Cd2Hg2SF6
_chemical_formula_sum   'Cd4 Hg4 S2 F12'
_cell_volume   376.57674482
_cell_formula_units_Z   2
loop_
 _symmetry_equiv_pos_site_id
 _symmetry_equiv_pos_as_xyz
  1  'x, y, z'
loop_
 _atom_site_type_symbol
 _atom_site_label
 _atom_site_symmetry_multiplicity
 _atom_site_fract_x
 _atom_site_fract_y
 _atom_site_fract_z
 _atom_site_occupancy
  Cd  Cd0  1  0.125000  0.125000  0.625000  1
  Cd  Cd1  1  0.125000  0.625000  0.125000  1
  Cd  Cd2  1  0.625000  0.125000  0.125000  1
  Cd  Cd3  1  0.125000  0.125000  0.125000  1
  Hg  Hg4  1  0.625000  0.625000  0.125000  1
  Hg  Hg5  1  0.625000  0.125000  0.625000  1
  Hg  Hg6  1  0.125000  0.625000  0.625000  1
  Hg  Hg7  1  0.625000  0.625000  0.625000  1
  S  S8  1  0.750000  0.750000  0.750000  1
  S  S9  1  0.500000  0.500000  0.500000  1
  F  F10  1  0.038464  0.461536  0.038464  1
  F  F11  1  0.788464  0.211536  0.788464  1
  F  F12  1  0.038464  0.038464  0.461536  1
  F  F13  1  0.461536  0.038464  0.038464  1
  F  F14  1  0.038464  0.461536  0.461536  1
  F  F15  1  0.461536  0.461536  0.038464  1
  F  F16  1  0.461536  0.038464  0.461536  1
  F  F17  1  0.211536  0.788464  0.788464  1
  F  F18  1  0.788464  0.211536  0.211536  1
  F  F19  1  0.211536  0.788464  0.211536  1
  F  F20  1  0.788464  0.788464  0.211536  1
  F  F21  1  0.211536  0.211536  0.788464  1
