# generated using pymatgen
data_YTm2Si2GeRu2
_symmetry_space_group_name_H-M   'P 1'
_cell_length_a   5.71255765
_cell_length_b   5.71255694
_cell_length_c   13.84531300
_cell_angle_alpha   90.00000000
_cell_angle_beta   90.00000000
_cell_angle_gamma   137.32537001
_symmetry_Int_Tables_number   1
_chemical_formula_structural   YTm2Si2GeRu2
_chemical_formula_sum   'Y2 Tm4 Si4 Ge2 Ru4'
_cell_volume   306.25796157
_cell_formula_units_Z   2
loop_
 _symmetry_equiv_pos_site_id
 _symmetry_equiv_pos_as_xyz
  1  'x, y, z'
loop_
 _atom_site_type_symbol
 _atom_site_label
 _atom_site_symmetry_multiplicity
 _atom_site_fract_x
 _atom_site_fract_y
 _atom_site_fract_z
 _atom_site_occupancy
  Y  Y0  1  0.644421  0.355579  0.250000  1
  Y  Y1  1  0.355579  0.644421  0.750000  1
  Tm  Tm2  1  0.924959  0.075041  0.388142  1
  Tm  Tm3  1  0.075041  0.924959  0.611858  1
  Tm  Tm4  1  0.924959  0.075041  0.111858  1
  Tm  Tm5  1  0.075041  0.924959  0.888142  1
  Si  Si6  1  0.616132  0.383868  0.461944  1
  Si  Si7  1  0.383868  0.616132  0.538056  1
  Si  Si8  1  0.616132  0.383868  0.038056  1
  Si  Si9  1  0.383868  0.616132  0.961944  1
  Ge  Ge10  1  0.340011  0.659989  0.250000  1
  Ge  Ge11  1  0.659989  0.340011  0.750000  1
  Ru  Ru12  1  0.788302  0.211698  0.921073  1
  Ru  Ru13  1  0.211698  0.788302  0.078927  1
  Ru  Ru14  1  0.788302  0.211698  0.578927  1
  Ru  Ru15  1  0.211698  0.788302  0.421073  1
