# generated using pymatgen
data_Li8Tl3GePd4
_symmetry_space_group_name_H-M   'P 1'
_cell_length_a   6.42439900
_cell_length_b   6.42439900
_cell_length_c   6.42439900
_cell_angle_alpha   90.00000000
_cell_angle_beta   90.00000000
_cell_angle_gamma   90.00000000
_symmetry_Int_Tables_number   1
_chemical_formula_structural   Li8Tl3GePd4
_chemical_formula_sum   'Li8 Tl3 Ge1 Pd4'
_cell_volume   265.15359362
_cell_formula_units_Z   1
loop_
 _symmetry_equiv_pos_site_id
 _symmetry_equiv_pos_as_xyz
  1  'x, y, z'
loop_
 _atom_site_type_symbol
 _atom_site_label
 _atom_site_symmetry_multiplicity
 _atom_site_fract_x
 _atom_site_fract_y
 _atom_site_fract_z
 _atom_site_occupancy
  Li  Li0  1  0.259904  0.740096  0.259904  1
  Li  Li1  1  0.740096  0.259904  0.259904  1
  Li  Li2  1  0.259904  0.259904  0.740096  1
  Li  Li3  1  0.000000  0.000000  0.000000  1
  Li  Li4  1  0.000000  0.500000  0.500000  1
  Li  Li5  1  0.740096  0.740096  0.740096  1
  Li  Li6  1  0.500000  0.000000  0.500000  1
  Li  Li7  1  0.500000  0.500000  0.000000  1
  Tl  Tl8  1  0.000000  0.000000  0.500000  1
  Tl  Tl9  1  0.000000  0.500000  0.000000  1
  Tl  Tl10  1  0.500000  0.000000  0.000000  1
  Ge  Ge11  1  0.500000  0.500000  0.500000  1
  Pd  Pd12  1  0.269393  0.269393  0.269393  1
  Pd  Pd13  1  0.730607  0.269393  0.730607  1
  Pd  Pd14  1  0.730607  0.730607  0.269393  1
  Pd  Pd15  1  0.269393  0.730607  0.730607  1
