# generated using pymatgen
data_Pr4Sm6Co2Cl15
_symmetry_space_group_name_H-M   'P 1'
_cell_length_a   9.27938080
_cell_length_b   10.03044498
_cell_length_c   10.77486100
_cell_angle_alpha   92.38168540
_cell_angle_beta   113.79446321
_cell_angle_gamma   110.79492570
_symmetry_Int_Tables_number   1
_chemical_formula_structural   Pr4Sm6Co2Cl15
_chemical_formula_sum   'Pr4 Sm6 Co2 Cl15'
_cell_volume   837.60282227
_cell_formula_units_Z   1
loop_
 _symmetry_equiv_pos_site_id
 _symmetry_equiv_pos_as_xyz
  1  'x, y, z'
loop_
 _atom_site_type_symbol
 _atom_site_label
 _atom_site_symmetry_multiplicity
 _atom_site_fract_x
 _atom_site_fract_y
 _atom_site_fract_z
 _atom_site_occupancy
  Pr  Pr0  1  0.811034  0.413916  0.275480  1
  Pr  Pr1  1  0.188966  0.586084  0.724520  1
  Pr  Pr2  1  0.675622  0.746966  0.815354  1
  Pr  Pr3  1  0.324378  0.253034  0.184646  1
  Sm  Sm4  1  0.529067  0.703232  0.105803  1
  Sm  Sm5  1  0.470933  0.296768  0.894197  1
  Sm  Sm6  1  0.598336  0.045219  0.344284  1
  Sm  Sm7  1  0.401664  0.954781  0.655716  1
  Sm  Sm8  1  0.735790  0.079625  0.047427  1
  Sm  Sm9  1  0.264210  0.920375  0.952573  1
  Co  Co10  1  0.465473  0.826436  0.880020  1
  Co  Co11  1  0.534527  0.173564  0.119980  1
  Cl  Cl12  1  0.000000  0.000000  0.000000  1
  Cl  Cl13  1  0.630498  0.890840  0.585522  1
  Cl  Cl14  1  0.369502  0.109160  0.414478  1
  Cl  Cl15  1  0.880011  0.299330  0.520688  1
  Cl  Cl16  1  0.119989  0.700670  0.479312  1
  Cl  Cl17  1  0.314466  0.773057  0.188267  1
  Cl  Cl18  1  0.685534  0.226943  0.811733  1
  Cl  Cl19  1  0.052143  0.335942  0.218762  1
  Cl  Cl20  1  0.182882  0.059645  0.707442  1
  Cl  Cl21  1  0.817118  0.940355  0.292558  1
  Cl  Cl22  1  0.260247  0.418314  0.952634  1
  Cl  Cl23  1  0.739753  0.581686  0.047366  1
  Cl  Cl24  1  0.405590  0.465813  0.672151  1
  Cl  Cl25  1  0.594410  0.534187  0.327849  1
  Cl  Cl26  1  0.947857  0.664058  0.781238  1
