# generated using pymatgen
data_Er3Tm7Si5Bi
_symmetry_space_group_name_H-M   'P 1'
_cell_length_a   8.46050428
_cell_length_b   8.46267505
_cell_length_c   6.26519700
_cell_angle_alpha   90.00000000
_cell_angle_beta   90.00000000
_cell_angle_gamma   120.28199638
_symmetry_Int_Tables_number   1
_chemical_formula_structural   Er3Tm7Si5Bi
_chemical_formula_sum   'Er3 Tm7 Si5 Bi1'
_cell_volume   387.37194751
_cell_formula_units_Z   1
loop_
 _symmetry_equiv_pos_site_id
 _symmetry_equiv_pos_as_xyz
  1  'x, y, z'
loop_
 _atom_site_type_symbol
 _atom_site_label
 _atom_site_symmetry_multiplicity
 _atom_site_fract_x
 _atom_site_fract_y
 _atom_site_fract_z
 _atom_site_occupancy
  Er  Er0  1  0.768643  0.768607  0.250000  1
  Er  Er1  1  0.239350  0.239373  0.750000  1
  Er  Er2  1  0.755681  0.998602  0.750000  1
  Tm  Tm3  1  0.677075  0.330773  0.505031  1
  Tm  Tm4  1  0.330700  0.677062  0.505034  1
  Tm  Tm5  1  0.330700  0.677062  0.994966  1
  Tm  Tm6  1  0.677075  0.330773  0.994969  1
  Tm  Tm7  1  0.239062  0.984164  0.250000  1
  Tm  Tm8  1  0.984187  0.239146  0.250000  1
  Tm  Tm9  1  0.998684  0.755567  0.750000  1
  Si  Si10  1  0.603819  0.998733  0.250000  1
  Si  Si11  1  0.998732  0.603807  0.250000  1
  Si  Si12  1  0.607122  0.607040  0.750000  1
  Si  Si13  1  0.393425  0.002570  0.750000  1
  Si  Si14  1  0.002649  0.393621  0.750000  1
  Bi  Bi15  1  0.393097  0.393102  0.250000  1
