# generated using pymatgen
data_Hf4PtRhN
_symmetry_space_group_name_H-M   'P 1'
_cell_length_a   8.74915656
_cell_length_b   8.74915609
_cell_length_c   8.74915800
_cell_angle_alpha   60.00000036
_cell_angle_beta   60.00000210
_cell_angle_gamma   59.99999966
_symmetry_Int_Tables_number   1
_chemical_formula_structural   Hf4PtRhN
_chemical_formula_sum   'Hf16 Pt4 Rh4 N4'
_cell_volume   473.56938788
_cell_formula_units_Z   4
loop_
 _symmetry_equiv_pos_site_id
 _symmetry_equiv_pos_as_xyz
  1  'x, y, z'
loop_
 _atom_site_type_symbol
 _atom_site_label
 _atom_site_symmetry_multiplicity
 _atom_site_fract_x
 _atom_site_fract_y
 _atom_site_fract_z
 _atom_site_occupancy
  Hf  Hf0  1  0.117888  0.627371  0.627371  1
  Hf  Hf1  1  0.627371  0.117888  0.627371  1
  Hf  Hf2  1  0.627371  0.627371  0.117888  1
  Hf  Hf3  1  0.627371  0.627371  0.627371  1
  Hf  Hf4  1  0.818094  0.818094  0.181906  1
  Hf  Hf5  1  0.181906  0.181906  0.818094  1
  Hf  Hf6  1  0.818094  0.181906  0.818094  1
  Hf  Hf7  1  0.181906  0.818094  0.181906  1
  Hf  Hf8  1  0.181906  0.818094  0.818094  1
  Hf  Hf9  1  0.818094  0.181906  0.181906  1
  Hf  Hf10  1  0.433152  0.433152  0.066848  1
  Hf  Hf11  1  0.066848  0.066848  0.433152  1
  Hf  Hf12  1  0.433152  0.066848  0.433152  1
  Hf  Hf13  1  0.066848  0.433152  0.066848  1
  Hf  Hf14  1  0.066848  0.433152  0.433152  1
  Hf  Hf15  1  0.433152  0.066848  0.066848  1
  Pt  Pt16  1  0.777364  0.407545  0.407545  1
  Pt  Pt17  1  0.407545  0.777364  0.407545  1
  Pt  Pt18  1  0.407545  0.407545  0.777364  1
  Pt  Pt19  1  0.407545  0.407545  0.407545  1
  Rh  Rh20  1  0.474150  0.841950  0.841950  1
  Rh  Rh21  1  0.841950  0.474150  0.841950  1
  Rh  Rh22  1  0.841950  0.841950  0.474150  1
  Rh  Rh23  1  0.841950  0.841950  0.841950  1
  N  N24  1  0.625903  0.124699  0.124699  1
  N  N25  1  0.124699  0.625903  0.124699  1
  N  N26  1  0.124699  0.124699  0.625903  1
  N  N27  1  0.124699  0.124699  0.124699  1
