# generated using pymatgen
data_Tb3Y3PdI10
_symmetry_space_group_name_H-M   'P 1'
_cell_length_a   7.74166694
_cell_length_b   9.77201371
_cell_length_c   9.81781609
_cell_angle_alpha   106.90281018
_cell_angle_beta   97.00121884
_cell_angle_gamma   104.47104005
_symmetry_Int_Tables_number   1
_chemical_formula_structural   Tb3Y3PdI10
_chemical_formula_sum   'Tb3 Y3 Pd1 I10'
_cell_volume   672.75911056
_cell_formula_units_Z   1
loop_
 _symmetry_equiv_pos_site_id
 _symmetry_equiv_pos_as_xyz
  1  'x, y, z'
loop_
 _atom_site_type_symbol
 _atom_site_label
 _atom_site_symmetry_multiplicity
 _atom_site_fract_x
 _atom_site_fract_y
 _atom_site_fract_z
 _atom_site_occupancy
  Tb  Tb0  1  0.115835  0.042004  0.758899  1
  Tb  Tb1  1  0.884242  0.957684  0.241008  1
  Tb  Tb2  1  0.968141  0.286357  0.085099  1
  Y  Y3  1  0.650149  0.874570  0.833175  1
  Y  Y4  1  0.350010  0.125088  0.166782  1
  Y  Y5  1  0.031649  0.713429  0.914849  1
  Pd  Pd6  1  0.000046  0.000311  0.000084  1
  I  I7  1  0.351110  0.449930  0.272389  1
  I  I8  1  0.649552  0.550118  0.727773  1
  I  I9  1  0.742109  0.913060  0.537726  1
  I  I10  1  0.086069  0.374022  0.820579  1
  I  I11  1  0.914185  0.627046  0.179085  1
  I  I12  1  0.454083  0.816771  0.091760  1
  I  I13  1  0.545480  0.182965  0.907976  1
  I  I14  1  0.777210  0.256455  0.345383  1
  I  I15  1  0.222237  0.743284  0.655101  1
  I  I16  1  0.257894  0.086907  0.462335  1
