# generated using pymatgen
data_Tb3NdNp2O12
_symmetry_space_group_name_H-M   'P 1'
_cell_length_a   5.60562100
_cell_length_b   7.92300388
_cell_length_c   11.93236100
_cell_angle_alpha   73.96045398
_cell_angle_beta   90.00000000
_cell_angle_gamma   90.00000000
_symmetry_Int_Tables_number   1
_chemical_formula_structural   Tb3NdNp2O12
_chemical_formula_sum   'Tb6 Nd2 Np4 O24'
_cell_volume   509.32565917
_cell_formula_units_Z   2
loop_
 _symmetry_equiv_pos_site_id
 _symmetry_equiv_pos_as_xyz
  1  'x, y, z'
loop_
 _atom_site_type_symbol
 _atom_site_label
 _atom_site_symmetry_multiplicity
 _atom_site_fract_x
 _atom_site_fract_y
 _atom_site_fract_z
 _atom_site_occupancy
  Tb  Tb0  1  0.186868  0.795050  0.078279  1
  Tb  Tb1  1  0.254589  0.000000  0.750000  1
  Tb  Tb2  1  0.745411  0.000000  0.250000  1
  Tb  Tb3  1  0.186868  0.204950  0.421721  1
  Tb  Tb4  1  0.813132  0.204950  0.921721  1
  Tb  Tb5  1  0.813132  0.795050  0.578279  1
  Nd  Nd6  1  0.307154  0.500000  0.750000  1
  Nd  Nd7  1  0.692846  0.500000  0.250000  1
  Np  Np8  1  0.745086  0.726720  0.884978  1
  Np  Np9  1  0.254914  0.726720  0.384978  1
  Np  Np10  1  0.745086  0.273280  0.615022  1
  Np  Np11  1  0.254914  0.273280  0.115022  1
  O  O12  1  0.872413  0.365189  0.448728  1
  O  O13  1  0.447331  0.847541  0.931136  1
  O  O14  1  0.872413  0.634811  0.051272  1
  O  O15  1  0.031022  0.281862  0.731752  1
  O  O16  1  0.968978  0.281862  0.231752  1
  O  O17  1  0.127587  0.365189  0.948728  1
  O  O18  1  0.625703  0.485353  0.885213  1
  O  O19  1  0.552669  0.152459  0.068864  1
  O  O20  1  0.127587  0.634811  0.551272  1
  O  O21  1  0.031022  0.718138  0.768248  1
  O  O22  1  0.449721  0.198064  0.274116  1
  O  O23  1  0.043785  0.947047  0.395692  1
  O  O24  1  0.447331  0.152459  0.568864  1
  O  O25  1  0.968978  0.718138  0.268248  1
  O  O26  1  0.956215  0.052953  0.604308  1
  O  O27  1  0.550279  0.198064  0.774116  1
  O  O28  1  0.550279  0.801936  0.725884  1
  O  O29  1  0.043785  0.052953  0.104308  1
  O  O30  1  0.625703  0.514647  0.614787  1
  O  O31  1  0.374297  0.514647  0.114787  1
  O  O32  1  0.449721  0.801936  0.225884  1
  O  O33  1  0.374297  0.485353  0.385213  1
  O  O34  1  0.552669  0.847541  0.431136  1
  O  O35  1  0.956215  0.947047  0.895692  1
