# generated using pymatgen
data_Gd4Sn3
_symmetry_space_group_name_H-M   'P 1'
_cell_length_a   7.99972494
_cell_length_b   7.99972466
_cell_length_c   7.99972500
_cell_angle_alpha   109.47122150
_cell_angle_beta   109.47122078
_cell_angle_gamma   109.47121763
_symmetry_Int_Tables_number   1
_chemical_formula_structural   Gd4Sn3
_chemical_formula_sum   'Gd8 Sn6'
_cell_volume   394.09712987
_cell_formula_units_Z   2
loop_
 _symmetry_equiv_pos_site_id
 _symmetry_equiv_pos_as_xyz
  1  'x, y, z'
loop_
 _atom_site_type_symbol
 _atom_site_label
 _atom_site_symmetry_multiplicity
 _atom_site_fract_x
 _atom_site_fract_y
 _atom_site_fract_z
 _atom_site_occupancy
  Gd  Gd0  1  0.644665  0.000000  0.000000  1
  Gd  Gd1  1  0.144664  0.000000  0.000000  1
  Gd  Gd2  1  0.500000  0.500000  0.144664  1
  Gd  Gd3  1  0.355336  0.855336  0.355336  1
  Gd  Gd4  1  0.000000  0.644664  0.500000  1
  Gd  Gd5  1  0.000000  0.144664  0.500001  1
  Gd  Gd6  1  0.500001  0.500001  0.644665  1
  Gd  Gd7  1  0.855337  0.355337  0.855337  1
  Sn  Sn8  1  0.875000  0.750001  0.124999  1
  Sn  Sn9  1  0.124999  0.375000  0.250001  1
  Sn  Sn10  1  0.625000  0.250001  0.375000  1
  Sn  Sn11  1  0.750001  0.875000  0.625000  1
  Sn  Sn12  1  0.375001  0.125001  0.750001  1
  Sn  Sn13  1  0.250001  0.625000  0.875001  1
