# generated using pymatgen
data_KV2(SeO3)4
_symmetry_space_group_name_H-M   'P 1'
_cell_length_a   5.30436900
_cell_length_b   10.33030278
_cell_length_c   14.18250136
_cell_angle_alpha   48.59109672
_cell_angle_beta   90.00000000
_cell_angle_gamma   90.00000000
_symmetry_Int_Tables_number   1
_chemical_formula_structural   KV2(SeO3)4
_chemical_formula_sum   'K2 V4 Se8 O24'
_cell_volume   582.86191872
_cell_formula_units_Z   2
loop_
 _symmetry_equiv_pos_site_id
 _symmetry_equiv_pos_as_xyz
  1  'x, y, z'
loop_
 _atom_site_type_symbol
 _atom_site_label
 _atom_site_symmetry_multiplicity
 _atom_site_fract_x
 _atom_site_fract_y
 _atom_site_fract_z
 _atom_site_occupancy
  K  K0  1  0.059566  0.000000  0.750000  1
  K  K1  1  0.940434  0.000000  0.250000  1
  V  V2  1  0.000000  0.500000  0.500000  1
  V  V3  1  0.500000  0.000000  0.000000  1
  V  V4  1  0.500000  0.000000  0.500000  1
  V  V5  1  0.000000  0.500000  0.000000  1
  Se  Se6  1  0.493111  0.343557  0.182776  1
  Se  Se7  1  0.008522  0.746113  0.598386  1
  Se  Se8  1  0.008522  0.253887  0.901614  1
  Se  Se9  1  0.991478  0.253887  0.401614  1
  Se  Se10  1  0.506889  0.343557  0.682776  1
  Se  Se11  1  0.506889  0.656443  0.817224  1
  Se  Se12  1  0.493111  0.656443  0.317224  1
  Se  Se13  1  0.991478  0.746113  0.098386  1
  O  O14  1  0.211890  0.700114  0.352058  1
  O  O15  1  0.297772  0.814327  0.034806  1
  O  O16  1  0.788110  0.700114  0.852058  1
  O  O17  1  0.810147  0.915836  0.971916  1
  O  O18  1  0.702228  0.814327  0.534806  1
  O  O19  1  0.307479  0.348167  0.585401  1
  O  O20  1  0.189853  0.084164  0.028084  1
  O  O21  1  0.692521  0.348167  0.085401  1
  O  O22  1  0.788110  0.299886  0.647942  1
  O  O23  1  0.580160  0.135154  0.322731  1
  O  O24  1  0.692521  0.651833  0.414599  1
  O  O25  1  0.297772  0.185673  0.465194  1
  O  O26  1  0.580160  0.864846  0.177269  1
  O  O27  1  0.810147  0.084164  0.528084  1
  O  O28  1  0.419840  0.135154  0.822731  1
  O  O29  1  0.051606  0.416834  0.902014  1
  O  O30  1  0.702228  0.185673  0.965194  1
  O  O31  1  0.948394  0.416834  0.402014  1
  O  O32  1  0.051606  0.583166  0.597986  1
  O  O33  1  0.419840  0.864846  0.677269  1
  O  O34  1  0.307479  0.651833  0.914599  1
  O  O35  1  0.189853  0.915836  0.471916  1
  O  O36  1  0.948394  0.583166  0.097986  1
  O  O37  1  0.211890  0.299886  0.147942  1
