# generated using pymatgen
data_NaSc(PSe3)2
_symmetry_space_group_name_H-M   'P 1'
_cell_length_a   6.66503800
_cell_length_b   6.66503780
_cell_length_c   15.16888700
_cell_angle_alpha   90.00000000
_cell_angle_beta   90.00000000
_cell_angle_gamma   120.00000097
_symmetry_Int_Tables_number   1
_chemical_formula_structural   NaSc(PSe3)2
_chemical_formula_sum   'Na2 Sc2 P4 Se12'
_cell_volume   583.56547546
_cell_formula_units_Z   2
loop_
 _symmetry_equiv_pos_site_id
 _symmetry_equiv_pos_as_xyz
  1  'x, y, z'
loop_
 _atom_site_type_symbol
 _atom_site_label
 _atom_site_symmetry_multiplicity
 _atom_site_fract_x
 _atom_site_fract_y
 _atom_site_fract_z
 _atom_site_occupancy
  Na  Na0  1  0.333333  0.666667  0.750000  1
  Na  Na1  1  0.666667  0.333333  0.250000  1
  Sc  Sc2  1  0.000000  0.000000  0.250000  1
  Sc  Sc3  1  0.000000  0.000000  0.750000  1
  P  P4  1  0.666667  0.333333  0.676025  1
  P  P5  1  0.666667  0.333333  0.823975  1
  P  P6  1  0.333333  0.666667  0.323975  1
  P  P7  1  0.333333  0.666667  0.176025  1
  Se  Se8  1  0.672487  0.713138  0.132551  1
  Se  Se9  1  0.040651  0.713138  0.367449  1
  Se  Se10  1  0.040651  0.327513  0.132551  1
  Se  Se11  1  0.327513  0.286862  0.867449  1
  Se  Se12  1  0.713138  0.040651  0.867449  1
  Se  Se13  1  0.327513  0.040651  0.632551  1
  Se  Se14  1  0.713138  0.672487  0.632551  1
  Se  Se15  1  0.959349  0.286862  0.632551  1
  Se  Se16  1  0.286862  0.959349  0.132551  1
  Se  Se17  1  0.672487  0.959349  0.367449  1
  Se  Se18  1  0.959349  0.672487  0.867449  1
  Se  Se19  1  0.286862  0.327513  0.367449  1
