# generated using pymatgen
data_YbHo3B16
_symmetry_space_group_name_H-M   'P 1'
_cell_length_a   7.09470121
_cell_length_b   7.09470121
_cell_length_c   4.01561600
_cell_angle_alpha   90.00000000
_cell_angle_beta   90.00000000
_cell_angle_gamma   89.89102439
_symmetry_Int_Tables_number   1
_chemical_formula_structural   YbHo3B16
_chemical_formula_sum   'Yb1 Ho3 B16'
_cell_volume   202.12480334
_cell_formula_units_Z   1
loop_
 _symmetry_equiv_pos_site_id
 _symmetry_equiv_pos_as_xyz
  1  'x, y, z'
loop_
 _atom_site_type_symbol
 _atom_site_label
 _atom_site_symmetry_multiplicity
 _atom_site_fract_x
 _atom_site_fract_y
 _atom_site_fract_z
 _atom_site_occupancy
  Yb  Yb0  1  0.182266  0.317734  0.000000  1
  Ho  Ho1  1  0.818983  0.681018  0.000000  1
  Ho  Ho2  1  0.681959  0.182148  0.000000  1
  Ho  Ho3  1  0.317852  0.818042  0.000000  1
  B  B4  1  0.961542  0.176383  0.500000  1
  B  B5  1  0.037799  0.822945  0.500000  1
  B  B6  1  0.538938  0.675812  0.500000  1
  B  B7  1  0.462067  0.324048  0.500000  1
  B  B8  1  0.498805  0.499725  0.202791  1
  B  B9  1  0.000275  0.001195  0.797209  1
  B  B10  1  0.498805  0.499725  0.797209  1
  B  B11  1  0.000275  0.001195  0.202791  1
  B  B12  1  0.086364  0.586930  0.500000  1
  B  B13  1  0.913071  0.413636  0.500000  1
  B  B14  1  0.586931  0.913070  0.500000  1
  B  B15  1  0.413258  0.086742  0.500000  1
  B  B16  1  0.323617  0.538459  0.500000  1
  B  B17  1  0.677055  0.462201  0.500000  1
  B  B18  1  0.824188  0.961063  0.500000  1
  B  B19  1  0.175952  0.037933  0.500000  1
