# generated using pymatgen
data_Zr6Zn17Cu6Ag
_symmetry_space_group_name_H-M   'P 1'
_cell_length_a   8.71241859
_cell_length_b   8.71241827
_cell_length_c   8.71241800
_cell_angle_alpha   60.00000104
_cell_angle_beta   60.00000225
_cell_angle_gamma   60.00000468
_symmetry_Int_Tables_number   1
_chemical_formula_structural   Zr6Zn17Cu6Ag
_chemical_formula_sum   'Zr6 Zn17 Cu6 Ag1'
_cell_volume   467.62872678
_cell_formula_units_Z   1
loop_
 _symmetry_equiv_pos_site_id
 _symmetry_equiv_pos_as_xyz
  1  'x, y, z'
loop_
 _atom_site_type_symbol
 _atom_site_label
 _atom_site_symmetry_multiplicity
 _atom_site_fract_x
 _atom_site_fract_y
 _atom_site_fract_z
 _atom_site_occupancy
  Zr  Zr0  1  0.722131  0.277869  0.277869  1
  Zr  Zr1  1  0.277869  0.722131  0.722131  1
  Zr  Zr2  1  0.277869  0.722131  0.277869  1
  Zr  Zr3  1  0.722131  0.277869  0.722131  1
  Zr  Zr4  1  0.277869  0.277869  0.722131  1
  Zr  Zr5  1  0.722131  0.722131  0.277869  1
  Zn  Zn6  1  0.128715  0.128715  0.128715  1
  Zn  Zn7  1  0.871285  0.871285  0.871285  1
  Zn  Zn8  1  0.128715  0.128715  0.613854  1
  Zn  Zn9  1  0.128715  0.613854  0.128715  1
  Zn  Zn10  1  0.871285  0.871285  0.386146  1
  Zn  Zn11  1  0.871285  0.386146  0.871285  1
  Zn  Zn12  1  0.613854  0.128715  0.128715  1
  Zn  Zn13  1  0.386146  0.871285  0.871285  1
  Zn  Zn14  1  0.343699  0.343699  0.343699  1
  Zn  Zn15  1  0.656301  0.656301  0.656301  1
  Zn  Zn16  1  0.343699  0.343699  0.968903  1
  Zn  Zn17  1  0.343699  0.968903  0.343699  1
  Zn  Zn18  1  0.656301  0.656301  0.031097  1
  Zn  Zn19  1  0.656301  0.031097  0.656301  1
  Zn  Zn20  1  0.968903  0.343699  0.343699  1
  Zn  Zn21  1  0.031097  0.656301  0.656301  1
  Zn  Zn22  1  0.500000  0.500000  0.500000  1
  Cu  Cu23  1  0.500000  0.000000  0.000000  1
  Cu  Cu24  1  0.000000  0.500000  0.500000  1
  Cu  Cu25  1  0.000000  0.500000  0.000000  1
  Cu  Cu26  1  0.500000  0.000000  0.500000  1
  Cu  Cu27  1  0.000000  0.000000  0.500000  1
  Cu  Cu28  1  0.500000  0.500000  0.000000  1
  Ag  Ag29  1  0.000000  0.000000  0.000000  1
