# generated using pymatgen
data_Yb3ThIrRh3O14
_symmetry_space_group_name_H-M   'P 1'
_cell_length_a   7.18970400
_cell_length_b   7.24585536
_cell_length_c   7.24585600
_cell_angle_alpha   59.99999709
_cell_angle_beta   59.74130732
_cell_angle_gamma   59.74130298
_symmetry_Int_Tables_number   1
_chemical_formula_structural   Yb3ThIrRh3O14
_chemical_formula_sum   'Yb3 Th1 Ir1 Rh3 O14'
_cell_volume   265.86800930
_cell_formula_units_Z   1
loop_
 _symmetry_equiv_pos_site_id
 _symmetry_equiv_pos_as_xyz
  1  'x, y, z'
loop_
 _atom_site_type_symbol
 _atom_site_label
 _atom_site_symmetry_multiplicity
 _atom_site_fract_x
 _atom_site_fract_y
 _atom_site_fract_z
 _atom_site_occupancy
  Yb  Yb0  1  0.125000  0.625000  0.125000  1
  Yb  Yb1  1  0.125000  0.125000  0.625000  1
  Yb  Yb2  1  0.125000  0.125000  0.125000  1
  Th  Th3  1  0.625000  0.125000  0.125000  1
  Ir  Ir4  1  0.125000  0.625000  0.625000  1
  Rh  Rh5  1  0.625000  0.125000  0.625000  1
  Rh  Rh6  1  0.625000  0.625000  0.125000  1
  Rh  Rh7  1  0.625000  0.625000  0.625000  1
  O  O8  1  0.713141  0.703551  0.291654  1
  O  O9  1  0.293719  0.301262  0.702510  1
  O  O10  1  0.713141  0.291654  0.703551  1
  O  O11  1  0.293719  0.702510  0.301262  1
  O  O12  1  0.293719  0.702510  0.702510  1
  O  O13  1  0.713141  0.291654  0.291654  1
  O  O14  1  0.536859  0.546449  0.958346  1
  O  O15  1  0.956281  0.948738  0.547490  1
  O  O16  1  0.536859  0.958346  0.546449  1
  O  O17  1  0.956281  0.547490  0.948738  1
  O  O18  1  0.956281  0.547490  0.547490  1
  O  O19  1  0.536859  0.958346  0.958346  1
  O  O20  1  0.253977  0.248675  0.248675  1
  O  O21  1  0.996023  0.001325  0.001325  1
