# generated using pymatgen
data_Ca2La3Ir2
_symmetry_space_group_name_H-M   'P 1'
_cell_length_a   8.99440191
_cell_length_b   8.99440230
_cell_length_c   7.50522973
_cell_angle_alpha   83.43971962
_cell_angle_beta   83.43971888
_cell_angle_gamma   44.22104346
_symmetry_Int_Tables_number   1
_chemical_formula_structural   Ca2La3Ir2
_chemical_formula_sum   'Ca4 La6 Ir4'
_cell_volume   420.22378943
_cell_formula_units_Z   2
loop_
 _symmetry_equiv_pos_site_id
 _symmetry_equiv_pos_as_xyz
  1  'x, y, z'
loop_
 _atom_site_type_symbol
 _atom_site_label
 _atom_site_symmetry_multiplicity
 _atom_site_fract_x
 _atom_site_fract_y
 _atom_site_fract_z
 _atom_site_occupancy
  Ca  Ca0  1  0.008464  0.808051  0.914634  1
  Ca  Ca1  1  0.191949  0.991536  0.585366  1
  Ca  Ca2  1  0.991536  0.191949  0.085366  1
  Ca  Ca3  1  0.808051  0.008464  0.414634  1
  La  La4  1  0.347393  0.214944  0.819124  1
  La  La5  1  0.785056  0.652607  0.680876  1
  La  La6  1  0.652607  0.785056  0.180876  1
  La  La7  1  0.214944  0.347393  0.319124  1
  La  La8  1  0.561174  0.438826  0.750000  1
  La  La9  1  0.438826  0.561174  0.250000  1
  Ir  Ir10  1  0.190318  0.577533  0.570866  1
  Ir  Ir11  1  0.422467  0.809682  0.929134  1
  Ir  Ir12  1  0.809682  0.422467  0.429134  1
  Ir  Ir13  1  0.577533  0.190318  0.070866  1
