# generated using pymatgen
data_Li(PuRh)2
_symmetry_space_group_name_H-M   'P 1'
_cell_length_a   7.45898700
_cell_length_b   7.45898700
_cell_length_c   3.71962000
_cell_angle_alpha   90.00000000
_cell_angle_beta   90.00000000
_cell_angle_gamma   90.00000000
_symmetry_Int_Tables_number   1
_chemical_formula_structural   Li(PuRh)2
_chemical_formula_sum   'Li2 Pu4 Rh4'
_cell_volume   206.94659002
_cell_formula_units_Z   2
loop_
 _symmetry_equiv_pos_site_id
 _symmetry_equiv_pos_as_xyz
  1  'x, y, z'
loop_
 _atom_site_type_symbol
 _atom_site_label
 _atom_site_symmetry_multiplicity
 _atom_site_fract_x
 _atom_site_fract_y
 _atom_site_fract_z
 _atom_site_occupancy
  Li  Li0  1  0.000000  0.000000  0.000000  1
  Li  Li1  1  0.500000  0.500000  0.000000  1
  Pu  Pu2  1  0.334762  0.165239  0.500001  1
  Pu  Pu3  1  0.834762  0.334762  0.500001  1
  Pu  Pu4  1  0.165239  0.665238  0.500001  1
  Pu  Pu5  1  0.665238  0.834762  0.500001  1
  Rh  Rh6  1  0.638637  0.138636  0.000000  1
  Rh  Rh7  1  0.138636  0.361364  0.000000  1
  Rh  Rh8  1  0.861363  0.638637  0.000000  1
  Rh  Rh9  1  0.361364  0.861363  0.000000  1
