# generated using pymatgen
data_TbCeHo2(NiP)4
_symmetry_space_group_name_H-M   'P 1'
_cell_length_a   3.92317800
_cell_length_b   3.92317866
_cell_length_c   15.36514600
_cell_angle_alpha   90.00000000
_cell_angle_beta   90.00000000
_cell_angle_gamma   120.00001127
_symmetry_Int_Tables_number   1
_chemical_formula_structural   TbCeHo2(NiP)4
_chemical_formula_sum   'Tb1 Ce1 Ho2 Ni4 P4'
_cell_volume   204.80632903
_cell_formula_units_Z   1
loop_
 _symmetry_equiv_pos_site_id
 _symmetry_equiv_pos_as_xyz
  1  'x, y, z'
loop_
 _atom_site_type_symbol
 _atom_site_label
 _atom_site_symmetry_multiplicity
 _atom_site_fract_x
 _atom_site_fract_y
 _atom_site_fract_z
 _atom_site_occupancy
  Tb  Tb0  1  0.000000  0.000000  0.500000  1
  Ce  Ce1  1  0.000000  0.000000  0.000000  1
  Ho  Ho2  1  0.000000  0.000000  0.253608  1
  Ho  Ho3  1  0.000000  0.000000  0.746392  1
  Ni  Ni4  1  0.333333  0.666667  0.370654  1
  Ni  Ni5  1  0.666667  0.333333  0.629346  1
  Ni  Ni6  1  0.666667  0.333333  0.870225  1
  Ni  Ni7  1  0.333333  0.666667  0.129775  1
  P  P8  1  0.333333  0.666667  0.872530  1
  P  P9  1  0.666667  0.333333  0.127470  1
  P  P10  1  0.666667  0.333333  0.379315  1
  P  P11  1  0.333333  0.666667  0.620685  1
