# generated using pymatgen
data_Tb2Er8Si5P
_symmetry_space_group_name_H-M   'P 1'
_cell_length_a   8.35052921
_cell_length_b   8.35806522
_cell_length_c   6.25500700
_cell_angle_alpha   90.00000000
_cell_angle_beta   90.00000000
_cell_angle_gamma   119.88685477
_symmetry_Int_Tables_number   1
_chemical_formula_structural   Tb2Er8Si5P
_chemical_formula_sum   'Tb2 Er8 Si5 P1'
_cell_volume   378.50551254
_cell_formula_units_Z   1
loop_
 _symmetry_equiv_pos_site_id
 _symmetry_equiv_pos_as_xyz
  1  'x, y, z'
loop_
 _atom_site_type_symbol
 _atom_site_label
 _atom_site_symmetry_multiplicity
 _atom_site_fract_x
 _atom_site_fract_y
 _atom_site_fract_z
 _atom_site_occupancy
  Tb  Tb0  1  0.001097  0.757266  0.750000  1
  Tb  Tb1  1  0.755528  0.000055  0.750000  1
  Er  Er2  1  0.001018  0.244106  0.250000  1
  Er  Er3  1  0.756357  0.755596  0.250000  1
  Er  Er4  1  0.244246  0.243199  0.750000  1
  Er  Er5  1  0.243207  0.000250  0.250000  1
  Er  Er6  1  0.333656  0.667102  0.500178  1
  Er  Er7  1  0.666190  0.332651  0.999791  1
  Er  Er8  1  0.666190  0.332651  0.500209  1
  Er  Er9  1  0.333656  0.667102  0.999822  1
  Si  Si10  1  0.394628  0.394053  0.250000  1
  Si  Si11  1  0.000593  0.606089  0.250000  1
  Si  Si12  1  0.000757  0.394365  0.750000  1
  Si  Si13  1  0.604817  0.604680  0.750000  1
  Si  Si14  1  0.606696  0.000038  0.250000  1
  P  P15  1  0.391366  0.000796  0.750000  1
