# generated using pymatgen
data_Er16Cd4PdRu2Rh
_symmetry_space_group_name_H-M   'P 1'
_cell_length_a   9.55512337
_cell_length_b   9.55667966
_cell_length_c   9.61915800
_cell_angle_alpha   59.78349923
_cell_angle_beta   59.77806409
_cell_angle_gamma   59.54732323
_symmetry_Int_Tables_number   1
_chemical_formula_structural   Er16Cd4PdRu2Rh
_chemical_formula_sum   'Er16 Cd4 Pd1 Ru2 Rh1'
_cell_volume   616.90800077
_cell_formula_units_Z   1
loop_
 _symmetry_equiv_pos_site_id
 _symmetry_equiv_pos_as_xyz
  1  'x, y, z'
loop_
 _atom_site_type_symbol
 _atom_site_label
 _atom_site_symmetry_multiplicity
 _atom_site_fract_x
 _atom_site_fract_y
 _atom_site_fract_z
 _atom_site_occupancy
  Er  Er0  1  0.346462  0.351665  0.350101  1
  Er  Er1  1  0.346462  0.351665  0.951770  1
  Er  Er2  1  0.345601  0.954368  0.350014  1
  Er  Er3  1  0.959457  0.346511  0.347015  1
  Er  Er4  1  0.815961  0.188317  0.189944  1
  Er  Er5  1  0.186877  0.812798  0.810483  1
  Er  Er6  1  0.186877  0.812798  0.189840  1
  Er  Er7  1  0.815961  0.188317  0.805778  1
  Er  Er8  1  0.187536  0.187582  0.812440  1
  Er  Er9  1  0.813335  0.805293  0.190686  1
  Er  Er10  1  0.936878  0.560058  0.565359  1
  Er  Er11  1  0.558302  0.937715  0.936864  1
  Er  Er12  1  0.558302  0.937715  0.567120  1
  Er  Er13  1  0.936878  0.560058  0.937704  1
  Er  Er14  1  0.562888  0.566351  0.935381  1
  Er  Er15  1  0.937567  0.938508  0.561962  1
  Cd  Cd16  1  0.579975  0.579550  0.581877  1
  Cd  Cd17  1  0.579975  0.579550  0.258596  1
  Cd  Cd18  1  0.580495  0.256220  0.581642  1
  Cd  Cd19  1  0.254958  0.580657  0.582192  1
  Pd  Pd20  1  0.574030  0.143804  0.141083  1
  Ru  Ru21  1  0.145183  0.142755  0.137438  1
  Ru  Ru22  1  0.145183  0.142755  0.574623  1
  Rh  Rh23  1  0.144855  0.574982  0.140082  1
