# generated using pymatgen
data_Tb4Pr2CoBr10
_symmetry_space_group_name_H-M   'P 1'
_cell_length_a   7.44976569
_cell_length_b   9.31763965
_cell_length_c   9.31122503
_cell_angle_alpha   108.76895871
_cell_angle_beta   96.97896814
_cell_angle_gamma   104.47515190
_symmetry_Int_Tables_number   1
_chemical_formula_structural   Tb4Pr2CoBr10
_chemical_formula_sum   'Tb4 Pr2 Co1 Br10'
_cell_volume   577.98356547
_cell_formula_units_Z   1
loop_
 _symmetry_equiv_pos_site_id
 _symmetry_equiv_pos_as_xyz
  1  'x, y, z'
loop_
 _atom_site_type_symbol
 _atom_site_label
 _atom_site_symmetry_multiplicity
 _atom_site_fract_x
 _atom_site_fract_y
 _atom_site_fract_z
 _atom_site_occupancy
  Tb  Tb0  1  0.878249  0.957335  0.745955  1
  Tb  Tb1  1  0.121751  0.042665  0.254045  1
  Tb  Tb2  1  0.356007  0.130924  0.678522  1
  Tb  Tb3  1  0.643993  0.869076  0.321478  1
  Pr  Pr4  1  0.031343  0.710984  0.408461  1
  Pr  Pr5  1  0.968657  0.289016  0.591539  1
  Co  Co6  1  0.000000  0.000000  0.500000  1
  Br  Br7  1  0.461352  0.827574  0.585170  1
  Br  Br8  1  0.538648  0.172426  0.414830  1
  Br  Br9  1  0.909155  0.639572  0.682023  1
  Br  Br10  1  0.090845  0.360428  0.317977  1
  Br  Br11  1  0.249730  0.084472  0.956293  1
  Br  Br12  1  0.750270  0.915528  0.043707  1
  Br  Br13  1  0.363275  0.448961  0.773110  1
  Br  Br14  1  0.636725  0.551039  0.226890  1
  Br  Br15  1  0.776187  0.248756  0.852774  1
  Br  Br16  1  0.223813  0.751244  0.147226  1
