# generated using pymatgen
data_Sm2Dy3Y3(Si3Rh)4
_symmetry_space_group_name_H-M   'P 1'
_cell_length_a   8.20078300
_cell_length_b   8.20078413
_cell_length_c   7.99090700
_cell_angle_alpha   90.00000000
_cell_angle_beta   90.00000000
_cell_angle_gamma   119.99999142
_symmetry_Int_Tables_number   1
_chemical_formula_structural   Sm2Dy3Y3(Si3Rh)4
_chemical_formula_sum   'Sm2 Dy3 Y3 Si12 Rh4'
_cell_volume   465.41185957
_cell_formula_units_Z   1
loop_
 _symmetry_equiv_pos_site_id
 _symmetry_equiv_pos_as_xyz
  1  'x, y, z'
loop_
 _atom_site_type_symbol
 _atom_site_label
 _atom_site_symmetry_multiplicity
 _atom_site_fract_x
 _atom_site_fract_y
 _atom_site_fract_z
 _atom_site_occupancy
  Sm  Sm0  1  0.000000  0.000000  0.250000  1
  Sm  Sm1  1  0.000000  0.000000  0.750000  1
  Dy  Dy2  1  0.491299  0.508701  0.750000  1
  Dy  Dy3  1  0.491299  0.982598  0.750000  1
  Dy  Dy4  1  0.017402  0.508701  0.750000  1
  Y  Y5  1  0.508771  0.491229  0.250000  1
  Y  Y6  1  0.508771  0.017544  0.250000  1
  Y  Y7  1  0.982456  0.491229  0.250000  1
  Si  Si8  1  0.167564  0.832436  0.500449  1
  Si  Si9  1  0.167564  0.335130  0.500449  1
  Si  Si10  1  0.664870  0.832436  0.500449  1
  Si  Si11  1  0.832378  0.167622  0.500328  1
  Si  Si12  1  0.832378  0.664753  0.500328  1
  Si  Si13  1  0.335247  0.167622  0.500328  1
  Si  Si14  1  0.832378  0.167622  0.999672  1
  Si  Si15  1  0.832378  0.664753  0.999672  1
  Si  Si16  1  0.335247  0.167622  0.999672  1
  Si  Si17  1  0.167564  0.832436  0.999551  1
  Si  Si18  1  0.167564  0.335130  0.999551  1
  Si  Si19  1  0.664870  0.832436  0.999551  1
  Rh  Rh20  1  0.333333  0.666667  0.467931  1
  Rh  Rh21  1  0.666667  0.333333  0.534666  1
  Rh  Rh22  1  0.666667  0.333333  0.965334  1
  Rh  Rh23  1  0.333333  0.666667  0.032069  1
