# generated using pymatgen
data_Pr3Th(Ga3Rh)6
_symmetry_space_group_name_H-M   'P 1'
_cell_length_a   7.66322007
_cell_length_b   7.66500967
_cell_length_c   9.64944700
_cell_angle_alpha   90.00000000
_cell_angle_beta   90.00000000
_cell_angle_gamma   119.39170870
_symmetry_Int_Tables_number   1
_chemical_formula_structural   Pr3Th(Ga3Rh)6
_chemical_formula_sum   'Pr3 Th1 Ga18 Rh6'
_cell_volume   493.84036792
_cell_formula_units_Z   1
loop_
 _symmetry_equiv_pos_site_id
 _symmetry_equiv_pos_as_xyz
  1  'x, y, z'
loop_
 _atom_site_type_symbol
 _atom_site_label
 _atom_site_symmetry_multiplicity
 _atom_site_fract_x
 _atom_site_fract_y
 _atom_site_fract_z
 _atom_site_occupancy
  Pr  Pr0  1  0.003400  0.329336  0.250000  1
  Pr  Pr1  1  0.671814  0.996453  0.750000  1
  Pr  Pr2  1  0.329274  0.003298  0.250000  1
  Th  Th3  1  0.997600  0.671384  0.750000  1
  Ga  Ga4  1  0.133137  0.132804  0.750000  1
  Ga  Ga5  1  0.868817  0.870045  0.250000  1
  Ga  Ga6  1  0.002998  0.333481  0.577576  1
  Ga  Ga7  1  0.996370  0.664033  0.420487  1
  Ga  Ga8  1  0.996370  0.664033  0.079513  1
  Ga  Ga9  1  0.338764  0.005421  0.922337  1
  Ga  Ga10  1  0.002998  0.333481  0.922424  1
  Ga  Ga11  1  0.664229  0.997410  0.077005  1
  Ga  Ga12  1  0.664229  0.997410  0.422995  1
  Ga  Ga13  1  0.338764  0.005421  0.577663  1
  Ga  Ga14  1  0.333143  0.333103  0.056649  1
  Ga  Ga15  1  0.664174  0.666158  0.944357  1
  Ga  Ga16  1  0.664174  0.666158  0.555643  1
  Ga  Ga17  1  0.333143  0.333103  0.443351  1
  Ga  Ga18  1  0.342745  0.546993  0.750000  1
  Ga  Ga19  1  0.657660  0.452121  0.250000  1
  Ga  Ga20  1  0.546316  0.342049  0.750000  1
  Ga  Ga21  1  0.452283  0.659313  0.250000  1
  Rh  Rh22  1  0.672280  0.330814  0.501788  1
  Rh  Rh23  1  0.326946  0.670319  0.501872  1
  Rh  Rh24  1  0.326946  0.670319  0.998128  1
  Rh  Rh25  1  0.672280  0.330814  0.998212  1
  Rh  Rh26  1  0.999574  0.997363  0.502481  1
  Rh  Rh27  1  0.999574  0.997363  0.997519  1
