# generated using pymatgen
data_GeI10
_symmetry_space_group_name_H-M   'P 1'
_cell_length_a   7.09015600
_cell_length_b   9.63218595
_cell_length_c   24.29805345
_cell_angle_alpha   59.15984212
_cell_angle_beta   90.00000000
_cell_angle_gamma   90.00000000
_symmetry_Int_Tables_number   1
_chemical_formula_structural   GeI10
_chemical_formula_sum   'Ge2 I20'
_cell_volume   1424.76560196
_cell_formula_units_Z   2
loop_
 _symmetry_equiv_pos_site_id
 _symmetry_equiv_pos_as_xyz
  1  'x, y, z'
loop_
 _atom_site_type_symbol
 _atom_site_label
 _atom_site_symmetry_multiplicity
 _atom_site_fract_x
 _atom_site_fract_y
 _atom_site_fract_z
 _atom_site_occupancy
  Ge  Ge0  1  0.765064  0.999156  0.772172  1
  Ge  Ge1  1  0.234936  0.999156  0.272172  1
  I  I2  1  0.177698  0.388054  0.456265  1
  I  I3  1  0.822302  0.388054  0.956265  1
  I  I4  1  0.393504  0.530274  0.757432  1
  I  I5  1  0.606496  0.530274  0.257432  1
  I  I6  1  0.284597  0.680689  0.617775  1
  I  I7  1  0.715403  0.680689  0.117775  1
  I  I8  1  0.986686  0.788286  0.774858  1
  I  I9  1  0.013314  0.788286  0.274858  1
  I  I10  1  0.885204  0.424090  0.524535  1
  I  I11  1  0.114796  0.424090  0.024535  1
  I  I12  1  0.763295  0.021969  0.044643  1
  I  I13  1  0.236705  0.021969  0.544643  1
  I  I14  1  0.541898  0.095691  0.677111  1
  I  I15  1  0.458102  0.095691  0.177111  1
  I  I16  1  0.468402  0.328944  0.891372  1
  I  I17  1  0.531598  0.328944  0.391372  1
  I  I18  1  0.569917  0.876427  0.874269  1
  I  I19  1  0.430083  0.876427  0.374269  1
  I  I20  1  0.041135  0.233820  0.261768  1
  I  I21  1  0.958865  0.233820  0.761768  1
