# generated using pymatgen
data_Y4Si4OsRuRh2
_symmetry_space_group_name_H-M   'P 1'
_cell_length_a   4.29458900
_cell_length_b   6.96076923
_cell_length_c   7.31717467
_cell_angle_alpha   90.15776526
_cell_angle_beta   90.00000000
_cell_angle_gamma   90.00000000
_symmetry_Int_Tables_number   1
_chemical_formula_structural   Y4Si4OsRuRh2
_chemical_formula_sum   'Y4 Si4 Os1 Ru1 Rh2'
_cell_volume   218.73617799
_cell_formula_units_Z   1
loop_
 _symmetry_equiv_pos_site_id
 _symmetry_equiv_pos_as_xyz
  1  'x, y, z'
loop_
 _atom_site_type_symbol
 _atom_site_label
 _atom_site_symmetry_multiplicity
 _atom_site_fract_x
 _atom_site_fract_y
 _atom_site_fract_z
 _atom_site_occupancy
  Y  Y0  1  0.750000  0.504225  0.313935  1
  Y  Y1  1  0.250000  0.992565  0.812057  1
  Y  Y2  1  0.750000  0.005144  0.187883  1
  Y  Y3  1  0.250000  0.493803  0.686206  1
  Si  Si4  1  0.250000  0.303410  0.110714  1
  Si  Si5  1  0.250000  0.801925  0.385622  1
  Si  Si6  1  0.750000  0.699994  0.901667  1
  Si  Si7  1  0.750000  0.199207  0.601368  1
  Os  Os8  1  0.250000  0.655017  0.067293  1
  Ru  Ru9  1  0.250000  0.153559  0.434348  1
  Rh  Rh10  1  0.750000  0.845173  0.566934  1
  Rh  Rh11  1  0.750000  0.345977  0.931972  1
