# generated using pymatgen
data_EuZnPRh2
_symmetry_space_group_name_H-M   'P 1'
_cell_length_a   5.95632040
_cell_length_b   5.95632015
_cell_length_c   5.95632129
_cell_angle_alpha   139.24943667
_cell_angle_beta   139.24944054
_cell_angle_gamma   58.99472157
_symmetry_Int_Tables_number   1
_chemical_formula_structural   EuZnPRh2
_chemical_formula_sum   'Eu1 Zn1 P1 Rh2'
_cell_volume   89.18238707
_cell_formula_units_Z   1
loop_
 _symmetry_equiv_pos_site_id
 _symmetry_equiv_pos_as_xyz
  1  'x, y, z'
loop_
 _atom_site_type_symbol
 _atom_site_label
 _atom_site_symmetry_multiplicity
 _atom_site_fract_x
 _atom_site_fract_y
 _atom_site_fract_z
 _atom_site_occupancy
  Eu  Eu0  1  0.998129  0.998129  0.000000  1
  Zn  Zn1  1  0.615482  0.615482  0.000000  1
  P  P2  1  0.363569  0.363569  0.000000  1
  Rh  Rh3  1  0.761410  0.261410  0.500000  1
  Rh  Rh4  1  0.261410  0.761410  0.500000  1
