# generated using pymatgen
data_Lu5Si3P9Ir19
_symmetry_space_group_name_H-M   'P 1'
_cell_length_a   12.77961930
_cell_length_b   12.67165893
_cell_length_c   3.93732200
_cell_angle_alpha   90.00000000
_cell_angle_beta   90.00000000
_cell_angle_gamma   119.88388757
_symmetry_Int_Tables_number   1
_chemical_formula_structural   Lu5Si3P9Ir19
_chemical_formula_sum   'Lu5 Si3 P9 Ir19'
_cell_volume   552.82783820
_cell_formula_units_Z   1
loop_
 _symmetry_equiv_pos_site_id
 _symmetry_equiv_pos_as_xyz
  1  'x, y, z'
loop_
 _atom_site_type_symbol
 _atom_site_label
 _atom_site_symmetry_multiplicity
 _atom_site_fract_x
 _atom_site_fract_y
 _atom_site_fract_z
 _atom_site_occupancy
  Lu  Lu0  1  0.662882  0.332182  0.000000  1
  Lu  Lu1  1  0.335180  0.667263  0.000000  1
  Lu  Lu2  1  0.819754  0.817676  0.500000  1
  Lu  Lu3  1  0.181437  0.999637  0.500000  1
  Lu  Lu4  1  0.997259  0.182751  0.500000  1
  Si  Si5  1  0.677746  0.162427  0.500000  1
  Si  Si6  1  0.641646  0.640576  0.000000  1
  Si  Si7  1  0.359755  0.998632  0.000000  1
  P  P8  1  0.832585  0.516522  0.500000  1
  P  P9  1  0.481404  0.321647  0.500000  1
  P  P10  1  0.181393  0.695732  0.500000  1
  P  P11  1  0.516634  0.822880  0.500000  1
  P  P12  1  0.307803  0.484198  0.500000  1
  P  P13  1  0.998116  0.356008  0.000000  1
  P  P14  1  0.172703  0.180322  0.000000  1
  P  P15  1  0.820192  0.996087  0.000000  1
  P  P16  1  0.003778  0.822736  0.000000  1
  Ir  Ir17  1  0.811836  0.179725  0.000000  1
  Ir  Ir18  1  0.824964  0.628814  0.000000  1
  Ir  Ir19  1  0.359349  0.186031  0.000000  1
  Ir  Ir20  1  0.180544  0.798209  0.000000  1
  Ir  Ir21  1  0.620105  0.817999  0.000000  1
  Ir  Ir22  1  0.190270  0.377829  0.000000  1
  Ir  Ir23  1  0.470015  0.442806  0.000000  1
  Ir  Ir24  1  0.558871  0.027184  0.000000  1
  Ir  Ir25  1  0.991444  0.532852  0.000000  1
  Ir  Ir26  1  0.281910  0.286193  0.500000  1
  Ir  Ir27  1  0.717968  0.996454  0.500000  1
  Ir  Ir28  1  0.002454  0.716819  0.500000  1
  Ir  Ir29  1  0.860955  0.354757  0.500000  1
  Ir  Ir30  1  0.649268  0.513514  0.500000  1
  Ir  Ir31  1  0.482845  0.138918  0.500000  1
  Ir  Ir32  1  0.370352  0.877367  0.500000  1
  Ir  Ir33  1  0.506144  0.630018  0.500000  1
  Ir  Ir34  1  0.131252  0.498267  0.500000  1
  Ir  Ir35  1  0.999187  0.998968  0.000000  1
