# generated using pymatgen
data_Ba7Ca4Tc4IN16
_symmetry_space_group_name_H-M   'P 1'
_cell_length_a   10.69360969
_cell_length_b   10.46983213
_cell_length_c   8.37117734
_cell_angle_alpha   72.54740276
_cell_angle_beta   65.30029887
_cell_angle_gamma   46.58554937
_symmetry_Int_Tables_number   1
_chemical_formula_structural   Ba7Ca4Tc4IN16
_chemical_formula_sum   'Ba7 Ca4 Tc4 I1 N16'
_cell_volume   618.40968086
_cell_formula_units_Z   1
loop_
 _symmetry_equiv_pos_site_id
 _symmetry_equiv_pos_as_xyz
  1  'x, y, z'
loop_
 _atom_site_type_symbol
 _atom_site_label
 _atom_site_symmetry_multiplicity
 _atom_site_fract_x
 _atom_site_fract_y
 _atom_site_fract_z
 _atom_site_occupancy
  Ba  Ba0  1  0.928245  0.571755  0.571755  1
  Ba  Ba1  1  0.319763  0.680237  0.680237  1
  Ba  Ba2  1  0.134359  0.100244  0.892566  1
  Ba  Ba3  1  0.137565  0.140703  0.376473  1
  Ba  Ba4  1  0.345258  0.376473  0.140703  1
  Ba  Ba5  1  0.685735  0.314265  0.314265  1
  Ba  Ba6  1  0.872830  0.892566  0.100244  1
  Ca  Ca7  1  0.377851  0.271271  0.723541  1
  Ca  Ca8  1  0.882674  0.936152  0.579094  1
  Ca  Ca9  1  0.627338  0.723541  0.271271  1
  Ca  Ca10  1  0.602081  0.579094  0.936152  1
  Tc  Tc11  1  0.487269  0.021944  0.473750  1
  Tc  Tc12  1  0.017035  0.473750  0.021944  1
  Tc  Tc13  1  0.764049  0.240750  0.772087  1
  Tc  Tc14  1  0.223114  0.772087  0.240750  1
  I  I15  1  0.611758  0.888242  0.888242  1
  N  N16  1  0.092748  0.572766  0.829764  1
  N  N17  1  0.677924  0.281122  0.010530  1
  N  N18  1  0.660235  0.023368  0.468950  1
  N  N19  1  0.504722  0.829764  0.572766  1
  N  N20  1  0.145267  0.658155  0.388751  1
  N  N21  1  0.807828  0.388751  0.658155  1
  N  N22  1  0.978734  0.010753  0.724388  1
  N  N23  1  0.512069  0.022948  0.246415  1
  N  N24  1  0.423239  0.696163  0.281343  1
  N  N25  1  0.939692  0.575775  0.225737  1
  N  N26  1  0.286126  0.724388  0.010753  1
  N  N27  1  0.847447  0.468950  0.023368  1
  N  N28  1  0.218567  0.246415  0.022948  1
  N  N29  1  0.599256  0.281343  0.696163  1
  N  N30  1  0.258796  0.225737  0.575775  1
  N  N31  1  0.030426  0.010530  0.281122  1
