# generated using pymatgen
data_Dy3Y7Sn5Sb
_symmetry_space_group_name_H-M   'P 1'
_cell_length_a   8.98864901
_cell_length_b   8.98052210
_cell_length_c   6.52240400
_cell_angle_alpha   89.99591579
_cell_angle_beta   90.00305828
_cell_angle_gamma   120.02731787
_symmetry_Int_Tables_number   1
_chemical_formula_structural   Dy3Y7Sn5Sb
_chemical_formula_sum   'Dy3 Y7 Sn5 Sb1'
_cell_volume   455.84240076
_cell_formula_units_Z   1
loop_
 _symmetry_equiv_pos_site_id
 _symmetry_equiv_pos_as_xyz
  1  'x, y, z'
loop_
 _atom_site_type_symbol
 _atom_site_label
 _atom_site_symmetry_multiplicity
 _atom_site_fract_x
 _atom_site_fract_y
 _atom_site_fract_z
 _atom_site_occupancy
  Dy  Dy0  1  0.667562  0.334342  0.999113  1
  Dy  Dy1  1  0.667558  0.334363  0.500890  1
  Dy  Dy2  1  0.333242  0.665647  0.999072  1
  Y  Y3  1  0.997724  0.758883  0.750068  1
  Y  Y4  1  0.000863  0.240154  0.249912  1
  Y  Y5  1  0.760679  0.759806  0.249912  1
  Y  Y6  1  0.760398  0.999990  0.750046  1
  Y  Y7  1  0.238851  0.241089  0.750103  1
  Y  Y8  1  0.240214  0.000023  0.249938  1
  Y  Y9  1  0.333211  0.665680  0.500835  1
  Sn  Sn10  1  0.395374  0.394359  0.249789  1
  Sn  Sn11  1  0.000790  0.605521  0.249805  1
  Sn  Sn12  1  0.999878  0.395398  0.750238  1
  Sn  Sn13  1  0.604562  0.604525  0.750245  1
  Sn  Sn14  1  0.605833  0.000113  0.249815  1
  Sb  Sb15  1  0.393260  0.000108  0.750218  1
