# generated using pymatgen
data_Li4Pr2YSn4
_symmetry_space_group_name_H-M   'P 1'
_cell_length_a   8.79312848
_cell_length_b   8.79312824
_cell_length_c   8.79312890
_cell_angle_alpha   148.74010169
_cell_angle_beta   132.92634015
_cell_angle_gamma   57.59639835
_symmetry_Int_Tables_number   1
_chemical_formula_structural   Li4Pr2YSn4
_chemical_formula_sum   'Li4 Pr2 Y1 Sn4'
_cell_volume   256.40712755
_cell_formula_units_Z   1
loop_
 _symmetry_equiv_pos_site_id
 _symmetry_equiv_pos_as_xyz
  1  'x, y, z'
loop_
 _atom_site_type_symbol
 _atom_site_label
 _atom_site_symmetry_multiplicity
 _atom_site_fract_x
 _atom_site_fract_y
 _atom_site_fract_z
 _atom_site_occupancy
  Li  Li0  1  0.480868  0.671530  0.809338  1
  Li  Li1  1  0.862191  0.671530  0.190662  1
  Li  Li2  1  0.137809  0.328470  0.809338  1
  Li  Li3  1  0.519132  0.328470  0.190662  1
  Pr  Pr4  1  0.130188  0.130188  0.000000  1
  Pr  Pr5  1  0.869812  0.869812  0.000000  1
  Y  Y6  1  0.500000  0.000000  0.500000  1
  Sn  Sn7  1  0.204848  0.500000  0.704848  1
  Sn  Sn8  1  0.795152  0.500000  0.295152  1
  Sn  Sn9  1  0.709566  0.209566  0.500000  1
  Sn  Sn10  1  0.290434  0.790434  0.500000  1
