# generated using pymatgen
data_NaZr2V3O12
_symmetry_space_group_name_H-M   'P 1'
_cell_length_a   9.48212860
_cell_length_b   9.48212807
_cell_length_c   9.55312602
_cell_angle_alpha   60.24554397
_cell_angle_beta   60.24554509
_cell_angle_gamma   59.99999374
_symmetry_Int_Tables_number   1
_chemical_formula_structural   NaZr2V3O12
_chemical_formula_sum   'Na2 Zr4 V6 O24'
_cell_volume   609.59873512
_cell_formula_units_Z   2
loop_
 _symmetry_equiv_pos_site_id
 _symmetry_equiv_pos_as_xyz
  1  'x, y, z'
loop_
 _atom_site_type_symbol
 _atom_site_label
 _atom_site_symmetry_multiplicity
 _atom_site_fract_x
 _atom_site_fract_y
 _atom_site_fract_z
 _atom_site_occupancy
  Na  Na0  1  0.500000  0.500000  0.500000  1
  Na  Na1  1  0.000000  0.000000  0.000000  1
  Zr  Zr2  1  0.640648  0.640648  0.078055  1
  Zr  Zr3  1  0.140648  0.140648  0.578055  1
  Zr  Zr4  1  0.359352  0.359352  0.921945  1
  Zr  Zr5  1  0.859352  0.859352  0.421945  1
  V  V6  1  0.460768  0.039232  0.750000  1
  V  V7  1  0.039232  0.750000  0.750000  1
  V  V8  1  0.750000  0.460768  0.750000  1
  V  V9  1  0.960768  0.250000  0.250000  1
  V  V10  1  0.250000  0.539232  0.250000  1
  V  V11  1  0.539232  0.960768  0.250000  1
  O  O12  1  0.504870  0.871477  0.930595  1
  O  O13  1  0.871477  0.693058  0.930595  1
  O  O14  1  0.693058  0.504870  0.930595  1
  O  O15  1  0.004870  0.193058  0.430595  1
  O  O16  1  0.193058  0.371477  0.430595  1
  O  O17  1  0.371477  0.004870  0.430595  1
  O  O18  1  0.495130  0.128523  0.069405  1
  O  O19  1  0.128523  0.306942  0.069405  1
  O  O20  1  0.306942  0.495130  0.069405  1
  O  O21  1  0.995130  0.806942  0.569405  1
  O  O22  1  0.806942  0.628523  0.569405  1
  O  O23  1  0.628523  0.995130  0.569405  1
  O  O24  1  0.559254  0.766714  0.251953  1
  O  O25  1  0.766714  0.422077  0.251953  1
  O  O26  1  0.422077  0.559254  0.251953  1
  O  O27  1  0.059254  0.922077  0.751953  1
  O  O28  1  0.922077  0.266714  0.751953  1
  O  O29  1  0.266714  0.059254  0.751953  1
  O  O30  1  0.440746  0.233286  0.748047  1
  O  O31  1  0.233286  0.577923  0.748047  1
  O  O32  1  0.577923  0.440746  0.748047  1
  O  O33  1  0.940746  0.077923  0.248047  1
  O  O34  1  0.077923  0.733286  0.248047  1
  O  O35  1  0.733286  0.940746  0.248047  1
