# generated using pymatgen
data_Yb4AlOs7
_symmetry_space_group_name_H-M   'P 1'
_cell_length_a   5.30307400
_cell_length_b   5.30307367
_cell_length_c   8.72692900
_cell_angle_alpha   90.00000000
_cell_angle_beta   90.00000000
_cell_angle_gamma   119.99998957
_symmetry_Int_Tables_number   1
_chemical_formula_structural   Yb4AlOs7
_chemical_formula_sum   'Yb4 Al1 Os7'
_cell_volume   212.54332378
_cell_formula_units_Z   1
loop_
 _symmetry_equiv_pos_site_id
 _symmetry_equiv_pos_as_xyz
  1  'x, y, z'
loop_
 _atom_site_type_symbol
 _atom_site_label
 _atom_site_symmetry_multiplicity
 _atom_site_fract_x
 _atom_site_fract_y
 _atom_site_fract_z
 _atom_site_occupancy
  Yb  Yb0  1  0.333333  0.666667  0.431340  1
  Yb  Yb1  1  0.666667  0.333333  0.568660  1
  Yb  Yb2  1  0.666667  0.333333  0.935376  1
  Yb  Yb3  1  0.333333  0.666667  0.064624  1
  Al  Al4  1  0.000000  0.000000  0.500000  1
  Os  Os5  1  0.000000  0.000000  0.000000  1
  Os  Os6  1  0.828731  0.171269  0.249850  1
  Os  Os7  1  0.828731  0.657462  0.249850  1
  Os  Os8  1  0.342538  0.171269  0.249850  1
  Os  Os9  1  0.171269  0.828731  0.750150  1
  Os  Os10  1  0.171269  0.342538  0.750150  1
  Os  Os11  1  0.657462  0.828731  0.750150  1
