# generated using pymatgen
data_ErLu19(CoSb2)4
_symmetry_space_group_name_H-M   'P 1'
_cell_length_a   7.69126500
_cell_length_b   8.69877200
_cell_length_c   11.98606300
_cell_angle_alpha   90.00000000
_cell_angle_beta   89.99889748
_cell_angle_gamma   90.00000000
_symmetry_Int_Tables_number   1
_chemical_formula_structural   ErLu19(CoSb2)4
_chemical_formula_sum   'Er1 Lu19 Co4 Sb8'
_cell_volume   801.92227866
_cell_formula_units_Z   1
loop_
 _symmetry_equiv_pos_site_id
 _symmetry_equiv_pos_as_xyz
  1  'x, y, z'
loop_
 _atom_site_type_symbol
 _atom_site_label
 _atom_site_symmetry_multiplicity
 _atom_site_fract_x
 _atom_site_fract_y
 _atom_site_fract_z
 _atom_site_occupancy
  Er  Er0  1  0.877520  0.749997  0.808882  1
  Lu  Lu1  1  0.621880  0.750002  0.310110  1
  Lu  Lu2  1  0.121967  0.250006  0.190237  1
  Lu  Lu3  1  0.378015  0.249996  0.690082  1
  Lu  Lu4  1  0.156176  0.749993  0.203784  1
  Lu  Lu5  1  0.656388  0.250001  0.295967  1
  Lu  Lu6  1  0.843627  0.250011  0.796054  1
  Lu  Lu7  1  0.343946  0.749996  0.703910  1
  Lu  Lu8  1  0.446230  0.749998  0.997703  1
  Lu  Lu9  1  0.946290  0.250006  0.502011  1
  Lu  Lu10  1  0.553418  0.249996  0.002275  1
  Lu  Lu11  1  0.053860  0.749992  0.497819  1
  Lu  Lu12  1  0.825015  0.963033  0.066002  1
  Lu  Lu13  1  0.324979  0.037244  0.434277  1
  Lu  Lu14  1  0.175256  0.461992  0.934549  1
  Lu  Lu15  1  0.674972  0.537306  0.565657  1
  Lu  Lu16  1  0.175254  0.038007  0.934555  1
  Lu  Lu17  1  0.674965  0.962697  0.565655  1
  Lu  Lu18  1  0.825015  0.536979  0.065999  1
  Lu  Lu19  1  0.324974  0.462743  0.434275  1
  Co  Co20  1  0.432397  0.749998  0.491771  1
  Co  Co21  1  0.932163  0.249996  0.008549  1
  Co  Co22  1  0.567586  0.250002  0.508260  1
  Co  Co23  1  0.068083  0.750002  0.991934  1
  Sb  Sb24  1  0.932458  0.991716  0.328312  1
  Sb  Sb25  1  0.432503  0.008045  0.171789  1
  Sb  Sb26  1  0.068074  0.491345  0.671470  1
  Sb  Sb27  1  0.566977  0.507811  0.828271  1
  Sb  Sb28  1  0.068078  0.008659  0.671469  1
  Sb  Sb29  1  0.566977  0.992190  0.828269  1
  Sb  Sb30  1  0.932450  0.508284  0.328314  1
  Sb  Sb31  1  0.432502  0.491956  0.171790  1
