# generated using pymatgen
data_Y8TcOsI8
_symmetry_space_group_name_H-M   'P 1'
_cell_length_a   11.43509210
_cell_length_b   11.43509329
_cell_length_c   6.20232502
_cell_angle_alpha   90.02368926
_cell_angle_beta   90.02370025
_cell_angle_gamma   88.45418599
_symmetry_Int_Tables_number   1
_chemical_formula_structural   Y8TcOsI8
_chemical_formula_sum   'Y8 Tc1 Os1 I8'
_cell_volume   810.72907363
_cell_formula_units_Z   1
loop_
 _symmetry_equiv_pos_site_id
 _symmetry_equiv_pos_as_xyz
  1  'x, y, z'
loop_
 _atom_site_type_symbol
 _atom_site_label
 _atom_site_symmetry_multiplicity
 _atom_site_fract_x
 _atom_site_fract_y
 _atom_site_fract_z
 _atom_site_occupancy
  Y  Y0  1  0.802186  0.084116  0.999256  1
  Y  Y1  1  0.084119  0.802175  0.498846  1
  Y  Y2  1  0.078458  0.195116  0.000644  1
  Y  Y3  1  0.195104  0.078452  0.500198  1
  Y  Y4  1  0.921548  0.804896  0.999802  1
  Y  Y5  1  0.915884  0.197814  0.500744  1
  Y  Y6  1  0.197825  0.915881  0.001154  1
  Y  Y7  1  0.804884  0.921542  0.499356  1
  Tc  Tc8  1  0.999851  0.000149  0.250000  1
  Os  Os9  1  0.000147  0.999853  0.750000  1
  I  I10  1  0.644757  0.152418  0.510407  1
  I  I11  1  0.858276  0.648364  0.505724  1
  I  I12  1  0.351636  0.141724  0.994276  1
  I  I13  1  0.141726  0.351641  0.494449  1
  I  I14  1  0.648359  0.858274  0.005551  1
  I  I15  1  0.355246  0.847589  0.489782  1
  I  I16  1  0.152411  0.644754  0.010218  1
  I  I17  1  0.847582  0.355243  0.989593  1
