# generated using pymatgen
data_Ti14V5Si16Pd
_symmetry_space_group_name_H-M   'P 1'
_cell_length_a   6.60154842
_cell_length_b   6.60061232
_cell_length_c   12.05891809
_cell_angle_alpha   89.82204531
_cell_angle_beta   90.43564433
_cell_angle_gamma   89.83872640
_symmetry_Int_Tables_number   1
_chemical_formula_structural   Ti14V5Si16Pd
_chemical_formula_sum   'Ti14 V5 Si16 Pd1'
_cell_volume   525.43861452
_cell_formula_units_Z   1
loop_
 _symmetry_equiv_pos_site_id
 _symmetry_equiv_pos_as_xyz
  1  'x, y, z'
loop_
 _atom_site_type_symbol
 _atom_site_label
 _atom_site_symmetry_multiplicity
 _atom_site_fract_x
 _atom_site_fract_y
 _atom_site_fract_z
 _atom_site_occupancy
  Ti  Ti0  1  0.003718  0.844742  0.118412  1
  Ti  Ti1  1  0.152406  0.998668  0.377216  1
  Ti  Ti2  1  0.844018  0.002087  0.882198  1
  Ti  Ti3  1  0.001481  0.346130  0.220161  1
  Ti  Ti4  1  0.157368  0.502116  0.469764  1
  Ti  Ti5  1  0.835679  0.496533  0.969407  1
  Ti  Ti6  1  0.501406  0.157994  0.531191  1
  Ti  Ti7  1  0.497816  0.834872  0.029158  1
  Ti  Ti8  1  0.996911  0.658101  0.719198  1
  Ti  Ti9  1  0.346241  0.000851  0.779157  1
  Ti  Ti10  1  0.657793  0.996181  0.282273  1
  Ti  Ti11  1  0.332175  0.669173  0.248264  1
  Ti  Ti12  1  0.668094  0.330579  0.750922  1
  Ti  Ti13  1  0.831257  0.831127  0.500902  1
  V  V14  1  0.994790  0.152025  0.622616  1
  V  V15  1  0.351746  0.495850  0.868216  1
  V  V16  1  0.652031  0.506014  0.372370  1
  V  V17  1  0.497552  0.354037  0.130468  1
  V  V18  1  0.505852  0.650393  0.628504  1
  Si  Si19  1  0.046225  0.300160  0.812921  1
  Si  Si20  1  0.208730  0.541317  0.059357  1
  Si  Si21  1  0.797576  0.456437  0.563414  1
  Si  Si22  1  0.541655  0.208344  0.940032  1
  Si  Si23  1  0.457561  0.795881  0.438126  1
  Si  Si24  1  0.954951  0.699029  0.313809  1
  Si  Si25  1  0.304145  0.047968  0.184572  1
  Si  Si26  1  0.701960  0.955712  0.686579  1
  Si  Si27  1  0.291506  0.363329  0.672260  1
  Si  Si28  1  0.137035  0.779629  0.917377  1
  Si  Si29  1  0.859678  0.210852  0.423832  1
  Si  Si30  1  0.779102  0.135960  0.083038  1
  Si  Si31  1  0.209414  0.864571  0.579046  1
  Si  Si32  1  0.705558  0.636118  0.174149  1
  Si  Si33  1  0.365819  0.297177  0.326168  1
  Si  Si34  1  0.634929  0.704845  0.825783  1
  Pd  Pd35  1  0.175820  0.175198  0.999139  1
