# generated using pymatgen
data_Tb21Er3HgTe11
_symmetry_space_group_name_H-M   'P 1'
_cell_length_a   4.08733500
_cell_length_b   11.62260551
_cell_length_c   22.24167800
_cell_angle_alpha   90.01699755
_cell_angle_beta   90.00000000
_cell_angle_gamma   90.00000000
_symmetry_Int_Tables_number   1
_chemical_formula_structural   Tb21Er3HgTe11
_chemical_formula_sum   'Tb21 Er3 Hg1 Te11'
_cell_volume   1056.60159401
_cell_formula_units_Z   1
loop_
 _symmetry_equiv_pos_site_id
 _symmetry_equiv_pos_as_xyz
  1  'x, y, z'
loop_
 _atom_site_type_symbol
 _atom_site_label
 _atom_site_symmetry_multiplicity
 _atom_site_fract_x
 _atom_site_fract_y
 _atom_site_fract_z
 _atom_site_occupancy
  Tb  Tb0  1  0.250000  0.150849  0.391801  1
  Tb  Tb1  1  0.750000  0.849404  0.608316  1
  Tb  Tb2  1  0.750000  0.650919  0.108024  1
  Tb  Tb3  1  0.250000  0.348874  0.891428  1
  Tb  Tb4  1  0.250000  0.456285  0.340397  1
  Tb  Tb5  1  0.750000  0.543983  0.659457  1
  Tb  Tb6  1  0.750000  0.956941  0.158969  1
  Tb  Tb7  1  0.250000  0.045338  0.842041  1
  Tb  Tb8  1  0.250000  0.734645  0.233694  1
  Tb  Tb9  1  0.750000  0.266185  0.767259  1
  Tb  Tb10  1  0.750000  0.234699  0.266674  1
  Tb  Tb11  1  0.250000  0.764351  0.733299  1
  Tb  Tb12  1  0.250000  0.116384  0.033512  1
  Tb  Tb13  1  0.750000  0.884017  0.965500  1
  Tb  Tb14  1  0.750000  0.615145  0.465357  1
  Tb  Tb15  1  0.250000  0.385131  0.534878  1
  Tb  Tb16  1  0.250000  0.413151  0.148006  1
  Tb  Tb17  1  0.750000  0.587127  0.852181  1
  Tb  Tb18  1  0.750000  0.913420  0.352643  1
  Tb  Tb19  1  0.250000  0.087238  0.647556  1
  Tb  Tb20  1  0.250000  0.611274  0.983110  1
  Er  Er21  1  0.750000  0.386615  0.017351  1
  Er  Er22  1  0.750000  0.112189  0.517275  1
  Er  Er23  1  0.250000  0.887740  0.482644  1
  Hg  Hg24  1  0.750000  0.151781  0.929544  1
  Te  Te25  1  0.250000  0.848695  0.069509  1
  Te  Te26  1  0.750000  0.348893  0.431236  1
  Te  Te27  1  0.250000  0.650816  0.568628  1
  Te  Te28  1  0.250000  0.712073  0.373159  1
  Te  Te29  1  0.750000  0.288406  0.626747  1
  Te  Te30  1  0.750000  0.212903  0.127415  1
  Te  Te31  1  0.250000  0.785895  0.872325  1
  Te  Te32  1  0.250000  0.020786  0.261102  1
  Te  Te33  1  0.750000  0.978607  0.739018  1
  Te  Te34  1  0.750000  0.520617  0.238927  1
  Te  Te35  1  0.250000  0.478626  0.761019  1
