# generated using pymatgen
data_TbCe(B4Ru)2
_symmetry_space_group_name_H-M   'P 1'
_cell_length_a   3.60463900
_cell_length_b   5.98403269
_cell_length_c   11.60321703
_cell_angle_alpha   90.14318196
_cell_angle_beta   90.00000000
_cell_angle_gamma   90.00000000
_symmetry_Int_Tables_number   1
_chemical_formula_structural   TbCe(B4Ru)2
_chemical_formula_sum   'Tb2 Ce2 B16 Ru4'
_cell_volume   250.28383083
_cell_formula_units_Z   2
loop_
 _symmetry_equiv_pos_site_id
 _symmetry_equiv_pos_as_xyz
  1  'x, y, z'
loop_
 _atom_site_type_symbol
 _atom_site_label
 _atom_site_symmetry_multiplicity
 _atom_site_fract_x
 _atom_site_fract_y
 _atom_site_fract_z
 _atom_site_occupancy
  Tb  Tb0  1  0.500000  0.628460  0.351854  1
  Tb  Tb1  1  0.500000  0.371540  0.648146  1
  Ce  Ce2  1  0.500000  0.129337  0.150512  1
  Ce  Ce3  1  0.500000  0.870663  0.849488  1
  B  B4  1  0.000000  0.475861  0.191643  1
  B  B5  1  0.000000  0.524139  0.808357  1
  B  B6  1  0.000000  0.974326  0.309714  1
  B  B7  1  0.000000  0.025674  0.690286  1
  B  B8  1  0.000000  0.288332  0.315283  1
  B  B9  1  0.000000  0.711668  0.684717  1
  B  B10  1  0.000000  0.786039  0.186190  1
  B  B11  1  0.000000  0.213961  0.813810  1
  B  B12  1  0.000000  0.363201  0.469271  1
  B  B13  1  0.000000  0.636799  0.530729  1
  B  B14  1  0.000000  0.862603  0.031146  1
  B  B15  1  0.000000  0.137397  0.968854  1
  B  B16  1  0.000000  0.389099  0.046409  1
  B  B17  1  0.000000  0.610901  0.953591  1
  B  B18  1  0.000000  0.887455  0.454204  1
  B  B19  1  0.000000  0.112545  0.545796  1
  Ru  Ru20  1  0.500000  0.138481  0.406516  1
  Ru  Ru21  1  0.500000  0.861519  0.593484  1
  Ru  Ru22  1  0.500000  0.639821  0.093170  1
  Ru  Ru23  1  0.500000  0.360179  0.906830  1
