# generated using pymatgen
data_HfU9S20
_symmetry_space_group_name_H-M   'P 1'
_cell_length_a   10.08773000
_cell_length_b   10.08773000
_cell_length_c   6.24705100
_cell_angle_alpha   90.00000000
_cell_angle_beta   90.00000000
_cell_angle_gamma   90.00000000
_symmetry_Int_Tables_number   1
_chemical_formula_structural   HfU9S20
_chemical_formula_sum   'Hf1 U9 S20'
_cell_volume   635.71425645
_cell_formula_units_Z   1
loop_
 _symmetry_equiv_pos_site_id
 _symmetry_equiv_pos_as_xyz
  1  'x, y, z'
loop_
 _atom_site_type_symbol
 _atom_site_label
 _atom_site_symmetry_multiplicity
 _atom_site_fract_x
 _atom_site_fract_y
 _atom_site_fract_z
 _atom_site_occupancy
  Hf  Hf0  1  0.500000  0.000000  0.847969  1
  U  U1  1  0.841258  0.150771  0.252970  1
  U  U2  1  0.650771  0.658742  0.252970  1
  U  U3  1  0.349229  0.341258  0.252970  1
  U  U4  1  0.158742  0.849229  0.252970  1
  U  U5  1  0.341536  0.653942  0.753509  1
  U  U6  1  0.153942  0.158464  0.753509  1
  U  U7  1  0.846058  0.841536  0.753509  1
  U  U8  1  0.658464  0.346058  0.753509  1
  U  U9  1  0.000000  0.500000  0.136774  1
  S  S10  1  0.706471  0.084742  0.626501  1
  S  S11  1  0.584742  0.793529  0.626501  1
  S  S12  1  0.415258  0.206471  0.626501  1
  S  S13  1  0.293529  0.915258  0.626501  1
  S  S14  1  0.700702  0.914237  0.100265  1
  S  S15  1  0.585763  0.200702  0.100265  1
  S  S16  1  0.414237  0.799298  0.100265  1
  S  S17  1  0.299298  0.085763  0.100265  1
  S  S18  1  0.500000  0.500000  0.003125  1
  S  S19  1  0.000000  0.000000  0.003125  1
  S  S20  1  0.210574  0.411647  0.888496  1
  S  S21  1  0.088353  0.710574  0.888496  1
  S  S22  1  0.911647  0.289426  0.888496  1
  S  S23  1  0.789426  0.588353  0.888496  1
  S  S24  1  0.500000  0.500000  0.504240  1
  S  S25  1  0.000000  0.000000  0.504240  1
  S  S26  1  0.210513  0.591311  0.378391  1
  S  S27  1  0.091311  0.289487  0.378391  1
  S  S28  1  0.908689  0.710513  0.378391  1
  S  S29  1  0.789487  0.408689  0.378391  1
