# generated using pymatgen
data_Hf2TaSi3Ni2
_symmetry_space_group_name_H-M   'P 1'
_cell_length_a   5.17340452
_cell_length_b   5.17340385
_cell_length_c   12.79077600
_cell_angle_alpha   90.00000000
_cell_angle_beta   90.00000000
_cell_angle_gamma   136.17068133
_symmetry_Int_Tables_number   1
_chemical_formula_structural   Hf2TaSi3Ni2
_chemical_formula_sum   'Hf4 Ta2 Si6 Ni4'
_cell_volume   237.07036933
_cell_formula_units_Z   2
loop_
 _symmetry_equiv_pos_site_id
 _symmetry_equiv_pos_as_xyz
  1  'x, y, z'
loop_
 _atom_site_type_symbol
 _atom_site_label
 _atom_site_symmetry_multiplicity
 _atom_site_fract_x
 _atom_site_fract_y
 _atom_site_fract_z
 _atom_site_occupancy
  Hf  Hf0  1  0.573553  0.426447  0.618723  1
  Hf  Hf1  1  0.426447  0.573553  0.381277  1
  Hf  Hf2  1  0.426447  0.573553  0.118723  1
  Hf  Hf3  1  0.573553  0.426447  0.881277  1
  Ta  Ta4  1  0.131814  0.868186  0.250000  1
  Ta  Ta5  1  0.868186  0.131814  0.750000  1
  Si  Si6  1  0.835878  0.164122  0.250000  1
  Si  Si7  1  0.164122  0.835878  0.750000  1
  Si  Si8  1  0.885133  0.114867  0.541888  1
  Si  Si9  1  0.114867  0.885133  0.458112  1
  Si  Si10  1  0.114867  0.885133  0.041888  1
  Si  Si11  1  0.885133  0.114867  0.958112  1
  Ni  Ni12  1  0.284037  0.715963  0.907742  1
  Ni  Ni13  1  0.715963  0.284037  0.092258  1
  Ni  Ni14  1  0.715963  0.284037  0.407742  1
  Ni  Ni15  1  0.284037  0.715963  0.592258  1
