# generated using pymatgen
data_Hf3Sc2TiSn5
_symmetry_space_group_name_H-M   'P 1'
_cell_length_a   10.89613013
_cell_length_b   10.89598208
_cell_length_c   10.88476166
_cell_angle_alpha   149.14236294
_cell_angle_beta   132.10341782
_cell_angle_gamma   58.17598560
_symmetry_Int_Tables_number   1
_chemical_formula_structural   Hf3Sc2TiSn5
_chemical_formula_sum   'Hf6 Sc4 Ti2 Sn10'
_cell_volume   487.80137179
_cell_formula_units_Z   2
loop_
 _symmetry_equiv_pos_site_id
 _symmetry_equiv_pos_as_xyz
  1  'x, y, z'
loop_
 _atom_site_type_symbol
 _atom_site_label
 _atom_site_symmetry_multiplicity
 _atom_site_fract_x
 _atom_site_fract_y
 _atom_site_fract_z
 _atom_site_occupancy
  Hf  Hf0  1  0.690256  0.940254  0.249998  1
  Hf  Hf1  1  0.309744  0.059746  0.750002  1
  Hf  Hf2  1  0.673383  0.434010  0.237539  1
  Hf  Hf3  1  0.326617  0.565990  0.762461  1
  Hf  Hf4  1  0.196468  0.935844  0.262458  1
  Hf  Hf5  1  0.803532  0.064156  0.737542  1
  Sc  Sc6  1  0.254370  0.142957  0.109750  1
  Sc  Sc7  1  0.745630  0.857043  0.890250  1
  Sc  Sc8  1  0.033215  0.644612  0.390248  1
  Sc  Sc9  1  0.966785  0.355388  0.609752  1
  Ti  Ti10  1  0.311519  0.561517  0.250000  1
  Ti  Ti11  1  0.688481  0.438483  0.750000  1
  Sn  Sn12  1  0.590103  0.296265  0.310624  1
  Sn  Sn13  1  0.409897  0.703735  0.689376  1
  Sn  Sn14  1  0.985645  0.779475  0.189376  1
  Sn  Sn15  1  0.014355  0.220525  0.810624  1
  Sn  Sn16  1  0.999734  0.249726  0.250002  1
  Sn  Sn17  1  0.000266  0.750274  0.749998  1
  Sn  Sn18  1  0.465949  0.074234  0.401635  1
  Sn  Sn19  1  0.534051  0.925766  0.598365  1
  Sn  Sn20  1  0.672594  0.564327  0.098375  1
  Sn  Sn21  1  0.327406  0.435673  0.901625  1
