# generated using pymatgen
data_NaY(Te3O8)2
_symmetry_space_group_name_H-M   'P 1'
_cell_length_a   6.95283743
_cell_length_b   6.95283835
_cell_length_c   10.29121900
_cell_angle_alpha   66.02310962
_cell_angle_beta   66.02310623
_cell_angle_gamma   48.96950174
_symmetry_Int_Tables_number   1
_chemical_formula_structural   NaY(Te3O8)2
_chemical_formula_sum   'Na1 Y1 Te6 O16'
_cell_volume   335.80117994
_cell_formula_units_Z   1
loop_
 _symmetry_equiv_pos_site_id
 _symmetry_equiv_pos_as_xyz
  1  'x, y, z'
loop_
 _atom_site_type_symbol
 _atom_site_label
 _atom_site_symmetry_multiplicity
 _atom_site_fract_x
 _atom_site_fract_y
 _atom_site_fract_z
 _atom_site_occupancy
  Na  Na0  1  0.434319  0.565681  0.750000  1
  Y  Y1  1  0.568386  0.431614  0.250000  1
  Te  Te2  1  0.698376  0.875311  0.856342  1
  Te  Te3  1  0.876469  0.686952  0.359209  1
  Te  Te4  1  0.995889  0.990897  0.504052  1
  Te  Te5  1  0.009103  0.004111  0.995948  1
  Te  Te6  1  0.124689  0.301624  0.643658  1
  Te  Te7  1  0.313048  0.123531  0.140791  1
  O  O8  1  0.985153  0.816158  0.910439  1
  O  O9  1  0.792861  0.991456  0.404191  1
  O  O10  1  0.348440  0.881709  0.875472  1
  O  O11  1  0.794266  0.568821  0.580341  1
  O  O12  1  0.866381  0.315940  0.838779  1
  O  O13  1  0.849117  0.334707  0.378361  1
  O  O14  1  0.579959  0.775813  0.100160  1
  O  O15  1  0.296135  0.847986  0.343801  1
  O  O16  1  0.684060  0.133619  0.661221  1
  O  O17  1  0.431179  0.205734  0.919659  1
  O  O18  1  0.118291  0.651560  0.624528  1
  O  O19  1  0.152014  0.703865  0.156199  1
  O  O20  1  0.224187  0.420041  0.399840  1
  O  O21  1  0.665293  0.150883  0.121639  1
  O  O22  1  0.183842  0.014847  0.589561  1
  O  O23  1  0.008544  0.207139  0.095809  1
