# generated using pymatgen
data_Sc22AgIrOs6
_symmetry_space_group_name_H-M   'P 1'
_cell_length_a   9.53829672
_cell_length_b   9.51376712
_cell_length_c   9.53829681
_cell_angle_alpha   60.08504226
_cell_angle_beta   59.66769978
_cell_angle_gamma   60.08504352
_symmetry_Int_Tables_number   1
_chemical_formula_structural   Sc22AgIrOs6
_chemical_formula_sum   'Sc22 Ag1 Ir1 Os6'
_cell_volume   611.26694476
_cell_formula_units_Z   1
loop_
 _symmetry_equiv_pos_site_id
 _symmetry_equiv_pos_as_xyz
  1  'x, y, z'
loop_
 _atom_site_type_symbol
 _atom_site_label
 _atom_site_symmetry_multiplicity
 _atom_site_fract_x
 _atom_site_fract_y
 _atom_site_fract_z
 _atom_site_occupancy
  Sc  Sc0  1  0.802232  0.804451  0.197768  1
  Sc  Sc1  1  0.196775  0.803225  0.196775  1
  Sc  Sc2  1  0.802232  0.195549  0.197768  1
  Sc  Sc3  1  0.197768  0.195549  0.802232  1
  Sc  Sc4  1  0.803225  0.196775  0.803225  1
  Sc  Sc5  1  0.197768  0.804451  0.802232  1
  Sc  Sc6  1  0.604580  0.622360  0.150700  1
  Sc  Sc7  1  0.615550  0.150392  0.615550  1
  Sc  Sc8  1  0.150700  0.622360  0.604580  1
  Sc  Sc9  1  0.615550  0.618506  0.615550  1
  Sc  Sc10  1  0.395420  0.377640  0.849300  1
  Sc  Sc11  1  0.384450  0.849608  0.384450  1
  Sc  Sc12  1  0.849300  0.377640  0.395420  1
  Sc  Sc13  1  0.384450  0.381494  0.384450  1
  Sc  Sc14  1  0.843467  0.843428  0.469676  1
  Sc  Sc15  1  0.836645  0.469883  0.836645  1
  Sc  Sc16  1  0.469676  0.843428  0.843467  1
  Sc  Sc17  1  0.836645  0.856826  0.836645  1
  Sc  Sc18  1  0.156533  0.156572  0.530324  1
  Sc  Sc19  1  0.163355  0.530117  0.163355  1
  Sc  Sc20  1  0.530324  0.156572  0.156533  1
  Sc  Sc21  1  0.163355  0.143174  0.163355  1
  Ag  Ag22  1  0.000000  0.500000  0.000000  1
  Ir  Ir23  1  0.500000  0.000000  0.500000  1
  Os  Os24  1  0.000000  0.000000  0.000000  1
  Os  Os25  1  0.500000  0.500000  0.500000  1
  Os  Os26  1  0.000000  0.000000  0.500000  1
  Os  Os27  1  0.000000  0.500000  0.500000  1
  Os  Os28  1  0.500000  0.500000  0.000000  1
  Os  Os29  1  0.500000  0.000000  0.000000  1
