# generated using pymatgen
data_Nb6Ga3CuN2
_symmetry_space_group_name_H-M   'P 1'
_cell_length_a   7.02735222
_cell_length_b   7.02167857
_cell_length_c   7.03064300
_cell_angle_alpha   90.00000000
_cell_angle_beta   90.00000000
_cell_angle_gamma   90.28716683
_symmetry_Int_Tables_number   1
_chemical_formula_structural   Nb6Ga3CuN2
_chemical_formula_sum   'Nb12 Ga6 Cu2 N4'
_cell_volume   346.91434430
_cell_formula_units_Z   2
loop_
 _symmetry_equiv_pos_site_id
 _symmetry_equiv_pos_as_xyz
  1  'x, y, z'
loop_
 _atom_site_type_symbol
 _atom_site_label
 _atom_site_symmetry_multiplicity
 _atom_site_fract_x
 _atom_site_fract_y
 _atom_site_fract_z
 _atom_site_occupancy
  Nb  Nb0  1  0.793096  0.956907  0.375280  1
  Nb  Nb1  1  0.706904  0.043093  0.875280  1
  Nb  Nb2  1  0.204801  0.454998  0.126480  1
  Nb  Nb3  1  0.295199  0.545002  0.626480  1
  Nb  Nb4  1  0.955318  0.376680  0.793089  1
  Nb  Nb5  1  0.042789  0.872977  0.706612  1
  Nb  Nb6  1  0.457211  0.127023  0.206612  1
  Nb  Nb7  1  0.544682  0.623320  0.293089  1
  Nb  Nb8  1  0.376325  0.792453  0.956104  1
  Nb  Nb9  1  0.873657  0.706208  0.044336  1
  Nb  Nb10  1  0.123675  0.207547  0.456104  1
  Nb  Nb11  1  0.626343  0.293792  0.544336  1
  Ga  Ga12  1  0.822504  0.319981  0.177798  1
  Ga  Ga13  1  0.677496  0.680019  0.677798  1
  Ga  Ga14  1  0.558609  0.418631  0.926060  1
  Ga  Ga15  1  0.417071  0.936000  0.570296  1
  Ga  Ga16  1  0.941391  0.581369  0.426060  1
  Ga  Ga17  1  0.082929  0.064000  0.070296  1
  Cu  Cu18  1  0.183330  0.822779  0.318450  1
  Cu  Cu19  1  0.316670  0.177221  0.818450  1
  N  N20  1  0.876814  0.124073  0.627131  1
  N  N21  1  0.623186  0.875927  0.127131  1
  N  N22  1  0.125730  0.624578  0.878364  1
  N  N23  1  0.374270  0.375422  0.378364  1
