# generated using pymatgen
data_Ba2YGaO5
_symmetry_space_group_name_H-M   'P 1'
_cell_length_a   6.14113300
_cell_length_b   7.87838750
_cell_length_c   12.75415383
_cell_angle_alpha   91.90525301
_cell_angle_beta   90.00000000
_cell_angle_gamma   90.00000000
_symmetry_Int_Tables_number   1
_chemical_formula_structural   Ba2YGaO5
_chemical_formula_sum   'Ba8 Y4 Ga4 O20'
_cell_volume   616.73321008
_cell_formula_units_Z   4
loop_
 _symmetry_equiv_pos_site_id
 _symmetry_equiv_pos_as_xyz
  1  'x, y, z'
loop_
 _atom_site_type_symbol
 _atom_site_label
 _atom_site_symmetry_multiplicity
 _atom_site_fract_x
 _atom_site_fract_y
 _atom_site_fract_z
 _atom_site_occupancy
  Ba  Ba0  1  0.762789  0.481964  0.346366  1
  Ba  Ba1  1  0.737211  0.981964  0.846366  1
  Ba  Ba2  1  0.237211  0.518036  0.653634  1
  Ba  Ba3  1  0.262789  0.018036  0.153634  1
  Ba  Ba4  1  0.754614  0.992790  0.380903  1
  Ba  Ba5  1  0.745386  0.492790  0.880903  1
  Ba  Ba6  1  0.245386  0.007210  0.619097  1
  Ba  Ba7  1  0.254614  0.507210  0.119097  1
  Y  Y8  1  0.750022  0.266882  0.628277  1
  Y  Y9  1  0.749978  0.766882  0.128277  1
  Y  Y10  1  0.249978  0.733118  0.371723  1
  Y  Y11  1  0.250022  0.233118  0.871723  1
  Ga  Ga12  1  0.734580  0.741826  0.582203  1
  Ga  Ga13  1  0.765420  0.241826  0.082203  1
  Ga  Ga14  1  0.265420  0.258174  0.417797  1
  Ga  Ga15  1  0.234580  0.758174  0.917797  1
  O  O16  1  0.757590  0.970773  0.629005  1
  O  O17  1  0.742410  0.470773  0.129005  1
  O  O18  1  0.242410  0.029227  0.370995  1
  O  O19  1  0.257590  0.529227  0.870995  1
  O  O20  1  0.727826  0.068501  0.176294  1
  O  O21  1  0.772174  0.568501  0.676294  1
  O  O22  1  0.272174  0.931499  0.823706  1
  O  O23  1  0.227826  0.431499  0.323706  1
  O  O24  1  0.543281  0.744553  0.271938  1
  O  O25  1  0.956719  0.244553  0.771938  1
  O  O26  1  0.456719  0.255447  0.728062  1
  O  O27  1  0.043281  0.755447  0.228062  1
  O  O28  1  0.550322  0.222384  0.976721  1
  O  O29  1  0.949678  0.722384  0.476721  1
  O  O30  1  0.449678  0.777616  0.023279  1
  O  O31  1  0.050322  0.277616  0.523279  1
  O  O32  1  0.043712  0.227849  0.020877  1
  O  O33  1  0.456288  0.727849  0.520877  1
  O  O34  1  0.956288  0.772151  0.979123  1
  O  O35  1  0.543712  0.272151  0.479123  1
