# generated using pymatgen
data_Ca9La8Yb3Sn16
_symmetry_space_group_name_H-M   'P 1'
_cell_length_a   8.02867490
_cell_length_b   8.56892972
_cell_length_c   16.15514400
_cell_angle_alpha   90.02235951
_cell_angle_beta   89.95132979
_cell_angle_gamma   89.99301159
_symmetry_Int_Tables_number   1
_chemical_formula_structural   Ca9La8Yb3Sn16
_chemical_formula_sum   'Ca9 La8 Yb3 Sn16'
_cell_volume   1111.42738575
_cell_formula_units_Z   1
loop_
 _symmetry_equiv_pos_site_id
 _symmetry_equiv_pos_as_xyz
  1  'x, y, z'
loop_
 _atom_site_type_symbol
 _atom_site_label
 _atom_site_symmetry_multiplicity
 _atom_site_fract_x
 _atom_site_fract_y
 _atom_site_fract_z
 _atom_site_occupancy
  Ca  Ca0  1  0.167361  0.326833  0.123534  1
  Ca  Ca1  1  0.667356  0.172687  0.123535  1
  Ca  Ca2  1  0.166706  0.327028  0.376649  1
  Ca  Ca3  1  0.333117  0.827355  0.623411  1
  Ca  Ca4  1  0.832792  0.672922  0.876671  1
  Ca  Ca5  1  0.161866  0.501818  0.749976  1
  Ca  Ca6  1  0.662083  0.998335  0.750055  1
  Ca  Ca7  1  0.838284  0.498191  0.249805  1
  Ca  Ca8  1  0.337912  0.002352  0.249604  1
  La  La9  1  0.493709  0.315005  0.904196  1
  La  La10  1  0.994365  0.184594  0.595623  1
  La  La11  1  0.505413  0.684639  0.404256  1
  La  La12  1  0.006267  0.814998  0.095629  1
  La  La13  1  0.506723  0.685155  0.095870  1
  La  La14  1  0.006404  0.814956  0.404487  1
  La  La15  1  0.493814  0.315110  0.595662  1
  La  La16  1  0.993757  0.184989  0.904507  1
  Yb  Yb17  1  0.332902  0.826933  0.875799  1
  Yb  Yb18  1  0.832743  0.673212  0.624073  1
  Yb  Yb19  1  0.666576  0.173395  0.375903  1
  Sn  Sn20  1  0.330867  0.033184  0.037686  1
  Sn  Sn21  1  0.830183  0.465455  0.462103  1
  Sn  Sn22  1  0.669894  0.965427  0.537644  1
  Sn  Sn23  1  0.169369  0.535062  0.961732  1
  Sn  Sn24  1  0.668425  0.966157  0.961400  1
  Sn  Sn25  1  0.168304  0.534036  0.538656  1
  Sn  Sn26  1  0.331825  0.034109  0.461330  1
  Sn  Sn27  1  0.830914  0.466072  0.038384  1
  Sn  Sn28  1  0.534299  0.602496  0.750528  1
  Sn  Sn29  1  0.034404  0.897020  0.749889  1
  Sn  Sn30  1  0.465972  0.397436  0.250635  1
  Sn  Sn31  1  0.965202  0.102036  0.250430  1
  Sn  Sn32  1  0.288336  0.139846  0.750569  1
  Sn  Sn33  1  0.788734  0.360296  0.749279  1
  Sn  Sn34  1  0.711199  0.860247  0.250679  1
  Sn  Sn35  1  0.211922  0.640619  0.249807  1
