# generated using pymatgen
data_Tb16MgCd(Ni2Ag)2
_symmetry_space_group_name_H-M   'P 1'
_cell_length_a   9.55178563
_cell_length_b   9.53759928
_cell_length_c   9.52982200
_cell_angle_alpha   60.02697067
_cell_angle_beta   60.07603531
_cell_angle_gamma   60.18770695
_symmetry_Int_Tables_number   1
_chemical_formula_structural   Tb16MgCd(Ni2Ag)2
_chemical_formula_sum   'Tb16 Mg1 Cd1 Ni4 Ag2'
_cell_volume   615.23945811
_cell_formula_units_Z   1
loop_
 _symmetry_equiv_pos_site_id
 _symmetry_equiv_pos_as_xyz
  1  'x, y, z'
loop_
 _atom_site_type_symbol
 _atom_site_label
 _atom_site_symmetry_multiplicity
 _atom_site_fract_x
 _atom_site_fract_y
 _atom_site_fract_z
 _atom_site_occupancy
  Tb  Tb0  1  0.347317  0.348029  0.346983  1
  Tb  Tb1  1  0.347317  0.348029  0.957673  1
  Tb  Tb2  1  0.350916  0.949586  0.349749  1
  Tb  Tb3  1  0.953948  0.350482  0.347785  1
  Tb  Tb4  1  0.812690  0.187049  0.189128  1
  Tb  Tb5  1  0.189139  0.810453  0.809347  1
  Tb  Tb6  1  0.189139  0.810453  0.191060  1
  Tb  Tb7  1  0.812690  0.187049  0.811132  1
  Tb  Tb8  1  0.189603  0.188177  0.811110  1
  Tb  Tb9  1  0.810214  0.810206  0.189790  1
  Tb  Tb10  1  0.933417  0.562114  0.565698  1
  Tb  Tb11  1  0.564293  0.932038  0.938109  1
  Tb  Tb12  1  0.564293  0.932038  0.565559  1
  Tb  Tb13  1  0.933417  0.562114  0.938770  1
  Tb  Tb14  1  0.563500  0.562039  0.937230  1
  Tb  Tb15  1  0.935288  0.934670  0.565021  1
  Mg  Mg16  1  0.576676  0.277480  0.572922  1
  Cd  Cd17  1  0.257960  0.582579  0.579731  1
  Ni  Ni18  1  0.142688  0.142780  0.143349  1
  Ni  Ni19  1  0.142688  0.142780  0.571183  1
  Ni  Ni20  1  0.142260  0.573290  0.142225  1
  Ni  Ni21  1  0.572543  0.141425  0.143016  1
  Ag  Ag22  1  0.584001  0.582570  0.582488  1
  Ag  Ag23  1  0.584001  0.582570  0.250940  1
