# generated using pymatgen
data_Tb16Cd4PdRuPt2
_symmetry_space_group_name_H-M   'P 1'
_cell_length_a   9.75039066
_cell_length_b   9.75039096
_cell_length_c   9.73903101
_cell_angle_alpha   59.67670792
_cell_angle_beta   59.67671433
_cell_angle_gamma   59.71783489
_symmetry_Int_Tables_number   1
_chemical_formula_structural   Tb16Cd4PdRuPt2
_chemical_formula_sum   'Tb16 Cd4 Pd1 Ru1 Pt2'
_cell_volume   650.09926515
_cell_formula_units_Z   1
loop_
 _symmetry_equiv_pos_site_id
 _symmetry_equiv_pos_as_xyz
  1  'x, y, z'
loop_
 _atom_site_type_symbol
 _atom_site_label
 _atom_site_symmetry_multiplicity
 _atom_site_fract_x
 _atom_site_fract_y
 _atom_site_fract_z
 _atom_site_occupancy
  Tb  Tb0  1  0.352234  0.352234  0.350422  1
  Tb  Tb1  1  0.349399  0.349399  0.949133  1
  Tb  Tb2  1  0.350419  0.947962  0.348427  1
  Tb  Tb3  1  0.947962  0.350419  0.348427  1
  Tb  Tb4  1  0.814719  0.189105  0.188863  1
  Tb  Tb5  1  0.188771  0.808470  0.811057  1
  Tb  Tb6  1  0.189105  0.814719  0.188863  1
  Tb  Tb7  1  0.808470  0.188771  0.811057  1
  Tb  Tb8  1  0.188980  0.188980  0.816364  1
  Tb  Tb9  1  0.809820  0.809820  0.188562  1
  Tb  Tb10  1  0.935267  0.566742  0.565304  1
  Tb  Tb11  1  0.560796  0.936557  0.936389  1
  Tb  Tb12  1  0.566742  0.935267  0.565304  1
  Tb  Tb13  1  0.936557  0.560796  0.936389  1
  Tb  Tb14  1  0.565386  0.565386  0.935474  1
  Tb  Tb15  1  0.936058  0.936058  0.560720  1
  Cd  Cd16  1  0.580445  0.580445  0.580341  1
  Cd  Cd17  1  0.581026  0.581026  0.254334  1
  Cd  Cd18  1  0.580939  0.254380  0.581040  1
  Cd  Cd19  1  0.254380  0.580939  0.581040  1
  Pd  Pd20  1  0.143847  0.143847  0.571234  1
  Ru  Ru21  1  0.143337  0.143337  0.143092  1
  Pt  Pt22  1  0.143733  0.571610  0.144083  1
  Pt  Pt23  1  0.571610  0.143733  0.144083  1
