# generated using pymatgen
data_Tm4Lu8InFe3Hg
_symmetry_space_group_name_H-M   'P 1'
_cell_length_a   8.16358066
_cell_length_b   8.16358123
_cell_length_c   8.16358011
_cell_angle_alpha   107.54183310
_cell_angle_beta   109.09888331
_cell_angle_gamma   111.80188886
_symmetry_Int_Tables_number   1
_chemical_formula_structural   Tm4Lu8InFe3Hg
_chemical_formula_sum   'Tm4 Lu8 In1 Fe3 Hg1'
_cell_volume   418.21692098
_cell_formula_units_Z   1
loop_
 _symmetry_equiv_pos_site_id
 _symmetry_equiv_pos_as_xyz
  1  'x, y, z'
loop_
 _atom_site_type_symbol
 _atom_site_label
 _atom_site_symmetry_multiplicity
 _atom_site_fract_x
 _atom_site_fract_y
 _atom_site_fract_z
 _atom_site_occupancy
  Tm  Tm0  1  0.307710  0.308501  0.616211  1
  Tm  Tm1  1  0.692290  0.691499  0.383789  1
  Tm  Tm2  1  0.692290  0.308501  0.000791  1
  Tm  Tm3  1  0.307710  0.691499  0.999209  1
  Lu  Lu4  1  0.188747  0.420414  0.231667  1
  Lu  Lu5  1  0.811253  0.579586  0.768333  1
  Lu  Lu6  1  0.188747  0.957079  0.768333  1
  Lu  Lu7  1  0.948133  0.189081  0.759054  1
  Lu  Lu8  1  0.811253  0.042921  0.231667  1
  Lu  Lu9  1  0.051867  0.810919  0.240946  1
  Lu  Lu10  1  0.430027  0.189081  0.240946  1
  Lu  Lu11  1  0.569973  0.810919  0.759054  1
  In  In12  1  0.000000  0.500000  0.500000  1
  Fe  Fe13  1  0.382002  0.382002  0.000000  1
  Fe  Fe14  1  0.617998  0.617998  0.000000  1
  Fe  Fe15  1  0.000000  0.000000  0.000000  1
  Hg  Hg16  1  0.500000  0.000000  0.500000  1
