# generated using pymatgen
data_Li2AcTbSn2
_symmetry_space_group_name_H-M   'P 1'
_cell_length_a   4.81435600
_cell_length_b   7.91932335
_cell_length_c   8.32043512
_cell_angle_alpha   90.00727859
_cell_angle_beta   90.00000000
_cell_angle_gamma   90.00000000
_symmetry_Int_Tables_number   1
_chemical_formula_structural   Li2AcTbSn2
_chemical_formula_sum   'Li4 Ac2 Tb2 Sn4'
_cell_volume   317.22858381
_cell_formula_units_Z   2
loop_
 _symmetry_equiv_pos_site_id
 _symmetry_equiv_pos_as_xyz
  1  'x, y, z'
loop_
 _atom_site_type_symbol
 _atom_site_label
 _atom_site_symmetry_multiplicity
 _atom_site_fract_x
 _atom_site_fract_y
 _atom_site_fract_z
 _atom_site_occupancy
  Li  Li0  1  0.750000  0.191218  0.416291  1
  Li  Li1  1  0.250000  0.178087  0.917485  1
  Li  Li2  1  0.750000  0.821913  0.082515  1
  Li  Li3  1  0.250000  0.808782  0.583709  1
  Ac  Ac4  1  0.250000  0.500415  0.248160  1
  Ac  Ac5  1  0.750000  0.499585  0.751840  1
  Tb  Tb6  1  0.250000  0.000279  0.253056  1
  Tb  Tb7  1  0.750000  0.999721  0.746944  1
  Sn  Sn8  1  0.250000  0.224796  0.584334  1
  Sn  Sn9  1  0.750000  0.223028  0.083411  1
  Sn  Sn10  1  0.250000  0.776972  0.916589  1
  Sn  Sn11  1  0.750000  0.775204  0.415666  1
