# generated using pymatgen
data_Ta7Ti(GaC3)2
_symmetry_space_group_name_H-M   'P 1'
_cell_length_a   3.13431300
_cell_length_b   3.13431303
_cell_length_c   23.99231400
_cell_angle_alpha   90.00000000
_cell_angle_beta   90.00000000
_cell_angle_gamma   119.99998917
_symmetry_Int_Tables_number   1
_chemical_formula_structural   Ta7Ti(GaC3)2
_chemical_formula_sum   'Ta7 Ti1 Ga2 C6'
_cell_volume   204.12093418
_cell_formula_units_Z   1
loop_
 _symmetry_equiv_pos_site_id
 _symmetry_equiv_pos_as_xyz
  1  'x, y, z'
loop_
 _atom_site_type_symbol
 _atom_site_label
 _atom_site_symmetry_multiplicity
 _atom_site_fract_x
 _atom_site_fract_y
 _atom_site_fract_z
 _atom_site_occupancy
  Ta  Ta0  1  0.000000  0.000000  0.340416  1
  Ta  Ta1  1  0.000000  0.000000  0.659070  1
  Ta  Ta2  1  0.000000  0.000000  0.841929  1
  Ta  Ta3  1  0.000000  0.000000  0.157331  1
  Ta  Ta4  1  0.333333  0.666667  0.443573  1
  Ta  Ta5  1  0.666667  0.333333  0.555931  1
  Ta  Ta6  1  0.666667  0.333333  0.947392  1
  Ti  Ti7  1  0.333333  0.666667  0.054750  1
  Ga  Ga8  1  0.333333  0.666667  0.248132  1
  Ga  Ga9  1  0.666667  0.333333  0.750991  1
  C  C10  1  0.000000  0.000000  0.499810  1
  C  C11  1  0.000000  0.000000  0.001285  1
  C  C12  1  0.666667  0.333333  0.390285  1
  C  C13  1  0.333333  0.666667  0.609199  1
  C  C14  1  0.333333  0.666667  0.892981  1
  C  C15  1  0.666667  0.333333  0.106924  1
