# generated using pymatgen
data_Y3ErGa18NiRh5
_symmetry_space_group_name_H-M   'P 1'
_cell_length_a   7.54664211
_cell_length_b   7.54827670
_cell_length_c   9.52397140
_cell_angle_alpha   90.18764682
_cell_angle_beta   90.16998740
_cell_angle_gamma   119.93459078
_symmetry_Int_Tables_number   1
_chemical_formula_structural   Y3ErGa18NiRh5
_chemical_formula_sum   'Y3 Er1 Ga18 Ni1 Rh5'
_cell_volume   470.14053722
_cell_formula_units_Z   1
loop_
 _symmetry_equiv_pos_site_id
 _symmetry_equiv_pos_as_xyz
  1  'x, y, z'
loop_
 _atom_site_type_symbol
 _atom_site_label
 _atom_site_symmetry_multiplicity
 _atom_site_fract_x
 _atom_site_fract_y
 _atom_site_fract_z
 _atom_site_occupancy
  Y  Y0  1  0.996378  0.666129  0.249419  1
  Y  Y1  1  0.003511  0.333918  0.750607  1
  Y  Y2  1  0.666117  0.996104  0.249388  1
  Er  Er3  1  0.333944  0.003520  0.750519  1
  Ga  Ga4  1  0.121810  0.121304  0.247050  1
  Ga  Ga5  1  0.879789  0.878847  0.753509  1
  Ga  Ga6  1  0.000216  0.330112  0.076534  1
  Ga  Ga7  1  0.000793  0.671385  0.922402  1
  Ga  Ga8  1  0.000118  0.667241  0.578682  1
  Ga  Ga9  1  0.333606  0.000863  0.423052  1
  Ga  Ga10  1  0.000284  0.333045  0.422405  1
  Ga  Ga11  1  0.666257  0.000149  0.578502  1
  Ga  Ga12  1  0.668960  0.999694  0.922363  1
  Ga  Ga13  1  0.329594  0.999741  0.075630  1
  Ga  Ga14  1  0.333093  0.332112  0.567002  1
  Ga  Ga15  1  0.666967  0.666756  0.434846  1
  Ga  Ga16  1  0.670437  0.670572  0.063473  1
  Ga  Ga17  1  0.328921  0.328395  0.934321  1
  Ga  Ga18  1  0.337669  0.544762  0.248984  1
  Ga  Ga19  1  0.661719  0.454423  0.750490  1
  Ga  Ga20  1  0.544623  0.337226  0.249517  1
  Ga  Ga21  1  0.455333  0.663086  0.750977  1
  Ni  Ni22  1  0.999786  0.000426  0.999915  1
  Rh  Rh23  1  0.671235  0.328751  0.999636  1
  Rh  Rh24  1  0.328623  0.671197  0.999593  1
  Rh  Rh25  1  0.328773  0.671220  0.500340  1
  Rh  Rh26  1  0.671352  0.328890  0.500344  1
  Rh  Rh27  1  0.000092  0.000133  0.500498  1
