# generated using pymatgen
data_LiPr3Mg2Ir2Pt
_symmetry_space_group_name_H-M   'P 1'
_cell_length_a   7.46843954
_cell_length_b   7.46353892
_cell_length_c   4.12283900
_cell_angle_alpha   90.00000000
_cell_angle_beta   90.00000000
_cell_angle_gamma   119.97829380
_symmetry_Int_Tables_number   1
_chemical_formula_structural   LiPr3Mg2Ir2Pt
_chemical_formula_sum   'Li1 Pr3 Mg2 Ir2 Pt1'
_cell_volume   199.06578862
_cell_formula_units_Z   1
loop_
 _symmetry_equiv_pos_site_id
 _symmetry_equiv_pos_as_xyz
  1  'x, y, z'
loop_
 _atom_site_type_symbol
 _atom_site_label
 _atom_site_symmetry_multiplicity
 _atom_site_fract_x
 _atom_site_fract_y
 _atom_site_fract_z
 _atom_site_occupancy
  Li  Li0  1  0.000000  0.235721  0.500000  1
  Pr  Pr1  1  0.409861  0.415315  0.000000  1
  Pr  Pr2  1  0.590139  0.005454  0.000000  1
  Pr  Pr3  1  0.000000  0.574641  0.000000  1
  Mg  Mg4  1  0.760161  0.759068  0.500000  1
  Mg  Mg5  1  0.239839  0.998907  0.500000  1
  Ir  Ir6  1  0.659361  0.338091  0.500000  1
  Ir  Ir7  1  0.340639  0.678731  0.500000  1
  Pt  Pt8  1  0.000000  0.994072  0.000000  1
