# generated using pymatgen
data_TmTh9(Ga2Ru3)2
_symmetry_space_group_name_H-M   'P 1'
_cell_length_a   8.54602126
_cell_length_b   8.54874265
_cell_length_c   8.54602100
_cell_angle_alpha   109.47766216
_cell_angle_beta   109.46476566
_cell_angle_gamma   109.47767753
_symmetry_Int_Tables_number   1
_chemical_formula_structural   TmTh9(Ga2Ru3)2
_chemical_formula_sum   'Tm1 Th9 Ga4 Ru6'
_cell_volume   480.58889553
_cell_formula_units_Z   1
loop_
 _symmetry_equiv_pos_site_id
 _symmetry_equiv_pos_as_xyz
  1  'x, y, z'
loop_
 _atom_site_type_symbol
 _atom_site_label
 _atom_site_symmetry_multiplicity
 _atom_site_fract_x
 _atom_site_fract_y
 _atom_site_fract_z
 _atom_site_occupancy
  Tm  Tm0  1  0.000000  0.221659  0.000000  1
  Th  Th1  1  0.750527  0.444256  0.195035  1
  Th  Th2  1  0.444508  0.693732  0.249473  1
  Th  Th3  1  0.248850  0.056433  0.302459  1
  Th  Th4  1  0.214232  0.495957  0.495655  1
  Th  Th5  1  0.804965  0.249222  0.555492  1
  Th  Th6  1  0.504346  0.000302  0.718578  1
  Th  Th7  1  0.053607  0.807582  0.751150  1
  Th  Th8  1  0.281422  0.281724  0.785769  1
  Th  Th9  1  0.697543  0.753975  0.946393  1
  Ga  Ga10  1  0.000000  0.596177  0.000000  1
  Ga  Ga11  1  0.500924  0.000774  0.102595  1
  Ga  Ga12  1  0.897405  0.898179  0.398330  1
  Ga  Ga13  1  0.601670  0.499850  0.499076  1
  Ru  Ru14  1  0.370411  0.249103  0.117858  1
  Ru  Ru15  1  0.882143  0.131246  0.252552  1
  Ru  Ru16  1  0.130881  0.750974  0.380902  1
  Ru  Ru17  1  0.747447  0.878692  0.629590  1
  Ru  Ru18  1  0.619097  0.370072  0.749978  1
  Ru  Ru19  1  0.250022  0.620092  0.869120  1
