# generated using pymatgen
data_Sr(ZrS2)4
_symmetry_space_group_name_H-M   'P 1'
_cell_length_a   8.38025659
_cell_length_b   8.38025670
_cell_length_c   8.38025726
_cell_angle_alpha   51.61771670
_cell_angle_beta   51.61771527
_cell_angle_gamma   51.61771079
_symmetry_Int_Tables_number   1
_chemical_formula_structural   Sr(ZrS2)4
_chemical_formula_sum   'Sr1 Zr4 S8'
_cell_volume   334.05579773
_cell_formula_units_Z   1
loop_
 _symmetry_equiv_pos_site_id
 _symmetry_equiv_pos_as_xyz
  1  'x, y, z'
loop_
 _atom_site_type_symbol
 _atom_site_label
 _atom_site_symmetry_multiplicity
 _atom_site_fract_x
 _atom_site_fract_y
 _atom_site_fract_z
 _atom_site_occupancy
  Sr  Sr0  1  0.500000  0.500000  0.500000  1
  Zr  Zr1  1  0.000000  0.500000  0.500000  1
  Zr  Zr2  1  0.500000  0.000000  0.500000  1
  Zr  Zr3  1  0.500000  0.500000  0.000000  1
  Zr  Zr4  1  0.000000  0.000000  0.000000  1
  S  S5  1  0.259934  0.764158  0.764158  1
  S  S6  1  0.235842  0.235842  0.740066  1
  S  S7  1  0.740066  0.235842  0.235842  1
  S  S8  1  0.235842  0.740066  0.235842  1
  S  S9  1  0.264937  0.264937  0.264937  1
  S  S10  1  0.735063  0.735063  0.735063  1
  S  S11  1  0.764158  0.259934  0.764158  1
  S  S12  1  0.764158  0.764158  0.259934  1
