# generated using pymatgen
data_Tb7Ho3Co3Ru
_symmetry_space_group_name_H-M   'P 1'
_cell_length_a   6.29632188
_cell_length_b   6.99503629
_cell_length_c   8.58453631
_cell_angle_alpha   96.35922284
_cell_angle_beta   111.91595291
_cell_angle_gamma   89.96572324
_symmetry_Int_Tables_number   1
_chemical_formula_structural   Tb7Ho3Co3Ru
_chemical_formula_sum   'Tb7 Ho3 Co3 Ru1'
_cell_volume   348.26637708
_cell_formula_units_Z   1
loop_
 _symmetry_equiv_pos_site_id
 _symmetry_equiv_pos_as_xyz
  1  'x, y, z'
loop_
 _atom_site_type_symbol
 _atom_site_label
 _atom_site_symmetry_multiplicity
 _atom_site_fract_x
 _atom_site_fract_y
 _atom_site_fract_z
 _atom_site_occupancy
  Tb  Tb0  1  0.974875  0.913217  0.188970  1
  Tb  Tb1  1  0.796964  0.587453  0.811075  1
  Tb  Tb2  1  0.016123  0.088754  0.815278  1
  Tb  Tb3  1  0.202285  0.419029  0.189747  1
  Tb  Tb4  1  0.649546  0.809304  0.433881  1
  Tb  Tb5  1  0.215910  0.685516  0.569667  1
  Tb  Tb6  1  0.356865  0.185367  0.567783  1
  Ho  Ho7  1  0.789656  0.316633  0.431879  1
  Ho  Ho8  1  0.427260  0.745055  0.997199  1
  Ho  Ho9  1  0.572178  0.253377  0.998333  1
  Co  Co10  1  0.820486  0.572995  0.223037  1
  Co  Co11  1  0.602986  0.927181  0.782470  1
  Co  Co12  1  0.175721  0.426666  0.773264  1
  Ru  Ru13  1  0.399146  0.069451  0.217415  1
