# generated using pymatgen
data_Ca9Ce(Sn3H)2
_symmetry_space_group_name_H-M   'P 1'
_cell_length_a   9.42034677
_cell_length_b   9.42034716
_cell_length_c   9.40625022
_cell_angle_alpha   128.69999604
_cell_angle_beta   128.69999519
_cell_angle_gamma   75.44135466
_symmetry_Int_Tables_number   1
_chemical_formula_structural   Ca9Ce(Sn3H)2
_chemical_formula_sum   'Ca9 Ce1 Sn6 H2'
_cell_volume   494.88930983
_cell_formula_units_Z   1
loop_
 _symmetry_equiv_pos_site_id
 _symmetry_equiv_pos_as_xyz
  1  'x, y, z'
loop_
 _atom_site_type_symbol
 _atom_site_label
 _atom_site_symmetry_multiplicity
 _atom_site_fract_x
 _atom_site_fract_y
 _atom_site_fract_z
 _atom_site_occupancy
  Ca  Ca0  1  0.498905  0.502468  0.000415  1
  Ca  Ca1  1  0.002468  0.998905  0.000415  1
  Ca  Ca2  1  0.184887  0.684887  0.172729  1
  Ca  Ca3  1  0.009718  0.187836  0.500888  1
  Ca  Ca4  1  0.687836  0.509718  0.500888  1
  Ca  Ca5  1  0.489315  0.989315  0.178036  1
  Ca  Ca6  1  0.812760  0.312760  0.823467  1
  Ca  Ca7  1  0.987992  0.810946  0.497532  1
  Ca  Ca8  1  0.310946  0.487992  0.497532  1
  Ce  Ce9  1  0.517858  0.017858  0.832611  1
  Sn  Sn10  1  0.254260  0.245796  0.994432  1
  Sn  Sn11  1  0.745796  0.754260  0.994432  1
  Sn  Sn12  1  0.868215  0.368215  0.241020  1
  Sn  Sn13  1  0.127538  0.627538  0.754306  1
  Sn  Sn14  1  0.371981  0.127198  0.503812  1
  Sn  Sn15  1  0.627198  0.871981  0.503812  1
  H  H16  1  0.252553  0.752553  0.502504  1
  H  H17  1  0.749773  0.249773  0.501170  1
