# generated using pymatgen
data_NdY5MgCo17P12
_symmetry_space_group_name_H-M   'P 1'
_cell_length_a   3.72507900
_cell_length_b   10.58944200
_cell_length_c   12.26632400
_cell_angle_alpha   90.00000000
_cell_angle_beta   90.00000000
_cell_angle_gamma   90.00000000
_symmetry_Int_Tables_number   1
_chemical_formula_structural   NdY5MgCo17P12
_chemical_formula_sum   'Nd1 Y5 Mg1 Co17 P12'
_cell_volume   483.86364799
_cell_formula_units_Z   1
loop_
 _symmetry_equiv_pos_site_id
 _symmetry_equiv_pos_as_xyz
  1  'x, y, z'
loop_
 _atom_site_type_symbol
 _atom_site_label
 _atom_site_symmetry_multiplicity
 _atom_site_fract_x
 _atom_site_fract_y
 _atom_site_fract_z
 _atom_site_occupancy
  Nd  Nd0  1  0.500000  0.000000  0.477636  1
  Y  Y1  1  0.000000  0.500000  0.524841  1
  Y  Y2  1  0.500000  0.820879  0.206439  1
  Y  Y3  1  0.500000  0.179121  0.206439  1
  Y  Y4  1  0.000000  0.682418  0.794822  1
  Y  Y5  1  0.000000  0.317582  0.794822  1
  Mg  Mg6  1  0.500000  0.500000  0.152997  1
  Co  Co7  1  0.000000  0.000000  0.840841  1
  Co  Co8  1  0.500000  0.500000  0.704908  1
  Co  Co9  1  0.000000  0.000000  0.293759  1
  Co  Co10  1  0.000000  0.500000  0.986037  1
  Co  Co11  1  0.500000  0.000000  0.011504  1
  Co  Co12  1  0.500000  0.329474  0.993099  1
  Co  Co13  1  0.500000  0.670526  0.993099  1
  Co  Co14  1  0.000000  0.163521  0.001743  1
  Co  Co15  1  0.000000  0.836479  0.001743  1
  Co  Co16  1  0.500000  0.297953  0.432549  1
  Co  Co17  1  0.500000  0.702047  0.432549  1
  Co  Co18  1  0.000000  0.205035  0.571179  1
  Co  Co19  1  0.000000  0.794965  0.571179  1
  Co  Co20  1  0.500000  0.879786  0.710195  1
  Co  Co21  1  0.500000  0.120214  0.710195  1
  Co  Co22  1  0.000000  0.621822  0.292224  1
  Co  Co23  1  0.000000  0.378178  0.292224  1
  P  P24  1  0.500000  0.500000  0.883647  1
  P  P25  1  0.000000  0.000000  0.115216  1
  P  P26  1  0.500000  0.500000  0.353271  1
  P  P27  1  0.000000  0.000000  0.659072  1
  P  P28  1  0.500000  0.309910  0.617386  1
  P  P29  1  0.500000  0.690090  0.617386  1
  P  P30  1  0.000000  0.192974  0.384838  1
  P  P31  1  0.000000  0.807026  0.384838  1
  P  P32  1  0.500000  0.849067  0.890874  1
  P  P33  1  0.500000  0.150933  0.890874  1
  P  P34  1  0.000000  0.662348  0.102787  1
  P  P35  1  0.000000  0.337652  0.102787  1
