# generated using pymatgen
data_Nd8Y3ErIn20
_symmetry_space_group_name_H-M   'P 1'
_cell_length_a   6.67453293
_cell_length_b   10.54934300
_cell_length_c   12.46063933
_cell_angle_alpha   90.00000000
_cell_angle_beta   89.98299363
_cell_angle_gamma   90.00000000
_symmetry_Int_Tables_number   1
_chemical_formula_structural   Nd8Y3ErIn20
_chemical_formula_sum   'Nd8 Y3 Er1 In20'
_cell_volume   877.37771641
_cell_formula_units_Z   1
loop_
 _symmetry_equiv_pos_site_id
 _symmetry_equiv_pos_as_xyz
  1  'x, y, z'
loop_
 _atom_site_type_symbol
 _atom_site_label
 _atom_site_symmetry_multiplicity
 _atom_site_fract_x
 _atom_site_fract_y
 _atom_site_fract_z
 _atom_site_occupancy
  Nd  Nd0  1  0.888387  0.490487  0.143791  1
  Nd  Nd1  1  0.612163  0.011026  0.643366  1
  Nd  Nd2  1  0.110896  0.990206  0.856103  1
  Nd  Nd3  1  0.389448  0.509608  0.356210  1
  Nd  Nd4  1  0.110896  0.509794  0.856103  1
  Nd  Nd5  1  0.389448  0.990392  0.356210  1
  Nd  Nd6  1  0.888387  0.009513  0.143791  1
  Nd  Nd7  1  0.612163  0.488974  0.643366  1
  Y  Y8  1  0.150348  0.750000  0.558991  1
  Y  Y9  1  0.649265  0.250000  0.940255  1
  Y  Y10  1  0.850364  0.250000  0.440896  1
  Er  Er11  1  0.348912  0.750000  0.060110  1
  In  In12  1  0.617404  0.750000  0.505123  1
  In  In13  1  0.879923  0.750000  0.002951  1
  In  In14  1  0.383991  0.250000  0.496539  1
  In  In15  1  0.113816  0.250000  0.996423  1
  In  In16  1  0.656548  0.750000  0.244574  1
  In  In17  1  0.846157  0.750000  0.743608  1
  In  In18  1  0.346062  0.250000  0.755351  1
  In  In19  1  0.153822  0.250000  0.255903  1
  In  In20  1  0.112887  0.750000  0.285749  1
  In  In21  1  0.388971  0.750000  0.783372  1
  In  In22  1  0.890026  0.250000  0.715840  1
  In  In23  1  0.612407  0.250000  0.216556  1
  In  In24  1  0.874109  0.544826  0.404474  1
  In  In25  1  0.624026  0.955398  0.902976  1
  In  In26  1  0.126830  0.045248  0.595944  1
  In  In27  1  0.373689  0.453771  0.096015  1
  In  In28  1  0.126830  0.454752  0.595944  1
  In  In29  1  0.373689  0.046229  0.096015  1
  In  In30  1  0.874109  0.955174  0.404474  1
  In  In31  1  0.624026  0.544602  0.902976  1
