# generated using pymatgen
data_LaTbPdSe3
_symmetry_space_group_name_H-M   'P 1'
_cell_length_a   7.08996723
_cell_length_b   7.08983137
_cell_length_c   10.32380001
_cell_angle_alpha   89.99263052
_cell_angle_beta   90.00853130
_cell_angle_gamma   146.35730063
_symmetry_Int_Tables_number   1
_chemical_formula_structural   LaTbPdSe3
_chemical_formula_sum   'La2 Tb2 Pd2 Se6'
_cell_volume   287.50074999
_cell_formula_units_Z   2
loop_
 _symmetry_equiv_pos_site_id
 _symmetry_equiv_pos_as_xyz
  1  'x, y, z'
loop_
 _atom_site_type_symbol
 _atom_site_label
 _atom_site_symmetry_multiplicity
 _atom_site_fract_x
 _atom_site_fract_y
 _atom_site_fract_z
 _atom_site_occupancy
  La  La0  1  0.755034  0.244995  0.249999  1
  La  La1  1  0.244976  0.755006  0.750013  1
  Tb  Tb2  1  0.999998  0.999994  0.999996  1
  Tb  Tb3  1  0.000004  0.000003  0.499997  1
  Pd  Pd4  1  0.474223  0.525793  0.250012  1
  Pd  Pd5  1  0.525803  0.474227  0.749989  1
  Se  Se6  1  0.350985  0.649023  0.059796  1
  Se  Se7  1  0.094705  0.905262  0.250018  1
  Se  Se8  1  0.350946  0.649013  0.440140  1
  Se  Se9  1  0.649034  0.350983  0.559858  1
  Se  Se10  1  0.905275  0.094711  0.749979  1
  Se  Se11  1  0.649022  0.350994  0.940202  1
