# generated using pymatgen
data_Hf3Co4Si2MoP2
_symmetry_space_group_name_H-M   'P 1'
_cell_length_a   3.67998300
_cell_length_b   6.25190714
_cell_length_c   7.07929983
_cell_angle_alpha   89.46398711
_cell_angle_beta   90.00000000
_cell_angle_gamma   90.00000000
_symmetry_Int_Tables_number   1
_chemical_formula_structural   Hf3Co4Si2MoP2
_chemical_formula_sum   'Hf3 Co4 Si2 Mo1 P2'
_cell_volume   162.86570103
_cell_formula_units_Z   1
loop_
 _symmetry_equiv_pos_site_id
 _symmetry_equiv_pos_as_xyz
  1  'x, y, z'
loop_
 _atom_site_type_symbol
 _atom_site_label
 _atom_site_symmetry_multiplicity
 _atom_site_fract_x
 _atom_site_fract_y
 _atom_site_fract_z
 _atom_site_occupancy
  Hf  Hf0  1  0.250000  0.520062  0.185421  1
  Hf  Hf1  1  0.750000  0.984646  0.681435  1
  Hf  Hf2  1  0.750000  0.477656  0.816911  1
  Co  Co3  1  0.250000  0.138023  0.931648  1
  Co  Co4  1  0.250000  0.643589  0.567912  1
  Co  Co5  1  0.750000  0.851368  0.056640  1
  Co  Co6  1  0.750000  0.361726  0.441926  1
  Si  Si7  1  0.750000  0.735718  0.380305  1
  Si  Si8  1  0.750000  0.212167  0.124324  1
  Mo  Mo9  1  0.250000  0.024631  0.324248  1
  P  P10  1  0.250000  0.276067  0.604082  1
  P  P11  1  0.250000  0.774347  0.885146  1
