# generated using pymatgen
data_Ca12Ti12Cr5In3O48
_symmetry_space_group_name_H-M   'P 1'
_cell_length_a   10.99721228
_cell_length_b   11.01337561
_cell_length_c   11.02259020
_cell_angle_alpha   109.50580047
_cell_angle_beta   109.41637051
_cell_angle_gamma   109.41831017
_symmetry_Int_Tables_number   1
_chemical_formula_structural   Ca12Ti12Cr5In3O48
_chemical_formula_sum   'Ca12 Ti12 Cr5 In3 O48'
_cell_volume   1028.62289079
_cell_formula_units_Z   1
loop_
 _symmetry_equiv_pos_site_id
 _symmetry_equiv_pos_as_xyz
  1  'x, y, z'
loop_
 _atom_site_type_symbol
 _atom_site_label
 _atom_site_symmetry_multiplicity
 _atom_site_fract_x
 _atom_site_fract_y
 _atom_site_fract_z
 _atom_site_occupancy
  Ca  Ca0  1  0.246619  0.375333  0.120314  1
  Ca  Ca1  1  0.753381  0.624667  0.879686  1
  Ca  Ca2  1  0.748608  0.129098  0.368800  1
  Ca  Ca3  1  0.123230  0.248081  0.371595  1
  Ca  Ca4  1  0.374791  0.747660  0.120355  1
  Ca  Ca5  1  0.251392  0.870902  0.631200  1
  Ca  Ca6  1  0.876770  0.751919  0.628405  1
  Ca  Ca7  1  0.625209  0.252340  0.879645  1
  Ca  Ca8  1  0.370378  0.121694  0.241402  1
  Ca  Ca9  1  0.629622  0.878306  0.758598  1
  Ca  Ca10  1  0.122842  0.378101  0.749994  1
  Ca  Ca11  1  0.877158  0.621899  0.250006  1
  Ti  Ti12  1  0.240489  0.619907  0.371160  1
  Ti  Ti13  1  0.759511  0.380093  0.628840  1
  Ti  Ti14  1  0.746506  0.874752  0.119471  1
  Ti  Ti15  1  0.375359  0.254453  0.630951  1
  Ti  Ti16  1  0.624641  0.745547  0.369049  1
  Ti  Ti17  1  0.253494  0.125248  0.880529  1
  Ti  Ti18  1  0.124667  0.749606  0.874255  1
  Ti  Ti19  1  0.875333  0.250394  0.125745  1
  Ti  Ti20  1  0.625395  0.370898  0.244427  1
  Ti  Ti21  1  0.374605  0.629102  0.755573  1
  Ti  Ti22  1  0.878993  0.130200  0.760237  1
  Ti  Ti23  1  0.121007  0.869800  0.239763  1
  Cr  Cr24  1  0.000000  0.000000  0.000000  1
  Cr  Cr25  1  0.000000  0.500000  0.500000  1
  Cr  Cr26  1  0.500000  0.000000  0.000000  1
  Cr  Cr27  1  0.500000  0.500000  0.000000  1
  Cr  Cr28  1  0.000000  0.500000  0.000000  1
  In  In29  1  0.500000  0.000000  0.500000  1
  In  In30  1  0.500000  0.500000  0.500000  1
  In  In31  1  0.000000  0.000000  0.500000  1
  O  O32  1  0.479731  0.375181  0.288025  1
  O  O33  1  0.520269  0.624819  0.711975  1
  O  O34  1  0.582038  0.179226  0.197620  1
  O  O35  1  0.911619  0.123992  0.606736  1
  O  O36  1  0.283359  0.472206  0.370071  1
  O  O37  1  0.312002  0.913576  0.284092  1
  O  O38  1  0.417962  0.820774  0.802380  1
  O  O39  1  0.088381  0.876008  0.393264  1
  O  O40  1  0.716641  0.527794  0.629929  1
  O  O41  1  0.687998  0.086424  0.715908  1
  O  O42  1  0.024577  0.322812  0.906193  1
  O  O43  1  0.197810  0.585469  0.182986  1
  O  O44  1  0.113939  0.015823  0.197277  1
  O  O45  1  0.975423  0.677188  0.093807  1
  O  O46  1  0.802190  0.414531  0.817014  1
  O  O47  1  0.886061  0.984177  0.802723  1
  O  O48  1  0.596573  0.915541  0.111911  1
  O  O49  1  0.185135  0.489507  0.602851  1
  O  O50  1  0.403427  0.084459  0.888089  1
  O  O51  1  0.814865  0.510493  0.397149  1
  O  O52  1  0.894810  0.022288  0.309424  1
  O  O53  1  0.379030  0.580330  0.901095  1
  O  O54  1  0.105190  0.977712  0.690576  1
  O  O55  1  0.620970  0.419670  0.098905  1
  O  O56  1  0.376368  0.286749  0.478414  1
  O  O57  1  0.588267  0.896892  0.371431  1
  O  O58  1  0.623632  0.713251  0.521586  1
  O  O59  1  0.411733  0.103108  0.628569  1
  O  O60  1  0.116447  0.601087  0.918614  1
  O  O61  1  0.012779  0.195535  0.114427  1
  O  O62  1  0.883553  0.398913  0.081386  1
  O  O63  1  0.987221  0.804465  0.885573  1
  O  O64  1  0.317049  0.898187  0.013231  1
  O  O65  1  0.921089  0.303229  0.318813  1
  O  O66  1  0.682951  0.101813  0.986769  1
  O  O67  1  0.078911  0.696771  0.681187  1
  O  O68  1  0.186324  0.216339  0.589342  1
  O  O69  1  0.477653  0.594801  0.179262  1
  O  O70  1  0.813676  0.783661  0.410658  1
  O  O71  1  0.522347  0.405199  0.820738  1
  O  O72  1  0.302883  0.315491  0.917869  1
  O  O73  1  0.697117  0.684509  0.082131  1
  O  O74  1  0.200008  0.119807  0.020698  1
  O  O75  1  0.799992  0.880193  0.979302  1
  O  O76  1  0.906081  0.383027  0.583080  1
  O  O77  1  0.093919  0.616973  0.416920  1
  O  O78  1  0.606562  0.192971  0.480482  1
  O  O79  1  0.393438  0.807029  0.519518  1
