# generated using pymatgen
data_La4In2BiSbO14
_symmetry_space_group_name_H-M   'P 1'
_cell_length_a   7.75107357
_cell_length_b   7.75107377
_cell_length_c   7.82105350
_cell_angle_alpha   59.42341646
_cell_angle_beta   59.42341287
_cell_angle_gamma   59.23288791
_symmetry_Int_Tables_number   1
_chemical_formula_structural   La4In2BiSbO14
_chemical_formula_sum   'La4 In2 Bi1 Sb1 O14'
_cell_volume   327.41351910
_cell_formula_units_Z   1
loop_
 _symmetry_equiv_pos_site_id
 _symmetry_equiv_pos_as_xyz
  1  'x, y, z'
loop_
 _atom_site_type_symbol
 _atom_site_label
 _atom_site_symmetry_multiplicity
 _atom_site_fract_x
 _atom_site_fract_y
 _atom_site_fract_z
 _atom_site_occupancy
  La  La0  1  0.625000  0.125000  0.125000  1
  La  La1  1  0.125000  0.125000  0.125000  1
  La  La2  1  0.125000  0.625000  0.125000  1
  La  La3  1  0.125000  0.125000  0.625000  1
  In  In4  1  0.625000  0.125000  0.625000  1
  In  In5  1  0.125000  0.625000  0.625000  1
  Bi  Bi6  1  0.625000  0.625000  0.125000  1
  Sb  Sb7  1  0.625000  0.625000  0.625000  1
  O  O8  1  0.705085  0.289135  0.279725  1
  O  O9  1  0.698676  0.698676  0.309355  1
  O  O10  1  0.289135  0.705085  0.279725  1
  O  O11  1  0.997809  0.997809  0.001336  1
  O  O12  1  0.698559  0.308720  0.711051  1
  O  O13  1  0.941280  0.551441  0.538949  1
  O  O14  1  0.308720  0.698559  0.711051  1
  O  O15  1  0.551441  0.941280  0.538949  1
  O  O16  1  0.252191  0.252191  0.248664  1
  O  O17  1  0.960865  0.544915  0.970275  1
  O  O18  1  0.551324  0.551324  0.940645  1
  O  O19  1  0.971011  0.971011  0.532473  1
  O  O20  1  0.544915  0.960865  0.970275  1
  O  O21  1  0.278989  0.278989  0.717527  1
