# generated using pymatgen
data_Yb2Co5GeO12
_symmetry_space_group_name_H-M   'P 1'
_cell_length_a   4.94896434
_cell_length_b   5.59147212
_cell_length_c   8.48727300
_cell_angle_alpha   89.99951382
_cell_angle_beta   89.99906509
_cell_angle_gamma   73.90341102
_symmetry_Int_Tables_number   1
_chemical_formula_structural   Yb2Co5GeO12
_chemical_formula_sum   'Yb2 Co5 Ge1 O12'
_cell_volume   225.65226287
_cell_formula_units_Z   1
loop_
 _symmetry_equiv_pos_site_id
 _symmetry_equiv_pos_as_xyz
  1  'x, y, z'
loop_
 _atom_site_type_symbol
 _atom_site_label
 _atom_site_symmetry_multiplicity
 _atom_site_fract_x
 _atom_site_fract_y
 _atom_site_fract_z
 _atom_site_occupancy
  Yb  Yb0  1  0.000000  0.500000  0.167067  1
  Yb  Yb1  1  0.500000  0.500000  0.667019  1
  Co  Co2  1  0.499996  0.000001  0.832592  1
  Co  Co3  1  0.500005  0.999999  0.500567  1
  Co  Co4  1  0.000000  0.000000  0.666645  1
  Co  Co5  1  0.999998  0.999999  0.335559  1
  Co  Co6  1  0.000002  0.000001  0.997682  1
  Ge  Ge7  1  0.500000  0.000000  0.166542  1
  O  O8  1  0.776749  0.187502  0.166645  1
  O  O9  1  0.275321  0.184719  0.666615  1
  O  O10  1  0.223252  0.812498  0.166646  1
  O  O11  1  0.724679  0.815282  0.666610  1
  O  O12  1  0.272626  0.189362  0.001852  1
  O  O13  1  0.773947  0.185311  0.504732  1
  O  O14  1  0.272766  0.188972  0.331423  1
  O  O15  1  0.774173  0.184883  0.828562  1
  O  O16  1  0.727233  0.811027  0.331424  1
  O  O17  1  0.225841  0.815111  0.828564  1
  O  O18  1  0.727374  0.810639  0.001853  1
  O  O19  1  0.226039  0.814695  0.504735  1
