# generated using pymatgen
data_Tm4HfSc3Pt4
_symmetry_space_group_name_H-M   'P 1'
_cell_length_a   4.61641900
_cell_length_b   6.93207115
_cell_length_c   8.32816302
_cell_angle_alpha   89.36444442
_cell_angle_beta   90.00000000
_cell_angle_gamma   90.00000000
_symmetry_Int_Tables_number   1
_chemical_formula_structural   Tm4HfSc3Pt4
_chemical_formula_sum   'Tm4 Hf1 Sc3 Pt4'
_cell_volume   266.49602122
_cell_formula_units_Z   1
loop_
 _symmetry_equiv_pos_site_id
 _symmetry_equiv_pos_as_xyz
  1  'x, y, z'
loop_
 _atom_site_type_symbol
 _atom_site_label
 _atom_site_symmetry_multiplicity
 _atom_site_fract_x
 _atom_site_fract_y
 _atom_site_fract_z
 _atom_site_occupancy
  Tm  Tm0  1  0.250000  0.982601  0.324019  1
  Tm  Tm1  1  0.250000  0.483373  0.178240  1
  Tm  Tm2  1  0.750000  0.016879  0.673435  1
  Tm  Tm3  1  0.750000  0.519216  0.823736  1
  Hf  Hf4  1  0.750000  0.141854  0.072454  1
  Sc  Sc5  1  0.250000  0.355334  0.574918  1
  Sc  Sc6  1  0.250000  0.857819  0.924543  1
  Sc  Sc7  1  0.750000  0.640255  0.427674  1
  Pt  Pt8  1  0.250000  0.243524  0.909116  1
  Pt  Pt9  1  0.250000  0.744681  0.599558  1
  Pt  Pt10  1  0.750000  0.760455  0.098047  1
  Pt  Pt11  1  0.750000  0.254009  0.394260  1
