# generated using pymatgen
data_Ca10Re3WN14
_symmetry_space_group_name_H-M   'P 1'
_cell_length_a   6.13372878
_cell_length_b   9.08174295
_cell_length_c   8.99126860
_cell_angle_alpha   115.96563911
_cell_angle_beta   96.76995993
_cell_angle_gamma   88.97841592
_symmetry_Int_Tables_number   1
_chemical_formula_structural   Ca10Re3WN14
_chemical_formula_sum   'Ca10 Re3 W1 N14'
_cell_volume   446.83990926
_cell_formula_units_Z   1
loop_
 _symmetry_equiv_pos_site_id
 _symmetry_equiv_pos_as_xyz
  1  'x, y, z'
loop_
 _atom_site_type_symbol
 _atom_site_label
 _atom_site_symmetry_multiplicity
 _atom_site_fract_x
 _atom_site_fract_y
 _atom_site_fract_z
 _atom_site_occupancy
  Ca  Ca0  1  0.830647  0.610844  0.319947  1
  Ca  Ca1  1  0.260328  0.979064  0.544172  1
  Ca  Ca2  1  0.703929  0.418124  0.857345  1
  Ca  Ca3  1  0.295718  0.580594  0.141232  1
  Ca  Ca4  1  0.394711  0.789232  0.918842  1
  Ca  Ca5  1  0.602513  0.207448  0.081200  1
  Ca  Ca6  1  0.166037  0.392286  0.680771  1
  Ca  Ca7  1  0.888981  0.856717  0.750701  1
  Ca  Ca8  1  0.108961  0.141381  0.250431  1
  Ca  Ca9  1  0.741987  0.020383  0.455571  1
  Re  Re10  1  0.582769  0.350507  0.474403  1
  Re  Re11  1  0.416354  0.649116  0.524914  1
  Re  Re12  1  0.125788  0.216411  0.926620  1
  W  W13  1  0.874860  0.784195  0.073884  1
  N  N14  1  0.494755  0.542130  0.673784  1
  N  N15  1  0.505652  0.456533  0.324437  1
  N  N16  1  0.136590  0.723612  0.547780  1
  N  N17  1  0.864267  0.277597  0.454023  1
  N  N18  1  0.413280  0.181290  0.475341  1
  N  N19  1  0.588680  0.819334  0.526005  1
  N  N20  1  0.957864  0.131524  0.720311  1
  N  N21  1  0.042696  0.875676  0.284604  1
  N  N22  1  0.238167  0.054029  0.981122  1
  N  N23  1  0.759701  0.949146  0.018148  1
  N  N24  1  0.369414  0.323498  0.907587  1
  N  N25  1  0.962610  0.362443  0.088134  1
  N  N26  1  0.043482  0.636331  0.909313  1
  N  N27  1  0.629258  0.670557  0.089379  1
