# generated using pymatgen
data_Ag6Ge2PtF18
_symmetry_space_group_name_H-M   'P 1'
_cell_length_a   9.73404500
_cell_length_b   9.73404503
_cell_length_c   5.23423700
_cell_angle_alpha   90.00000000
_cell_angle_beta   90.00000000
_cell_angle_gamma   120.00000329
_symmetry_Int_Tables_number   1
_chemical_formula_structural   Ag6Ge2PtF18
_chemical_formula_sum   'Ag6 Ge2 Pt1 F18'
_cell_volume   429.50744982
_cell_formula_units_Z   1
loop_
 _symmetry_equiv_pos_site_id
 _symmetry_equiv_pos_as_xyz
  1  'x, y, z'
loop_
 _atom_site_type_symbol
 _atom_site_label
 _atom_site_symmetry_multiplicity
 _atom_site_fract_x
 _atom_site_fract_y
 _atom_site_fract_z
 _atom_site_occupancy
  Ag  Ag0  1  0.003330  0.630149  0.499895  1
  Ag  Ag1  1  0.626819  0.996670  0.499895  1
  Ag  Ag2  1  0.369851  0.373181  0.499895  1
  Ag  Ag3  1  0.289139  0.996463  0.999687  1
  Ag  Ag4  1  0.707324  0.710861  0.999687  1
  Ag  Ag5  1  0.003537  0.292676  0.999687  1
  Ge  Ge6  1  0.000000  0.000000  0.500829  1
  Ge  Ge7  1  0.333333  0.666667  0.002587  1
  Pt  Pt8  1  0.666667  0.333333  0.997554  1
  F  F9  1  0.080300  0.901564  0.301017  1
  F  F10  1  0.821263  0.919700  0.301017  1
  F  F11  1  0.098436  0.178737  0.301017  1
  F  F12  1  0.919619  0.821314  0.699729  1
  F  F13  1  0.901696  0.080381  0.699729  1
  F  F14  1  0.178686  0.098304  0.699729  1
  F  F15  1  0.229933  0.740722  0.799901  1
  F  F16  1  0.510788  0.770067  0.799901  1
  F  F17  1  0.259278  0.489212  0.799901  1
  F  F18  1  0.779210  0.527081  0.211612  1
  F  F19  1  0.747872  0.220790  0.211612  1
  F  F20  1  0.472919  0.252128  0.211612  1
  F  F21  1  0.404824  0.843604  0.205224  1
  F  F22  1  0.438781  0.595176  0.205224  1
  F  F23  1  0.156396  0.561219  0.205224  1
  F  F24  1  0.590514  0.449943  0.782611  1
  F  F25  1  0.859429  0.409486  0.782611  1
  F  F26  1  0.550057  0.140571  0.782611  1
