# generated using pymatgen
data_LuAlSi2Rh
_symmetry_space_group_name_H-M   'P 1'
_cell_length_a   6.02422712
_cell_length_b   6.02422747
_cell_length_c   6.02422698
_cell_angle_alpha   142.28927914
_cell_angle_beta   142.28928340
_cell_angle_gamma   54.39328122
_symmetry_Int_Tables_number   1
_chemical_formula_structural   LuAlSi2Rh
_chemical_formula_sum   'Lu1 Al1 Si2 Rh1'
_cell_volume   81.24033669
_cell_formula_units_Z   1
loop_
 _symmetry_equiv_pos_site_id
 _symmetry_equiv_pos_as_xyz
  1  'x, y, z'
loop_
 _atom_site_type_symbol
 _atom_site_label
 _atom_site_symmetry_multiplicity
 _atom_site_fract_x
 _atom_site_fract_y
 _atom_site_fract_z
 _atom_site_occupancy
  Lu  Lu0  1  0.000000  0.000000  0.000000  1
  Al  Al1  1  0.750000  0.250000  0.500000  1
  Si  Si2  1  0.607971  0.607971  0.000000  1
  Si  Si3  1  0.392029  0.392029  0.000000  1
  Rh  Rh4  1  0.250000  0.750000  0.500000  1
