# generated using pymatgen
data_Yb7ErCu(Si4Pt)3
_symmetry_space_group_name_H-M   'P 1'
_cell_length_a   8.17544500
_cell_length_b   8.17544520
_cell_length_c   8.26182600
_cell_angle_alpha   90.00000000
_cell_angle_beta   90.00000000
_cell_angle_gamma   120.00000324
_symmetry_Int_Tables_number   1
_chemical_formula_structural   Yb7ErCu(Si4Pt)3
_chemical_formula_sum   'Yb7 Er1 Cu1 Si12 Pt3'
_cell_volume   478.22191557
_cell_formula_units_Z   1
loop_
 _symmetry_equiv_pos_site_id
 _symmetry_equiv_pos_as_xyz
  1  'x, y, z'
loop_
 _atom_site_type_symbol
 _atom_site_label
 _atom_site_symmetry_multiplicity
 _atom_site_fract_x
 _atom_site_fract_y
 _atom_site_fract_z
 _atom_site_occupancy
  Yb  Yb0  1  0.501920  0.003842  0.246934  1
  Yb  Yb1  1  0.500411  0.000820  0.752518  1
  Yb  Yb2  1  0.996158  0.498080  0.246934  1
  Yb  Yb3  1  0.999180  0.499589  0.752518  1
  Yb  Yb4  1  0.501920  0.498080  0.246934  1
  Yb  Yb5  1  0.500411  0.499589  0.752518  1
  Yb  Yb6  1  0.000000  0.000000  0.250755  1
  Er  Er7  1  0.000000  0.000000  0.749715  1
  Cu  Cu8  1  0.333333  0.666667  0.501559  1
  Si  Si9  1  0.165007  0.330014  0.997472  1
  Si  Si10  1  0.835543  0.671087  0.995486  1
  Si  Si11  1  0.669986  0.834993  0.997472  1
  Si  Si12  1  0.834733  0.669468  0.504979  1
  Si  Si13  1  0.328913  0.164457  0.995486  1
  Si  Si14  1  0.165437  0.330875  0.501901  1
  Si  Si15  1  0.165007  0.834993  0.997472  1
  Si  Si16  1  0.330532  0.165267  0.504979  1
  Si  Si17  1  0.835543  0.164457  0.995486  1
  Si  Si18  1  0.669125  0.834563  0.501901  1
  Si  Si19  1  0.834733  0.165267  0.504979  1
  Si  Si20  1  0.165437  0.834563  0.501901  1
  Pt  Pt21  1  0.333333  0.666667  0.000599  1
  Pt  Pt22  1  0.666667  0.333333  0.998300  1
  Pt  Pt23  1  0.666667  0.333333  0.501205  1
