# generated using pymatgen
data_TbPa3CoB14
_symmetry_space_group_name_H-M   'P 1'
_cell_length_a   7.22351400
_cell_length_b   7.22352100
_cell_length_c   7.51611700
_cell_angle_alpha   90.00000000
_cell_angle_beta   90.00000000
_cell_angle_gamma   89.99996827
_symmetry_Int_Tables_number   1
_chemical_formula_structural   TbPa3CoB14
_chemical_formula_sum   'Tb2 Pa6 Co2 B28'
_cell_volume   392.18501029
_cell_formula_units_Z   2
loop_
 _symmetry_equiv_pos_site_id
 _symmetry_equiv_pos_as_xyz
  1  'x, y, z'
loop_
 _atom_site_type_symbol
 _atom_site_label
 _atom_site_symmetry_multiplicity
 _atom_site_fract_x
 _atom_site_fract_y
 _atom_site_fract_z
 _atom_site_occupancy
  Tb  Tb0  1  0.193953  0.332299  0.000000  1
  Tb  Tb1  1  0.668325  0.194441  0.000000  1
  Pa  Pa2  1  0.326301  0.806582  0.000000  1
  Pa  Pa3  1  0.694146  0.170786  0.500000  1
  Pa  Pa4  1  0.306311  0.829596  0.500000  1
  Pa  Pa5  1  0.805836  0.674578  0.000000  1
  Pa  Pa6  1  0.829175  0.693239  0.500000  1
  Pa  Pa7  1  0.170514  0.304661  0.500000  1
  Co  Co8  1  0.002085  0.997556  0.000000  1
  Co  Co9  1  0.498992  0.499511  0.500000  1
  B  B10  1  0.174974  0.040296  0.230331  1
  B  B11  1  0.959712  0.173928  0.228126  1
  B  B12  1  0.040631  0.825031  0.233420  1
  B  B13  1  0.674690  0.459715  0.268074  1
  B  B14  1  0.326184  0.539264  0.267713  1
  B  B15  1  0.826040  0.959176  0.230238  1
  B  B16  1  0.539775  0.674426  0.266635  1
  B  B17  1  0.460326  0.326137  0.269051  1
  B  B18  1  0.826040  0.959176  0.769762  1
  B  B19  1  0.040631  0.825031  0.766580  1
  B  B20  1  0.959712  0.173928  0.771874  1
  B  B21  1  0.326184  0.539264  0.732287  1
  B  B22  1  0.674690  0.459715  0.731926  1
  B  B23  1  0.174974  0.040296  0.769669  1
  B  B24  1  0.460326  0.326137  0.730949  1
  B  B25  1  0.539775  0.674426  0.733365  1
  B  B26  1  0.090430  0.590124  0.251996  1
  B  B27  1  0.410355  0.089511  0.254817  1
  B  B28  1  0.590397  0.908476  0.251216  1
  B  B29  1  0.909422  0.410116  0.253648  1
  B  B30  1  0.909422  0.410116  0.746352  1
  B  B31  1  0.590397  0.908476  0.748784  1
  B  B32  1  0.410355  0.089511  0.745183  1
  B  B33  1  0.090430  0.590124  0.748004  1
  B  B34  1  0.998785  0.002009  0.391052  1
  B  B35  1  0.500460  0.500167  0.108487  1
  B  B36  1  0.998785  0.002009  0.608948  1
  B  B37  1  0.500460  0.500167  0.891513  1
