# generated using pymatgen
data_Ca5Cd3B24(PbO12)4
_symmetry_space_group_name_H-M   'P 1'
_cell_length_a   7.15415424
_cell_length_b   6.61410785
_cell_length_c   20.81523991
_cell_angle_alpha   71.65626951
_cell_angle_beta   89.80802936
_cell_angle_gamma   90.00180805
_symmetry_Int_Tables_number   1
_chemical_formula_structural   Ca5Cd3B24(PbO12)4
_chemical_formula_sum   'Ca5 Cd3 B24 Pb4 O48'
_cell_volume   934.88757528
_cell_formula_units_Z   1
loop_
 _symmetry_equiv_pos_site_id
 _symmetry_equiv_pos_as_xyz
  1  'x, y, z'
loop_
 _atom_site_type_symbol
 _atom_site_label
 _atom_site_symmetry_multiplicity
 _atom_site_fract_x
 _atom_site_fract_y
 _atom_site_fract_z
 _atom_site_occupancy
  Ca  Ca0  1  0.268873  0.551935  0.527133  1
  Ca  Ca1  1  0.230452  0.551961  0.027277  1
  Ca  Ca2  1  0.727809  0.448950  0.472242  1
  Ca  Ca3  1  0.772520  0.446737  0.973480  1
  Ca  Ca4  1  0.249228  0.047705  0.736867  1
  Cd  Cd5  1  0.250809  0.045495  0.235426  1
  Cd  Cd6  1  0.751219  0.954740  0.264751  1
  Cd  Cd7  1  0.747777  0.953590  0.764420  1
  B  B8  1  0.929170  0.257544  0.627508  1
  B  B9  1  0.566058  0.258738  0.128096  1
  B  B10  1  0.066062  0.740796  0.372138  1
  B  B11  1  0.437958  0.739231  0.874062  1
  B  B12  1  0.311754  0.115204  0.536101  1
  B  B13  1  0.187651  0.114990  0.036683  1
  B  B14  1  0.686635  0.885039  0.463464  1
  B  B15  1  0.813073  0.884638  0.963390  1
  B  B16  1  0.430500  0.783611  0.624133  1
  B  B17  1  0.070353  0.782163  0.124652  1
  B  B18  1  0.569810  0.217607  0.375416  1
  B  B19  1  0.930764  0.217565  0.875037  1
  B  B20  1  0.592109  0.140887  0.609635  1
  B  B21  1  0.907260  0.138112  0.110815  1
  B  B22  1  0.406917  0.861384  0.389390  1
  B  B23  1  0.094129  0.860299  0.889531  1
  B  B24  1  0.528660  0.405135  0.677580  1
  B  B25  1  0.971068  0.404506  0.178168  1
  B  B26  1  0.470606  0.595420  0.321696  1
  B  B27  1  0.030286  0.595266  0.821833  1
  B  B28  1  0.307406  0.566656  0.740376  1
  B  B29  1  0.193365  0.565214  0.240795  1
  B  B30  1  0.693736  0.434796  0.259115  1
  B  B31  1  0.806270  0.435310  0.759177  1
  Pb  Pb32  1  0.912506  0.768023  0.611732  1
  Pb  Pb33  1  0.586210  0.767339  0.112279  1
  Pb  Pb34  1  0.085910  0.231446  0.388174  1
  Pb  Pb35  1  0.416574  0.231165  0.889029  1
  O  O36  1  0.597953  0.909609  0.624985  1
  O  O37  1  0.902436  0.907102  0.126286  1
  O  O38  1  0.402283  0.092377  0.373809  1
  O  O39  1  0.098850  0.092456  0.872739  1
  O  O40  1  0.472217  0.575729  0.617542  1
  O  O41  1  0.028920  0.574294  0.117942  1
  O  O42  1  0.527493  0.425608  0.381871  1
  O  O43  1  0.972854  0.425060  0.881963  1
  O  O44  1  0.525054  0.192379  0.669779  1
  O  O45  1  0.973431  0.190600  0.170814  1
  O  O46  1  0.473204  0.809005  0.329217  1
  O  O47  1  0.030397  0.808902  0.829073  1
  O  O48  1  0.393795  0.386244  0.734811  1
  O  O49  1  0.102876  0.386368  0.235664  1
  O  O50  1  0.603516  0.613816  0.264184  1
  O  O51  1  0.897770  0.613627  0.764368  1
  O  O52  1  0.220302  0.541817  0.801343  1
  O  O53  1  0.281168  0.540444  0.301422  1
  O  O54  1  0.781151  0.459530  0.198193  1
  O  O55  1  0.717053  0.460977  0.698717  1
  O  O56  1  0.045481  0.429652  0.606405  1
  O  O57  1  0.454106  0.432527  0.105839  1
  O  O58  1  0.954227  0.566577  0.394213  1
  O  O59  1  0.546091  0.561798  0.896238  1
  O  O60  1  0.304974  0.894723  0.566433  1
  O  O61  1  0.194856  0.894614  0.066535  1
  O  O62  1  0.693651  0.105614  0.433477  1
  O  O63  1  0.806670  0.105129  0.933359  1
  O  O64  1  0.775089  0.243141  0.585954  1
  O  O65  1  0.722887  0.238665  0.088107  1
  O  O66  1  0.222131  0.760769  0.412171  1
  O  O67  1  0.278417  0.759751  0.913104  1
  O  O68  1  0.461450  0.233913  0.550776  1
  O  O69  1  0.036753  0.232639  0.051443  1
  O  O70  1  0.535915  0.767365  0.448576  1
  O  O71  1  0.963799  0.767121  0.948516  1
  O  O72  1  0.318004  0.759057  0.689699  1
  O  O73  1  0.184373  0.756222  0.189498  1
  O  O74  1  0.684891  0.243947  0.310444  1
  O  O75  1  0.816241  0.244093  0.810340  1
  O  O76  1  0.175706  0.229286  0.496334  1
  O  O77  1  0.323887  0.230103  0.996923  1
  O  O78  1  0.822477  0.770118  0.503109  1
  O  O79  1  0.676914  0.769903  0.003364  1
  O  O80  1  0.962728  0.090234  0.685424  1
  O  O81  1  0.528193  0.090883  0.186257  1
  O  O82  1  0.028252  0.908936  0.314104  1
  O  O83  1  0.477631  0.908080  0.817039  1
