# generated using pymatgen
data_Dy3Ho3Al24IrOs7
_symmetry_space_group_name_H-M   'P 1'
_cell_length_a   8.79764180
_cell_length_b   8.80347570
_cell_length_c   9.58567223
_cell_angle_alpha   89.98011397
_cell_angle_beta   89.84003934
_cell_angle_gamma   119.73205259
_symmetry_Int_Tables_number   1
_chemical_formula_structural   Dy3Ho3Al24IrOs7
_chemical_formula_sum   'Dy3 Ho3 Al24 Ir1 Os7'
_cell_volume   644.66987641
_cell_formula_units_Z   1
loop_
 _symmetry_equiv_pos_site_id
 _symmetry_equiv_pos_as_xyz
  1  'x, y, z'
loop_
 _atom_site_type_symbol
 _atom_site_label
 _atom_site_symmetry_multiplicity
 _atom_site_fract_x
 _atom_site_fract_y
 _atom_site_fract_z
 _atom_site_occupancy
  Dy  Dy0  1  0.193971  0.386971  0.251331  1
  Dy  Dy1  1  0.805959  0.613087  0.748691  1
  Dy  Dy2  1  0.611582  0.806398  0.250227  1
  Ho  Ho3  1  0.388846  0.193607  0.749528  1
  Ho  Ho4  1  0.194664  0.808685  0.250881  1
  Ho  Ho5  1  0.805234  0.191185  0.749107  1
  Al  Al6  1  0.334009  0.667687  0.020314  1
  Al  Al7  1  0.665896  0.332293  0.979432  1
  Al  Al8  1  0.667135  0.332892  0.520015  1
  Al  Al9  1  0.332793  0.667111  0.480260  1
  Al  Al10  1  0.164137  0.327293  0.575763  1
  Al  Al11  1  0.835907  0.672534  0.424447  1
  Al  Al12  1  0.672088  0.835106  0.574620  1
  Al  Al13  1  0.834291  0.672968  0.076059  1
  Al  Al14  1  0.327803  0.164873  0.425733  1
  Al  Al15  1  0.165782  0.326839  0.923766  1
  Al  Al16  1  0.163998  0.835897  0.573386  1
  Al  Al17  1  0.327286  0.164759  0.075055  1
  Al  Al18  1  0.835968  0.164227  0.426743  1
  Al  Al19  1  0.672622  0.835226  0.924584  1
  Al  Al20  1  0.834296  0.162539  0.073230  1
  Al  Al21  1  0.165675  0.837625  0.926654  1
  Al  Al22  1  0.561012  0.123942  0.249805  1
  Al  Al23  1  0.438870  0.876193  0.750210  1
  Al  Al24  1  0.877766  0.440427  0.250625  1
  Al  Al25  1  0.122209  0.559522  0.749440  1
  Al  Al26  1  0.561889  0.438620  0.249761  1
  Al  Al27  1  0.437967  0.561019  0.750255  1
  Al  Al28  1  0.999341  0.000790  0.250048  1
  Al  Al29  1  0.001351  0.999598  0.749973  1
  Ir  Ir30  1  0.000042  0.500007  0.000018  1
  Os  Os31  1  0.499912  0.000296  0.999771  1
  Os  Os32  1  0.499960  0.000328  0.500225  1
  Os  Os33  1  0.500002  0.499841  0.999826  1
  Os  Os34  1  0.999878  0.499882  0.499987  1
  Os  Os35  1  0.499936  0.499802  0.500208  1
  Os  Os36  1  0.999956  0.999971  0.999939  1
  Os  Os37  1  0.999966  0.999964  0.500082  1
