# generated using pymatgen
data_SrYb2Sm(Al3Pd)6
_symmetry_space_group_name_H-M   'P 1'
_cell_length_a   7.70084242
_cell_length_b   7.68565630
_cell_length_c   9.56959600
_cell_angle_alpha   90.00000000
_cell_angle_beta   90.00000000
_cell_angle_gamma   119.49311965
_symmetry_Int_Tables_number   1
_chemical_formula_structural   SrYb2Sm(Al3Pd)6
_chemical_formula_sum   'Sr1 Yb2 Sm1 Al18 Pd6'
_cell_volume   492.99109802
_cell_formula_units_Z   1
loop_
 _symmetry_equiv_pos_site_id
 _symmetry_equiv_pos_as_xyz
  1  'x, y, z'
loop_
 _atom_site_type_symbol
 _atom_site_label
 _atom_site_symmetry_multiplicity
 _atom_site_fract_x
 _atom_site_fract_y
 _atom_site_fract_z
 _atom_site_occupancy
  Sr  Sr0  1  0.671820  0.996547  0.250000  1
  Yb  Yb1  1  0.994421  0.669813  0.250000  1
  Yb  Yb2  1  0.004084  0.330099  0.750000  1
  Sm  Sm3  1  0.329830  0.002586  0.750000  1
  Al  Al4  1  0.136203  0.133898  0.250000  1
  Al  Al5  1  0.871450  0.868508  0.750000  1
  Al  Al6  1  0.004793  0.338300  0.071815  1
  Al  Al7  1  0.998130  0.663426  0.922930  1
  Al  Al8  1  0.998130  0.663426  0.577070  1
  Al  Al9  1  0.331569  0.000592  0.426396  1
  Al  Al10  1  0.004793  0.338300  0.428185  1
  Al  Al11  1  0.666768  0.999700  0.580338  1
  Al  Al12  1  0.666768  0.999700  0.919662  1
  Al  Al13  1  0.331569  0.000592  0.073604  1
  Al  Al14  1  0.332441  0.332799  0.557764  1
  Al  Al15  1  0.666098  0.663690  0.450556  1
  Al  Al16  1  0.666098  0.663690  0.049444  1
  Al  Al17  1  0.332441  0.332799  0.942236  1
  Al  Al18  1  0.335831  0.543100  0.250000  1
  Al  Al19  1  0.657448  0.453075  0.750000  1
  Al  Al20  1  0.544986  0.344925  0.250000  1
  Al  Al21  1  0.454402  0.661015  0.750000  1
  Pd  Pd22  1  0.671501  0.328227  0.998879  1
  Pd  Pd23  1  0.327775  0.671199  0.998146  1
  Pd  Pd24  1  0.327775  0.671199  0.501854  1
  Pd  Pd25  1  0.671501  0.328227  0.501121  1
  Pd  Pd26  1  0.000686  0.000282  0.998664  1
  Pd  Pd27  1  0.000686  0.000282  0.501336  1
