# generated using pymatgen
data_Dy2TmLu3(Co3P2)6
_symmetry_space_group_name_H-M   'P 1'
_cell_length_a   3.67997600
_cell_length_b   10.47635941
_cell_length_c   12.12899818
_cell_angle_alpha   89.82420656
_cell_angle_beta   90.00000000
_cell_angle_gamma   90.00000000
_symmetry_Int_Tables_number   1
_chemical_formula_structural   Dy2TmLu3(Co3P2)6
_chemical_formula_sum   'Dy2 Tm1 Lu3 Co18 P12'
_cell_volume   467.60404804
_cell_formula_units_Z   1
loop_
 _symmetry_equiv_pos_site_id
 _symmetry_equiv_pos_as_xyz
  1  'x, y, z'
loop_
 _atom_site_type_symbol
 _atom_site_label
 _atom_site_symmetry_multiplicity
 _atom_site_fract_x
 _atom_site_fract_y
 _atom_site_fract_z
 _atom_site_occupancy
  Dy  Dy0  1  0.000000  0.500188  0.522731  1
  Dy  Dy1  1  0.500000  0.999925  0.477510  1
  Tm  Tm2  1  0.500000  0.818043  0.205703  1
  Lu  Lu3  1  0.500000  0.181832  0.205635  1
  Lu  Lu4  1  0.000000  0.681750  0.794249  1
  Lu  Lu5  1  0.000000  0.318281  0.794109  1
  Co  Co6  1  0.500000  0.499967  0.158767  1
  Co  Co7  1  0.000000  0.000224  0.841219  1
  Co  Co8  1  0.500000  0.499915  0.704775  1
  Co  Co9  1  0.000000  0.000521  0.295365  1
  Co  Co10  1  0.000000  0.499726  0.985938  1
  Co  Co11  1  0.500000  0.000236  0.013454  1
  Co  Co12  1  0.500000  0.332996  0.994384  1
  Co  Co13  1  0.500000  0.666609  0.994146  1
  Co  Co14  1  0.000000  0.167155  0.005327  1
  Co  Co15  1  0.000000  0.833078  0.005117  1
  Co  Co16  1  0.500000  0.297210  0.430152  1
  Co  Co17  1  0.500000  0.702804  0.430705  1
  Co  Co18  1  0.000000  0.202968  0.569813  1
  Co  Co19  1  0.000000  0.797223  0.570224  1
  Co  Co20  1  0.500000  0.878167  0.710675  1
  Co  Co21  1  0.500000  0.121859  0.710407  1
  Co  Co22  1  0.000000  0.621414  0.289938  1
  Co  Co23  1  0.000000  0.378073  0.289499  1
  P  P24  1  0.500000  0.499819  0.882131  1
  P  P25  1  0.000000  0.000405  0.117456  1
  P  P26  1  0.500000  0.500035  0.343949  1
  P  P27  1  0.000000  0.000043  0.656185  1
  P  P28  1  0.500000  0.311077  0.617399  1
  P  P29  1  0.500000  0.688948  0.617751  1
  P  P30  1  0.000000  0.189088  0.382565  1
  P  P31  1  0.000000  0.810998  0.383214  1
  P  P32  1  0.500000  0.846145  0.892374  1
  P  P33  1  0.500000  0.153879  0.892117  1
  P  P34  1  0.000000  0.653144  0.107359  1
  P  P35  1  0.000000  0.346257  0.107657  1
