# generated using pymatgen
data_Tb7HoZn3Si12Pt
_symmetry_space_group_name_H-M   'P 1'
_cell_length_a   8.12521598
_cell_length_b   8.13667145
_cell_length_c   8.11927202
_cell_angle_alpha   89.99999922
_cell_angle_beta   90.01946366
_cell_angle_gamma   120.04665302
_symmetry_Int_Tables_number   1
_chemical_formula_structural   Tb7HoZn3Si12Pt
_chemical_formula_sum   'Tb7 Ho1 Zn3 Si12 Pt1'
_cell_volume   464.64902163
_cell_formula_units_Z   1
loop_
 _symmetry_equiv_pos_site_id
 _symmetry_equiv_pos_as_xyz
  1  'x, y, z'
loop_
 _atom_site_type_symbol
 _atom_site_label
 _atom_site_symmetry_multiplicity
 _atom_site_fract_x
 _atom_site_fract_y
 _atom_site_fract_z
 _atom_site_occupancy
  Tb  Tb0  1  0.501349  0.498771  0.248784  1
  Tb  Tb1  1  0.498920  0.997863  0.750962  1
  Tb  Tb2  1  0.002313  0.501157  0.751037  1
  Tb  Tb3  1  0.498920  0.501055  0.750962  1
  Tb  Tb4  1  0.501349  0.002579  0.248784  1
  Tb  Tb5  1  0.999683  0.999841  0.751149  1
  Tb  Tb6  1  0.999946  0.999973  0.249243  1
  Ho  Ho7  1  0.998190  0.499095  0.249158  1
  Zn  Zn8  1  0.332883  0.666442  0.009594  1
  Zn  Zn9  1  0.667367  0.333683  0.992032  1
  Zn  Zn10  1  0.667431  0.333715  0.500107  1
  Si  Si11  1  0.167018  0.832613  0.496621  1
  Si  Si12  1  0.167018  0.334404  0.496621  1
  Si  Si13  1  0.665356  0.832677  0.497168  1
  Si  Si14  1  0.334107  0.167054  0.002794  1
  Si  Si15  1  0.834791  0.669736  0.502102  1
  Si  Si16  1  0.833018  0.167290  0.003443  1
  Si  Si17  1  0.833018  0.665731  0.003443  1
  Si  Si18  1  0.166466  0.333174  0.997693  1
  Si  Si19  1  0.666971  0.833486  0.997235  1
  Si  Si20  1  0.330108  0.165055  0.502527  1
  Si  Si21  1  0.834791  0.165056  0.502102  1
  Si  Si22  1  0.166466  0.833293  0.997693  1
  Pt  Pt23  1  0.332517  0.666260  0.498745  1
