# generated using pymatgen
data_DyLu7Mg2(SiB4)4
_symmetry_space_group_name_H-M   'P 1'
_cell_length_a   7.08788401
_cell_length_b   7.08788401
_cell_length_c   7.68273500
_cell_angle_alpha   90.00147265
_cell_angle_beta   89.99852735
_cell_angle_gamma   89.99594203
_symmetry_Int_Tables_number   1
_chemical_formula_structural   DyLu7Mg2(SiB4)4
_chemical_formula_sum   'Dy1 Lu7 Mg2 Si4 B16'
_cell_volume   385.96600550
_cell_formula_units_Z   1
loop_
 _symmetry_equiv_pos_site_id
 _symmetry_equiv_pos_as_xyz
  1  'x, y, z'
loop_
 _atom_site_type_symbol
 _atom_site_label
 _atom_site_symmetry_multiplicity
 _atom_site_fract_x
 _atom_site_fract_y
 _atom_site_fract_z
 _atom_site_occupancy
  Dy  Dy0  1  0.182206  0.317794  0.234530  1
  Lu  Lu1  1  0.682017  0.181948  0.230964  1
  Lu  Lu2  1  0.318042  0.817886  0.769157  1
  Lu  Lu3  1  0.318052  0.817983  0.230964  1
  Lu  Lu4  1  0.817707  0.682293  0.230864  1
  Lu  Lu5  1  0.817797  0.682203  0.768979  1
  Lu  Lu6  1  0.682114  0.181958  0.769157  1
  Lu  Lu7  1  0.181977  0.318023  0.768714  1
  Mg  Mg8  1  0.999053  0.998312  0.501186  1
  Mg  Mg9  1  0.501688  0.500947  0.501186  1
  Si  Si10  1  0.115410  0.617390  0.501278  1
  Si  Si11  1  0.882610  0.384590  0.501278  1
  Si  Si12  1  0.385076  0.114924  0.501681  1
  Si  Si13  1  0.616576  0.883424  0.500247  1
  B  B14  1  0.174043  0.038813  0.999419  1
  B  B15  1  0.825335  0.960305  0.999520  1
  B  B16  1  0.959867  0.173997  0.999160  1
  B  B17  1  0.326003  0.540133  0.999160  1
  B  B18  1  0.039135  0.825434  0.999433  1
  B  B19  1  0.674566  0.460865  0.999433  1
  B  B20  1  0.539695  0.674665  0.999520  1
  B  B21  1  0.461187  0.325957  0.999419  1
  B  B22  1  0.088312  0.588793  0.998838  1
  B  B23  1  0.911207  0.411688  0.998838  1
  B  B24  1  0.411637  0.088363  0.999703  1
  B  B25  1  0.588403  0.911597  0.999623  1
  B  B26  1  0.999311  0.998821  0.166689  1
  B  B27  1  0.999748  0.999953  0.832185  1
  B  B28  1  0.500047  0.500252  0.832185  1
  B  B29  1  0.501179  0.500689  0.166689  1
