# generated using pymatgen
data_Er3Ag(Ir2O7)2
_symmetry_space_group_name_H-M   'P 1'
_cell_length_a   7.30617998
_cell_length_b   7.30617982
_cell_length_c   7.13840627
_cell_angle_alpha   59.21942806
_cell_angle_beta   59.21943309
_cell_angle_gamma   60.00000039
_symmetry_Int_Tables_number   1
_chemical_formula_structural   Er3Ag(Ir2O7)2
_chemical_formula_sum   'Er3 Ag1 Ir4 O14'
_cell_volume   266.22019684
_cell_formula_units_Z   1
loop_
 _symmetry_equiv_pos_site_id
 _symmetry_equiv_pos_as_xyz
  1  'x, y, z'
loop_
 _atom_site_type_symbol
 _atom_site_label
 _atom_site_symmetry_multiplicity
 _atom_site_fract_x
 _atom_site_fract_y
 _atom_site_fract_z
 _atom_site_occupancy
  Er  Er0  1  0.625000  0.625000  0.625000  1
  Er  Er1  1  0.625000  0.125000  0.625000  1
  Er  Er2  1  0.125000  0.625000  0.625000  1
  Ag  Ag3  1  0.625000  0.625000  0.125000  1
  Ir  Ir4  1  0.625000  0.125000  0.125000  1
  Ir  Ir5  1  0.125000  0.125000  0.125000  1
  Ir  Ir6  1  0.125000  0.625000  0.125000  1
  Ir  Ir7  1  0.125000  0.125000  0.625000  1
  O  O8  1  0.037221  0.459546  0.466011  1
  O  O9  1  0.797375  0.797375  0.213391  1
  O  O10  1  0.797375  0.191861  0.213391  1
  O  O11  1  0.752529  0.752529  0.742413  1
  O  O12  1  0.058139  0.452625  0.036609  1
  O  O13  1  0.459546  0.037221  0.466011  1
  O  O14  1  0.037221  0.037221  0.466011  1
  O  O15  1  0.497471  0.497471  0.507587  1
  O  O16  1  0.212779  0.212779  0.783989  1
  O  O17  1  0.191861  0.797375  0.213391  1
  O  O18  1  0.790454  0.212779  0.783989  1
  O  O19  1  0.452625  0.058139  0.036609  1
  O  O20  1  0.452625  0.452625  0.036609  1
  O  O21  1  0.212779  0.790454  0.783989  1
