# generated using pymatgen
data_Sr10Ca2Ti5Ge7(MoO6)8
_symmetry_space_group_name_H-M   'P 1'
_cell_length_a   11.23390739
_cell_length_b   11.23390798
_cell_length_c   11.23390800
_cell_angle_alpha   109.32408570
_cell_angle_beta   109.76590500
_cell_angle_gamma   109.32407626
_symmetry_Int_Tables_number   1
_chemical_formula_structural   Sr10Ca2Ti5Ge7(MoO6)8
_chemical_formula_sum   'Sr10 Ca2 Ti5 Ge7 Mo8 O48'
_cell_volume   1091.34493814
_cell_formula_units_Z   1
loop_
 _symmetry_equiv_pos_site_id
 _symmetry_equiv_pos_as_xyz
  1  'x, y, z'
loop_
 _atom_site_type_symbol
 _atom_site_label
 _atom_site_symmetry_multiplicity
 _atom_site_fract_x
 _atom_site_fract_y
 _atom_site_fract_z
 _atom_site_occupancy
  Sr  Sr0  1  0.249643  0.875018  0.624332  1
  Sr  Sr1  1  0.749246  0.623892  0.873629  1
  Sr  Sr2  1  0.623184  0.873482  0.748699  1
  Sr  Sr3  1  0.875798  0.625704  0.249478  1
  Sr  Sr4  1  0.623929  0.249768  0.873806  1
  Sr  Sr5  1  0.874583  0.749920  0.624255  1
  Sr  Sr6  1  0.750288  0.125573  0.376179  1
  Sr  Sr7  1  0.250681  0.375593  0.125778  1
  Sr  Sr8  1  0.374502  0.124757  0.250844  1
  Sr  Sr9  1  0.126350  0.375690  0.750458  1
  Ca  Ca10  1  0.375773  0.750405  0.126333  1
  Ca  Ca11  1  0.125714  0.250379  0.376303  1
  Ti  Ti12  1  0.128826  0.749284  0.878673  1
  Ti  Ti13  1  0.879031  0.249913  0.128928  1
  Ti  Ti14  1  0.625105  0.375782  0.250480  1
  Ti  Ti15  1  0.750141  0.874535  0.125129  1
  Ti  Ti16  1  0.874232  0.125040  0.749706  1
  Ge  Ge17  1  0.250323  0.625393  0.375440  1
  Ge  Ge18  1  0.749759  0.375474  0.625368  1
  Ge  Ge19  1  0.249876  0.124505  0.874286  1
  Ge  Ge20  1  0.125374  0.875464  0.250327  1
  Ge  Ge21  1  0.375025  0.624727  0.750242  1
  Ge  Ge22  1  0.621249  0.749873  0.371103  1
  Ge  Ge23  1  0.371359  0.249895  0.620818  1
  Mo  Mo24  1  0.496097  0.499730  0.499042  1
  Mo  Mo25  1  0.495919  0.998622  0.497434  1
  Mo  Mo26  1  0.004166  0.501585  0.502634  1
  Mo  Mo27  1  0.498421  0.499053  0.996589  1
  Mo  Mo28  1  0.000937  0.002141  0.498554  1
  Mo  Mo29  1  0.003843  0.502953  0.003677  1
  Mo  Mo30  1  0.499102  0.997683  0.001094  1
  Mo  Mo31  1  0.001425  0.998132  0.000692  1
  O  O32  1  0.409617  0.805608  0.793498  1
  O  O33  1  0.884482  0.396603  0.087817  1
  O  O34  1  0.103951  0.987691  0.692324  1
  O  O35  1  0.512992  0.617657  0.706813  1
  O  O36  1  0.686553  0.084737  0.701639  1
  O  O37  1  0.614166  0.704351  0.508247  1
  O  O38  1  0.616377  0.413573  0.101866  1
  O  O39  1  0.703247  0.511194  0.615182  1
  O  O40  1  0.812872  0.514484  0.397237  1
  O  O41  1  0.987180  0.794500  0.883638  1
  O  O42  1  0.796265  0.882781  0.985283  1
  O  O43  1  0.703265  0.687430  0.084687  1
  O  O44  1  0.408303  0.105142  0.613808  1
  O  O45  1  0.394955  0.806996  0.512524  1
  O  O46  1  0.089450  0.704808  0.691892  1
  O  O47  1  0.104624  0.616537  0.410658  1
  O  O48  1  0.508917  0.394027  0.802537  1
  O  O49  1  0.089094  0.882844  0.395553  1
  O  O50  1  0.987663  0.694732  0.104240  1
  O  O51  1  0.195113  0.484753  0.603035  1
  O  O52  1  0.691071  0.103007  0.988553  1
  O  O53  1  0.796522  0.412231  0.807623  1
  O  O54  1  0.395461  0.088109  0.883225  1
  O  O55  1  0.883213  0.985988  0.797247  1
  O  O56  1  0.588139  0.190037  0.204048  1
  O  O57  1  0.127722  0.605177  0.922549  1
  O  O58  1  0.900491  0.018391  0.310015  1
  O  O59  1  0.484740  0.383631  0.296796  1
  O  O60  1  0.305227  0.907700  0.289846  1
  O  O61  1  0.374183  0.294547  0.482316  1
  O  O62  1  0.383081  0.592394  0.897962  1
  O  O63  1  0.290006  0.485424  0.383080  1
  O  O64  1  0.117382  0.014775  0.209520  1
  O  O65  1  0.600457  0.909963  0.118175  1
  O  O66  1  0.210173  0.592798  0.195710  1
  O  O67  1  0.189194  0.206497  0.581161  1
  O  O68  1  0.315500  0.894955  0.021841  1
  O  O69  1  0.014078  0.310617  0.899126  1
  O  O70  1  0.913456  0.117277  0.602172  1
  O  O71  1  0.483617  0.607731  0.187483  1
  O  O72  1  0.896541  0.385563  0.591484  1
  O  O73  1  0.922031  0.296000  0.317027  1
  O  O74  1  0.603873  0.194154  0.488389  1
  O  O75  1  0.579893  0.892041  0.375474  1
  O  O76  1  0.292764  0.305402  0.909287  1
  O  O77  1  0.207318  0.115491  0.012023  1
  O  O78  1  0.020734  0.203367  0.125554  1
  O  O79  1  0.804144  0.796322  0.409527  1
