# generated using pymatgen
data_Na2SnH2F8
_symmetry_space_group_name_H-M   'P 1'
_cell_length_a   5.67899751
_cell_length_b   5.65367652
_cell_length_c   5.65367676
_cell_angle_alpha   96.68883067
_cell_angle_beta   105.74411165
_cell_angle_gamma   105.74410912
_symmetry_Int_Tables_number   1
_chemical_formula_structural   Na2SnH2F8
_chemical_formula_sum   'Na2 Sn1 H2 F8'
_cell_volume   164.58005638
_cell_formula_units_Z   1
loop_
 _symmetry_equiv_pos_site_id
 _symmetry_equiv_pos_as_xyz
  1  'x, y, z'
loop_
 _atom_site_type_symbol
 _atom_site_label
 _atom_site_symmetry_multiplicity
 _atom_site_fract_x
 _atom_site_fract_y
 _atom_site_fract_z
 _atom_site_occupancy
  Na  Na0  1  0.499999  0.726464  0.273534  1
  Na  Na1  1  0.499999  0.273534  0.726464  1
  Sn  Sn2  1  0.000000  0.000000  0.000000  1
  H  H3  1  0.771910  0.346921  0.346921  1
  H  H4  1  0.228090  0.653080  0.653080  1
  F  F5  1  0.763590  0.667227  0.002974  1
  F  F6  1  0.773110  0.151169  0.151169  1
  F  F7  1  0.236410  0.997027  0.332774  1
  F  F8  1  0.732173  0.462632  0.462632  1
  F  F9  1  0.267827  0.537368  0.537368  1
  F  F10  1  0.763590  0.002974  0.667227  1
  F  F11  1  0.226890  0.848830  0.848830  1
  F  F12  1  0.236410  0.332774  0.997027  1
