# generated using pymatgen
data_Tb3Dy9Tc3Ir
_symmetry_space_group_name_H-M   'P 1'
_cell_length_a   6.30371265
_cell_length_b   7.40882832
_cell_length_c   9.17756100
_cell_angle_alpha   90.00000000
_cell_angle_beta   90.00000000
_cell_angle_gamma   89.92864005
_symmetry_Int_Tables_number   1
_chemical_formula_structural   Tb3Dy9Tc3Ir
_chemical_formula_sum   'Tb3 Dy9 Tc3 Ir1'
_cell_volume   428.62044424
_cell_formula_units_Z   1
loop_
 _symmetry_equiv_pos_site_id
 _symmetry_equiv_pos_as_xyz
  1  'x, y, z'
loop_
 _atom_site_type_symbol
 _atom_site_label
 _atom_site_symmetry_multiplicity
 _atom_site_fract_x
 _atom_site_fract_y
 _atom_site_fract_z
 _atom_site_occupancy
  Tb  Tb0  1  0.874716  0.542527  0.250000  1
  Tb  Tb1  1  0.624915  0.039022  0.250000  1
  Tb  Tb2  1  0.131118  0.457426  0.750000  1
  Dy  Dy3  1  0.333757  0.676428  0.064607  1
  Dy  Dy4  1  0.162087  0.175898  0.436506  1
  Dy  Dy5  1  0.664113  0.322762  0.561750  1
  Dy  Dy6  1  0.836289  0.824928  0.937617  1
  Dy  Dy7  1  0.664113  0.322762  0.938250  1
  Dy  Dy8  1  0.836289  0.824928  0.562383  1
  Dy  Dy9  1  0.333757  0.676428  0.435393  1
  Dy  Dy10  1  0.162087  0.175898  0.063494  1
  Dy  Dy11  1  0.370575  0.959381  0.750000  1
  Tc  Tc12  1  0.039168  0.883422  0.250000  1
  Tc  Tc13  1  0.463080  0.386345  0.250000  1
  Tc  Tc14  1  0.960638  0.115829  0.750000  1
  Ir  Ir15  1  0.543299  0.616015  0.750000  1
