# generated using pymatgen
data_TbDy4GaBi2
_symmetry_space_group_name_H-M   'P 1'
_cell_length_a   8.09924800
_cell_length_b   9.30274000
_cell_length_c   12.14404300
_cell_angle_alpha   90.00000000
_cell_angle_beta   90.00000000
_cell_angle_gamma   90.00000000
_symmetry_Int_Tables_number   1
_chemical_formula_structural   TbDy4GaBi2
_chemical_formula_sum   'Tb4 Dy16 Ga4 Bi8'
_cell_volume   914.99532848
_cell_formula_units_Z   4
loop_
 _symmetry_equiv_pos_site_id
 _symmetry_equiv_pos_as_xyz
  1  'x, y, z'
loop_
 _atom_site_type_symbol
 _atom_site_label
 _atom_site_symmetry_multiplicity
 _atom_site_fract_x
 _atom_site_fract_y
 _atom_site_fract_z
 _atom_site_occupancy
  Tb  Tb0  1  0.832424  0.750000  0.784630  1
  Tb  Tb1  1  0.167576  0.250000  0.215370  1
  Tb  Tb2  1  0.332424  0.250000  0.715370  1
  Tb  Tb3  1  0.667576  0.750000  0.284630  1
  Dy  Dy4  1  0.359352  0.750000  0.706837  1
  Dy  Dy5  1  0.640648  0.250000  0.293163  1
  Dy  Dy6  1  0.859352  0.250000  0.793163  1
  Dy  Dy7  1  0.140648  0.750000  0.206837  1
  Dy  Dy8  1  0.959823  0.750000  0.497728  1
  Dy  Dy9  1  0.040177  0.250000  0.502272  1
  Dy  Dy10  1  0.459823  0.250000  0.002272  1
  Dy  Dy11  1  0.540177  0.750000  0.997728  1
  Dy  Dy12  1  0.681274  0.053084  0.563331  1
  Dy  Dy13  1  0.318726  0.946916  0.436669  1
  Dy  Dy14  1  0.181274  0.946916  0.936669  1
  Dy  Dy15  1  0.318726  0.553084  0.436669  1
  Dy  Dy16  1  0.818726  0.053084  0.063331  1
  Dy  Dy17  1  0.681274  0.446916  0.563331  1
  Dy  Dy18  1  0.818726  0.446916  0.063331  1
  Dy  Dy19  1  0.181274  0.553084  0.936669  1
  Ga  Ga20  1  0.591225  0.750000  0.525633  1
  Ga  Ga21  1  0.408775  0.250000  0.474367  1
  Ga  Ga22  1  0.091225  0.250000  0.974367  1
  Ga  Ga23  1  0.908775  0.750000  0.025633  1
  Bi  Bi24  1  0.566921  0.490311  0.826107  1
  Bi  Bi25  1  0.433079  0.509689  0.173893  1
  Bi  Bi26  1  0.066921  0.509689  0.673893  1
  Bi  Bi27  1  0.433079  0.990311  0.173893  1
  Bi  Bi28  1  0.933079  0.490311  0.326107  1
  Bi  Bi29  1  0.566921  0.009689  0.826107  1
  Bi  Bi30  1  0.933079  0.009689  0.326107  1
  Bi  Bi31  1  0.066921  0.990311  0.673893  1
