# generated using pymatgen
data_Sc3Cu2Si2GeAu
_symmetry_space_group_name_H-M   'P 1'
_cell_length_a   6.54613371
_cell_length_b   6.63457578
_cell_length_c   3.97188500
_cell_angle_alpha   90.00000000
_cell_angle_beta   90.00000000
_cell_angle_gamma   120.50013007
_symmetry_Int_Tables_number   1
_chemical_formula_structural   Sc3Cu2Si2GeAu
_chemical_formula_sum   'Sc3 Cu2 Si2 Ge1 Au1'
_cell_volume   148.63274712
_cell_formula_units_Z   1
loop_
 _symmetry_equiv_pos_site_id
 _symmetry_equiv_pos_as_xyz
  1  'x, y, z'
loop_
 _atom_site_type_symbol
 _atom_site_label
 _atom_site_symmetry_multiplicity
 _atom_site_fract_x
 _atom_site_fract_y
 _atom_site_fract_z
 _atom_site_occupancy
  Sc  Sc0  1  0.424446  0.430292  0.500000  1
  Sc  Sc1  1  0.575265  0.001739  0.500000  1
  Sc  Sc2  1  0.002093  0.578977  0.500000  1
  Cu  Cu3  1  0.237897  0.985397  0.000000  1
  Cu  Cu4  1  0.752411  0.757448  0.000000  1
  Si  Si5  1  0.342890  0.678271  0.000000  1
  Si  Si6  1  0.999142  0.982788  0.500000  1
  Ge  Ge7  1  0.655569  0.334269  0.000000  1
  Au  Au8  1  0.010288  0.250818  0.000000  1
