# generated using pymatgen
data_HfMg2Co5(Ni2B3)2
_symmetry_space_group_name_H-M   'P 1'
_cell_length_a   5.67540110
_cell_length_b   5.67540041
_cell_length_c   5.68824116
_cell_angle_alpha   95.58380594
_cell_angle_beta   95.58380670
_cell_angle_gamma   95.40696314
_symmetry_Int_Tables_number   1
_chemical_formula_structural   HfMg2Co5(Ni2B3)2
_chemical_formula_sum   'Hf1 Mg2 Co5 Ni4 B6'
_cell_volume   180.48735076
_cell_formula_units_Z   1
loop_
 _symmetry_equiv_pos_site_id
 _symmetry_equiv_pos_as_xyz
  1  'x, y, z'
loop_
 _atom_site_type_symbol
 _atom_site_label
 _atom_site_symmetry_multiplicity
 _atom_site_fract_x
 _atom_site_fract_y
 _atom_site_fract_z
 _atom_site_occupancy
  Hf  Hf0  1  0.328801  0.328801  0.330107  1
  Mg  Mg1  1  0.994047  0.994047  0.993227  1
  Mg  Mg2  1  0.675062  0.675062  0.674960  1
  Co  Co3  1  0.701266  0.210643  0.700781  1
  Co  Co4  1  0.210643  0.701266  0.700781  1
  Co  Co5  1  0.296822  0.798772  0.295420  1
  Co  Co6  1  0.296219  0.296219  0.799840  1
  Co  Co7  1  0.798772  0.296822  0.295420  1
  Ni  Ni8  1  0.498058  0.997388  0.997969  1
  Ni  Ni9  1  0.997388  0.498058  0.997969  1
  Ni  Ni10  1  0.997695  0.997695  0.497671  1
  Ni  Ni11  1  0.702139  0.702139  0.211523  1
  B  B12  1  0.388322  0.000681  0.612964  1
  B  B13  1  0.614076  0.382958  0.000523  1
  B  B14  1  0.005101  0.611947  0.388677  1
  B  B15  1  0.611947  0.005101  0.388677  1
  B  B16  1  0.382958  0.614076  0.000523  1
  B  B17  1  0.000681  0.388322  0.612964  1
