# generated using pymatgen
data_YbSiNi4
_symmetry_space_group_name_H-M   'P 1'
_cell_length_a   4.74009302
_cell_length_b   4.74009366
_cell_length_c   3.92912100
_cell_angle_alpha   90.00000000
_cell_angle_beta   90.00000000
_cell_angle_gamma   116.08104837
_symmetry_Int_Tables_number   1
_chemical_formula_structural   YbSiNi4
_chemical_formula_sum   'Yb1 Si1 Ni4'
_cell_volume   79.29197007
_cell_formula_units_Z   1
loop_
 _symmetry_equiv_pos_site_id
 _symmetry_equiv_pos_as_xyz
  1  'x, y, z'
loop_
 _atom_site_type_symbol
 _atom_site_label
 _atom_site_symmetry_multiplicity
 _atom_site_fract_x
 _atom_site_fract_y
 _atom_site_fract_z
 _atom_site_occupancy
  Yb  Yb0  1  0.000000  0.000000  0.000000  1
  Si  Si1  1  0.500000  0.500000  0.500000  1
  Ni  Ni2  1  0.340445  0.659555  0.000000  1
  Ni  Ni3  1  0.659555  0.340445  0.000000  1
  Ni  Ni4  1  0.500000  0.000000  0.500000  1
  Ni  Ni5  1  0.000000  0.500000  0.500000  1
