# generated using pymatgen
data_VAsPb2O7
_symmetry_space_group_name_H-M   'P 1'
_cell_length_a   6.31516907
_cell_length_b   6.31516895
_cell_length_c   5.06694662
_cell_angle_alpha   96.40690044
_cell_angle_beta   96.40690418
_cell_angle_gamma   105.67291187
_symmetry_Int_Tables_number   1
_chemical_formula_structural   VAsPb2O7
_chemical_formula_sum   'V1 As1 Pb2 O7'
_cell_volume   191.21517162
_cell_formula_units_Z   1
loop_
 _symmetry_equiv_pos_site_id
 _symmetry_equiv_pos_as_xyz
  1  'x, y, z'
loop_
 _atom_site_type_symbol
 _atom_site_label
 _atom_site_symmetry_multiplicity
 _atom_site_fract_x
 _atom_site_fract_y
 _atom_site_fract_z
 _atom_site_occupancy
  V  V0  1  0.295707  0.295707  0.259372  1
  As  As1  1  0.737699  0.737699  0.109419  1
  Pb  Pb2  1  0.816486  0.200682  0.689053  1
  Pb  Pb3  1  0.200682  0.816486  0.689053  1
  O  O4  1  0.522876  0.522876  0.190534  1
  O  O5  1  0.883947  0.883947  0.411322  1
  O  O6  1  0.404591  0.126269  0.440377  1
  O  O7  1  0.126269  0.404591  0.440377  1
  O  O8  1  0.898277  0.612626  0.933594  1
  O  O9  1  0.612626  0.898277  0.933594  1
  O  O10  1  0.141635  0.141635  0.956811  1
