# generated using pymatgen
data_Ce2ErMg3CuIr2
_symmetry_space_group_name_H-M   'P 1'
_cell_length_a   7.40724200
_cell_length_b   7.52359803
_cell_length_c   3.89912300
_cell_angle_alpha   90.00000000
_cell_angle_beta   90.00000000
_cell_angle_gamma   119.48972010
_symmetry_Int_Tables_number   1
_chemical_formula_structural   Ce2ErMg3CuIr2
_chemical_formula_sum   'Ce2 Er1 Mg3 Cu1 Ir2'
_cell_volume   189.14283961
_cell_formula_units_Z   1
loop_
 _symmetry_equiv_pos_site_id
 _symmetry_equiv_pos_as_xyz
  1  'x, y, z'
loop_
 _atom_site_type_symbol
 _atom_site_label
 _atom_site_symmetry_multiplicity
 _atom_site_fract_x
 _atom_site_fract_y
 _atom_site_fract_z
 _atom_site_occupancy
  Ce  Ce0  1  0.001188  0.574770  0.000000  1
  Ce  Ce1  1  0.426417  0.425230  0.000000  1
  Er  Er2  1  0.583754  0.000000  0.000000  1
  Mg  Mg3  1  0.250450  0.000000  0.500000  1
  Mg  Mg4  1  0.995009  0.237853  0.500000  1
  Mg  Mg5  1  0.757155  0.762147  0.500000  1
  Cu  Cu6  1  0.997411  0.000000  0.000000  1
  Ir  Ir7  1  0.321487  0.654358  0.500000  1
  Ir  Ir8  1  0.667130  0.345642  0.500000  1
