# generated using pymatgen
data_YEr4In4CuPt
_symmetry_space_group_name_H-M   'P 1'
_cell_length_a   3.61750200
_cell_length_b   8.07015806
_cell_length_c   18.08610265
_cell_angle_alpha   89.89851764
_cell_angle_beta   90.00000000
_cell_angle_gamma   90.00000000
_symmetry_Int_Tables_number   1
_chemical_formula_structural   YEr4In4CuPt
_chemical_formula_sum   'Y2 Er8 In8 Cu2 Pt2'
_cell_volume   528.00146883
_cell_formula_units_Z   2
loop_
 _symmetry_equiv_pos_site_id
 _symmetry_equiv_pos_as_xyz
  1  'x, y, z'
loop_
 _atom_site_type_symbol
 _atom_site_label
 _atom_site_symmetry_multiplicity
 _atom_site_fract_x
 _atom_site_fract_y
 _atom_site_fract_z
 _atom_site_occupancy
  Y  Y0  1  0.000000  0.000000  0.000000  1
  Y  Y1  1  0.000000  0.500000  0.500000  1
  Er  Er2  1  0.000000  0.116840  0.415645  1
  Er  Er3  1  0.000000  0.883160  0.584355  1
  Er  Er4  1  0.000000  0.382170  0.915453  1
  Er  Er5  1  0.000000  0.617830  0.084547  1
  Er  Er6  1  0.000000  0.247671  0.219257  1
  Er  Er7  1  0.000000  0.752329  0.780743  1
  Er  Er8  1  0.000000  0.262396  0.719579  1
  Er  Er9  1  0.000000  0.737604  0.280421  1
  In  In10  1  0.500000  0.418166  0.351868  1
  In  In11  1  0.500000  0.581834  0.648132  1
  In  In12  1  0.500000  0.074585  0.847885  1
  In  In13  1  0.500000  0.925415  0.152115  1
  In  In14  1  0.500000  0.294171  0.066388  1
  In  In15  1  0.500000  0.705829  0.933612  1
  In  In16  1  0.500000  0.205682  0.568525  1
  In  In17  1  0.500000  0.794318  0.431475  1
  Cu  Cu18  1  0.500000  0.026467  0.302738  1
  Cu  Cu19  1  0.500000  0.973533  0.697262  1
  Pt  Pt20  1  0.500000  0.471990  0.802741  1
  Pt  Pt21  1  0.500000  0.528010  0.197259  1
