# generated using pymatgen
data_Fe3Co(MoP)4
_symmetry_space_group_name_H-M   'P 1'
_cell_length_a   3.71848500
_cell_length_b   5.87536735
_cell_length_c   6.74052872
_cell_angle_alpha   90.29956499
_cell_angle_beta   90.00000000
_cell_angle_gamma   90.00000000
_symmetry_Int_Tables_number   1
_chemical_formula_structural   Fe3Co(MoP)4
_chemical_formula_sum   'Fe3 Co1 Mo4 P4'
_cell_volume   147.26145493
_cell_formula_units_Z   1
loop_
 _symmetry_equiv_pos_site_id
 _symmetry_equiv_pos_as_xyz
  1  'x, y, z'
loop_
 _atom_site_type_symbol
 _atom_site_label
 _atom_site_symmetry_multiplicity
 _atom_site_fract_x
 _atom_site_fract_y
 _atom_site_fract_z
 _atom_site_occupancy
  Fe  Fe0  1  0.250000  0.359993  0.564659  1
  Fe  Fe1  1  0.750000  0.137652  0.062701  1
  Fe  Fe2  1  0.750000  0.639388  0.437550  1
  Co  Co3  1  0.250000  0.860261  0.934036  1
  Mo  Mo4  1  0.250000  0.971202  0.329145  1
  Mo  Mo5  1  0.250000  0.472545  0.174749  1
  Mo  Mo6  1  0.750000  0.030754  0.669972  1
  Mo  Mo7  1  0.750000  0.528156  0.827031  1
  P  P8  1  0.250000  0.233600  0.880681  1
  P  P9  1  0.250000  0.730382  0.619015  1
  P  P10  1  0.750000  0.766847  0.122334  1
  P  P11  1  0.750000  0.269221  0.378125  1
