# generated using pymatgen
data_Sc4InAgS8
_symmetry_space_group_name_H-M   'P 1'
_cell_length_a   7.63343730
_cell_length_b   7.63343695
_cell_length_c   7.63343800
_cell_angle_alpha   59.99999544
_cell_angle_beta   60.00000565
_cell_angle_gamma   60.00000289
_symmetry_Int_Tables_number   1
_chemical_formula_structural   Sc4InAgS8
_chemical_formula_sum   'Sc4 In1 Ag1 S8'
_cell_volume   314.51796954
_cell_formula_units_Z   1
loop_
 _symmetry_equiv_pos_site_id
 _symmetry_equiv_pos_as_xyz
  1  'x, y, z'
loop_
 _atom_site_type_symbol
 _atom_site_label
 _atom_site_symmetry_multiplicity
 _atom_site_fract_x
 _atom_site_fract_y
 _atom_site_fract_z
 _atom_site_occupancy
  Sc  Sc0  1  0.619123  0.619123  0.142632  1
  Sc  Sc1  1  0.619123  0.142632  0.619123  1
  Sc  Sc2  1  0.142632  0.619123  0.619123  1
  Sc  Sc3  1  0.619123  0.619123  0.619123  1
  In  In4  1  0.000000  0.000000  0.000000  1
  Ag  Ag5  1  0.250000  0.250000  0.250000  1
  S  S6  1  0.865552  0.865552  0.403346  1
  S  S7  1  0.865552  0.403346  0.865552  1
  S  S8  1  0.403346  0.865552  0.865552  1
  S  S9  1  0.865552  0.865552  0.865552  1
  S  S10  1  0.384718  0.384718  0.845847  1
  S  S11  1  0.384718  0.845847  0.384718  1
  S  S12  1  0.845847  0.384718  0.384718  1
  S  S13  1  0.384718  0.384718  0.384718  1
