# generated using pymatgen
data_Ca20(InGa3)3
_symmetry_space_group_name_H-M   'P 1'
_cell_length_a   8.11188100
_cell_length_b   8.11188100
_cell_length_c   14.75042700
_cell_angle_alpha   90.00000000
_cell_angle_beta   90.00000000
_cell_angle_gamma   90.00000000
_symmetry_Int_Tables_number   1
_chemical_formula_structural   Ca20(InGa3)3
_chemical_formula_sum   'Ca20 In3 Ga9'
_cell_volume   970.61664475
_cell_formula_units_Z   1
loop_
 _symmetry_equiv_pos_site_id
 _symmetry_equiv_pos_as_xyz
  1  'x, y, z'
loop_
 _atom_site_type_symbol
 _atom_site_label
 _atom_site_symmetry_multiplicity
 _atom_site_fract_x
 _atom_site_fract_y
 _atom_site_fract_z
 _atom_site_occupancy
  Ca  Ca0  1  0.680075  0.171887  0.105638  1
  Ca  Ca1  1  0.177246  0.675724  0.608240  1
  Ca  Ca2  1  0.319925  0.828113  0.105638  1
  Ca  Ca3  1  0.822754  0.324276  0.608240  1
  Ca  Ca4  1  0.828113  0.680075  0.105638  1
  Ca  Ca5  1  0.324276  0.177246  0.608240  1
  Ca  Ca6  1  0.171887  0.319925  0.105638  1
  Ca  Ca7  1  0.675724  0.822754  0.608240  1
  Ca  Ca8  1  0.828113  0.319925  0.894362  1
  Ca  Ca9  1  0.324276  0.822754  0.391760  1
  Ca  Ca10  1  0.171887  0.680075  0.894362  1
  Ca  Ca11  1  0.675724  0.177246  0.391760  1
  Ca  Ca12  1  0.680075  0.828113  0.894362  1
  Ca  Ca13  1  0.177246  0.324276  0.391760  1
  Ca  Ca14  1  0.319925  0.171887  0.894362  1
  Ca  Ca15  1  0.822754  0.675724  0.391760  1
  Ca  Ca16  1  0.500000  0.500000  0.754497  1
  Ca  Ca17  1  0.000000  0.000000  0.250798  1
  Ca  Ca18  1  0.000000  0.000000  0.749202  1
  Ca  Ca19  1  0.500000  0.500000  0.245503  1
  In  In20  1  0.500000  0.500000  0.500000  1
  In  In21  1  0.500000  0.500000  0.000000  1
  In  In22  1  0.000000  0.000000  0.500000  1
  Ga  Ga23  1  0.609692  0.110282  0.751767  1
  Ga  Ga24  1  0.110282  0.609692  0.248233  1
  Ga  Ga25  1  0.889718  0.390308  0.248233  1
  Ga  Ga26  1  0.390308  0.889718  0.751767  1
  Ga  Ga27  1  0.889718  0.609692  0.751767  1
  Ga  Ga28  1  0.390308  0.110282  0.248233  1
  Ga  Ga29  1  0.110282  0.390308  0.751767  1
  Ga  Ga30  1  0.609692  0.889718  0.248233  1
  Ga  Ga31  1  0.000000  0.000000  0.000000  1
