# generated using pymatgen
data_Tm4Ta2NiOs5
_symmetry_space_group_name_H-M   'P 1'
_cell_length_a   5.50758500
_cell_length_b   5.52390812
_cell_length_c   8.38179600
_cell_angle_alpha   90.00000000
_cell_angle_beta   90.00000000
_cell_angle_gamma   119.90316227
_symmetry_Int_Tables_number   1
_chemical_formula_structural   Tm4Ta2NiOs5
_chemical_formula_sum   'Tm4 Ta2 Ni1 Os5'
_cell_volume   221.05397644
_cell_formula_units_Z   1
loop_
 _symmetry_equiv_pos_site_id
 _symmetry_equiv_pos_as_xyz
  1  'x, y, z'
loop_
 _atom_site_type_symbol
 _atom_site_label
 _atom_site_symmetry_multiplicity
 _atom_site_fract_x
 _atom_site_fract_y
 _atom_site_fract_z
 _atom_site_occupancy
  Tm  Tm0  1  0.666403  0.332810  0.565235  1
  Tm  Tm1  1  0.333624  0.667252  0.438841  1
  Tm  Tm2  1  0.333624  0.667252  0.061159  1
  Tm  Tm3  1  0.666403  0.332810  0.934765  1
  Ta  Ta4  1  0.998185  0.996367  0.501027  1
  Ta  Ta5  1  0.998185  0.996367  0.998973  1
  Ni  Ni6  1  0.170830  0.341652  0.750000  1
  Os  Os7  1  0.177644  0.828357  0.750000  1
  Os  Os8  1  0.650714  0.828356  0.750000  1
  Os  Os9  1  0.826794  0.653585  0.250000  1
  Os  Os10  1  0.828169  0.177594  0.250000  1
  Os  Os11  1  0.349422  0.177598  0.250000  1
