# generated using pymatgen
data_La6Sn12IrRu
_symmetry_space_group_name_H-M   'P 1'
_cell_length_a   8.82087617
_cell_length_b   8.82087569
_cell_length_c   13.57626200
_cell_angle_alpha   90.00000000
_cell_angle_beta   90.00000000
_cell_angle_gamma   148.42339599
_symmetry_Int_Tables_number   1
_chemical_formula_structural   La6Sn12IrRu
_chemical_formula_sum   'La6 Sn12 Ir1 Ru1'
_cell_volume   553.13972783
_cell_formula_units_Z   1
loop_
 _symmetry_equiv_pos_site_id
 _symmetry_equiv_pos_as_xyz
  1  'x, y, z'
loop_
 _atom_site_type_symbol
 _atom_site_label
 _atom_site_symmetry_multiplicity
 _atom_site_fract_x
 _atom_site_fract_y
 _atom_site_fract_z
 _atom_site_occupancy
  La  La0  1  0.603567  0.396433  0.250000  1
  La  La1  1  0.397091  0.602909  0.750000  1
  La  La2  1  0.399334  0.600666  0.404010  1
  La  La3  1  0.600050  0.399950  0.594953  1
  La  La4  1  0.399334  0.600666  0.095990  1
  La  La5  1  0.600050  0.399950  0.905047  1
  Sn  Sn6  1  0.927595  0.072405  0.922956  1
  Sn  Sn7  1  0.072137  0.927863  0.075705  1
  Sn  Sn8  1  0.927595  0.072405  0.577044  1
  Sn  Sn9  1  0.072137  0.927863  0.424295  1
  Sn  Sn10  1  0.959730  0.040270  0.250000  1
  Sn  Sn11  1  0.041359  0.958641  0.750000  1
  Sn  Sn12  1  0.746944  0.253057  0.434441  1
  Sn  Sn13  1  0.253077  0.746923  0.566426  1
  Sn  Sn14  1  0.746944  0.253057  0.065559  1
  Sn  Sn15  1  0.253077  0.746923  0.933574  1
  Sn  Sn16  1  0.232460  0.767540  0.250000  1
  Sn  Sn17  1  0.765516  0.234484  0.750000  1
  Ir  Ir18  1  0.801616  0.198384  0.250000  1
  Ru  Ru19  1  0.200388  0.799612  0.750000  1
