# generated using pymatgen
data_Na2AgAs2O7
_symmetry_space_group_name_H-M   'P 1'
_cell_length_a   6.20702400
_cell_length_b   8.40251144
_cell_length_c   8.54690510
_cell_angle_alpha   112.81832745
_cell_angle_beta   90.00000000
_cell_angle_gamma   111.67586149
_symmetry_Int_Tables_number   1
_chemical_formula_structural   Na2AgAs2O7
_chemical_formula_sum   'Na4 Ag2 As4 O14'
_cell_volume   376.44446387
_cell_formula_units_Z   2
loop_
 _symmetry_equiv_pos_site_id
 _symmetry_equiv_pos_as_xyz
  1  'x, y, z'
loop_
 _atom_site_type_symbol
 _atom_site_label
 _atom_site_symmetry_multiplicity
 _atom_site_fract_x
 _atom_site_fract_y
 _atom_site_fract_z
 _atom_site_occupancy
  Na  Na0  1  0.637240  0.545442  0.201155  1
  Na  Na1  1  0.091797  0.454558  0.298845  1
  Na  Na2  1  0.908202  0.545443  0.701155  1
  Na  Na3  1  0.362761  0.454558  0.798845  1
  Ag  Ag4  1  0.000000  0.000000  0.000000  1
  Ag  Ag5  1  0.000000  0.000000  0.500000  1
  As  As6  1  0.243910  0.780518  0.151505  1
  As  As7  1  0.463391  0.219482  0.348494  1
  As  As8  1  0.536609  0.780519  0.651506  1
  As  As9  1  0.756091  0.219481  0.848495  1
  O  O10  1  0.878768  0.214783  0.025944  1
  O  O11  1  0.336241  0.604374  0.094864  1
  O  O12  1  0.290547  0.235904  0.201627  1
  O  O13  1  0.499017  0.000000  0.249999  1
  O  O14  1  0.054642  0.764096  0.298373  1
  O  O15  1  0.731866  0.395626  0.405136  1
  O  O16  1  0.663986  0.785217  0.474056  1
  O  O17  1  0.336015  0.214783  0.525944  1
  O  O18  1  0.268133  0.604375  0.594864  1
  O  O19  1  0.945357  0.235903  0.701627  1
  O  O20  1  0.500983  0.000000  0.750000  1
  O  O21  1  0.709454  0.764096  0.798373  1
  O  O22  1  0.663760  0.395626  0.905136  1
  O  O23  1  0.121231  0.785216  0.974056  1
