# generated using pymatgen
data_TbHo3Sn6Rh7
_symmetry_space_group_name_H-M   'P 1'
_cell_length_a   7.61629991
_cell_length_b   7.60864629
_cell_length_c   7.61629948
_cell_angle_alpha   109.45086359
_cell_angle_beta   109.49156884
_cell_angle_gamma   109.45086661
_symmetry_Int_Tables_number   1
_chemical_formula_structural   TbHo3Sn6Rh7
_chemical_formula_sum   'Tb1 Ho3 Sn6 Rh7'
_cell_volume   339.84633556
_cell_formula_units_Z   1
loop_
 _symmetry_equiv_pos_site_id
 _symmetry_equiv_pos_as_xyz
  1  'x, y, z'
loop_
 _atom_site_type_symbol
 _atom_site_label
 _atom_site_symmetry_multiplicity
 _atom_site_fract_x
 _atom_site_fract_y
 _atom_site_fract_z
 _atom_site_occupancy
  Tb  Tb0  1  0.000000  0.500000  0.000000  1
  Ho  Ho1  1  0.500000  0.000000  0.000000  1
  Ho  Ho2  1  0.000000  0.000000  0.500000  1
  Ho  Ho3  1  0.500000  0.500000  0.500000  1
  Sn  Sn4  1  0.000000  0.315507  0.316230  1
  Sn  Sn5  1  0.683770  0.999277  0.683770  1
  Sn  Sn6  1  0.683770  0.684493  0.000000  1
  Sn  Sn7  1  0.000000  0.684493  0.683770  1
  Sn  Sn8  1  0.316230  0.000723  0.316230  1
  Sn  Sn9  1  0.316230  0.315507  0.000000  1
  Rh  Rh10  1  0.000000  0.000000  0.000000  1
  Rh  Rh11  1  0.500563  0.750281  0.250281  1
  Rh  Rh12  1  0.749719  0.500000  0.250281  1
  Rh  Rh13  1  0.250281  0.750281  0.500563  1
  Rh  Rh14  1  0.250281  0.500000  0.749719  1
  Rh  Rh15  1  0.499437  0.249719  0.749719  1
  Rh  Rh16  1  0.749719  0.249719  0.499437  1
