# generated using pymatgen
data_PrDyAs2Cl2O5
_symmetry_space_group_name_H-M   'P 1'
_cell_length_a   6.82122421
_cell_length_b   7.15738254
_cell_length_c   9.73605416
_cell_angle_alpha   110.79859382
_cell_angle_beta   97.09863094
_cell_angle_gamma   99.52136461
_symmetry_Int_Tables_number   1
_chemical_formula_structural   PrDyAs2Cl2O5
_chemical_formula_sum   'Pr2 Dy2 As4 Cl4 O10'
_cell_volume   429.58389717
_cell_formula_units_Z   2
loop_
 _symmetry_equiv_pos_site_id
 _symmetry_equiv_pos_as_xyz
  1  'x, y, z'
loop_
 _atom_site_type_symbol
 _atom_site_label
 _atom_site_symmetry_multiplicity
 _atom_site_fract_x
 _atom_site_fract_y
 _atom_site_fract_z
 _atom_site_occupancy
  Pr  Pr0  1  0.382776  0.755949  0.551594  1
  Pr  Pr1  1  0.617224  0.244051  0.448406  1
  Dy  Dy2  1  0.845287  0.745098  0.347098  1
  Dy  Dy3  1  0.154713  0.254902  0.652902  1
  As  As4  1  0.897410  0.806033  0.706464  1
  As  As5  1  0.102590  0.193967  0.293536  1
  As  As6  1  0.695117  0.243155  0.794780  1
  As  As7  1  0.304883  0.756845  0.205220  1
  Cl  Cl8  1  0.330770  0.659690  0.804946  1
  Cl  Cl9  1  0.669230  0.340310  0.195054  1
  Cl  Cl10  1  0.858989  0.767761  0.080767  1
  Cl  Cl11  1  0.141011  0.232239  0.919233  1
  O  O12  1  0.845707  0.325296  0.680213  1
  O  O13  1  0.154293  0.674704  0.319787  1
  O  O14  1  0.541014  0.837091  0.352313  1
  O  O15  1  0.458986  0.162909  0.647687  1
  O  O16  1  0.706740  0.966128  0.714921  1
  O  O17  1  0.293260  0.033872  0.285079  1
  O  O18  1  0.721276  0.616917  0.532727  1
  O  O19  1  0.278724  0.383083  0.467273  1
  O  O20  1  0.055430  0.892894  0.590406  1
  O  O21  1  0.944570  0.107106  0.409594  1
