# generated using pymatgen
data_Dy2Al9CuOs2
_symmetry_space_group_name_H-M   'P 1'
_cell_length_a   7.56867158
_cell_length_b   7.56867161
_cell_length_c   9.48305200
_cell_angle_alpha   90.00000000
_cell_angle_beta   90.00000000
_cell_angle_gamma   119.83399353
_symmetry_Int_Tables_number   1
_chemical_formula_structural   Dy2Al9CuOs2
_chemical_formula_sum   'Dy4 Al18 Cu2 Os4'
_cell_volume   471.23999541
_cell_formula_units_Z   2
loop_
 _symmetry_equiv_pos_site_id
 _symmetry_equiv_pos_as_xyz
  1  'x, y, z'
loop_
 _atom_site_type_symbol
 _atom_site_label
 _atom_site_symmetry_multiplicity
 _atom_site_fract_x
 _atom_site_fract_y
 _atom_site_fract_z
 _atom_site_occupancy
  Dy  Dy0  1  0.995551  0.667955  0.750000  1
  Dy  Dy1  1  0.004449  0.332045  0.250000  1
  Dy  Dy2  1  0.667955  0.995551  0.750000  1
  Dy  Dy3  1  0.332045  0.004449  0.250000  1
  Al  Al4  1  0.126075  0.126075  0.750000  1
  Al  Al5  1  0.873925  0.873925  0.250000  1
  Al  Al6  1  0.001155  0.338023  0.573737  1
  Al  Al7  1  0.998845  0.661977  0.426263  1
  Al  Al8  1  0.998845  0.661977  0.073737  1
  Al  Al9  1  0.338023  0.001155  0.926263  1
  Al  Al10  1  0.001155  0.338023  0.926263  1
  Al  Al11  1  0.661977  0.998845  0.073737  1
  Al  Al12  1  0.661977  0.998845  0.426263  1
  Al  Al13  1  0.338023  0.001155  0.573737  1
  Al  Al14  1  0.337984  0.337984  0.049998  1
  Al  Al15  1  0.662016  0.662016  0.950002  1
  Al  Al16  1  0.662016  0.662016  0.549998  1
  Al  Al17  1  0.337984  0.337984  0.450002  1
  Al  Al18  1  0.335040  0.547346  0.750000  1
  Al  Al19  1  0.664960  0.452654  0.250000  1
  Al  Al20  1  0.547346  0.335040  0.750000  1
  Al  Al21  1  0.452654  0.664960  0.250000  1
  Cu  Cu22  1  0.000000  0.000000  0.500000  1
  Cu  Cu23  1  0.000000  0.000000  0.000000  1
  Os  Os24  1  0.672067  0.327933  0.500000  1
  Os  Os25  1  0.327933  0.672067  0.500000  1
  Os  Os26  1  0.327933  0.672067  0.000000  1
  Os  Os27  1  0.672067  0.327933  0.000000  1
