# generated using pymatgen
data_Na3(TcN2)2
_symmetry_space_group_name_H-M   'P 1'
_cell_length_a   5.66753200
_cell_length_b   10.27134000
_cell_length_c   9.76475600
_cell_angle_alpha   90.00000000
_cell_angle_beta   90.00000000
_cell_angle_gamma   90.00000000
_symmetry_Int_Tables_number   1
_chemical_formula_structural   Na3(TcN2)2
_chemical_formula_sum   'Na12 Tc8 N16'
_cell_volume   568.43718751
_cell_formula_units_Z   4
loop_
 _symmetry_equiv_pos_site_id
 _symmetry_equiv_pos_as_xyz
  1  'x, y, z'
loop_
 _atom_site_type_symbol
 _atom_site_label
 _atom_site_symmetry_multiplicity
 _atom_site_fract_x
 _atom_site_fract_y
 _atom_site_fract_z
 _atom_site_occupancy
  Na  Na0  1  0.642874  0.155776  0.419092  1
  Na  Na1  1  0.857126  0.844224  0.419092  1
  Na  Na2  1  0.642874  0.344224  0.080908  1
  Na  Na3  1  0.857126  0.655776  0.080908  1
  Na  Na4  1  0.357126  0.844224  0.580908  1
  Na  Na5  1  0.142874  0.155776  0.580908  1
  Na  Na6  1  0.357126  0.655776  0.919092  1
  Na  Na7  1  0.142874  0.344224  0.919092  1
  Na  Na8  1  0.750000  0.500000  0.416277  1
  Na  Na9  1  0.750000  0.000000  0.083723  1
  Na  Na10  1  0.250000  0.500000  0.583723  1
  Na  Na11  1  0.250000  0.000000  0.916277  1
  Tc  Tc12  1  0.750000  0.500000  0.739562  1
  Tc  Tc13  1  0.750000  0.000000  0.760438  1
  Tc  Tc14  1  0.250000  0.500000  0.260438  1
  Tc  Tc15  1  0.250000  0.000000  0.239562  1
  Tc  Tc16  1  0.703609  0.250000  0.750000  1
  Tc  Tc17  1  0.796391  0.750000  0.750000  1
  Tc  Tc18  1  0.296391  0.750000  0.250000  1
  Tc  Tc19  1  0.203609  0.250000  0.250000  1
  N  N20  1  0.901322  0.359270  0.636270  1
  N  N21  1  0.598678  0.640730  0.636270  1
  N  N22  1  0.901322  0.140730  0.863730  1
  N  N23  1  0.598678  0.859270  0.863730  1
  N  N24  1  0.098678  0.640730  0.363730  1
  N  N25  1  0.401322  0.359270  0.363730  1
  N  N26  1  0.098678  0.859270  0.136270  1
  N  N27  1  0.401322  0.140730  0.136270  1
  N  N28  1  0.536990  0.392572  0.844434  1
  N  N29  1  0.963010  0.607428  0.844434  1
  N  N30  1  0.536990  0.107428  0.655566  1
  N  N31  1  0.963010  0.892572  0.655566  1
  N  N32  1  0.463010  0.607428  0.155566  1
  N  N33  1  0.036990  0.392572  0.155566  1
  N  N34  1  0.463010  0.892572  0.344434  1
  N  N35  1  0.036990  0.107428  0.344434  1
