# generated using pymatgen
data_Lu4SiSbRh11
_symmetry_space_group_name_H-M   'P 1'
_cell_length_a   7.17188620
_cell_length_b   7.17188656
_cell_length_c   7.17188612
_cell_angle_alpha   107.71379123
_cell_angle_beta   107.71379972
_cell_angle_gamma   113.04630862
_symmetry_Int_Tables_number   1
_chemical_formula_structural   Lu4SiSbRh11
_chemical_formula_sum   'Lu4 Si1 Sb1 Rh11'
_cell_volume   283.13910594
_cell_formula_units_Z   1
loop_
 _symmetry_equiv_pos_site_id
 _symmetry_equiv_pos_as_xyz
  1  'x, y, z'
loop_
 _atom_site_type_symbol
 _atom_site_label
 _atom_site_symmetry_multiplicity
 _atom_site_fract_x
 _atom_site_fract_y
 _atom_site_fract_z
 _atom_site_occupancy
  Lu  Lu0  1  0.015680  0.984320  0.500000  1
  Lu  Lu1  1  0.015680  0.515680  0.031359  1
  Lu  Lu2  1  0.484320  0.984320  0.968641  1
  Lu  Lu3  1  0.484320  0.515680  0.500000  1
  Si  Si4  1  0.000000  0.000000  0.000000  1
  Sb  Sb5  1  0.750000  0.250000  0.500000  1
  Rh  Rh6  1  0.747085  0.492170  0.254915  1
  Rh  Rh7  1  0.507830  0.252915  0.745085  1
  Rh  Rh8  1  0.237256  0.492170  0.745085  1
  Rh  Rh9  1  0.250000  0.750000  0.500000  1
  Rh  Rh10  1  0.507830  0.762744  0.254915  1
  Rh  Rh11  1  0.711081  0.711081  0.000000  1
  Rh  Rh12  1  0.283711  0.011920  0.271791  1
  Rh  Rh13  1  0.988080  0.259870  0.271791  1
  Rh  Rh14  1  0.288919  0.288919  0.000000  1
  Rh  Rh15  1  0.740130  0.011920  0.728209  1
  Rh  Rh16  1  0.988080  0.716289  0.728209  1
