# generated using pymatgen
data_Tm4Zn3In2Ir
_symmetry_space_group_name_H-M   'P 1'
_cell_length_a   7.73327400
_cell_length_b   7.73327400
_cell_length_c   3.67273900
_cell_angle_alpha   90.00000000
_cell_angle_beta   90.00000000
_cell_angle_gamma   90.00180779
_symmetry_Int_Tables_number   1
_chemical_formula_structural   Tm4Zn3In2Ir
_chemical_formula_sum   'Tm4 Zn3 In2 Ir1'
_cell_volume   219.64274501
_cell_formula_units_Z   1
loop_
 _symmetry_equiv_pos_site_id
 _symmetry_equiv_pos_as_xyz
  1  'x, y, z'
loop_
 _atom_site_type_symbol
 _atom_site_label
 _atom_site_symmetry_multiplicity
 _atom_site_fract_x
 _atom_site_fract_y
 _atom_site_fract_z
 _atom_site_occupancy
  Tm  Tm0  1  0.348441  0.177237  0.500000  1
  Tm  Tm1  1  0.812483  0.312483  0.500000  1
  Tm  Tm2  1  0.169503  0.669504  0.500000  1
  Tm  Tm3  1  0.677238  0.848441  0.500000  1
  Zn  Zn4  1  0.117446  0.373793  0.000000  1
  Zn  Zn5  1  0.873793  0.617446  0.000000  1
  Zn  Zn6  1  0.377361  0.877361  0.000000  1
  In  In7  1  0.003653  0.000060  0.000000  1
  In  In8  1  0.500060  0.503653  0.000000  1
  Ir  Ir9  1  0.620026  0.120026  0.000000  1
