# generated using pymatgen
data_Eu2DyHo3(SbO7)2
_symmetry_space_group_name_H-M   'P 1'
_cell_length_a   6.50135950
_cell_length_b   6.49910548
_cell_length_c   7.57002000
_cell_angle_alpha   90.00000000
_cell_angle_beta   90.00000000
_cell_angle_gamma   108.68541923
_symmetry_Int_Tables_number   1
_chemical_formula_structural   Eu2DyHo3(SbO7)2
_chemical_formula_sum   'Eu2 Dy1 Ho3 Sb2 O14'
_cell_volume   302.99718176
_cell_formula_units_Z   1
loop_
 _symmetry_equiv_pos_site_id
 _symmetry_equiv_pos_as_xyz
  1  'x, y, z'
loop_
 _atom_site_type_symbol
 _atom_site_label
 _atom_site_symmetry_multiplicity
 _atom_site_fract_x
 _atom_site_fract_y
 _atom_site_fract_z
 _atom_site_occupancy
  Eu  Eu0  1  0.500111  0.500367  0.499962  1
  Eu  Eu1  1  0.500111  0.500367  0.000038  1
  Dy  Dy2  1  0.531601  0.999866  0.750000  1
  Ho  Ho3  1  0.000004  0.531258  0.250000  1
  Ho  Ho4  1  0.468811  0.999592  0.250000  1
  Ho  Ho5  1  0.999564  0.468821  0.750000  1
  Sb  Sb6  1  0.999970  0.999964  0.499741  1
  Sb  Sb7  1  0.999970  0.999964  0.000259  1
  O  O8  1  0.680071  0.933654  0.468841  1
  O  O9  1  0.934795  0.680104  0.530639  1
  O  O10  1  0.680071  0.933654  0.031159  1
  O  O11  1  0.934795  0.680104  0.969361  1
  O  O12  1  0.320083  0.066638  0.529453  1
  O  O13  1  0.065099  0.319882  0.469450  1
  O  O14  1  0.320083  0.066638  0.970547  1
  O  O15  1  0.065099  0.319882  0.030550  1
  O  O16  1  0.930345  0.070602  0.750000  1
  O  O17  1  0.070298  0.929085  0.250000  1
  O  O18  1  0.364425  0.633130  0.750000  1
  O  O19  1  0.634785  0.365262  0.250000  1
  O  O20  1  0.640333  0.361145  0.750000  1
  O  O21  1  0.359575  0.640022  0.250000  1
