# generated using pymatgen
data_Dy4NbMoOs6
_symmetry_space_group_name_H-M   'P 1'
_cell_length_a   5.27549860
_cell_length_b   5.27549984
_cell_length_c   9.02818500
_cell_angle_alpha   90.00000000
_cell_angle_beta   90.00000000
_cell_angle_gamma   116.12153275
_symmetry_Int_Tables_number   1
_chemical_formula_structural   Dy4NbMoOs6
_chemical_formula_sum   'Dy4 Nb1 Mo1 Os6'
_cell_volume   225.59904278
_cell_formula_units_Z   1
loop_
 _symmetry_equiv_pos_site_id
 _symmetry_equiv_pos_as_xyz
  1  'x, y, z'
loop_
 _atom_site_type_symbol
 _atom_site_label
 _atom_site_symmetry_multiplicity
 _atom_site_fract_x
 _atom_site_fract_y
 _atom_site_fract_z
 _atom_site_occupancy
  Dy  Dy0  1  0.329058  0.670942  0.437379  1
  Dy  Dy1  1  0.668990  0.331010  0.566694  1
  Dy  Dy2  1  0.668990  0.331010  0.933306  1
  Dy  Dy3  1  0.329058  0.670942  0.062621  1
  Nb  Nb4  1  0.839578  0.160422  0.250000  1
  Mo  Mo5  1  0.164260  0.835740  0.750000  1
  Os  Os6  1  0.002492  0.997508  0.503826  1
  Os  Os7  1  0.002492  0.997508  0.996174  1
  Os  Os8  1  0.822082  0.651092  0.250000  1
  Os  Os9  1  0.348908  0.177918  0.250000  1
  Os  Os10  1  0.174515  0.350421  0.750000  1
  Os  Os11  1  0.649579  0.825485  0.750000  1
