# generated using pymatgen
data_NdSiSnRh3
_symmetry_space_group_name_H-M   'P 1'
_cell_length_a   6.94151825
_cell_length_b   6.94434711
_cell_length_c   6.94151725
_cell_angle_alpha   130.79688278
_cell_angle_beta   112.96599656
_cell_angle_gamma   87.48892309
_symmetry_Int_Tables_number   1
_chemical_formula_structural   NdSiSnRh3
_chemical_formula_sum   'Nd2 Si2 Sn2 Rh6'
_cell_volume   222.27612975
_cell_formula_units_Z   2
loop_
 _symmetry_equiv_pos_site_id
 _symmetry_equiv_pos_as_xyz
  1  'x, y, z'
loop_
 _atom_site_type_symbol
 _atom_site_label
 _atom_site_symmetry_multiplicity
 _atom_site_fract_x
 _atom_site_fract_y
 _atom_site_fract_z
 _atom_site_occupancy
  Nd  Nd0  1  0.770501  0.019655  0.249155  1
  Nd  Nd1  1  0.229499  0.980345  0.750845  1
  Si  Si2  1  0.103712  0.354796  0.251084  1
  Si  Si3  1  0.896288  0.645204  0.748916  1
  Sn  Sn4  1  0.566051  0.315294  0.749243  1
  Sn  Sn5  1  0.433949  0.684706  0.250757  1
  Rh  Rh6  1  0.208780  0.500000  0.708780  1
  Rh  Rh7  1  0.792882  0.000000  0.792882  1
  Rh  Rh8  1  0.791220  0.500000  0.291220  1
  Rh  Rh9  1  0.207118  0.000000  0.207118  1
  Rh  Rh10  1  0.500000  0.500000  0.500000  1
  Rh  Rh11  1  0.000000  0.500000  0.000000  1
