# generated using pymatgen
data_Ho4Er7Tm9Sn16
_symmetry_space_group_name_H-M   'P 1'
_cell_length_a   7.97435609
_cell_length_b   8.09887151
_cell_length_c   15.31795800
_cell_angle_alpha   90.01938424
_cell_angle_beta   89.92919895
_cell_angle_gamma   90.00588874
_symmetry_Int_Tables_number   1
_chemical_formula_structural   Ho4Er7Tm9Sn16
_chemical_formula_sum   'Ho4 Er7 Tm9 Sn16'
_cell_volume   989.28323465
_cell_formula_units_Z   1
loop_
 _symmetry_equiv_pos_site_id
 _symmetry_equiv_pos_as_xyz
  1  'x, y, z'
loop_
 _atom_site_type_symbol
 _atom_site_label
 _atom_site_symmetry_multiplicity
 _atom_site_fract_x
 _atom_site_fract_y
 _atom_site_fract_z
 _atom_site_occupancy
  Ho  Ho0  1  0.480179  0.678822  0.096158  1
  Ho  Ho1  1  0.979810  0.821308  0.403569  1
  Ho  Ho2  1  0.519905  0.321063  0.596056  1
  Ho  Ho3  1  0.020031  0.179035  0.903960  1
  Er  Er4  1  0.132301  0.337854  0.376865  1
  Er  Er5  1  0.367715  0.837799  0.622808  1
  Er  Er6  1  0.867314  0.662119  0.877442  1
  Er  Er7  1  0.521243  0.320400  0.903617  1
  Er  Er8  1  0.021529  0.179164  0.596811  1
  Er  Er9  1  0.478162  0.678977  0.402780  1
  Er  Er10  1  0.978438  0.820924  0.096982  1
  Tm  Tm11  1  0.366224  0.838117  0.876989  1
  Tm  Tm12  1  0.866392  0.662183  0.622995  1
  Tm  Tm13  1  0.633521  0.162120  0.376656  1
  Tm  Tm14  1  0.133700  0.338252  0.123102  1
  Tm  Tm15  1  0.632667  0.161933  0.123311  1
  Tm  Tm16  1  0.197874  0.504164  0.750097  1
  Tm  Tm17  1  0.697873  0.995980  0.749824  1
  Tm  Tm18  1  0.802034  0.495772  0.250094  1
  Tm  Tm19  1  0.302266  0.004080  0.249781  1
  Sn  Sn20  1  0.293173  0.037605  0.041618  1
  Sn  Sn21  1  0.792427  0.462511  0.458373  1
  Sn  Sn22  1  0.707807  0.962718  0.541316  1
  Sn  Sn23  1  0.207532  0.537546  0.958669  1
  Sn  Sn24  1  0.704947  0.961423  0.959086  1
  Sn  Sn25  1  0.205050  0.538710  0.541374  1
  Sn  Sn26  1  0.294965  0.038885  0.458332  1
  Sn  Sn27  1  0.794787  0.460420  0.041722  1
  Sn  Sn28  1  0.563855  0.618537  0.750233  1
  Sn  Sn29  1  0.063848  0.881442  0.749984  1
  Sn  Sn30  1  0.436373  0.381418  0.249937  1
  Sn  Sn31  1  0.936143  0.118487  0.249574  1
  Sn  Sn32  1  0.331246  0.150037  0.750275  1
  Sn  Sn33  1  0.831068  0.350178  0.749877  1
  Sn  Sn34  1  0.668823  0.850026  0.250051  1
  Sn  Sn35  1  0.168780  0.649990  0.249676  1
