# generated using pymatgen
data_Pr3Nd(In2Br5)4
_symmetry_space_group_name_H-M   'P 1'
_cell_length_a   8.65765219
_cell_length_b   9.23323500
_cell_length_c   13.67548630
_cell_angle_alpha   90.00000000
_cell_angle_beta   89.97608407
_cell_angle_gamma   90.00000000
_symmetry_Int_Tables_number   1
_chemical_formula_structural   Pr3Nd(In2Br5)4
_chemical_formula_sum   'Pr3 Nd1 In8 Br20'
_cell_volume   1093.19280479
_cell_formula_units_Z   1
loop_
 _symmetry_equiv_pos_site_id
 _symmetry_equiv_pos_as_xyz
  1  'x, y, z'
loop_
 _atom_site_type_symbol
 _atom_site_label
 _atom_site_symmetry_multiplicity
 _atom_site_fract_x
 _atom_site_fract_y
 _atom_site_fract_z
 _atom_site_occupancy
  Pr  Pr0  1  0.922674  0.750000  0.505417  1
  Pr  Pr1  1  0.077328  0.250000  0.494568  1
  Pr  Pr2  1  0.422697  0.250000  0.994569  1
  Nd  Nd3  1  0.577176  0.750000  0.005300  1
  In  In4  1  0.950771  0.005099  0.826199  1
  In  In5  1  0.049174  0.994860  0.173808  1
  In  In6  1  0.450791  0.994883  0.673832  1
  In  In7  1  0.049174  0.505140  0.173808  1
  In  In8  1  0.549213  0.005105  0.326167  1
  In  In9  1  0.950771  0.494901  0.826199  1
  In  In10  1  0.549213  0.494895  0.326167  1
  In  In11  1  0.450791  0.505117  0.673832  1
  Br  Br12  1  0.122656  0.750000  0.681921  1
  Br  Br13  1  0.877329  0.250000  0.318068  1
  Br  Br14  1  0.622676  0.250000  0.818071  1
  Br  Br15  1  0.378146  0.750000  0.181230  1
  Br  Br16  1  0.833712  0.044823  0.577098  1
  Br  Br17  1  0.166288  0.955171  0.422904  1
  Br  Br18  1  0.334364  0.954610  0.923151  1
  Br  Br19  1  0.166288  0.544829  0.422904  1
  Br  Br20  1  0.665998  0.043892  0.076848  1
  Br  Br21  1  0.833712  0.455177  0.577098  1
  Br  Br22  1  0.665998  0.456108  0.076848  1
  Br  Br23  1  0.334364  0.545390  0.923151  1
  Br  Br24  1  0.575723  0.750000  0.507007  1
  Br  Br25  1  0.424273  0.250000  0.493015  1
  Br  Br26  1  0.075761  0.250000  0.992998  1
  Br  Br27  1  0.923172  0.750000  0.007014  1
  Br  Br28  1  0.661862  0.750000  0.795593  1
  Br  Br29  1  0.337873  0.250000  0.205188  1
  Br  Br30  1  0.162149  0.250000  0.705191  1
  Br  Br31  1  0.837886  0.750000  0.294837  1
