# generated using pymatgen
data_La7ThGaPd24
_symmetry_space_group_name_H-M   'P 1'
_cell_length_a   8.56130241
_cell_length_b   8.56130241
_cell_length_c   8.56130241
_cell_angle_alpha   89.97490070
_cell_angle_beta   89.97490070
_cell_angle_gamma   89.97490070
_symmetry_Int_Tables_number   1
_chemical_formula_structural   La7ThGaPd24
_chemical_formula_sum   'La7 Th1 Ga1 Pd24'
_cell_volume   627.50817593
_cell_formula_units_Z   1
loop_
 _symmetry_equiv_pos_site_id
 _symmetry_equiv_pos_as_xyz
  1  'x, y, z'
loop_
 _atom_site_type_symbol
 _atom_site_label
 _atom_site_symmetry_multiplicity
 _atom_site_fract_x
 _atom_site_fract_y
 _atom_site_fract_z
 _atom_site_occupancy
  La  La0  1  0.747880  0.747880  0.747880  1
  La  La1  1  0.748015  0.748015  0.252117  1
  La  La2  1  0.748015  0.252117  0.748015  1
  La  La3  1  0.252003  0.252003  0.747941  1
  La  La4  1  0.252003  0.747941  0.252003  1
  La  La5  1  0.252117  0.748015  0.748015  1
  La  La6  1  0.747941  0.252003  0.252003  1
  Th  Th7  1  0.252562  0.252562  0.252562  1
  Ga  Ga8  1  0.999565  0.999565  0.999565  1
  Pd  Pd9  1  0.261744  0.498734  0.001479  1
  Pd  Pd10  1  0.738285  0.499927  0.000107  1
  Pd  Pd11  1  0.001479  0.261744  0.498734  1
  Pd  Pd12  1  0.498734  0.261744  0.001479  1
  Pd  Pd13  1  0.000107  0.738285  0.499927  1
  Pd  Pd14  1  0.499927  0.738285  0.000107  1
  Pd  Pd15  1  0.498734  0.001479  0.261744  1
  Pd  Pd16  1  0.261744  0.001479  0.498734  1
  Pd  Pd17  1  0.499927  0.000107  0.738285  1
  Pd  Pd18  1  0.738285  0.000107  0.499927  1
  Pd  Pd19  1  0.001479  0.498734  0.261744  1
  Pd  Pd20  1  0.000107  0.499927  0.738285  1
  Pd  Pd21  1  0.254561  0.498613  0.498613  1
  Pd  Pd22  1  0.745538  0.499864  0.499864  1
  Pd  Pd23  1  0.498613  0.254561  0.498613  1
  Pd  Pd24  1  0.499864  0.745538  0.499864  1
  Pd  Pd25  1  0.498613  0.498613  0.254561  1
  Pd  Pd26  1  0.499864  0.499864  0.745538  1
  Pd  Pd27  1  0.294870  0.001114  0.001114  1
  Pd  Pd28  1  0.705088  0.000054  0.000054  1
  Pd  Pd29  1  0.001114  0.294870  0.001114  1
  Pd  Pd30  1  0.000054  0.705088  0.000054  1
  Pd  Pd31  1  0.001114  0.001114  0.294870  1
  Pd  Pd32  1  0.000054  0.000054  0.705088  1
