# generated using pymatgen
data_Li2Th2MnNi9P7
_symmetry_space_group_name_H-M   'P 1'
_cell_length_a   9.18495694
_cell_length_b   9.21565840
_cell_length_c   3.79540800
_cell_angle_alpha   90.00000000
_cell_angle_beta   90.00000000
_cell_angle_gamma   119.81819478
_symmetry_Int_Tables_number   1
_chemical_formula_structural   Li2Th2MnNi9P7
_chemical_formula_sum   'Li2 Th2 Mn1 Ni9 P7'
_cell_volume   278.73102066
_cell_formula_units_Z   1
loop_
 _symmetry_equiv_pos_site_id
 _symmetry_equiv_pos_as_xyz
  1  'x, y, z'
loop_
 _atom_site_type_symbol
 _atom_site_label
 _atom_site_symmetry_multiplicity
 _atom_site_fract_x
 _atom_site_fract_y
 _atom_site_fract_z
 _atom_site_occupancy
  Li  Li0  1  0.769384  0.223023  0.500000  1
  Li  Li1  1  0.776174  0.546523  0.500000  1
  Th  Th2  1  0.331850  0.668552  0.000000  1
  Th  Th3  1  0.999311  0.999377  0.500000  1
  Mn  Mn4  1  0.456152  0.223854  0.500000  1
  Ni  Ni5  1  0.035931  0.270893  0.000000  1
  Ni  Ni6  1  0.729958  0.762112  0.000000  1
  Ni  Ni7  1  0.238352  0.969399  0.000000  1
  Ni  Ni8  1  0.541012  0.053899  0.000000  1
  Ni  Ni9  1  0.940971  0.482454  0.000000  1
  Ni  Ni10  1  0.513044  0.462002  0.000000  1
  Ni  Ni11  1  0.620945  0.897042  0.500000  1
  Ni  Ni12  1  0.103876  0.722545  0.500000  1
  Ni  Ni13  1  0.278702  0.383155  0.500000  1
  P  P14  1  0.768097  0.027911  0.000000  1
  P  P15  1  0.973346  0.739901  0.000000  1
  P  P16  1  0.264072  0.231240  0.000000  1
  P  P17  1  0.379373  0.940402  0.500000  1
  P  P18  1  0.064715  0.442855  0.500000  1
  P  P19  1  0.556017  0.624197  0.500000  1
  P  P20  1  0.658722  0.328664  0.000000  1
