# generated using pymatgen
data_La9Pr10NdIr12
_symmetry_space_group_name_H-M   'P 1'
_cell_length_a   11.39402475
_cell_length_b   11.38608699
_cell_length_c   6.66117526
_cell_angle_alpha   90.12937048
_cell_angle_beta   90.00523278
_cell_angle_gamma   89.89543155
_symmetry_Int_Tables_number   1
_chemical_formula_structural   La9Pr10NdIr12
_chemical_formula_sum   'La9 Pr10 Nd1 Ir12'
_cell_volume   864.17298224
_cell_formula_units_Z   1
loop_
 _symmetry_equiv_pos_site_id
 _symmetry_equiv_pos_as_xyz
  1  'x, y, z'
loop_
 _atom_site_type_symbol
 _atom_site_label
 _atom_site_symmetry_multiplicity
 _atom_site_fract_x
 _atom_site_fract_y
 _atom_site_fract_z
 _atom_site_occupancy
  La  La0  1  0.091123  0.291391  0.113692  1
  La  La1  1  0.791332  0.408295  0.113269  1
  La  La2  1  0.208651  0.592201  0.112348  1
  La  La3  1  0.908392  0.708753  0.112812  1
  La  La4  1  0.408271  0.791687  0.387376  1
  La  La5  1  0.592768  0.208729  0.387287  1
  La  La6  1  0.290452  0.090805  0.387261  1
  La  La7  1  0.708655  0.908441  0.387311  1
  La  La8  1  0.409716  0.207415  0.886999  1
  Pr  Pr9  1  0.709296  0.089347  0.884803  1
  Pr  Pr10  1  0.291202  0.909151  0.884895  1
  Pr  Pr11  1  0.589691  0.791928  0.884968  1
  Pr  Pr12  1  0.089454  0.708427  0.614446  1
  Pr  Pr13  1  0.910411  0.291773  0.614863  1
  Pr  Pr14  1  0.207584  0.410762  0.614109  1
  Pr  Pr15  1  0.792014  0.589825  0.614946  1
  Pr  Pr16  1  0.000124  0.999715  0.998996  1
  Pr  Pr17  1  0.500576  0.500700  0.998951  1
  Pr  Pr18  1  0.499805  0.500097  0.500405  1
  Nd  Nd19  1  0.000046  0.000007  0.501539  1
  Ir  Ir20  1  0.153262  0.846498  0.250897  1
  Ir  Ir21  1  0.346205  0.344856  0.248163  1
  Ir  Ir22  1  0.654082  0.654370  0.250140  1
  Ir  Ir23  1  0.846540  0.153305  0.251072  1
  Ir  Ir24  1  0.345939  0.654202  0.749852  1
  Ir  Ir25  1  0.153872  0.153798  0.749598  1
  Ir  Ir26  1  0.846352  0.846509  0.748554  1
  Ir  Ir27  1  0.654420  0.345887  0.749739  1
  Ir  Ir28  1  0.000315  0.499883  0.375382  1
  Ir  Ir29  1  0.500210  0.000146  0.123699  1
  Ir  Ir30  1  0.499497  0.001017  0.617143  1
  Ir  Ir31  1  0.999743  0.500081  0.884483  1
