# generated using pymatgen
data_Lu2Ir3Ru
_symmetry_space_group_name_H-M   'P 1'
_cell_length_a   5.32173900
_cell_length_b   5.32173774
_cell_length_c   8.59185900
_cell_angle_alpha   90.00000000
_cell_angle_beta   90.00000000
_cell_angle_gamma   120.00000162
_symmetry_Int_Tables_number   1
_chemical_formula_structural   Lu2Ir3Ru
_chemical_formula_sum   'Lu4 Ir6 Ru2'
_cell_volume   210.72924217
_cell_formula_units_Z   2
loop_
 _symmetry_equiv_pos_site_id
 _symmetry_equiv_pos_as_xyz
  1  'x, y, z'
loop_
 _atom_site_type_symbol
 _atom_site_label
 _atom_site_symmetry_multiplicity
 _atom_site_fract_x
 _atom_site_fract_y
 _atom_site_fract_z
 _atom_site_occupancy
  Lu  Lu0  1  0.666667  0.333333  0.065764  1
  Lu  Lu1  1  0.666667  0.333333  0.434236  1
  Lu  Lu2  1  0.333334  0.666668  0.565765  1
  Lu  Lu3  1  0.333334  0.666668  0.934236  1
  Ir  Ir4  1  0.169834  0.339668  0.250000  1
  Ir  Ir5  1  0.169833  0.830166  0.250000  1
  Ir  Ir6  1  0.660333  0.830166  0.250000  1
  Ir  Ir7  1  0.339668  0.169834  0.749999  1
  Ir  Ir8  1  0.830165  0.169834  0.749999  1
  Ir  Ir9  1  0.830166  0.660332  0.749999  1
  Ru  Ru10  1  0.000000  0.000000  0.000000  1
  Ru  Ru11  1  0.000000  0.000000  0.500000  1
