# generated using pymatgen
data_Tb5Nd(P2Rh3)6
_symmetry_space_group_name_H-M   'P 1'
_cell_length_a   3.93081100
_cell_length_b   11.22859600
_cell_length_c   12.79977300
_cell_angle_alpha   90.00000000
_cell_angle_beta   90.00000000
_cell_angle_gamma   90.00000000
_symmetry_Int_Tables_number   1
_chemical_formula_structural   Tb5Nd(P2Rh3)6
_chemical_formula_sum   'Tb5 Nd1 P12 Rh18'
_cell_volume   564.94983578
_cell_formula_units_Z   1
loop_
 _symmetry_equiv_pos_site_id
 _symmetry_equiv_pos_as_xyz
  1  'x, y, z'
loop_
 _atom_site_type_symbol
 _atom_site_label
 _atom_site_symmetry_multiplicity
 _atom_site_fract_x
 _atom_site_fract_y
 _atom_site_fract_z
 _atom_site_occupancy
  Tb  Tb0  1  0.500000  0.000000  0.479434  1
  Tb  Tb1  1  0.500000  0.815166  0.204650  1
  Tb  Tb2  1  0.500000  0.184834  0.204650  1
  Tb  Tb3  1  0.000000  0.685270  0.795516  1
  Tb  Tb4  1  0.000000  0.314730  0.795516  1
  Nd  Nd5  1  0.000000  0.500000  0.521041  1
  P  P6  1  0.500000  0.500000  0.879334  1
  P  P7  1  0.000000  0.000000  0.121563  1
  P  P8  1  0.500000  0.500000  0.347846  1
  P  P9  1  0.000000  0.000000  0.648692  1
  P  P10  1  0.500000  0.313432  0.619456  1
  P  P11  1  0.500000  0.686568  0.619456  1
  P  P12  1  0.000000  0.184685  0.381830  1
  P  P13  1  0.000000  0.815315  0.381830  1
  P  P14  1  0.500000  0.846770  0.893082  1
  P  P15  1  0.500000  0.153230  0.893082  1
  P  P16  1  0.000000  0.654050  0.106760  1
  P  P17  1  0.000000  0.345950  0.106760  1
  Rh  Rh18  1  0.500000  0.500000  0.167618  1
  Rh  Rh19  1  0.000000  0.000000  0.830388  1
  Rh  Rh20  1  0.500000  0.500000  0.703091  1
  Rh  Rh21  1  0.000000  0.000000  0.298896  1
  Rh  Rh22  1  0.000000  0.500000  0.979797  1
  Rh  Rh23  1  0.500000  0.000000  0.021275  1
  Rh  Rh24  1  0.500000  0.333933  0.993809  1
  Rh  Rh25  1  0.500000  0.666067  0.993809  1
  Rh  Rh26  1  0.000000  0.165309  0.005415  1
  Rh  Rh27  1  0.000000  0.834691  0.005415  1
  Rh  Rh28  1  0.500000  0.290299  0.430590  1
  Rh  Rh29  1  0.500000  0.709701  0.430590  1
  Rh  Rh30  1  0.000000  0.203570  0.569642  1
  Rh  Rh31  1  0.000000  0.796430  0.569642  1
  Rh  Rh32  1  0.500000  0.873310  0.711450  1
  Rh  Rh33  1  0.500000  0.126690  0.711450  1
  Rh  Rh34  1  0.000000  0.627398  0.288312  1
  Rh  Rh35  1  0.000000  0.372602  0.288312  1
