# generated using pymatgen
data_LuTh7(Nb3Si4)4
_symmetry_space_group_name_H-M   'P 1'
_cell_length_a   7.02220822
_cell_length_b   7.23016229
_cell_length_c   13.58629306
_cell_angle_alpha   90.10991665
_cell_angle_beta   89.88567616
_cell_angle_gamma   90.07783700
_symmetry_Int_Tables_number   1
_chemical_formula_structural   LuTh7(Nb3Si4)4
_chemical_formula_sum   'Lu1 Th7 Nb12 Si16'
_cell_volume   689.79598923
_cell_formula_units_Z   1
loop_
 _symmetry_equiv_pos_site_id
 _symmetry_equiv_pos_as_xyz
  1  'x, y, z'
loop_
 _atom_site_type_symbol
 _atom_site_label
 _atom_site_symmetry_multiplicity
 _atom_site_fract_x
 _atom_site_fract_y
 _atom_site_fract_z
 _atom_site_occupancy
  Lu  Lu0  1  0.999067  0.828023  0.597415  1
  Th  Th1  1  0.501633  0.669226  0.595160  1
  Th  Th2  1  0.000682  0.830490  0.903819  1
  Th  Th3  1  0.500517  0.330468  0.095822  1
  Th  Th4  1  0.998498  0.170610  0.406098  1
  Th  Th5  1  0.498238  0.330100  0.406652  1
  Th  Th6  1  0.000362  0.169828  0.095882  1
  Th  Th7  1  0.500683  0.670001  0.902172  1
  Nb  Nb8  1  0.662501  0.172365  0.623626  1
  Nb  Nb9  1  0.162695  0.327649  0.873491  1
  Nb  Nb10  1  0.337507  0.827830  0.125179  1
  Nb  Nb11  1  0.835997  0.673779  0.376287  1
  Nb  Nb12  1  0.336134  0.828044  0.375748  1
  Nb  Nb13  1  0.836691  0.671905  0.125252  1
  Nb  Nb14  1  0.666236  0.170107  0.873718  1
  Nb  Nb15  1  0.164411  0.327703  0.624339  1
  Nb  Nb16  1  0.836278  0.491225  0.750130  1
  Nb  Nb17  1  0.336842  0.004703  0.748284  1
  Nb  Nb18  1  0.163228  0.507854  0.250802  1
  Nb  Nb19  1  0.663089  0.993544  0.251142  1
  Si  Si20  1  0.661186  0.957024  0.458184  1
  Si  Si21  1  0.160402  0.543386  0.043169  1
  Si  Si22  1  0.341141  0.044211  0.955160  1
  Si  Si23  1  0.844679  0.464181  0.545601  1
  Si  Si24  1  0.331031  0.037131  0.545332  1
  Si  Si25  1  0.839560  0.455965  0.955920  1
  Si  Si26  1  0.660068  0.956176  0.043418  1
  Si  Si27  1  0.157146  0.547727  0.459283  1
  Si  Si28  1  0.459114  0.366927  0.749222  1
  Si  Si29  1  0.961103  0.127579  0.746675  1
  Si  Si30  1  0.540895  0.631392  0.251043  1
  Si  Si31  1  0.040804  0.869217  0.250729  1
  Si  Si32  1  0.705362  0.883362  0.746101  1
  Si  Si33  1  0.195887  0.619510  0.746714  1
  Si  Si34  1  0.299976  0.115514  0.250938  1
  Si  Si35  1  0.800361  0.385241  0.251493  1
