# generated using pymatgen
data_Tm6Sc8Al8Os7
_symmetry_space_group_name_H-M   'P 1'
_cell_length_a   9.24782975
_cell_length_b   9.24783026
_cell_length_c   9.24783100
_cell_angle_alpha   60.00000808
_cell_angle_beta   60.00000626
_cell_angle_gamma   59.99999773
_symmetry_Int_Tables_number   1
_chemical_formula_structural   Tm6Sc8Al8Os7
_chemical_formula_sum   'Tm6 Sc8 Al8 Os7'
_cell_volume   559.24820933
_cell_formula_units_Z   1
loop_
 _symmetry_equiv_pos_site_id
 _symmetry_equiv_pos_as_xyz
  1  'x, y, z'
loop_
 _atom_site_type_symbol
 _atom_site_label
 _atom_site_symmetry_multiplicity
 _atom_site_fract_x
 _atom_site_fract_y
 _atom_site_fract_z
 _atom_site_occupancy
  Tm  Tm0  1  0.695398  0.695398  0.304602  1
  Tm  Tm1  1  0.304602  0.695398  0.304602  1
  Tm  Tm2  1  0.695398  0.304602  0.304602  1
  Tm  Tm3  1  0.304602  0.304602  0.695398  1
  Tm  Tm4  1  0.695398  0.304602  0.695398  1
  Tm  Tm5  1  0.304602  0.695398  0.695398  1
  Sc  Sc6  1  0.876961  0.876961  0.369116  1
  Sc  Sc7  1  0.876961  0.369116  0.876961  1
  Sc  Sc8  1  0.369116  0.876961  0.876961  1
  Sc  Sc9  1  0.876961  0.876961  0.876961  1
  Sc  Sc10  1  0.123039  0.123039  0.630884  1
  Sc  Sc11  1  0.123039  0.630884  0.123039  1
  Sc  Sc12  1  0.630884  0.123039  0.123039  1
  Sc  Sc13  1  0.123039  0.123039  0.123039  1
  Al  Al14  1  0.668178  0.668178  0.995466  1
  Al  Al15  1  0.668178  0.995466  0.668178  1
  Al  Al16  1  0.995466  0.668178  0.668178  1
  Al  Al17  1  0.668178  0.668178  0.668178  1
  Al  Al18  1  0.331822  0.331822  0.004534  1
  Al  Al19  1  0.331822  0.004534  0.331822  1
  Al  Al20  1  0.004534  0.331822  0.331822  1
  Al  Al21  1  0.331822  0.331822  0.331822  1
  Os  Os22  1  0.000000  0.000000  0.000000  1
  Os  Os23  1  0.000000  0.000000  0.500000  1
  Os  Os24  1  0.500000  0.000000  0.500000  1
  Os  Os25  1  0.000000  0.500000  0.500000  1
  Os  Os26  1  0.500000  0.500000  0.000000  1
  Os  Os27  1  0.000000  0.500000  0.000000  1
  Os  Os28  1  0.500000  0.000000  0.000000  1
