# generated using pymatgen
data_Dy3HoTa5TiSi8
_symmetry_space_group_name_H-M   'P 1'
_cell_length_a   7.04934935
_cell_length_b   7.04884674
_cell_length_c   12.98292400
_cell_angle_alpha   89.94254473
_cell_angle_beta   90.05574168
_cell_angle_gamma   90.01631203
_symmetry_Int_Tables_number   1
_chemical_formula_structural   Dy3HoTa5TiSi8
_chemical_formula_sum   'Dy6 Ho2 Ta10 Ti2 Si16'
_cell_volume   645.11802293
_cell_formula_units_Z   2
loop_
 _symmetry_equiv_pos_site_id
 _symmetry_equiv_pos_as_xyz
  1  'x, y, z'
loop_
 _atom_site_type_symbol
 _atom_site_label
 _atom_site_symmetry_multiplicity
 _atom_site_fract_x
 _atom_site_fract_y
 _atom_site_fract_z
 _atom_site_occupancy
  Dy  Dy0  1  0.658080  0.998408  0.967481  1
  Dy  Dy1  1  0.159498  0.503035  0.782316  1
  Dy  Dy2  1  0.841388  0.497844  0.281975  1
  Dy  Dy3  1  0.503015  0.159562  0.217704  1
  Dy  Dy4  1  0.497876  0.841307  0.718042  1
  Dy  Dy5  1  0.341148  0.002023  0.468029  1
  Ho  Ho6  1  0.998663  0.657900  0.032546  1
  Ho  Ho7  1  0.001785  0.341343  0.531978  1
  Ta  Ta8  1  0.346256  0.508416  0.376056  1
  Ta  Ta9  1  0.847353  0.992385  0.374668  1
  Ta  Ta10  1  0.008089  0.152902  0.126327  1
  Ta  Ta11  1  0.992389  0.847328  0.625380  1
  Ta  Ta12  1  0.508535  0.346341  0.623984  1
  Ta  Ta13  1  0.152886  0.008110  0.873699  1
  Ta  Ta14  1  0.672210  0.672073  0.500012  1
  Ta  Ta15  1  0.829401  0.170399  0.750017  1
  Ta  Ta16  1  0.170293  0.829310  0.249884  1
  Ta  Ta17  1  0.326283  0.326415  0.999991  1
  Ti  Ti18  1  0.492717  0.652958  0.124068  1
  Ti  Ti19  1  0.653012  0.492788  0.875952  1
  Si  Si20  1  0.045567  0.705239  0.436058  1
  Si  Si21  1  0.952623  0.295419  0.935899  1
  Si  Si22  1  0.705671  0.045745  0.563999  1
  Si  Si23  1  0.207883  0.455473  0.185198  1
  Si  Si24  1  0.793861  0.545118  0.687217  1
  Si  Si25  1  0.455290  0.208056  0.814699  1
  Si  Si26  1  0.545280  0.793680  0.312671  1
  Si  Si27  1  0.294983  0.952448  0.064175  1
  Si  Si28  1  0.795129  0.865059  0.181534  1
  Si  Si29  1  0.296522  0.633304  0.568457  1
  Si  Si30  1  0.701380  0.368678  0.066336  1
  Si  Si31  1  0.633711  0.296711  0.431590  1
  Si  Si32  1  0.368265  0.701170  0.933709  1
  Si  Si33  1  0.133671  0.204257  0.317954  1
  Si  Si34  1  0.203997  0.133931  0.681992  1
  Si  Si35  1  0.865294  0.794866  0.818404  1
