# generated using pymatgen
data_Ho6Tm9Lu(In3Co)2
_symmetry_space_group_name_H-M   'P 1'
_cell_length_a   10.23418200
_cell_length_b   10.22115572
_cell_length_c   6.96781629
_cell_angle_alpha   89.94892081
_cell_angle_beta   90.00000000
_cell_angle_gamma   120.04216718
_symmetry_Int_Tables_number   1
_chemical_formula_structural   Ho6Tm9Lu(In3Co)2
_chemical_formula_sum   'Ho6 Tm9 Lu1 In6 Co2'
_cell_volume   630.95087021
_cell_formula_units_Z   1
loop_
 _symmetry_equiv_pos_site_id
 _symmetry_equiv_pos_as_xyz
  1  'x, y, z'
loop_
 _atom_site_type_symbol
 _atom_site_label
 _atom_site_symmetry_multiplicity
 _atom_site_fract_x
 _atom_site_fract_y
 _atom_site_fract_z
 _atom_site_occupancy
  Ho  Ho0  1  0.535207  0.070417  0.513511  1
  Ho  Ho1  1  0.930526  0.465146  0.512483  1
  Ho  Ho2  1  0.534617  0.465146  0.512483  1
  Ho  Ho3  1  0.464872  0.929742  0.013687  1
  Ho  Ho4  1  0.069878  0.534080  0.012640  1
  Ho  Ho5  1  0.464205  0.534080  0.012640  1
  Tm  Tm6  1  0.643352  0.822014  0.720173  1
  Tm  Tm7  1  0.178660  0.822014  0.720173  1
  Tm  Tm8  1  0.821371  0.642741  0.217930  1
  Tm  Tm9  1  0.356641  0.177980  0.219079  1
  Tm  Tm10  1  0.821340  0.177980  0.219079  1
  Tm  Tm11  1  0.666489  0.332978  0.904413  1
  Tm  Tm12  1  0.333387  0.666774  0.406032  1
  Tm  Tm13  1  0.999989  0.999980  0.501382  1
  Tm  Tm14  1  0.000508  0.001015  0.000480  1
  Lu  Lu15  1  0.179111  0.358224  0.718408  1
  In  In16  1  0.837029  0.674059  0.761267  1
  In  In17  1  0.324761  0.163815  0.762989  1
  In  In18  1  0.839055  0.163815  0.762989  1
  In  In19  1  0.162784  0.325568  0.264692  1
  In  In20  1  0.674287  0.836750  0.263676  1
  In  In21  1  0.162462  0.836750  0.263676  1
  Co  Co22  1  0.666454  0.332905  0.286448  1
  Co  Co23  1  0.333015  0.666032  0.787668  1
