# generated using pymatgen
data_Ca2Nd(B3Rh4)2
_symmetry_space_group_name_H-M   'P 1'
_cell_length_a   9.93087146
_cell_length_b   9.07505789
_cell_length_c   5.63011894
_cell_angle_alpha   81.31374390
_cell_angle_beta   64.60082733
_cell_angle_gamma   34.08542978
_symmetry_Int_Tables_number   1
_chemical_formula_structural   Ca2Nd(B3Rh4)2
_chemical_formula_sum   'Ca2 Nd1 B6 Rh8'
_cell_volume   235.05228323
_cell_formula_units_Z   1
loop_
 _symmetry_equiv_pos_site_id
 _symmetry_equiv_pos_as_xyz
  1  'x, y, z'
loop_
 _atom_site_type_symbol
 _atom_site_label
 _atom_site_symmetry_multiplicity
 _atom_site_fract_x
 _atom_site_fract_y
 _atom_site_fract_z
 _atom_site_occupancy
  Ca  Ca0  1  0.314727  0.314727  0.685273  1
  Ca  Ca1  1  0.685273  0.685273  0.314727  1
  Nd  Nd2  1  0.500000  0.500000  0.500000  1
  B  B3  1  0.668594  0.987266  0.012734  1
  B  B4  1  0.987266  0.668594  0.331406  1
  B  B5  1  0.331406  0.012734  0.987266  1
  B  B6  1  0.012734  0.331406  0.668594  1
  B  B7  1  0.167157  0.832843  0.167157  1
  B  B8  1  0.832843  0.167157  0.832843  1
  Rh  Rh9  1  0.585440  0.585440  0.914560  1
  Rh  Rh10  1  0.912839  0.912839  0.087161  1
  Rh  Rh11  1  0.414560  0.414560  0.085440  1
  Rh  Rh12  1  0.085440  0.085440  0.414560  1
  Rh  Rh13  1  0.914560  0.914560  0.585440  1
  Rh  Rh14  1  0.250000  0.250000  0.250000  1
  Rh  Rh15  1  0.087161  0.087161  0.912839  1
  Rh  Rh16  1  0.750000  0.750000  0.750000  1
