# generated using pymatgen
data_Hf5Sn2GeSb
_symmetry_space_group_name_H-M   'P 1'
_cell_length_a   8.62416649
_cell_length_b   8.62416773
_cell_length_c   5.84813200
_cell_angle_alpha   90.00000000
_cell_angle_beta   90.00000000
_cell_angle_gamma   119.96945033
_symmetry_Int_Tables_number   1
_chemical_formula_structural   Hf5Sn2GeSb
_chemical_formula_sum   'Hf10 Sn4 Ge2 Sb2'
_cell_volume   376.80420011
_cell_formula_units_Z   2
loop_
 _symmetry_equiv_pos_site_id
 _symmetry_equiv_pos_as_xyz
  1  'x, y, z'
loop_
 _atom_site_type_symbol
 _atom_site_label
 _atom_site_symmetry_multiplicity
 _atom_site_fract_x
 _atom_site_fract_y
 _atom_site_fract_z
 _atom_site_occupancy
  Hf  Hf0  1  0.666948  0.332799  0.998814  1
  Hf  Hf1  1  0.332799  0.666948  0.998814  1
  Hf  Hf2  1  0.332799  0.666948  0.501186  1
  Hf  Hf3  1  0.666948  0.332799  0.501186  1
  Hf  Hf4  1  0.733827  0.733827  0.750000  1
  Hf  Hf5  1  0.266554  0.000198  0.750000  1
  Hf  Hf6  1  0.000198  0.266554  0.750000  1
  Hf  Hf7  1  0.263383  0.263383  0.250000  1
  Hf  Hf8  1  0.735734  0.000053  0.250000  1
  Hf  Hf9  1  0.000053  0.735734  0.250000  1
  Sn  Sn10  1  0.392253  0.392253  0.750000  1
  Sn  Sn11  1  0.609005  0.999569  0.750000  1
  Sn  Sn12  1  0.999569  0.609005  0.750000  1
  Sn  Sn13  1  0.606517  0.606517  0.250000  1
  Ge  Ge14  1  0.999537  0.999537  0.501575  1
  Ge  Ge15  1  0.999537  0.999537  0.998425  1
  Sb  Sb16  1  0.394414  0.999919  0.250000  1
  Sb  Sb17  1  0.999919  0.394414  0.250000  1
