# generated using pymatgen
data_Tb5YHoFeI12
_symmetry_space_group_name_H-M   'P 1'
_cell_length_a   9.82127417
_cell_length_b   9.76019634
_cell_length_c   9.82097857
_cell_angle_alpha   106.84221650
_cell_angle_beta   107.01339306
_cell_angle_gamma   107.03645248
_symmetry_Int_Tables_number   1
_chemical_formula_structural   Tb5YHoFeI12
_chemical_formula_sum   'Tb5 Y1 Ho1 Fe1 I12'
_cell_volume   784.78563364
_cell_formula_units_Z   1
loop_
 _symmetry_equiv_pos_site_id
 _symmetry_equiv_pos_as_xyz
  1  'x, y, z'
loop_
 _atom_site_type_symbol
 _atom_site_label
 _atom_site_symmetry_multiplicity
 _atom_site_fract_x
 _atom_site_fract_y
 _atom_site_fract_z
 _atom_site_occupancy
  Tb  Tb0  1  0.978326  0.908384  0.709338  1
  Tb  Tb1  1  0.088346  0.280276  0.020096  1
  Tb  Tb2  1  0.293151  0.021525  0.093518  1
  Tb  Tb3  1  0.910819  0.719775  0.979768  1
  Tb  Tb4  1  0.021638  0.091576  0.290844  1
  Y  Y5  1  0.499629  0.500178  0.499945  1
  Ho  Ho6  1  0.710692  0.978796  0.907615  1
  Fe  Fe7  1  0.000740  0.000110  0.000268  1
  I  I8  1  0.072693  0.226889  0.681172  1
  I  I9  1  0.385270  0.160391  0.462616  1
  I  I10  1  0.614645  0.840533  0.539318  1
  I  I11  1  0.223399  0.679606  0.071027  1
  I  I12  1  0.774459  0.317792  0.928068  1
  I  I13  1  0.678892  0.071369  0.223165  1
  I  I14  1  0.539441  0.616504  0.839352  1
  I  I15  1  0.838736  0.538632  0.616907  1
  I  I16  1  0.926651  0.772800  0.318615  1
  I  I17  1  0.321494  0.928017  0.774752  1
  I  I18  1  0.460503  0.385661  0.160685  1
  I  I19  1  0.160477  0.461187  0.382932  1
