# generated using pymatgen
data_Rb2PrHo5F20
_symmetry_space_group_name_H-M   'P 1'
_cell_length_a   8.33967925
_cell_length_b   8.33967981
_cell_length_c   8.27418000
_cell_angle_alpha   60.25947767
_cell_angle_beta   60.25947547
_cell_angle_gamma   59.48105885
_symmetry_Int_Tables_number   1
_chemical_formula_structural   Rb2PrHo5F20
_chemical_formula_sum   'Rb2 Pr1 Ho5 F20'
_cell_volume   406.86990113
_cell_formula_units_Z   1
loop_
 _symmetry_equiv_pos_site_id
 _symmetry_equiv_pos_as_xyz
  1  'x, y, z'
loop_
 _atom_site_type_symbol
 _atom_site_label
 _atom_site_symmetry_multiplicity
 _atom_site_fract_x
 _atom_site_fract_y
 _atom_site_fract_z
 _atom_site_occupancy
  Rb  Rb0  1  0.249051  0.249051  0.250949  1
  Rb  Rb1  1  0.749051  0.749051  0.750949  1
  Pr  Pr2  1  0.758530  0.758530  0.241470  1
  Ho  Ho3  1  0.759043  0.239521  0.240957  1
  Ho  Ho4  1  0.239521  0.759043  0.760479  1
  Ho  Ho5  1  0.239521  0.759043  0.240957  1
  Ho  Ho6  1  0.759043  0.239521  0.760479  1
  Ho  Ho7  1  0.240417  0.240417  0.759583  1
  F  F8  1  0.833758  0.489723  0.510277  1
  F  F9  1  0.171796  0.500335  0.499665  1
  F  F10  1  0.489723  0.833758  0.166242  1
  F  F11  1  0.500335  0.171796  0.828204  1
  F  F12  1  0.489723  0.833758  0.510277  1
  F  F13  1  0.171796  0.500335  0.828204  1
  F  F14  1  0.500335  0.171796  0.499665  1
  F  F15  1  0.833758  0.489723  0.166242  1
  F  F16  1  0.499998  0.499998  0.826553  1
  F  F17  1  0.499998  0.499998  0.173451  1
  F  F18  1  0.173447  0.826549  0.500002  1
  F  F19  1  0.826549  0.173447  0.500002  1
  F  F20  1  0.110063  0.110063  0.109750  1
  F  F21  1  0.893589  0.893589  0.879717  1
  F  F22  1  0.110063  0.110063  0.670125  1
  F  F23  1  0.120283  0.666894  0.106411  1
  F  F24  1  0.893589  0.893589  0.333106  1
  F  F25  1  0.890250  0.329875  0.889937  1
  F  F26  1  0.666894  0.120283  0.106411  1
  F  F27  1  0.329875  0.890250  0.889937  1
