# generated using pymatgen
data_La2DyEr3(IrO7)2
_symmetry_space_group_name_H-M   'P 1'
_cell_length_a   6.46654719
_cell_length_b   6.47161609
_cell_length_c   7.50970400
_cell_angle_alpha   90.00000000
_cell_angle_beta   90.00000000
_cell_angle_gamma   109.42676900
_symmetry_Int_Tables_number   1
_chemical_formula_structural   La2DyEr3(IrO7)2
_chemical_formula_sum   'La2 Dy1 Er3 Ir2 O14'
_cell_volume   296.38125599
_cell_formula_units_Z   1
loop_
 _symmetry_equiv_pos_site_id
 _symmetry_equiv_pos_as_xyz
  1  'x, y, z'
loop_
 _atom_site_type_symbol
 _atom_site_label
 _atom_site_symmetry_multiplicity
 _atom_site_fract_x
 _atom_site_fract_y
 _atom_site_fract_z
 _atom_site_occupancy
  La  La0  1  0.998316  0.999270  0.500874  1
  La  La1  1  0.998316  0.999270  0.999126  1
  Dy  Dy2  1  0.060845  0.515203  0.250000  1
  Er  Er3  1  0.513695  0.058291  0.250000  1
  Er  Er4  1  0.938498  0.486801  0.750000  1
  Er  Er5  1  0.486338  0.939152  0.750000  1
  Ir  Ir6  1  0.499102  0.498471  0.500800  1
  Ir  Ir7  1  0.499102  0.498471  0.999200  1
  O  O8  1  0.443401  0.180272  0.534140  1
  O  O9  1  0.819593  0.558159  0.468043  1
  O  O10  1  0.443401  0.180272  0.965860  1
  O  O11  1  0.819593  0.558159  0.031957  1
  O  O12  1  0.554873  0.818586  0.466825  1
  O  O13  1  0.180632  0.440755  0.535839  1
  O  O14  1  0.554873  0.818586  0.033175  1
  O  O15  1  0.180632  0.440755  0.964161  1
  O  O16  1  0.161112  0.879486  0.250000  1
  O  O17  1  0.124889  0.838013  0.750000  1
  O  O18  1  0.837290  0.125143  0.750000  1
  O  O19  1  0.874493  0.160313  0.250000  1
  O  O20  1  0.413920  0.410205  0.250000  1
  O  O21  1  0.597083  0.596365  0.750000  1
