# generated using pymatgen
data_Lu10Sc2InCo4Tc
_symmetry_space_group_name_H-M   'P 1'
_cell_length_a   8.03707623
_cell_length_b   8.03033169
_cell_length_c   8.03033329
_cell_angle_alpha   111.41428270
_cell_angle_beta   111.07050501
_cell_angle_gamma   105.95259555
_symmetry_Int_Tables_number   1
_chemical_formula_structural   Lu10Sc2InCo4Tc
_chemical_formula_sum   'Lu10 Sc2 In1 Co4 Tc1'
_cell_volume   398.01549417
_cell_formula_units_Z   1
loop_
 _symmetry_equiv_pos_site_id
 _symmetry_equiv_pos_as_xyz
  1  'x, y, z'
loop_
 _atom_site_type_symbol
 _atom_site_label
 _atom_site_symmetry_multiplicity
 _atom_site_fract_x
 _atom_site_fract_y
 _atom_site_fract_z
 _atom_site_occupancy
  Lu  Lu0  1  0.030333  0.226100  0.804235  1
  Lu  Lu1  1  0.969667  0.773900  0.195765  1
  Lu  Lu2  1  0.186179  0.279597  0.461699  1
  Lu  Lu3  1  0.813821  0.720403  0.538301  1
  Lu  Lu4  1  0.186179  0.724480  0.906583  1
  Lu  Lu5  1  0.813821  0.275520  0.093417  1
  Lu  Lu6  1  0.317188  0.617057  0.307647  1
  Lu  Lu7  1  0.682812  0.382943  0.692353  1
  Lu  Lu8  1  0.317188  0.009540  0.700132  1
  Lu  Lu9  1  0.682812  0.990460  0.299868  1
  Sc  Sc10  1  0.415202  0.220862  0.194340  1
  Sc  Sc11  1  0.584798  0.779138  0.805660  1
  In  In12  1  0.500000  0.500000  0.000000  1
  Co  Co13  1  0.373038  0.002654  0.370384  1
  Co  Co14  1  0.626962  0.997346  0.629616  1
  Co  Co15  1  0.112388  0.612829  0.499559  1
  Co  Co16  1  0.887612  0.387171  0.500441  1
  Tc  Tc17  1  0.000000  0.000000  0.000000  1
