# generated using pymatgen
data_Mg(GaCl4)2
_symmetry_space_group_name_H-M   'P 1'
_cell_length_a   8.27515427
_cell_length_b   8.27515387
_cell_length_c   11.94987578
_cell_angle_alpha   87.18549036
_cell_angle_beta   87.18549077
_cell_angle_gamma   59.88545958
_symmetry_Int_Tables_number   1
_chemical_formula_structural   Mg(GaCl4)2
_chemical_formula_sum   'Mg2 Ga4 Cl16'
_cell_volume   706.71675807
_cell_formula_units_Z   2
loop_
 _symmetry_equiv_pos_site_id
 _symmetry_equiv_pos_as_xyz
  1  'x, y, z'
loop_
 _atom_site_type_symbol
 _atom_site_label
 _atom_site_symmetry_multiplicity
 _atom_site_fract_x
 _atom_site_fract_y
 _atom_site_fract_z
 _atom_site_occupancy
  Mg  Mg0  1  0.001548  0.998452  0.750000  1
  Mg  Mg1  1  0.998452  0.001548  0.250000  1
  Ga  Ga2  1  0.837904  0.324280  0.445096  1
  Ga  Ga3  1  0.675720  0.162096  0.054904  1
  Ga  Ga4  1  0.324280  0.837904  0.945096  1
  Ga  Ga5  1  0.162096  0.675720  0.554904  1
  Cl  Cl6  1  0.836735  0.877061  0.137438  1
  Cl  Cl7  1  0.877061  0.836735  0.637438  1
  Cl  Cl8  1  0.690891  0.615194  0.398164  1
  Cl  Cl9  1  0.839897  0.285220  0.117150  1
  Cl  Cl10  1  0.852946  0.301150  0.632041  1
  Cl  Cl11  1  0.615194  0.690891  0.898164  1
  Cl  Cl12  1  0.714780  0.160103  0.382850  1
  Cl  Cl13  1  0.698850  0.147054  0.867959  1
  Cl  Cl14  1  0.301150  0.852946  0.132041  1
  Cl  Cl15  1  0.285220  0.839897  0.617150  1
  Cl  Cl16  1  0.384806  0.309109  0.101836  1
  Cl  Cl17  1  0.147054  0.698850  0.367959  1
  Cl  Cl18  1  0.160103  0.714780  0.882850  1
  Cl  Cl19  1  0.309109  0.384806  0.601836  1
  Cl  Cl20  1  0.122939  0.163265  0.362562  1
  Cl  Cl21  1  0.163265  0.122939  0.862562  1
