# generated using pymatgen
data_Ho4HfZrGa10
_symmetry_space_group_name_H-M   'P 1'
_cell_length_a   5.96434900
_cell_length_b   9.41320900
_cell_length_c   11.30057200
_cell_angle_alpha   90.00000000
_cell_angle_beta   90.00000000
_cell_angle_gamma   90.00000000
_symmetry_Int_Tables_number   1
_chemical_formula_structural   Ho4HfZrGa10
_chemical_formula_sum   'Ho8 Hf2 Zr2 Ga20'
_cell_volume   634.45551383
_cell_formula_units_Z   2
loop_
 _symmetry_equiv_pos_site_id
 _symmetry_equiv_pos_as_xyz
  1  'x, y, z'
loop_
 _atom_site_type_symbol
 _atom_site_label
 _atom_site_symmetry_multiplicity
 _atom_site_fract_x
 _atom_site_fract_y
 _atom_site_fract_z
 _atom_site_occupancy
  Ho  Ho0  1  0.887637  0.508254  0.352523  1
  Ho  Ho1  1  0.612363  0.991746  0.852523  1
  Ho  Ho2  1  0.113018  0.009017  0.647318  1
  Ho  Ho3  1  0.386982  0.490983  0.147318  1
  Ho  Ho4  1  0.113018  0.490983  0.647318  1
  Ho  Ho5  1  0.386982  0.009017  0.147318  1
  Ho  Ho6  1  0.887637  0.991746  0.352523  1
  Ho  Ho7  1  0.612363  0.508254  0.852523  1
  Hf  Hf8  1  0.143753  0.250000  0.925369  1
  Hf  Hf9  1  0.356247  0.250000  0.425369  1
  Zr  Zr10  1  0.857412  0.750000  0.074292  1
  Zr  Zr11  1  0.642588  0.750000  0.574292  1
  Ga  Ga12  1  0.875306  0.052641  0.088841  1
  Ga  Ga13  1  0.624694  0.447359  0.588841  1
  Ga  Ga14  1  0.124699  0.551748  0.911174  1
  Ga  Ga15  1  0.375301  0.948252  0.411174  1
  Ga  Ga16  1  0.124699  0.948252  0.911174  1
  Ga  Ga17  1  0.375301  0.551748  0.411174  1
  Ga  Ga18  1  0.875306  0.447359  0.088841  1
  Ga  Ga19  1  0.624694  0.052641  0.588841  1
  Ga  Ga20  1  0.163852  0.750000  0.252832  1
  Ga  Ga21  1  0.336148  0.750000  0.752832  1
  Ga  Ga22  1  0.836850  0.250000  0.747586  1
  Ga  Ga23  1  0.663150  0.250000  0.247586  1
  Ga  Ga24  1  0.387545  0.750000  0.002797  1
  Ga  Ga25  1  0.112455  0.750000  0.502797  1
  Ga  Ga26  1  0.611360  0.250000  0.997087  1
  Ga  Ga27  1  0.888640  0.250000  0.497087  1
  Ga  Ga28  1  0.604099  0.750000  0.293752  1
  Ga  Ga29  1  0.895901  0.750000  0.793752  1
  Ga  Ga30  1  0.395685  0.250000  0.706574  1
  Ga  Ga31  1  0.104315  0.250000  0.206574  1
