# generated using pymatgen
data_BaSc2(H6Os)2
_symmetry_space_group_name_H-M   'P 1'
_cell_length_a   4.79538600
_cell_length_b   4.79538815
_cell_length_c   8.35038500
_cell_angle_alpha   90.00000000
_cell_angle_beta   90.00000000
_cell_angle_gamma   119.99999898
_symmetry_Int_Tables_number   1
_chemical_formula_structural   BaSc2(H6Os)2
_chemical_formula_sum   'Ba1 Sc2 H12 Os2'
_cell_volume   166.29702203
_cell_formula_units_Z   1
loop_
 _symmetry_equiv_pos_site_id
 _symmetry_equiv_pos_as_xyz
  1  'x, y, z'
loop_
 _atom_site_type_symbol
 _atom_site_label
 _atom_site_symmetry_multiplicity
 _atom_site_fract_x
 _atom_site_fract_y
 _atom_site_fract_z
 _atom_site_occupancy
  Ba  Ba0  1  0.000000  0.000000  0.000000  1
  Sc  Sc1  1  0.666667  0.333333  0.375300  1
  Sc  Sc2  1  0.333333  0.666667  0.624700  1
  H  H3  1  0.158401  0.841599  0.394733  1
  H  H4  1  0.683200  0.841599  0.394733  1
  H  H5  1  0.158401  0.316800  0.394733  1
  H  H6  1  0.841599  0.158401  0.605267  1
  H  H7  1  0.316800  0.158401  0.605267  1
  H  H8  1  0.841599  0.683200  0.605267  1
  H  H9  1  0.498507  0.997013  0.832669  1
  H  H10  1  0.498507  0.501493  0.832669  1
  H  H11  1  0.002987  0.501493  0.832669  1
  H  H12  1  0.501493  0.002987  0.167331  1
  H  H13  1  0.501493  0.498507  0.167331  1
  H  H14  1  0.997013  0.498507  0.167331  1
  Os  Os15  1  0.666667  0.333333  0.711139  1
  Os  Os16  1  0.333333  0.666667  0.288861  1
