# generated using pymatgen
data_La2Pr3Al2Os2Ru
_symmetry_space_group_name_H-M   'P 1'
_cell_length_a   8.60081549
_cell_length_b   8.64741533
_cell_length_c   8.65119056
_cell_angle_alpha   109.33129015
_cell_angle_beta   109.59089854
_cell_angle_gamma   109.06821435
_symmetry_Int_Tables_number   1
_chemical_formula_structural   La2Pr3Al2Os2Ru
_chemical_formula_sum   'La4 Pr6 Al4 Os4 Ru2'
_cell_volume   497.87595858
_cell_formula_units_Z   2
loop_
 _symmetry_equiv_pos_site_id
 _symmetry_equiv_pos_as_xyz
  1  'x, y, z'
loop_
 _atom_site_type_symbol
 _atom_site_label
 _atom_site_symmetry_multiplicity
 _atom_site_fract_x
 _atom_site_fract_y
 _atom_site_fract_z
 _atom_site_occupancy
  La  La0  1  0.251219  0.686101  0.440381  1
  La  La1  1  0.751817  0.816570  0.060404  1
  La  La2  1  0.437660  0.247656  0.685373  1
  La  La3  1  0.688133  0.440039  0.253853  1
  Pr  Pr4  1  0.066371  0.751955  0.819178  1
  Pr  Pr5  1  0.819558  0.066263  0.749360  1
  Pr  Pr6  1  0.213874  0.216367  0.213749  1
  Pr  Pr7  1  0.498280  0.995826  0.284274  1
  Pr  Pr8  1  0.287260  0.501226  0.999322  1
  Pr  Pr9  1  0.998286  0.286223  0.502556  1
  Al  Al10  1  0.590427  0.587116  0.589767  1
  Al  Al11  1  0.500144  0.005227  0.914941  1
  Al  Al12  1  0.913886  0.498072  0.000399  1
  Al  Al13  1  0.000735  0.912539  0.498470  1
  Os  Os14  1  0.248440  0.119443  0.860203  1
  Os  Os15  1  0.742205  0.377091  0.634179  1
  Os  Os16  1  0.861667  0.252835  0.119812  1
  Os  Os17  1  0.111664  0.861833  0.246458  1
  Ru  Ru18  1  0.632990  0.737446  0.378195  1
  Ru  Ru19  1  0.385380  0.640169  0.749125  1
