# generated using pymatgen
data_SmDy3(Al8Pd3)3
_symmetry_space_group_name_H-M   'P 1'
_cell_length_a   7.57406048
_cell_length_b   7.60349751
_cell_length_c   13.19351100
_cell_angle_alpha   84.50108210
_cell_angle_beta   79.01215164
_cell_angle_gamma   59.95278182
_symmetry_Int_Tables_number   1
_chemical_formula_structural   SmDy3(Al8Pd3)3
_chemical_formula_sum   'Sm1 Dy3 Al24 Pd9'
_cell_volume   645.64052473
_cell_formula_units_Z   1
loop_
 _symmetry_equiv_pos_site_id
 _symmetry_equiv_pos_as_xyz
  1  'x, y, z'
loop_
 _atom_site_type_symbol
 _atom_site_label
 _atom_site_symmetry_multiplicity
 _atom_site_fract_x
 _atom_site_fract_y
 _atom_site_fract_z
 _atom_site_occupancy
  Sm  Sm0  1  0.393039  0.168374  0.809186  1
  Dy  Dy1  1  0.606455  0.831306  0.192127  1
  Dy  Dy2  1  0.733442  0.498213  0.808574  1
  Dy  Dy3  1  0.266453  0.501812  0.192063  1
  Al  Al4  1  0.685569  0.832761  0.946465  1
  Al  Al5  1  0.315321  0.166216  0.056916  1
  Al  Al6  1  0.146193  0.833405  0.560803  1
  Al  Al7  1  0.854483  0.166800  0.437547  1
  Al  Al8  1  0.479683  0.166781  0.558250  1
  Al  Al9  1  0.520862  0.833019  0.440251  1
  Al  Al10  1  0.216921  0.165277  0.329909  1
  Al  Al11  1  0.785088  0.833776  0.667499  1
  Al  Al12  1  0.437506  0.507832  0.667960  1
  Al  Al13  1  0.563112  0.493088  0.329691  1
  Al  Al14  1  0.109058  0.159398  0.666711  1
  Al  Al15  1  0.890648  0.840502  0.330872  1
  Al  Al16  1  0.351703  0.500909  0.946463  1
  Al  Al17  1  0.646568  0.501099  0.055875  1
  Al  Al18  1  0.013460  0.167112  0.957393  1
  Al  Al19  1  0.984407  0.831872  0.046852  1
  Al  Al20  1  0.186884  0.499583  0.440286  1
  Al  Al21  1  0.813190  0.500442  0.558905  1
  Al  Al22  1  0.733967  0.164140  0.183886  1
  Al  Al23  1  0.266314  0.834255  0.816029  1
  Al  Al24  1  0.059830  0.632458  0.814917  1
  Al  Al25  1  0.937985  0.369113  0.185351  1
  Al  Al26  1  0.857037  0.042059  0.816094  1
  Al  Al27  1  0.144208  0.958400  0.184259  1
  Pd  Pd28  1  0.119945  0.492686  0.637492  1
  Pd  Pd29  1  0.880391  0.507631  0.361558  1
  Pd  Pd30  1  0.656818  0.171391  0.000803  1
  Pd  Pd31  1  0.342736  0.828693  0.000612  1
  Pd  Pd32  1  0.537912  0.166819  0.361384  1
  Pd  Pd33  1  0.462192  0.833090  0.637356  1
  Pd  Pd34  1  0.778568  0.174689  0.636841  1
  Pd  Pd35  1  0.222094  0.824932  0.362018  1
  Pd  Pd36  1  0.999956  0.500066  0.000801  1
