# generated using pymatgen
data_La3SmHf4F28
_symmetry_space_group_name_H-M   'P 1'
_cell_length_a   5.89764077
_cell_length_b   9.37693273
_cell_length_c   12.58014004
_cell_angle_alpha   61.98646752
_cell_angle_beta   90.07412694
_cell_angle_gamma   90.01547950
_symmetry_Int_Tables_number   1
_chemical_formula_structural   La3SmHf4F28
_chemical_formula_sum   'La3 Sm1 Hf4 F28'
_cell_volume   614.19258397
_cell_formula_units_Z   1
loop_
 _symmetry_equiv_pos_site_id
 _symmetry_equiv_pos_as_xyz
  1  'x, y, z'
loop_
 _atom_site_type_symbol
 _atom_site_label
 _atom_site_symmetry_multiplicity
 _atom_site_fract_x
 _atom_site_fract_y
 _atom_site_fract_z
 _atom_site_occupancy
  La  La0  1  0.743243  0.809564  0.266696  1
  La  La1  1  0.242954  0.188107  0.233247  1
  La  La2  1  0.256859  0.185441  0.733568  1
  Sm  Sm3  1  0.757376  0.809850  0.766617  1
  Hf  Hf4  1  0.745132  0.270103  0.457356  1
  Hf  Hf5  1  0.244942  0.726370  0.040647  1
  Hf  Hf6  1  0.256208  0.726354  0.548571  1
  Hf  Hf7  1  0.755572  0.277910  0.953398  1
  F  F8  1  0.461822  0.713508  0.922180  1
  F  F9  1  0.955736  0.288658  0.575193  1
  F  F10  1  0.545228  0.290958  0.073684  1
  F  F11  1  0.044767  0.712248  0.428920  1
  F  F12  1  0.464961  0.283261  0.544297  1
  F  F13  1  0.965823  0.718432  0.949391  1
  F  F14  1  0.532243  0.716316  0.457526  1
  F  F15  1  0.035025  0.286705  0.042591  1
  F  F16  1  0.764058  0.521032  0.859550  1
  F  F17  1  0.265706  0.484794  0.641219  1
  F  F18  1  0.232251  0.485221  0.136514  1
  F  F19  1  0.733992  0.512442  0.362764  1
  F  F20  1  0.760440  0.036985  0.052446  1
  F  F21  1  0.260492  0.966940  0.448230  1
  F  F22  1  0.239650  0.967514  0.946039  1
  F  F23  1  0.740383  0.029165  0.558140  1
  F  F24  1  0.992855  0.734153  0.648088  1
  F  F25  1  0.492250  0.269142  0.855644  1
  F  F26  1  0.009634  0.266880  0.358355  1
  F  F27  1  0.507257  0.731447  0.140735  1
  F  F28  1  0.042463  0.743045  0.164298  1
  F  F29  1  0.544992  0.254533  0.333049  1
  F  F30  1  0.956814  0.259099  0.830862  1
  F  F31  1  0.464432  0.746212  0.669570  1
  F  F32  1  0.418008  0.967856  0.232819  1
  F  F33  1  0.917018  0.030335  0.267066  1
  F  F34  1  0.579910  0.022247  0.766228  1
  F  F35  1  0.069506  0.967175  0.734508  1
