# generated using pymatgen
data_Mg3VP7N12
_symmetry_space_group_name_H-M   'P 1'
_cell_length_a   7.23701348
_cell_length_b   7.23701396
_cell_length_c   7.23701426
_cell_angle_alpha   109.54648460
_cell_angle_beta   109.54648979
_cell_angle_gamma   109.54647241
_symmetry_Int_Tables_number   1
_chemical_formula_structural   Mg3VP7N12
_chemical_formula_sum   'Mg3 V1 P7 N12'
_cell_volume   290.96466104
_cell_formula_units_Z   1
loop_
 _symmetry_equiv_pos_site_id
 _symmetry_equiv_pos_as_xyz
  1  'x, y, z'
loop_
 _atom_site_type_symbol
 _atom_site_label
 _atom_site_symmetry_multiplicity
 _atom_site_fract_x
 _atom_site_fract_y
 _atom_site_fract_z
 _atom_site_occupancy
  Mg  Mg0  1  0.000508  0.662711  0.000508  1
  Mg  Mg1  1  0.662711  0.000508  0.000508  1
  Mg  Mg2  1  0.000508  0.000508  0.662711  1
  V  V3  1  0.345127  0.345127  0.345127  1
  P  P4  1  0.497492  0.248673  0.749231  1
  P  P5  1  0.497492  0.749231  0.248673  1
  P  P6  1  0.749231  0.248673  0.497492  1
  P  P7  1  0.248673  0.497492  0.749231  1
  P  P8  1  0.749231  0.497492  0.248673  1
  P  P9  1  0.248673  0.749231  0.497492  1
  P  P10  1  0.020722  0.020722  0.020722  1
  N  N11  1  0.999038  0.721984  0.438970  1
  N  N12  1  0.272229  0.708208  0.272229  1
  N  N13  1  0.288013  0.559484  0.559484  1
  N  N14  1  0.559484  0.559484  0.288013  1
  N  N15  1  0.559484  0.288013  0.559484  1
  N  N16  1  0.721984  0.999038  0.438970  1
  N  N17  1  0.438970  0.999038  0.721984  1
  N  N18  1  0.721984  0.438970  0.999038  1
  N  N19  1  0.272229  0.272229  0.708208  1
  N  N20  1  0.708208  0.272229  0.272229  1
  N  N21  1  0.999038  0.438970  0.721984  1
  N  N22  1  0.438970  0.721984  0.999038  1
