# generated using pymatgen
data_Dy4Tm16(Bi3Sb)3
_symmetry_space_group_name_H-M   'P 1'
_cell_length_a   8.13625021
_cell_length_b   9.40178500
_cell_length_c   11.87824646
_cell_angle_alpha   90.00000000
_cell_angle_beta   90.04720301
_cell_angle_gamma   90.00000000
_symmetry_Int_Tables_number   1
_chemical_formula_structural   Dy4Tm16(Bi3Sb)3
_chemical_formula_sum   'Dy4 Tm16 Bi9 Sb3'
_cell_volume   908.62942351
_cell_formula_units_Z   1
loop_
 _symmetry_equiv_pos_site_id
 _symmetry_equiv_pos_as_xyz
  1  'x, y, z'
loop_
 _atom_site_type_symbol
 _atom_site_label
 _atom_site_symmetry_multiplicity
 _atom_site_fract_x
 _atom_site_fract_y
 _atom_site_fract_z
 _atom_site_occupancy
  Dy  Dy0  1  0.317742  0.250000  0.216136  1
  Dy  Dy1  1  0.811219  0.250000  0.278968  1
  Dy  Dy2  1  0.683628  0.750000  0.782157  1
  Dy  Dy3  1  0.184108  0.750000  0.717925  1
  Tm  Tm4  1  0.352616  0.750000  0.213833  1
  Tm  Tm5  1  0.853125  0.750000  0.285575  1
  Tm  Tm6  1  0.647184  0.250000  0.785819  1
  Tm  Tm7  1  0.148175  0.250000  0.717441  1
  Tm  Tm8  1  0.689441  0.564438  0.057959  1
  Tm  Tm9  1  0.190829  0.932149  0.441902  1
  Tm  Tm10  1  0.310755  0.064014  0.942219  1
  Tm  Tm11  1  0.807951  0.438319  0.559592  1
  Tm  Tm12  1  0.310755  0.435986  0.942219  1
  Tm  Tm13  1  0.807951  0.061681  0.559592  1
  Tm  Tm14  1  0.689441  0.935562  0.057959  1
  Tm  Tm15  1  0.190829  0.567851  0.441902  1
  Tm  Tm16  1  0.476411  0.250000  0.488769  1
  Tm  Tm17  1  0.973564  0.250000  0.010977  1
  Tm  Tm18  1  0.528007  0.750000  0.511857  1
  Tm  Tm19  1  0.027015  0.750000  0.988783  1
  Bi  Bi20  1  0.093462  0.250000  0.457772  1
  Bi  Bi21  1  0.565256  0.994126  0.325912  1
  Bi  Bi22  1  0.065672  0.504995  0.174088  1
  Bi  Bi23  1  0.434067  0.494586  0.674312  1
  Bi  Bi24  1  0.934224  0.004932  0.826119  1
  Bi  Bi25  1  0.434067  0.005414  0.674312  1
  Bi  Bi26  1  0.934224  0.495068  0.826119  1
  Bi  Bi27  1  0.565256  0.505874  0.325912  1
  Bi  Bi28  1  0.065672  0.995005  0.174088  1
  Sb  Sb29  1  0.405857  0.750000  0.959286  1
  Sb  Sb30  1  0.906634  0.750000  0.540442  1
  Sb  Sb31  1  0.594863  0.250000  0.040051  1
