# generated using pymatgen
data_AcP12(OsRu)2
_symmetry_space_group_name_H-M   'P 1'
_cell_length_a   7.05578832
_cell_length_b   7.05880263
_cell_length_c   7.05880154
_cell_angle_alpha   109.48705792
_cell_angle_beta   109.47126305
_cell_angle_gamma   109.47274365
_symmetry_Int_Tables_number   1
_chemical_formula_structural   AcP12(OsRu)2
_chemical_formula_sum   'Ac1 P12 Os2 Ru2'
_cell_volume   270.57791469
_cell_formula_units_Z   1
loop_
 _symmetry_equiv_pos_site_id
 _symmetry_equiv_pos_as_xyz
  1  'x, y, z'
loop_
 _atom_site_type_symbol
 _atom_site_label
 _atom_site_symmetry_multiplicity
 _atom_site_fract_x
 _atom_site_fract_y
 _atom_site_fract_z
 _atom_site_occupancy
  Ac  Ac0  1  0.000000  0.000000  0.000000  1
  P  P1  1  0.855691  0.640921  0.497003  1
  P  P2  1  0.144309  0.359079  0.502997  1
  P  P3  1  0.144311  0.641313  0.785231  1
  P  P4  1  0.855689  0.358687  0.214769  1
  P  P5  1  0.640945  0.496964  0.855697  1
  P  P6  1  0.359055  0.503036  0.144303  1
  P  P7  1  0.640946  0.785248  0.143982  1
  P  P8  1  0.359054  0.214752  0.856018  1
  P  P9  1  0.496969  0.855728  0.641243  1
  P  P10  1  0.503031  0.144272  0.358757  1
  P  P11  1  0.215127  0.856079  0.359047  1
  P  P12  1  0.784873  0.143921  0.640953  1
  Os  Os13  1  0.000000  0.500000  0.000000  1
  Os  Os14  1  0.000000  0.000000  0.500000  1
  Ru  Ru15  1  0.500000  0.500000  0.500000  1
  Ru  Ru16  1  0.500000  0.000000  0.000000  1
