# generated using pymatgen
data_TaNb2Al2PdC
_symmetry_space_group_name_H-M   'P 1'
_cell_length_a   8.38302465
_cell_length_b   8.37854471
_cell_length_c   8.38302492
_cell_angle_alpha   59.93152162
_cell_angle_beta   59.96684687
_cell_angle_gamma   59.93151705
_symmetry_Int_Tables_number   1
_chemical_formula_structural   TaNb2Al2PdC
_chemical_formula_sum   'Ta4 Nb8 Al8 Pd4 C4'
_cell_volume   415.81110013
_cell_formula_units_Z   4
loop_
 _symmetry_equiv_pos_site_id
 _symmetry_equiv_pos_as_xyz
  1  'x, y, z'
loop_
 _atom_site_type_symbol
 _atom_site_label
 _atom_site_symmetry_multiplicity
 _atom_site_fract_x
 _atom_site_fract_y
 _atom_site_fract_z
 _atom_site_occupancy
  Ta  Ta0  1  0.568565  0.931881  0.931833  1
  Ta  Ta1  1  0.931833  0.931881  0.568565  1
  Ta  Ta2  1  0.681763  0.318172  0.681763  1
  Ta  Ta3  1  0.931605  0.568657  0.931605  1
  Nb  Nb4  1  0.567714  0.932395  0.567714  1
  Nb  Nb5  1  0.317584  0.682315  0.682548  1
  Nb  Nb6  1  0.682760  0.317524  0.317637  1
  Nb  Nb7  1  0.317533  0.682678  0.317533  1
  Nb  Nb8  1  0.682548  0.682315  0.317584  1
  Nb  Nb9  1  0.317637  0.317524  0.682760  1
  Nb  Nb10  1  0.567617  0.567379  0.932603  1
  Nb  Nb11  1  0.932603  0.567379  0.567617  1
  Al  Al12  1  0.916045  0.915726  0.916045  1
  Al  Al13  1  0.997352  0.334412  0.333981  1
  Al  Al14  1  0.334430  0.997053  0.334430  1
  Al  Al15  1  0.333981  0.334412  0.997352  1
  Al  Al16  1  0.915794  0.252692  0.915794  1
  Al  Al17  1  0.915624  0.915747  0.252670  1
  Al  Al18  1  0.252670  0.915747  0.915624  1
  Al  Al19  1  0.334350  0.334152  0.334350  1
  Pd  Pd20  1  0.125179  0.125193  0.125179  1
  Pd  Pd21  1  0.625338  0.124870  0.123226  1
  Pd  Pd22  1  0.124430  0.625038  0.124430  1
  Pd  Pd23  1  0.123226  0.124870  0.625338  1
  C  C24  1  0.625487  0.623631  0.625487  1
  C  C25  1  0.123379  0.626151  0.626381  1
  C  C26  1  0.626575  0.124058  0.626575  1
  C  C27  1  0.626381  0.626151  0.123379  1
