# generated using pymatgen
data_Ho5Pa(Al3Os)8
_symmetry_space_group_name_H-M   'P 1'
_cell_length_a   8.79794800
_cell_length_b   8.83563606
_cell_length_c   9.56484500
_cell_angle_alpha   90.00000000
_cell_angle_beta   90.00000000
_cell_angle_gamma   119.85899971
_symmetry_Int_Tables_number   1
_chemical_formula_structural   Ho5Pa(Al3Os)8
_chemical_formula_sum   'Ho5 Pa1 Al24 Os8'
_cell_volume   644.82679732
_cell_formula_units_Z   1
loop_
 _symmetry_equiv_pos_site_id
 _symmetry_equiv_pos_as_xyz
  1  'x, y, z'
loop_
 _atom_site_type_symbol
 _atom_site_label
 _atom_site_symmetry_multiplicity
 _atom_site_fract_x
 _atom_site_fract_y
 _atom_site_fract_z
 _atom_site_occupancy
  Ho  Ho0  1  0.807579  0.615159  0.750000  1
  Ho  Ho1  1  0.609701  0.802762  0.250000  1
  Ho  Ho2  1  0.388777  0.192543  0.750000  1
  Ho  Ho3  1  0.193061  0.802762  0.250000  1
  Ho  Ho4  1  0.803765  0.192543  0.750000  1
  Pa  Pa5  1  0.196706  0.393411  0.250000  1
  Al  Al6  1  0.336369  0.672739  0.018324  1
  Al  Al7  1  0.667797  0.335592  0.980295  1
  Al  Al8  1  0.667797  0.335592  0.519705  1
  Al  Al9  1  0.336369  0.672739  0.481676  1
  Al  Al10  1  0.163246  0.326493  0.577619  1
  Al  Al11  1  0.836672  0.673344  0.424816  1
  Al  Al12  1  0.672290  0.835355  0.575096  1
  Al  Al13  1  0.836672  0.673344  0.075184  1
  Al  Al14  1  0.326340  0.162084  0.423613  1
  Al  Al15  1  0.163246  0.326493  0.922381  1
  Al  Al16  1  0.163064  0.835355  0.575096  1
  Al  Al17  1  0.326340  0.162084  0.076387  1
  Al  Al18  1  0.835743  0.162084  0.423613  1
  Al  Al19  1  0.672290  0.835355  0.924904  1
  Al  Al20  1  0.835743  0.162084  0.076387  1
  Al  Al21  1  0.163064  0.835355  0.924904  1
  Al  Al22  1  0.559847  0.119694  0.250000  1
  Al  Al23  1  0.437777  0.875553  0.750000  1
  Al  Al24  1  0.872862  0.437543  0.250000  1
  Al  Al25  1  0.120496  0.559833  0.750000  1
  Al  Al26  1  0.564680  0.437543  0.250000  1
  Al  Al27  1  0.439338  0.559833  0.750000  1
  Al  Al28  1  0.000737  0.001474  0.250000  1
  Al  Al29  1  0.000359  0.000719  0.750000  1
  Os  Os30  1  0.501706  0.003411  0.998052  1
  Os  Os31  1  0.003322  0.499672  0.004551  1
  Os  Os32  1  0.501706  0.003411  0.501948  1
  Os  Os33  1  0.496350  0.499672  0.004551  1
  Os  Os34  1  0.003322  0.499672  0.495449  1
  Os  Os35  1  0.496350  0.499672  0.495449  1
  Os  Os36  1  0.999256  0.998513  0.999329  1
  Os  Os37  1  0.999256  0.998513  0.500671  1
