# generated using pymatgen
data_SrLa3(Yb3Pt4)2
_symmetry_space_group_name_H-M   'P 1'
_cell_length_a   7.62182800
_cell_length_b   7.74923396
_cell_length_c   14.75821133
_cell_angle_alpha   89.79119320
_cell_angle_beta   90.00000000
_cell_angle_gamma   90.00000000
_symmetry_Int_Tables_number   1
_chemical_formula_structural   SrLa3(Yb3Pt4)2
_chemical_formula_sum   'Sr2 La6 Yb12 Pt16'
_cell_volume   871.66329299
_cell_formula_units_Z   2
loop_
 _symmetry_equiv_pos_site_id
 _symmetry_equiv_pos_as_xyz
  1  'x, y, z'
loop_
 _atom_site_type_symbol
 _atom_site_label
 _atom_site_symmetry_multiplicity
 _atom_site_fract_x
 _atom_site_fract_y
 _atom_site_fract_z
 _atom_site_occupancy
  Sr  Sr0  1  0.502184  0.325370  0.595926  1
  Sr  Sr1  1  0.002184  0.174630  0.904074  1
  La  La2  1  0.498516  0.323381  0.900972  1
  La  La3  1  0.998516  0.176619  0.599028  1
  La  La4  1  0.500695  0.676284  0.401841  1
  La  La5  1  0.000695  0.823716  0.098159  1
  La  La6  1  0.500634  0.676610  0.097351  1
  La  La7  1  0.000634  0.823390  0.402649  1
  Yb  Yb8  1  0.339071  0.832619  0.876254  1
  Yb  Yb9  1  0.839071  0.667381  0.623746  1
  Yb  Yb10  1  0.659508  0.169692  0.376608  1
  Yb  Yb11  1  0.159508  0.330308  0.123392  1
  Yb  Yb12  1  0.659656  0.169792  0.123965  1
  Yb  Yb13  1  0.159656  0.330208  0.376035  1
  Yb  Yb14  1  0.340887  0.830867  0.624141  1
  Yb  Yb15  1  0.840887  0.669133  0.875859  1
  Yb  Yb16  1  0.177315  0.501970  0.749358  1
  Yb  Yb17  1  0.677315  0.998030  0.750642  1
  Yb  Yb18  1  0.823326  0.495705  0.249892  1
  Yb  Yb19  1  0.323326  0.004295  0.250108  1
  Pt  Pt20  1  0.326904  0.025654  0.044528  1
  Pt  Pt21  1  0.826904  0.474346  0.455472  1
  Pt  Pt22  1  0.682636  0.961975  0.537088  1
  Pt  Pt23  1  0.182636  0.538025  0.962912  1
  Pt  Pt24  1  0.668346  0.962662  0.962297  1
  Pt  Pt25  1  0.168346  0.537338  0.537703  1
  Pt  Pt26  1  0.321018  0.022090  0.457327  1
  Pt  Pt27  1  0.821018  0.477910  0.042673  1
  Pt  Pt28  1  0.545344  0.620584  0.753906  1
  Pt  Pt29  1  0.045344  0.879416  0.746094  1
  Pt  Pt30  1  0.454369  0.383317  0.250200  1
  Pt  Pt31  1  0.954369  0.116683  0.249800  1
  Pt  Pt32  1  0.304791  0.136330  0.753525  1
  Pt  Pt33  1  0.804791  0.363670  0.746475  1
  Pt  Pt34  1  0.694798  0.858753  0.250445  1
  Pt  Pt35  1  0.194798  0.641247  0.249555  1
