# generated using pymatgen
data_Na4Yb2TiAs4
_symmetry_space_group_name_H-M   'P 1'
_cell_length_a   9.44438065
_cell_length_b   9.44438068
_cell_length_c   7.31464963
_cell_angle_alpha   89.21301401
_cell_angle_beta   89.21301808
_cell_angle_gamma   119.88024182
_symmetry_Int_Tables_number   1
_chemical_formula_structural   Na4Yb2TiAs4
_chemical_formula_sum   'Na8 Yb4 Ti2 As8'
_cell_volume   565.49741402
_cell_formula_units_Z   2
loop_
 _symmetry_equiv_pos_site_id
 _symmetry_equiv_pos_as_xyz
  1  'x, y, z'
loop_
 _atom_site_type_symbol
 _atom_site_label
 _atom_site_symmetry_multiplicity
 _atom_site_fract_x
 _atom_site_fract_y
 _atom_site_fract_z
 _atom_site_occupancy
  Na  Na0  1  0.471602  0.939346  0.384435  1
  Na  Na1  1  0.939346  0.471602  0.884435  1
  Na  Na2  1  0.865663  0.727055  0.202710  1
  Na  Na3  1  0.279314  0.133329  0.228075  1
  Na  Na4  1  0.855526  0.135179  0.216025  1
  Na  Na5  1  0.133329  0.279314  0.728075  1
  Na  Na6  1  0.727055  0.865663  0.702710  1
  Na  Na7  1  0.135179  0.855526  0.716025  1
  Yb  Yb8  1  0.057196  0.530279  0.389398  1
  Yb  Yb9  1  0.477362  0.531147  0.384213  1
  Yb  Yb10  1  0.530279  0.057196  0.889398  1
  Yb  Yb11  1  0.531147  0.477362  0.884213  1
  Ti  Ti12  1  0.663991  0.330236  0.497092  1
  Ti  Ti13  1  0.330236  0.663991  0.997092  1
  As  As14  1  0.197860  0.382544  0.123579  1
  As  As15  1  0.619170  0.805479  0.093181  1
  As  As16  1  0.194805  0.811303  0.106087  1
  As  As17  1  0.805479  0.619170  0.593181  1
  As  As18  1  0.382544  0.197860  0.623579  1
  As  As19  1  0.811303  0.194805  0.606087  1
  As  As20  1  0.657676  0.333953  0.157502  1
  As  As21  1  0.333953  0.657676  0.657502  1
