# generated using pymatgen
data_LuMnFe2Ni2P3
_symmetry_space_group_name_H-M   'P 1'
_cell_length_a   3.67223600
_cell_length_b   10.28049800
_cell_length_c   11.91784200
_cell_angle_alpha   90.00000000
_cell_angle_beta   90.00000000
_cell_angle_gamma   90.00000000
_symmetry_Int_Tables_number   1
_chemical_formula_structural   LuMnFe2Ni2P3
_chemical_formula_sum   'Lu4 Mn4 Fe8 Ni8 P12'
_cell_volume   449.92731534
_cell_formula_units_Z   4
loop_
 _symmetry_equiv_pos_site_id
 _symmetry_equiv_pos_as_xyz
  1  'x, y, z'
loop_
 _atom_site_type_symbol
 _atom_site_label
 _atom_site_symmetry_multiplicity
 _atom_site_fract_x
 _atom_site_fract_y
 _atom_site_fract_z
 _atom_site_occupancy
  Lu  Lu0  1  0.250000  0.579521  0.707695  1
  Lu  Lu1  1  0.250000  0.920479  0.207695  1
  Lu  Lu2  1  0.750000  0.420479  0.292305  1
  Lu  Lu3  1  0.750000  0.079521  0.792305  1
  Mn  Mn4  1  0.250000  0.704914  0.990187  1
  Mn  Mn5  1  0.250000  0.795086  0.490187  1
  Mn  Mn6  1  0.750000  0.295086  0.009813  1
  Mn  Mn7  1  0.750000  0.204914  0.509813  1
  Fe  Fe8  1  0.250000  0.875576  0.701385  1
  Fe  Fe9  1  0.250000  0.624424  0.201385  1
  Fe  Fe10  1  0.750000  0.124424  0.298615  1
  Fe  Fe11  1  0.750000  0.375576  0.798615  1
  Fe  Fe12  1  0.250000  0.461629  0.931915  1
  Fe  Fe13  1  0.250000  0.038371  0.431915  1
  Fe  Fe14  1  0.750000  0.538371  0.068085  1
  Fe  Fe15  1  0.750000  0.961629  0.568085  1
  Ni  Ni16  1  0.250000  0.407920  0.485551  1
  Ni  Ni17  1  0.250000  0.092080  0.985551  1
  Ni  Ni18  1  0.750000  0.592080  0.514449  1
  Ni  Ni19  1  0.750000  0.907920  0.014449  1
  Ni  Ni20  1  0.250000  0.225403  0.172378  1
  Ni  Ni21  1  0.250000  0.274597  0.672378  1
  Ni  Ni22  1  0.750000  0.774597  0.827622  1
  Ni  Ni23  1  0.750000  0.725403  0.327622  1
  P  P24  1  0.250000  0.430899  0.113487  1
  P  P25  1  0.250000  0.069101  0.613487  1
  P  P26  1  0.750000  0.569101  0.886513  1
  P  P27  1  0.750000  0.930899  0.386513  1
  P  P28  1  0.250000  0.268945  0.862706  1
  P  P29  1  0.250000  0.231055  0.362706  1
  P  P30  1  0.750000  0.731055  0.137294  1
  P  P31  1  0.750000  0.768945  0.637294  1
  P  P32  1  0.250000  0.599859  0.387495  1
  P  P33  1  0.250000  0.900141  0.887495  1
  P  P34  1  0.750000  0.400141  0.612505  1
  P  P35  1  0.750000  0.099859  0.112505  1
