# generated using pymatgen
data_CaLa9(IrPb3)2
_symmetry_space_group_name_H-M   'P 1'
_cell_length_a   9.74391500
_cell_length_b   9.74391482
_cell_length_c   7.24115600
_cell_angle_alpha   90.00000000
_cell_angle_beta   90.00000000
_cell_angle_gamma   119.99999723
_symmetry_Int_Tables_number   1
_chemical_formula_structural   CaLa9(IrPb3)2
_chemical_formula_sum   'Ca1 La9 Ir2 Pb6'
_cell_volume   595.39545222
_cell_formula_units_Z   1
loop_
 _symmetry_equiv_pos_site_id
 _symmetry_equiv_pos_as_xyz
  1  'x, y, z'
loop_
 _atom_site_type_symbol
 _atom_site_label
 _atom_site_symmetry_multiplicity
 _atom_site_fract_x
 _atom_site_fract_y
 _atom_site_fract_z
 _atom_site_occupancy
  Ca  Ca0  1  0.333333  0.666667  0.500000  1
  La  La1  1  0.233494  0.234950  0.749019  1
  La  La2  1  0.001456  0.766506  0.749019  1
  La  La3  1  0.233494  0.998544  0.250981  1
  La  La4  1  0.765050  0.998544  0.749019  1
  La  La5  1  0.666667  0.333333  0.500000  1
  La  La6  1  0.765050  0.766506  0.250981  1
  La  La7  1  0.001456  0.234950  0.250981  1
  La  La8  1  0.333333  0.666667  0.000000  1
  La  La9  1  0.666667  0.333333  0.000000  1
  Ir  Ir10  1  0.000000  0.000000  0.000000  1
  Ir  Ir11  1  0.000000  0.000000  0.500000  1
  Pb  Pb12  1  0.590708  0.999752  0.248494  1
  Pb  Pb13  1  0.000248  0.590956  0.248494  1
  Pb  Pb14  1  0.590708  0.590956  0.751506  1
  Pb  Pb15  1  0.409044  0.409292  0.248494  1
  Pb  Pb16  1  0.000248  0.409292  0.751506  1
  Pb  Pb17  1  0.409044  0.999752  0.751506  1
