# generated using pymatgen
data_Dy4CrOs6W
_symmetry_space_group_name_H-M   'P 1'
_cell_length_a   5.21563431
_cell_length_b   5.21563561
_cell_length_c   8.89248100
_cell_angle_alpha   90.00000000
_cell_angle_beta   90.00000000
_cell_angle_gamma   116.08613890
_symmetry_Int_Tables_number   1
_chemical_formula_structural   Dy4CrOs6W
_chemical_formula_sum   'Dy4 Cr1 Os6 W1'
_cell_volume   217.25933667
_cell_formula_units_Z   1
loop_
 _symmetry_equiv_pos_site_id
 _symmetry_equiv_pos_as_xyz
  1  'x, y, z'
loop_
 _atom_site_type_symbol
 _atom_site_label
 _atom_site_symmetry_multiplicity
 _atom_site_fract_x
 _atom_site_fract_y
 _atom_site_fract_z
 _atom_site_occupancy
  Dy  Dy0  1  0.329155  0.670845  0.437146  1
  Dy  Dy1  1  0.667102  0.332898  0.566684  1
  Dy  Dy2  1  0.667102  0.332898  0.933316  1
  Dy  Dy3  1  0.329155  0.670845  0.062854  1
  Cr  Cr4  1  0.171244  0.828756  0.750000  1
  Os  Os5  1  0.999176  0.000824  0.506285  1
  Os  Os6  1  0.999176  0.000824  0.993715  1
  Os  Os7  1  0.827652  0.650735  0.250000  1
  Os  Os8  1  0.349265  0.172348  0.250000  1
  Os  Os9  1  0.171400  0.348929  0.750000  1
  Os  Os10  1  0.651071  0.828600  0.750000  1
  W  W11  1  0.838501  0.161499  0.250000  1
