# generated using pymatgen
data_NaPr2Ge2(PPd5)4
_symmetry_space_group_name_H-M   'P 1'
_cell_length_a   8.70182891
_cell_length_b   8.81184925
_cell_length_c   8.81185071
_cell_angle_alpha   59.17566089
_cell_angle_beta   60.41217027
_cell_angle_gamma   60.41217038
_symmetry_Int_Tables_number   1
_chemical_formula_structural   NaPr2Ge2(PPd5)4
_chemical_formula_sum   'Na1 Pr2 Ge2 P4 Pd20'
_cell_volume   477.63481520
_cell_formula_units_Z   1
loop_
 _symmetry_equiv_pos_site_id
 _symmetry_equiv_pos_as_xyz
  1  'x, y, z'
loop_
 _atom_site_type_symbol
 _atom_site_label
 _atom_site_symmetry_multiplicity
 _atom_site_fract_x
 _atom_site_fract_y
 _atom_site_fract_z
 _atom_site_occupancy
  Na  Na0  1  0.000000  0.000000  0.000000  1
  Pr  Pr1  1  0.250000  0.250000  0.250000  1
  Pr  Pr2  1  0.750000  0.750000  0.750000  1
  Ge  Ge3  1  0.739136  0.260864  0.260864  1
  Ge  Ge4  1  0.260864  0.739136  0.739136  1
  P  P5  1  0.262664  0.737336  0.262664  1
  P  P6  1  0.737336  0.262664  0.737336  1
  P  P7  1  0.262664  0.262664  0.737336  1
  P  P8  1  0.737336  0.737336  0.262664  1
  Pd  Pd9  1  0.379555  0.389406  0.389406  1
  Pd  Pd10  1  0.620445  0.610594  0.610594  1
  Pd  Pd11  1  0.389406  0.379555  0.841632  1
  Pd  Pd12  1  0.389406  0.841632  0.379555  1
  Pd  Pd13  1  0.610594  0.620445  0.158368  1
  Pd  Pd14  1  0.610594  0.158368  0.620445  1
  Pd  Pd15  1  0.841632  0.389406  0.389406  1
  Pd  Pd16  1  0.158368  0.610594  0.610594  1
  Pd  Pd17  1  0.344069  0.000000  0.000000  1
  Pd  Pd18  1  0.655931  0.000000  0.000000  1
  Pd  Pd19  1  0.000000  0.344069  0.655931  1
  Pd  Pd20  1  0.000000  0.655931  0.344069  1
  Pd  Pd21  1  0.010751  0.347971  0.989249  1
  Pd  Pd22  1  0.652029  0.989249  0.347971  1
  Pd  Pd23  1  0.989249  0.652029  0.010751  1
  Pd  Pd24  1  0.347971  0.010751  0.652029  1
  Pd  Pd25  1  0.010751  0.989249  0.347971  1
  Pd  Pd26  1  0.989249  0.010751  0.652029  1
  Pd  Pd27  1  0.652029  0.347971  0.989249  1
  Pd  Pd28  1  0.347971  0.652029  0.010751  1
