# generated using pymatgen
data_Ho2Tm6In3Rh
_symmetry_space_group_name_H-M   'P 1'
_cell_length_a   10.32067400
_cell_length_b   10.32204470
_cell_length_c   6.95843501
_cell_angle_alpha   89.99628173
_cell_angle_beta   89.99981505
_cell_angle_gamma   119.99561928
_symmetry_Int_Tables_number   1
_chemical_formula_structural   Ho2Tm6In3Rh
_chemical_formula_sum   'Ho4 Tm12 In6 Rh2'
_cell_volume   642.00021075
_cell_formula_units_Z   2
loop_
 _symmetry_equiv_pos_site_id
 _symmetry_equiv_pos_as_xyz
  1  'x, y, z'
loop_
 _atom_site_type_symbol
 _atom_site_label
 _atom_site_symmetry_multiplicity
 _atom_site_fract_x
 _atom_site_fract_y
 _atom_site_fract_z
 _atom_site_occupancy
  Ho  Ho0  1  0.532171  0.064338  0.515862  1
  Ho  Ho1  1  0.935809  0.467902  0.515879  1
  Ho  Ho2  1  0.532091  0.467905  0.515883  1
  Ho  Ho3  1  0.467752  0.935497  0.015801  1
  Tm  Tm4  1  0.064836  0.532393  0.015827  1
  Tm  Tm5  1  0.467556  0.532389  0.015824  1
  Tm  Tm6  1  0.176598  0.353196  0.721572  1
  Tm  Tm7  1  0.647004  0.823383  0.721403  1
  Tm  Tm8  1  0.176383  0.823380  0.721394  1
  Tm  Tm9  1  0.823460  0.646920  0.220879  1
  Tm  Tm10  1  0.352979  0.176666  0.221028  1
  Tm  Tm11  1  0.823680  0.176664  0.221031  1
  Tm  Tm12  1  0.666751  0.333504  0.895556  1
  Tm  Tm13  1  0.333227  0.666449  0.395175  1
  Tm  Tm14  1  0.999981  0.999962  0.500454  1
  Tm  Tm15  1  0.999993  0.999994  0.000620  1
  In  In16  1  0.837357  0.674715  0.761218  1
  In  In17  1  0.325280  0.162650  0.761145  1
  In  In18  1  0.837368  0.162655  0.761150  1
  In  In19  1  0.162787  0.325570  0.260836  1
  In  In20  1  0.674591  0.837181  0.260981  1
  In  In21  1  0.162597  0.837187  0.260980  1
  Rh  Rh22  1  0.666664  0.333319  0.288500  1
  Rh  Rh23  1  0.333086  0.666180  0.789003  1
