# generated using pymatgen
data_Tb4Ho2Lu6Co5Bi
_symmetry_space_group_name_H-M   'P 1'
_cell_length_a   8.22263915
_cell_length_b   8.22263930
_cell_length_c   8.20814174
_cell_angle_alpha   111.39535502
_cell_angle_beta   110.53424169
_cell_angle_gamma   106.60029946
_symmetry_Int_Tables_number   1
_chemical_formula_structural   Tb4Ho2Lu6Co5Bi
_chemical_formula_sum   'Tb4 Ho2 Lu6 Co5 Bi1'
_cell_volume   425.97011078
_cell_formula_units_Z   1
loop_
 _symmetry_equiv_pos_site_id
 _symmetry_equiv_pos_as_xyz
  1  'x, y, z'
loop_
 _atom_site_type_symbol
 _atom_site_label
 _atom_site_symmetry_multiplicity
 _atom_site_fract_x
 _atom_site_fract_y
 _atom_site_fract_z
 _atom_site_occupancy
  Tb  Tb0  1  0.595988  0.792110  0.805234  1
  Tb  Tb1  1  0.404012  0.207890  0.194766  1
  Tb  Tb2  1  0.986876  0.790755  0.194766  1
  Tb  Tb3  1  0.013124  0.209245  0.805234  1
  Ho  Ho4  1  0.817184  0.710104  0.527288  1
  Ho  Ho5  1  0.182816  0.289896  0.472712  1
  Lu  Lu6  1  0.182974  0.710405  0.893380  1
  Lu  Lu7  1  0.817026  0.289595  0.106620  1
  Lu  Lu8  1  0.687464  0.376886  0.690477  1
  Lu  Lu9  1  0.312536  0.623114  0.309523  1
  Lu  Lu10  1  0.686409  0.996987  0.309523  1
  Lu  Lu11  1  0.313591  0.003013  0.690477  1
  Co  Co12  1  0.623746  0.000436  0.624181  1
  Co  Co13  1  0.376254  0.999564  0.375819  1
  Co  Co14  1  0.112387  0.612387  0.500000  1
  Co  Co15  1  0.887613  0.387613  0.500000  1
  Co  Co16  1  0.000000  0.000000  0.000000  1
  Bi  Bi17  1  0.500000  0.500000  0.000000  1
