# generated using pymatgen
data_Rb4Mn5Fe3O16
_symmetry_space_group_name_H-M   'P 1'
_cell_length_a   5.98143182
_cell_length_b   5.14312783
_cell_length_c   13.03806900
_cell_angle_alpha   89.74244747
_cell_angle_beta   89.68951628
_cell_angle_gamma   89.49475353
_symmetry_Int_Tables_number   1
_chemical_formula_structural   Rb4Mn5Fe3O16
_chemical_formula_sum   'Rb4 Mn5 Fe3 O16'
_cell_volume   401.06816688
_cell_formula_units_Z   1
loop_
 _symmetry_equiv_pos_site_id
 _symmetry_equiv_pos_as_xyz
  1  'x, y, z'
loop_
 _atom_site_type_symbol
 _atom_site_label
 _atom_site_symmetry_multiplicity
 _atom_site_fract_x
 _atom_site_fract_y
 _atom_site_fract_z
 _atom_site_occupancy
  Rb  Rb0  1  0.004659  0.046429  0.250419  1
  Rb  Rb1  1  0.995922  0.362957  0.750730  1
  Rb  Rb2  1  0.504151  0.644769  0.249182  1
  Rb  Rb3  1  0.495611  0.953379  0.751006  1
  Mn  Mn4  1  0.002767  0.997645  0.994982  1
  Mn  Mn5  1  0.248858  0.498899  0.999793  1
  Mn  Mn6  1  0.250082  0.500648  0.500123  1
  Mn  Mn7  1  0.750045  0.500705  0.500085  1
  Mn  Mn8  1  0.749201  0.496589  0.999673  1
  Fe  Fe9  1  0.000027  0.000213  0.504497  1
  Fe  Fe10  1  0.500615  0.001656  0.006497  1
  Fe  Fe11  1  0.500110  0.000983  0.495949  1
  O  O12  1  0.001458  0.349342  0.424125  1
  O  O13  1  0.998465  0.332255  0.071441  1
  O  O14  1  0.998595  0.652757  0.577561  1
  O  O15  1  0.028056  0.687994  0.916657  1
  O  O16  1  0.249153  0.821914  0.421307  1
  O  O17  1  0.237083  0.823729  0.077264  1
  O  O18  1  0.251244  0.179322  0.579018  1
  O  O19  1  0.244434  0.174642  0.921430  1
  O  O20  1  0.501531  0.348655  0.422253  1
  O  O21  1  0.467931  0.326099  0.084630  1
  O  O22  1  0.498660  0.651861  0.576273  1
  O  O23  1  0.498162  0.650520  0.926977  1
  O  O24  1  0.752800  0.821900  0.421253  1
  O  O25  1  0.767425  0.833600  0.076424  1
  O  O26  1  0.747057  0.179354  0.579063  1
  O  O27  1  0.755997  0.160981  0.921389  1
