# generated using pymatgen
data_ThRe6GeO24
_symmetry_space_group_name_H-M   'P 1'
_cell_length_a   10.33041200
_cell_length_b   10.33041181
_cell_length_c   6.32649600
_cell_angle_alpha   90.00000000
_cell_angle_beta   90.00000000
_cell_angle_gamma   120.00000062
_symmetry_Int_Tables_number   1
_chemical_formula_structural   ThRe6GeO24
_chemical_formula_sum   'Th1 Re6 Ge1 O24'
_cell_volume   584.69468179
_cell_formula_units_Z   1
loop_
 _symmetry_equiv_pos_site_id
 _symmetry_equiv_pos_as_xyz
  1  'x, y, z'
loop_
 _atom_site_type_symbol
 _atom_site_label
 _atom_site_symmetry_multiplicity
 _atom_site_fract_x
 _atom_site_fract_y
 _atom_site_fract_z
 _atom_site_occupancy
  Th  Th0  1  0.333333  0.666667  0.250000  1
  Re  Re1  1  0.091093  0.392365  0.750000  1
  Re  Re2  1  0.396756  0.306627  0.250000  1
  Re  Re3  1  0.607635  0.698727  0.750000  1
  Re  Re4  1  0.909870  0.603244  0.250000  1
  Re  Re5  1  0.301273  0.908907  0.750000  1
  Re  Re6  1  0.693373  0.090130  0.250000  1
  Ge  Ge7  1  0.666667  0.333333  0.750000  1
  O  O8  1  0.491177  0.649280  0.522582  1
  O  O9  1  0.350720  0.841897  0.522582  1
  O  O10  1  0.846907  0.729861  0.250000  1
  O  O11  1  0.111492  0.842240  0.750000  1
  O  O12  1  0.270139  0.117045  0.250000  1
  O  O13  1  0.157760  0.269253  0.750000  1
  O  O14  1  0.510204  0.352597  0.024322  1
  O  O15  1  0.882955  0.153093  0.250000  1
  O  O16  1  0.108983  0.696311  0.250000  1
  O  O17  1  0.158103  0.508823  0.977418  1
  O  O18  1  0.158103  0.508823  0.522582  1
  O  O19  1  0.897240  0.292634  0.750000  1
  O  O20  1  0.303689  0.412672  0.250000  1
  O  O21  1  0.707366  0.604606  0.750000  1
  O  O22  1  0.842393  0.489796  0.475678  1
  O  O23  1  0.395394  0.102760  0.750000  1
  O  O24  1  0.647403  0.157607  0.024322  1
  O  O25  1  0.491177  0.649280  0.977418  1
  O  O26  1  0.350720  0.841897  0.977418  1
  O  O27  1  0.647403  0.157607  0.475678  1
  O  O28  1  0.510204  0.352597  0.475678  1
  O  O29  1  0.842393  0.489796  0.024322  1
  O  O30  1  0.730747  0.888508  0.750000  1
  O  O31  1  0.587328  0.891017  0.250000  1
