# generated using pymatgen
data_Lu4ZnGe(B2Rh5)2
_symmetry_space_group_name_H-M   'P 1'
_cell_length_a   9.37811100
_cell_length_b   9.37811100
_cell_length_c   3.19851800
_cell_angle_alpha   90.00000000
_cell_angle_beta   90.00000000
_cell_angle_gamma   90.00000000
_symmetry_Int_Tables_number   1
_chemical_formula_structural   Lu4ZnGe(B2Rh5)2
_chemical_formula_sum   'Lu4 Zn1 Ge1 B4 Rh10'
_cell_volume   281.30635060
_cell_formula_units_Z   1
loop_
 _symmetry_equiv_pos_site_id
 _symmetry_equiv_pos_as_xyz
  1  'x, y, z'
loop_
 _atom_site_type_symbol
 _atom_site_label
 _atom_site_symmetry_multiplicity
 _atom_site_fract_x
 _atom_site_fract_y
 _atom_site_fract_z
 _atom_site_occupancy
  Lu  Lu0  1  0.826117  0.324789  0.000000  1
  Lu  Lu1  1  0.324789  0.173883  0.000000  1
  Lu  Lu2  1  0.675211  0.826117  0.000000  1
  Lu  Lu3  1  0.173883  0.675211  0.000000  1
  Zn  Zn4  1  0.000000  0.000000  0.000000  1
  Ge  Ge5  1  0.500000  0.500000  0.000000  1
  B  B6  1  0.624482  0.121959  0.000000  1
  B  B7  1  0.121959  0.375518  0.000000  1
  B  B8  1  0.878041  0.624482  0.000000  1
  B  B9  1  0.375518  0.878041  0.000000  1
  Rh  Rh10  1  0.072151  0.218865  0.500000  1
  Rh  Rh11  1  0.218865  0.927849  0.500000  1
  Rh  Rh12  1  0.781135  0.072151  0.500000  1
  Rh  Rh13  1  0.927849  0.781135  0.500000  1
  Rh  Rh14  1  0.430012  0.715911  0.500000  1
  Rh  Rh15  1  0.569988  0.284089  0.500000  1
  Rh  Rh16  1  0.715911  0.569988  0.500000  1
  Rh  Rh17  1  0.284089  0.430012  0.500000  1
  Rh  Rh18  1  0.500000  0.000000  0.500000  1
  Rh  Rh19  1  0.000000  0.500000  0.500000  1
