# generated using pymatgen
data_CaY6RhBr12
_symmetry_space_group_name_H-M   'P 1'
_cell_length_a   9.30373357
_cell_length_b   9.30373336
_cell_length_c   9.30373316
_cell_angle_alpha   107.11170422
_cell_angle_beta   107.11170774
_cell_angle_gamma   107.11170403
_symmetry_Int_Tables_number   1
_chemical_formula_structural   CaY6RhBr12
_chemical_formula_sum   'Ca1 Y6 Rh1 Br12'
_cell_volume   668.62904081
_cell_formula_units_Z   1
loop_
 _symmetry_equiv_pos_site_id
 _symmetry_equiv_pos_as_xyz
  1  'x, y, z'
loop_
 _atom_site_type_symbol
 _atom_site_label
 _atom_site_symmetry_multiplicity
 _atom_site_fract_x
 _atom_site_fract_y
 _atom_site_fract_z
 _atom_site_occupancy
  Ca  Ca0  1  0.500000  0.500000  0.500000  1
  Y  Y1  1  0.311646  0.102760  0.021927  1
  Y  Y2  1  0.021927  0.311646  0.102760  1
  Y  Y3  1  0.102760  0.021927  0.311646  1
  Y  Y4  1  0.688354  0.897240  0.978073  1
  Y  Y5  1  0.978073  0.688354  0.897240  1
  Y  Y6  1  0.897240  0.978073  0.688354  1
  Rh  Rh7  1  0.000000  0.000000  0.000000  1
  Br  Br8  1  0.676507  0.218719  0.072020  1
  Br  Br9  1  0.072020  0.676507  0.218719  1
  Br  Br10  1  0.218719  0.072020  0.676507  1
  Br  Br11  1  0.323493  0.781281  0.927980  1
  Br  Br12  1  0.927980  0.323493  0.781281  1
  Br  Br13  1  0.781281  0.927980  0.323493  1
  Br  Br14  1  0.454965  0.156590  0.374447  1
  Br  Br15  1  0.374447  0.454965  0.156590  1
  Br  Br16  1  0.156590  0.374447  0.454965  1
  Br  Br17  1  0.545035  0.843410  0.625553  1
  Br  Br18  1  0.625553  0.545035  0.843410  1
  Br  Br19  1  0.843410  0.625553  0.545035  1
