# generated using pymatgen
data_Nd5TcPb2
_symmetry_space_group_name_H-M   'P 1'
_cell_length_a   8.17485100
_cell_length_b   9.35584800
_cell_length_c   12.82712000
_cell_angle_alpha   90.00000000
_cell_angle_beta   90.00000000
_cell_angle_gamma   90.00000000
_symmetry_Int_Tables_number   1
_chemical_formula_structural   Nd5TcPb2
_chemical_formula_sum   'Nd20 Tc4 Pb8'
_cell_volume   981.05230108
_cell_formula_units_Z   4
loop_
 _symmetry_equiv_pos_site_id
 _symmetry_equiv_pos_as_xyz
  1  'x, y, z'
loop_
 _atom_site_type_symbol
 _atom_site_label
 _atom_site_symmetry_multiplicity
 _atom_site_fract_x
 _atom_site_fract_y
 _atom_site_fract_z
 _atom_site_occupancy
  Nd  Nd0  1  0.650537  0.750000  0.712980  1
  Nd  Nd1  1  0.349463  0.250000  0.287020  1
  Nd  Nd2  1  0.150537  0.250000  0.787020  1
  Nd  Nd3  1  0.849463  0.750000  0.212980  1
  Nd  Nd4  1  0.116912  0.750000  0.806776  1
  Nd  Nd5  1  0.883088  0.250000  0.193224  1
  Nd  Nd6  1  0.616912  0.250000  0.693224  1
  Nd  Nd7  1  0.383088  0.750000  0.306776  1
  Nd  Nd8  1  0.543996  0.750000  0.997968  1
  Nd  Nd9  1  0.456004  0.250000  0.002032  1
  Nd  Nd10  1  0.043996  0.250000  0.502032  1
  Nd  Nd11  1  0.956004  0.750000  0.497968  1
  Nd  Nd12  1  0.823107  0.467198  0.929880  1
  Nd  Nd13  1  0.176893  0.532802  0.070120  1
  Nd  Nd14  1  0.323107  0.532802  0.570120  1
  Nd  Nd15  1  0.176893  0.967198  0.070120  1
  Nd  Nd16  1  0.676893  0.467198  0.429880  1
  Nd  Nd17  1  0.823107  0.032802  0.929880  1
  Nd  Nd18  1  0.676893  0.032802  0.429880  1
  Nd  Nd19  1  0.323107  0.967198  0.570120  1
  Tc  Tc20  1  0.912585  0.750000  0.989575  1
  Tc  Tc21  1  0.087415  0.250000  0.010425  1
  Tc  Tc22  1  0.412585  0.250000  0.510425  1
  Tc  Tc23  1  0.587415  0.750000  0.489575  1
  Pb  Pb24  1  0.923978  0.006016  0.669926  1
  Pb  Pb25  1  0.076022  0.993984  0.330074  1
  Pb  Pb26  1  0.423978  0.993984  0.830074  1
  Pb  Pb27  1  0.076022  0.506016  0.330074  1
  Pb  Pb28  1  0.576022  0.006016  0.169926  1
  Pb  Pb29  1  0.923978  0.493984  0.669926  1
  Pb  Pb30  1  0.576022  0.493984  0.169926  1
  Pb  Pb31  1  0.423978  0.506016  0.830074  1
