# generated using pymatgen
data_Dy4Ho4Ti11Si16Ir
_symmetry_space_group_name_H-M   'P 1'
_cell_length_a   7.02696313
_cell_length_b   7.02624581
_cell_length_c   12.86541907
_cell_angle_alpha   90.14183112
_cell_angle_beta   89.86865600
_cell_angle_gamma   89.86875074
_symmetry_Int_Tables_number   1
_chemical_formula_structural   Dy4Ho4Ti11Si16Ir
_chemical_formula_sum   'Dy4 Ho4 Ti11 Si16 Ir1'
_cell_volume   635.20123606
_cell_formula_units_Z   1
loop_
 _symmetry_equiv_pos_site_id
 _symmetry_equiv_pos_as_xyz
  1  'x, y, z'
loop_
 _atom_site_type_symbol
 _atom_site_label
 _atom_site_symmetry_multiplicity
 _atom_site_fract_x
 _atom_site_fract_y
 _atom_site_fract_z
 _atom_site_occupancy
  Dy  Dy0  1  0.340433  0.004460  0.467445  1
  Dy  Dy1  1  0.496351  0.841520  0.718161  1
  Dy  Dy2  1  0.501139  0.158511  0.214971  1
  Dy  Dy3  1  0.841686  0.496350  0.281903  1
  Ho  Ho4  1  0.158267  0.500819  0.784996  1
  Ho  Ho5  1  0.657765  0.998032  0.968582  1
  Ho  Ho6  1  0.004086  0.340776  0.532764  1
  Ho  Ho7  1  0.998020  0.657667  0.031303  1
  Ti  Ti8  1  0.175401  0.827044  0.248038  1
  Ti  Ti9  1  0.827173  0.175638  0.751938  1
  Ti  Ti10  1  0.673820  0.673533  0.500042  1
  Ti  Ti11  1  0.149246  0.002279  0.875770  1
  Ti  Ti12  1  0.493872  0.656520  0.124586  1
  Ti  Ti13  1  0.506571  0.349490  0.628085  1
  Ti  Ti14  1  0.656530  0.493899  0.875333  1
  Ti  Ti15  1  0.349321  0.506523  0.372028  1
  Ti  Ti16  1  0.848954  0.994077  0.374949  1
  Ti  Ti17  1  0.002303  0.149348  0.124185  1
  Ti  Ti18  1  0.994078  0.848925  0.625147  1
  Si  Si19  1  0.202113  0.133390  0.685338  1
  Si  Si20  1  0.372034  0.701653  0.933490  1
  Si  Si21  1  0.631492  0.295826  0.434430  1
  Si  Si22  1  0.702031  0.372308  0.066289  1
  Si  Si23  1  0.295507  0.630808  0.565823  1
  Si  Si24  1  0.796602  0.867860  0.183580  1
  Si  Si25  1  0.132664  0.202462  0.314644  1
  Si  Si26  1  0.868057  0.796281  0.816407  1
  Si  Si27  1  0.286389  0.951746  0.063889  1
  Si  Si28  1  0.547377  0.791870  0.315565  1
  Si  Si29  1  0.449552  0.210145  0.818410  1
  Si  Si30  1  0.792418  0.546980  0.684393  1
  Si  Si31  1  0.209823  0.449714  0.181548  1
  Si  Si32  1  0.709104  0.048637  0.565714  1
  Si  Si33  1  0.951935  0.286666  0.936005  1
  Si  Si34  1  0.048271  0.708495  0.434420  1
  Ir  Ir35  1  0.329614  0.329745  0.999831  1
