# generated using pymatgen
data_Be2AlGeRh4
_symmetry_space_group_name_H-M   'P 1'
_cell_length_a   4.11828900
_cell_length_b   5.86725000
_cell_length_c   12.37196700
_cell_angle_alpha   90.00019028
_cell_angle_beta   89.99985634
_cell_angle_gamma   89.99991920
_symmetry_Int_Tables_number   1
_chemical_formula_structural   Be2AlGeRh4
_chemical_formula_sum   'Be6 Al3 Ge3 Rh12'
_cell_volume   298.94422382
_cell_formula_units_Z   3
loop_
 _symmetry_equiv_pos_site_id
 _symmetry_equiv_pos_as_xyz
  1  'x, y, z'
loop_
 _atom_site_type_symbol
 _atom_site_label
 _atom_site_symmetry_multiplicity
 _atom_site_fract_x
 _atom_site_fract_y
 _atom_site_fract_z
 _atom_site_occupancy
  Be  Be0  1  0.000046  0.000001  0.991039  1
  Be  Be1  1  0.499280  0.500000  0.166660  1
  Be  Be2  1  0.999476  0.000000  0.342305  1
  Be  Be3  1  0.500063  0.500000  0.509559  1
  Be  Be4  1  0.000703  0.000000  0.666662  1
  Be  Be5  1  0.500601  0.500000  0.823769  1
  Al  Al6  1  0.500029  0.000000  0.500915  1
  Al  Al7  1  0.000434  0.500000  0.666666  1
  Al  Al8  1  0.500466  0.000001  0.832416  1
  Ge  Ge9  1  0.000028  0.500001  0.998376  1
  Ge  Ge10  1  0.498979  0.000000  0.166733  1
  Ge  Ge11  1  0.999511  0.499999  0.334930  1
  Rh  Rh12  1  0.500018  0.250191  0.002253  1
  Rh  Rh13  1  0.500012  0.749811  0.002253  1
  Rh  Rh14  1  0.999595  0.251016  0.166664  1
  Rh  Rh15  1  0.999594  0.748986  0.166665  1
  Rh  Rh16  1  0.499692  0.250199  0.331075  1
  Rh  Rh17  1  0.499692  0.749803  0.331075  1
  Rh  Rh18  1  0.000046  0.250989  0.498433  1
  Rh  Rh19  1  0.000051  0.749012  0.498434  1
  Rh  Rh20  1  0.500422  0.249317  0.666663  1
  Rh  Rh21  1  0.500425  0.750683  0.666662  1
  Rh  Rh22  1  0.000421  0.250987  0.834896  1
  Rh  Rh23  1  0.000418  0.749010  0.834897  1
