# generated using pymatgen
data_PrSbPtO6
_symmetry_space_group_name_H-M   'P 1'
_cell_length_a   5.33378995
_cell_length_b   5.33381495
_cell_length_c   5.22012600
_cell_angle_alpha   90.04789853
_cell_angle_beta   90.04904816
_cell_angle_gamma   119.92845265
_symmetry_Int_Tables_number   1
_chemical_formula_structural   PrSbPtO6
_chemical_formula_sum   'Pr1 Sb1 Pt1 O6'
_cell_volume   128.70561901
_cell_formula_units_Z   1
loop_
 _symmetry_equiv_pos_site_id
 _symmetry_equiv_pos_as_xyz
  1  'x, y, z'
loop_
 _atom_site_type_symbol
 _atom_site_label
 _atom_site_symmetry_multiplicity
 _atom_site_fract_x
 _atom_site_fract_y
 _atom_site_fract_z
 _atom_site_occupancy
  Pr  Pr0  1  0.482546  0.517459  0.499998  1
  Sb  Sb1  1  0.149249  0.850753  0.999997  1
  Pt  Pt2  1  0.815698  0.184302  0.999996  1
  O  O3  1  0.121472  0.154422  0.213395  1
  O  O4  1  0.480834  0.879980  0.214059  1
  O  O5  1  0.847206  0.520447  0.214102  1
  O  O6  1  0.479553  0.152793  0.785886  1
  O  O7  1  0.120019  0.519171  0.785933  1
  O  O8  1  0.845579  0.878534  0.786601  1
