# generated using pymatgen
data_Pr10CdSi4Hg
_symmetry_space_group_name_H-M   'P 1'
_cell_length_a   7.86663300
_cell_length_b   9.38856432
_cell_length_c   7.86663300
_cell_angle_alpha   114.76817305
_cell_angle_beta   90.00000000
_cell_angle_gamma   114.76817305
_symmetry_Int_Tables_number   1
_chemical_formula_structural   Pr10CdSi4Hg
_chemical_formula_sum   'Pr10 Cd1 Si4 Hg1'
_cell_volume   468.04518915
_cell_formula_units_Z   1
loop_
 _symmetry_equiv_pos_site_id
 _symmetry_equiv_pos_as_xyz
  1  'x, y, z'
loop_
 _atom_site_type_symbol
 _atom_site_label
 _atom_site_symmetry_multiplicity
 _atom_site_fract_x
 _atom_site_fract_y
 _atom_site_fract_z
 _atom_site_occupancy
  Pr  Pr0  1  0.978851  0.957702  0.978851  1
  Pr  Pr1  1  0.521149  0.042298  0.521149  1
  Pr  Pr2  1  0.530456  0.725562  0.679239  1
  Pr  Pr3  1  0.195107  0.725562  0.046323  1
  Pr  Pr4  1  0.679239  0.725562  0.195107  1
  Pr  Pr5  1  0.046323  0.725562  0.530456  1
  Pr  Pr6  1  0.453677  0.274438  0.304893  1
  Pr  Pr7  1  0.820761  0.274438  0.969544  1
  Pr  Pr8  1  0.304893  0.274438  0.820761  1
  Pr  Pr9  1  0.969544  0.274438  0.453677  1
  Cd  Cd10  1  0.750000  0.500000  0.750000  1
  Si  Si11  1  0.885360  0.000000  0.614640  1
  Si  Si12  1  0.114640  0.000000  0.385360  1
  Si  Si13  1  0.614640  0.000000  0.114640  1
  Si  Si14  1  0.385360  0.000000  0.885360  1
  Hg  Hg15  1  0.250000  0.500000  0.250000  1
