# generated using pymatgen
data_Tb8Hf7Si16Mo5
_symmetry_space_group_name_H-M   'P 1'
_cell_length_a   7.15256842
_cell_length_b   7.14392440
_cell_length_c   13.10659940
_cell_angle_alpha   89.80827085
_cell_angle_beta   89.99947202
_cell_angle_gamma   90.07242640
_symmetry_Int_Tables_number   1
_chemical_formula_structural   Tb8Hf7Si16Mo5
_chemical_formula_sum   'Tb8 Hf7 Si16 Mo5'
_cell_volume   669.70897357
_cell_formula_units_Z   1
loop_
 _symmetry_equiv_pos_site_id
 _symmetry_equiv_pos_as_xyz
  1  'x, y, z'
loop_
 _atom_site_type_symbol
 _atom_site_label
 _atom_site_symmetry_multiplicity
 _atom_site_fract_x
 _atom_site_fract_y
 _atom_site_fract_z
 _atom_site_occupancy
  Tb  Tb0  1  0.999089  0.344675  0.218684  1
  Tb  Tb1  1  0.001407  0.657048  0.713979  1
  Tb  Tb2  1  0.155031  0.500301  0.465609  1
  Tb  Tb3  1  0.499382  0.845096  0.036067  1
  Tb  Tb4  1  0.844315  0.501646  0.965667  1
  Tb  Tb5  1  0.499507  0.154826  0.532150  1
  Tb  Tb6  1  0.345048  0.999613  0.784145  1
  Tb  Tb7  1  0.655774  0.000927  0.284256  1
  Hf  Hf8  1  0.852856  0.006674  0.874504  1
  Hf  Hf9  1  0.504930  0.648433  0.621091  1
  Hf  Hf10  1  0.353086  0.492541  0.876014  1
  Hf  Hf11  1  0.491420  0.349315  0.125839  1
  Hf  Hf12  1  0.647439  0.510547  0.377019  1
  Hf  Hf13  1  0.993683  0.147490  0.625881  1
  Hf  Hf14  1  0.004331  0.852064  0.124410  1
  Si  Si15  1  0.361379  0.289138  0.320545  1
  Si  Si16  1  0.638696  0.702136  0.815292  1
  Si  Si17  1  0.199659  0.864030  0.560872  1
  Si  Si18  1  0.139211  0.796549  0.932908  1
  Si  Si19  1  0.797746  0.140193  0.066963  1
  Si  Si20  1  0.870748  0.196943  0.430437  1
  Si  Si21  1  0.299571  0.360485  0.682784  1
  Si  Si22  1  0.702703  0.638172  0.183691  1
  Si  Si23  1  0.293503  0.046173  0.189420  1
  Si  Si24  1  0.705335  0.949096  0.683576  1
  Si  Si25  1  0.438991  0.797509  0.430671  1
  Si  Si26  1  0.204394  0.550158  0.066551  1
  Si  Si27  1  0.550520  0.204124  0.934485  1
  Si  Si28  1  0.794526  0.446432  0.566540  1
  Si  Si29  1  0.050519  0.296146  0.816452  1
  Si  Si30  1  0.956560  0.714890  0.317831  1
  Mo  Mo31  1  0.173837  0.174016  0.002027  1
  Mo  Mo32  1  0.827320  0.827189  0.499092  1
  Mo  Mo33  1  0.323152  0.674619  0.250198  1
  Mo  Mo34  1  0.676515  0.325229  0.750007  1
  Mo  Mo35  1  0.147817  0.995576  0.374342  1
