# generated using pymatgen
data_Ca4CuH12Pt
_symmetry_space_group_name_H-M   'P 1'
_cell_length_a   7.06990007
_cell_length_b   7.06989868
_cell_length_c   5.20940300
_cell_angle_alpha   90.00803935
_cell_angle_beta   90.00804746
_cell_angle_gamma   136.66719644
_symmetry_Int_Tables_number   1
_chemical_formula_structural   Ca4CuH12Pt
_chemical_formula_sum   'Ca4 Cu1 H12 Pt1'
_cell_volume   178.68463067
_cell_formula_units_Z   1
loop_
 _symmetry_equiv_pos_site_id
 _symmetry_equiv_pos_as_xyz
  1  'x, y, z'
loop_
 _atom_site_type_symbol
 _atom_site_label
 _atom_site_symmetry_multiplicity
 _atom_site_fract_x
 _atom_site_fract_y
 _atom_site_fract_z
 _atom_site_occupancy
  Ca  Ca0  1  0.150358  0.849642  0.500000  1
  Ca  Ca1  1  0.650426  0.349574  0.000000  1
  Ca  Ca2  1  0.849642  0.150358  0.500000  1
  Ca  Ca3  1  0.349574  0.650426  0.000000  1
  Cu  Cu4  1  0.000000  0.000000  0.000000  1
  H  H5  1  0.999914  0.500032  0.749584  1
  H  H6  1  0.499968  0.000086  0.250416  1
  H  H7  1  0.000086  0.499968  0.250416  1
  H  H8  1  0.500032  0.999914  0.749584  1
  H  H9  1  0.372376  0.627624  0.500000  1
  H  H10  1  0.879456  0.120544  0.000000  1
  H  H11  1  0.627624  0.372376  0.500000  1
  H  H12  1  0.120544  0.879456  0.000000  1
  H  H13  1  0.260268  0.260268  0.742558  1
  H  H14  1  0.739732  0.739732  0.257442  1
  H  H15  1  0.259764  0.259764  0.257861  1
  H  H16  1  0.740236  0.740236  0.742139  1
  Pt  Pt17  1  0.500000  0.500000  0.500000  1
