# generated using pymatgen
data_Dy5Co16Si10Tc3P2
_symmetry_space_group_name_H-M   'P 1'
_cell_length_a   12.21834867
_cell_length_b   12.21834831
_cell_length_c   3.75462800
_cell_angle_alpha   90.00000000
_cell_angle_beta   90.00000000
_cell_angle_gamma   120.14418411
_symmetry_Int_Tables_number   1
_chemical_formula_structural   Dy5Co16Si10Tc3P2
_chemical_formula_sum   'Dy5 Co16 Si10 Tc3 P2'
_cell_volume   484.71866431
_cell_formula_units_Z   1
loop_
 _symmetry_equiv_pos_site_id
 _symmetry_equiv_pos_as_xyz
  1  'x, y, z'
loop_
 _atom_site_type_symbol
 _atom_site_label
 _atom_site_symmetry_multiplicity
 _atom_site_fract_x
 _atom_site_fract_y
 _atom_site_fract_z
 _atom_site_occupancy
  Dy  Dy0  1  0.666587  0.332699  0.000000  1
  Dy  Dy1  1  0.332699  0.666587  0.000000  1
  Dy  Dy2  1  0.183895  0.183895  0.500000  1
  Dy  Dy3  1  0.816310  0.001235  0.500000  1
  Dy  Dy4  1  0.001235  0.816310  0.500000  1
  Co  Co5  1  0.823972  0.195734  0.000000  1
  Co  Co6  1  0.804247  0.624110  0.000000  1
  Co  Co7  1  0.372028  0.176646  0.000000  1
  Co  Co8  1  0.195734  0.823972  0.000000  1
  Co  Co9  1  0.624110  0.804247  0.000000  1
  Co  Co10  1  0.176646  0.372028  0.000000  1
  Co  Co11  1  0.646299  0.124420  0.500000  1
  Co  Co12  1  0.876597  0.521886  0.500000  1
  Co  Co13  1  0.477559  0.353395  0.500000  1
  Co  Co14  1  0.124420  0.646299  0.500000  1
  Co  Co15  1  0.521886  0.876597  0.500000  1
  Co  Co16  1  0.353395  0.477559  0.500000  1
  Co  Co17  1  0.720357  0.720357  0.500000  1
  Co  Co18  1  0.275795  0.000061  0.500000  1
  Co  Co19  1  0.000061  0.275795  0.500000  1
  Co  Co20  1  0.004122  0.004122  0.000000  1
  Si  Si21  1  0.366718  0.366718  0.000000  1
  Si  Si22  1  0.633294  0.000409  0.000000  1
  Si  Si23  1  0.000409  0.633294  0.000000  1
  Si  Si24  1  0.838559  0.315916  0.500000  1
  Si  Si25  1  0.684731  0.521920  0.500000  1
  Si  Si26  1  0.477605  0.161664  0.500000  1
  Si  Si27  1  0.315916  0.838559  0.500000  1
  Si  Si28  1  0.521920  0.684731  0.500000  1
  Si  Si29  1  0.161664  0.477605  0.500000  1
  Si  Si30  1  0.817401  0.817401  0.000000  1
  Tc  Tc31  1  0.561992  0.561992  0.000000  1
  Tc  Tc32  1  0.439009  0.000274  0.000000  1
  Tc  Tc33  1  0.000274  0.439009  0.000000  1
  P  P34  1  0.182445  0.000112  0.000000  1
  P  P35  1  0.000112  0.182445  0.000000  1
