# generated using pymatgen
data_LiEu2ZnPd2
_symmetry_space_group_name_H-M   'P 1'
_cell_length_a   4.42649000
_cell_length_b   7.30854500
_cell_length_c   8.17417100
_cell_angle_alpha   90.00000000
_cell_angle_beta   90.00000000
_cell_angle_gamma   90.00000000
_symmetry_Int_Tables_number   1
_chemical_formula_structural   LiEu2ZnPd2
_chemical_formula_sum   'Li2 Eu4 Zn2 Pd4'
_cell_volume   264.44425195
_cell_formula_units_Z   2
loop_
 _symmetry_equiv_pos_site_id
 _symmetry_equiv_pos_as_xyz
  1  'x, y, z'
loop_
 _atom_site_type_symbol
 _atom_site_label
 _atom_site_symmetry_multiplicity
 _atom_site_fract_x
 _atom_site_fract_y
 _atom_site_fract_z
 _atom_site_occupancy
  Li  Li0  1  0.250000  0.647080  0.566825  1
  Li  Li1  1  0.250000  0.147080  0.933175  1
  Eu  Eu2  1  0.250000  0.019862  0.310574  1
  Eu  Eu3  1  0.250000  0.519862  0.189426  1
  Eu  Eu4  1  0.750000  0.983723  0.693052  1
  Eu  Eu5  1  0.750000  0.483723  0.806948  1
  Zn  Zn6  1  0.750000  0.349864  0.429280  1
  Zn  Zn7  1  0.750000  0.849864  0.070720  1
  Pd  Pd8  1  0.250000  0.277520  0.603020  1
  Pd  Pd9  1  0.250000  0.777520  0.896980  1
  Pd  Pd10  1  0.750000  0.721952  0.385497  1
  Pd  Pd11  1  0.750000  0.221952  0.114503  1
