# generated using pymatgen
data_Ca14TaNb(Si2N9)2
_symmetry_space_group_name_H-M   'P 1'
_cell_length_a   6.06691610
_cell_length_b   9.02270579
_cell_length_c   9.95755100
_cell_angle_alpha   90.00000000
_cell_angle_beta   90.00000000
_cell_angle_gamma   91.87574120
_symmetry_Int_Tables_number   1
_chemical_formula_structural   Ca14TaNb(Si2N9)2
_chemical_formula_sum   'Ca14 Ta1 Nb1 Si4 N18'
_cell_volume   544.78426107
_cell_formula_units_Z   1
loop_
 _symmetry_equiv_pos_site_id
 _symmetry_equiv_pos_as_xyz
  1  'x, y, z'
loop_
 _atom_site_type_symbol
 _atom_site_label
 _atom_site_symmetry_multiplicity
 _atom_site_fract_x
 _atom_site_fract_y
 _atom_site_fract_z
 _atom_site_occupancy
  Ca  Ca0  1  0.568262  0.166710  0.942444  1
  Ca  Ca1  1  0.750755  0.494561  0.077244  1
  Ca  Ca2  1  0.909708  0.801207  0.250000  1
  Ca  Ca3  1  0.431435  0.834523  0.442959  1
  Ca  Ca4  1  0.249073  0.504268  0.577280  1
  Ca  Ca5  1  0.930850  0.831114  0.577789  1
  Ca  Ca6  1  0.930850  0.831114  0.922211  1
  Ca  Ca7  1  0.068895  0.169146  0.422552  1
  Ca  Ca8  1  0.750755  0.494561  0.422756  1
  Ca  Ca9  1  0.068895  0.169146  0.077448  1
  Ca  Ca10  1  0.249073  0.504268  0.922720  1
  Ca  Ca11  1  0.431435  0.834523  0.057041  1
  Ca  Ca12  1  0.091156  0.199946  0.750000  1
  Ca  Ca13  1  0.568262  0.166710  0.557556  1
  Ta  Ta14  1  0.720238  0.439626  0.750000  1
  Nb  Nb15  1  0.279672  0.562060  0.250000  1
  Si  Si16  1  0.676385  0.061990  0.250000  1
  Si  Si17  1  0.540799  0.722185  0.750000  1
  Si  Si18  1  0.323374  0.937920  0.750000  1
  Si  Si19  1  0.458695  0.277502  0.250000  1
  N  N20  1  0.767640  0.981559  0.399646  1
  N  N21  1  0.753179  0.258776  0.250000  1
  N  N22  1  0.884124  0.342943  0.901222  1
  N  N23  1  0.635539  0.628713  0.610876  1
  N  N24  1  0.442314  0.332676  0.750000  1
  N  N25  1  0.379928  0.083812  0.250000  1
  N  N26  1  0.635539  0.628713  0.889124  1
  N  N27  1  0.365851  0.369133  0.390583  1
  N  N28  1  0.620007  0.915418  0.750000  1
  N  N29  1  0.115150  0.658243  0.097953  1
  N  N30  1  0.246953  0.740923  0.750000  1
  N  N31  1  0.365851  0.369133  0.109417  1
  N  N32  1  0.232247  0.018107  0.600389  1
  N  N33  1  0.557952  0.667921  0.250000  1
  N  N34  1  0.115150  0.658243  0.402047  1
  N  N35  1  0.884124  0.342943  0.598778  1
  N  N36  1  0.767640  0.981559  0.100354  1
  N  N37  1  0.232247  0.018107  0.899611  1
