# generated using pymatgen
data_Rb2TcH9
_symmetry_space_group_name_H-M   'P 1'
_cell_length_a   10.00298400
_cell_length_b   10.00298328
_cell_length_c   5.81862000
_cell_angle_alpha   90.00000000
_cell_angle_beta   90.00000000
_cell_angle_gamma   119.99999578
_symmetry_Int_Tables_number   1
_chemical_formula_structural   Rb2TcH9
_chemical_formula_sum   'Rb6 Tc3 H27'
_cell_volume   504.20803523
_cell_formula_units_Z   3
loop_
 _symmetry_equiv_pos_site_id
 _symmetry_equiv_pos_as_xyz
  1  'x, y, z'
loop_
 _atom_site_type_symbol
 _atom_site_label
 _atom_site_symmetry_multiplicity
 _atom_site_fract_x
 _atom_site_fract_y
 _atom_site_fract_z
 _atom_site_occupancy
  Rb  Rb0  1  0.261712  0.000000  0.500000  1
  Rb  Rb1  1  0.000000  0.261712  0.500000  1
  Rb  Rb2  1  0.738288  0.738288  0.500000  1
  Rb  Rb3  1  0.589885  0.000000  0.000000  1
  Rb  Rb4  1  0.000000  0.589885  0.000000  1
  Rb  Rb5  1  0.410115  0.410115  0.000000  1
  Tc  Tc6  1  0.000000  0.000000  0.000000  1
  Tc  Tc7  1  0.333333  0.666667  0.500000  1
  Tc  Tc8  1  0.666667  0.333333  0.500000  1
  H  H9  1  0.878715  0.000000  0.202036  1
  H  H10  1  0.000000  0.878715  0.202036  1
  H  H11  1  0.878715  0.000000  0.797964  1
  H  H12  1  0.000000  0.878715  0.797964  1
  H  H13  1  0.121285  0.121285  0.202036  1
  H  H14  1  0.121285  0.121285  0.797964  1
  H  H15  1  0.166743  0.000000  0.000000  1
  H  H16  1  0.000000  0.166743  0.000000  1
  H  H17  1  0.833257  0.833257  0.000000  1
  H  H18  1  0.230460  0.539238  0.289231  1
  H  H19  1  0.460762  0.691222  0.289231  1
  H  H20  1  0.230460  0.539238  0.710769  1
  H  H21  1  0.539238  0.230460  0.710769  1
  H  H22  1  0.308778  0.769540  0.289231  1
  H  H23  1  0.460762  0.691222  0.710769  1
  H  H24  1  0.691222  0.460762  0.710769  1
  H  H25  1  0.539238  0.230460  0.289231  1
  H  H26  1  0.308778  0.769540  0.710769  1
  H  H27  1  0.691222  0.460762  0.289231  1
  H  H28  1  0.769540  0.308778  0.710769  1
  H  H29  1  0.769540  0.308778  0.289231  1
  H  H30  1  0.366969  0.519300  0.500000  1
  H  H31  1  0.480700  0.847670  0.500000  1
  H  H32  1  0.519300  0.366969  0.500000  1
  H  H33  1  0.152330  0.633031  0.500000  1
  H  H34  1  0.847670  0.480700  0.500000  1
  H  H35  1  0.633031  0.152330  0.500000  1
