# generated using pymatgen
data_Dy10Pb6C
_symmetry_space_group_name_H-M   'P 1'
_cell_length_a   9.06047200
_cell_length_b   9.06047157
_cell_length_c   6.67458900
_cell_angle_alpha   90.00000000
_cell_angle_beta   90.00000000
_cell_angle_gamma   119.99999428
_symmetry_Int_Tables_number   1
_chemical_formula_structural   Dy10Pb6C
_chemical_formula_sum   'Dy10 Pb6 C1'
_cell_volume   474.52249973
_cell_formula_units_Z   1
loop_
 _symmetry_equiv_pos_site_id
 _symmetry_equiv_pos_as_xyz
  1  'x, y, z'
loop_
 _atom_site_type_symbol
 _atom_site_label
 _atom_site_symmetry_multiplicity
 _atom_site_fract_x
 _atom_site_fract_y
 _atom_site_fract_z
 _atom_site_occupancy
  Dy  Dy0  1  0.000000  0.774955  0.278777  1
  Dy  Dy1  1  0.225045  0.225045  0.278777  1
  Dy  Dy2  1  0.774955  0.000000  0.278777  1
  Dy  Dy3  1  0.000000  0.225045  0.721223  1
  Dy  Dy4  1  0.774955  0.774955  0.721223  1
  Dy  Dy5  1  0.225045  0.000000  0.721223  1
  Dy  Dy6  1  0.333333  0.666667  0.000000  1
  Dy  Dy7  1  0.666667  0.333333  0.000000  1
  Dy  Dy8  1  0.666667  0.333333  0.500000  1
  Dy  Dy9  1  0.333333  0.666667  0.500000  1
  Pb  Pb10  1  0.000000  0.399642  0.250854  1
  Pb  Pb11  1  0.600358  0.600358  0.250854  1
  Pb  Pb12  1  0.399642  0.000000  0.250854  1
  Pb  Pb13  1  0.000000  0.600358  0.749146  1
  Pb  Pb14  1  0.399642  0.399642  0.749146  1
  Pb  Pb15  1  0.600358  0.000000  0.749146  1
  C  C16  1  0.000000  0.000000  0.500000  1
