# generated using pymatgen
data_NdYHoSi6Pd17Pt3
_symmetry_space_group_name_H-M   'P 1'
_cell_length_a   8.74722551
_cell_length_b   8.74722518
_cell_length_c   8.76010350
_cell_angle_alpha   59.87409545
_cell_angle_beta   59.87409809
_cell_angle_gamma   59.86637193
_symmetry_Int_Tables_number   1
_chemical_formula_structural   NdYHoSi6Pd17Pt3
_chemical_formula_sum   'Nd1 Y1 Ho1 Si6 Pd17 Pt3'
_cell_volume   472.57085196
_cell_formula_units_Z   1
loop_
 _symmetry_equiv_pos_site_id
 _symmetry_equiv_pos_as_xyz
  1  'x, y, z'
loop_
 _atom_site_type_symbol
 _atom_site_label
 _atom_site_symmetry_multiplicity
 _atom_site_fract_x
 _atom_site_fract_y
 _atom_site_fract_z
 _atom_site_occupancy
  Nd  Nd0  1  0.250525  0.250525  0.250431  1
  Y  Y1  1  0.748682  0.748682  0.750012  1
  Ho  Ho2  1  0.999972  0.999972  0.000165  1
  Si  Si3  1  0.731880  0.267452  0.266365  1
  Si  Si4  1  0.268805  0.731725  0.732914  1
  Si  Si5  1  0.267452  0.731880  0.266365  1
  Si  Si6  1  0.731725  0.268805  0.732914  1
  Si  Si7  1  0.267947  0.267947  0.731507  1
  Si  Si8  1  0.733119  0.733119  0.267646  1
  Pd  Pd9  1  0.383585  0.844980  0.383991  1
  Pd  Pd10  1  0.618415  0.618415  0.148548  1
  Pd  Pd11  1  0.620465  0.146205  0.616918  1
  Pd  Pd12  1  0.844980  0.383585  0.383991  1
  Pd  Pd13  1  0.146205  0.620465  0.616918  1
  Pd  Pd14  1  0.345565  0.999414  0.999759  1
  Pd  Pd15  1  0.655621  0.998996  0.999880  1
  Pd  Pd16  1  0.998904  0.345832  0.656894  1
  Pd  Pd17  1  0.998768  0.655834  0.346704  1
  Pd  Pd18  1  0.999414  0.345565  0.999759  1
  Pd  Pd19  1  0.655834  0.998768  0.346704  1
  Pd  Pd20  1  0.998996  0.655621  0.999880  1
  Pd  Pd21  1  0.345832  0.998904  0.656894  1
  Pd  Pd22  1  0.998869  0.998869  0.346567  1
  Pd  Pd23  1  0.998664  0.998664  0.656961  1
  Pd  Pd24  1  0.655552  0.345569  0.999730  1
  Pd  Pd25  1  0.345569  0.655552  0.999730  1
  Pt  Pt26  1  0.387079  0.387079  0.387341  1
  Pt  Pt27  1  0.616627  0.616627  0.613358  1
  Pt  Pt28  1  0.384951  0.384951  0.841157  1
