# generated using pymatgen
data_Sc6AlNi6Sn5
_symmetry_space_group_name_H-M   'P 1'
_cell_length_a   7.16987400
_cell_length_b   7.22691907
_cell_length_c   7.05488004
_cell_angle_alpha   89.95230709
_cell_angle_beta   90.00000000
_cell_angle_gamma   119.73922967
_symmetry_Int_Tables_number   1
_chemical_formula_structural   Sc6AlNi6Sn5
_chemical_formula_sum   'Sc6 Al1 Ni6 Sn5'
_cell_volume   317.40954813
_cell_formula_units_Z   1
loop_
 _symmetry_equiv_pos_site_id
 _symmetry_equiv_pos_as_xyz
  1  'x, y, z'
loop_
 _atom_site_type_symbol
 _atom_site_label
 _atom_site_symmetry_multiplicity
 _atom_site_fract_x
 _atom_site_fract_y
 _atom_site_fract_z
 _atom_site_occupancy
  Sc  Sc0  1  0.406175  0.004687  0.242909  1
  Sc  Sc1  1  0.603131  0.606386  0.247712  1
  Sc  Sc2  1  0.988399  0.390291  0.247044  1
  Sc  Sc3  1  0.401487  0.995313  0.757091  1
  Sc  Sc4  1  0.598108  0.609709  0.752956  1
  Sc  Sc5  1  0.996745  0.393614  0.752288  1
  Al  Al6  1  0.738773  0.000000  0.000000  1
  Ni  Ni7  1  0.345252  0.677272  0.013923  1
  Ni  Ni8  1  0.333782  0.665031  0.482705  1
  Ni  Ni9  1  0.667981  0.322728  0.986077  1
  Ni  Ni10  1  0.668753  0.334969  0.517295  1
  Ni  Ni11  1  0.994909  0.000207  0.248618  1
  Ni  Ni12  1  0.994701  0.999793  0.751382  1
  Sn  Sn13  1  0.270553  0.268446  0.500028  1
  Sn  Sn14  1  0.002106  0.731554  0.499972  1
  Sn  Sn15  1  0.995586  0.731546  0.999767  1
  Sn  Sn16  1  0.264039  0.268454  0.000233  1
  Sn  Sn17  1  0.729519  0.000000  0.500000  1
