# generated using pymatgen
data_Lu16Sc4(Ir3Ru)3
_symmetry_space_group_name_H-M   'P 1'
_cell_length_a   10.58860000
_cell_length_b   10.58860000
_cell_length_c   6.26288900
_cell_angle_alpha   90.00000000
_cell_angle_beta   90.00000000
_cell_angle_gamma   90.00000000
_symmetry_Int_Tables_number   1
_chemical_formula_structural   Lu16Sc4(Ir3Ru)3
_chemical_formula_sum   'Lu16 Sc4 Ir9 Ru3'
_cell_volume   702.18540695
_cell_formula_units_Z   1
loop_
 _symmetry_equiv_pos_site_id
 _symmetry_equiv_pos_as_xyz
  1  'x, y, z'
loop_
 _atom_site_type_symbol
 _atom_site_label
 _atom_site_symmetry_multiplicity
 _atom_site_fract_x
 _atom_site_fract_y
 _atom_site_fract_z
 _atom_site_occupancy
  Lu  Lu0  1  0.291022  0.084859  0.375214  1
  Lu  Lu1  1  0.291050  0.915450  0.875406  1
  Lu  Lu2  1  0.708950  0.084550  0.875406  1
  Lu  Lu3  1  0.708978  0.915141  0.375214  1
  Lu  Lu4  1  0.584550  0.791050  0.875406  1
  Lu  Lu5  1  0.584859  0.208978  0.375214  1
  Lu  Lu6  1  0.415141  0.791022  0.375214  1
  Lu  Lu7  1  0.415450  0.208950  0.875406  1
  Lu  Lu8  1  0.210451  0.414773  0.626127  1
  Lu  Lu9  1  0.210184  0.585396  0.122950  1
  Lu  Lu10  1  0.789816  0.414604  0.122950  1
  Lu  Lu11  1  0.789549  0.585227  0.626127  1
  Lu  Lu12  1  0.914604  0.710184  0.122950  1
  Lu  Lu13  1  0.914773  0.289549  0.626127  1
  Lu  Lu14  1  0.085227  0.710451  0.626127  1
  Lu  Lu15  1  0.085396  0.289816  0.122950  1
  Sc  Sc16  1  0.000000  0.000000  0.499737  1
  Sc  Sc17  1  0.000000  0.000000  0.999745  1
  Sc  Sc18  1  0.500000  0.500000  0.999745  1
  Sc  Sc19  1  0.500000  0.500000  0.499737  1
  Ir  Ir20  1  0.851487  0.148775  0.250019  1
  Ir  Ir21  1  0.851284  0.851323  0.749634  1
  Ir  Ir22  1  0.148716  0.148677  0.749634  1
  Ir  Ir23  1  0.148513  0.851225  0.250019  1
  Ir  Ir24  1  0.648677  0.351284  0.749634  1
  Ir  Ir25  1  0.648775  0.648513  0.250019  1
  Ir  Ir26  1  0.351225  0.351487  0.250019  1
  Ir  Ir27  1  0.351323  0.648716  0.749634  1
  Ir  Ir28  1  0.000000  0.500000  0.376890  1
  Ru  Ru29  1  0.500000  0.000000  0.125245  1
  Ru  Ru30  1  0.500000  0.000000  0.625107  1
  Ru  Ru31  1  0.000000  0.500000  0.876394  1
