# generated using pymatgen
data_Ho2Er3OsRu
_symmetry_space_group_name_H-M   'P 1'
_cell_length_a   6.30543064
_cell_length_b   7.29822064
_cell_length_c   8.39599298
_cell_angle_alpha   96.90854332
_cell_angle_beta   112.05535366
_cell_angle_gamma   89.99999885
_symmetry_Int_Tables_number   1
_chemical_formula_structural   Ho2Er3OsRu
_chemical_formula_sum   'Ho4 Er6 Os2 Ru2'
_cell_volume   355.06777919
_cell_formula_units_Z   2
loop_
 _symmetry_equiv_pos_site_id
 _symmetry_equiv_pos_as_xyz
  1  'x, y, z'
loop_
 _atom_site_type_symbol
 _atom_site_label
 _atom_site_symmetry_multiplicity
 _atom_site_fract_x
 _atom_site_fract_y
 _atom_site_fract_z
 _atom_site_occupancy
  Ho  Ho0  1  0.792499  0.583649  0.815223  1
  Ho  Ho1  1  0.977276  0.916351  0.184777  1
  Ho  Ho2  1  0.208868  0.415531  0.186409  1
  Ho  Ho3  1  0.022459  0.084469  0.813591  1
  Er  Er4  1  0.204394  0.683975  0.564724  1
  Er  Er5  1  0.639671  0.816025  0.435276  1
  Er  Er6  1  0.795079  0.315819  0.434712  1
  Er  Er7  1  0.360366  0.184181  0.565288  1
  Er  Er8  1  0.421740  0.750000  0.000000  1
  Er  Er9  1  0.579871  0.250000  0.000000  1
  Os  Os10  1  0.601229  0.923771  0.779767  1
  Os  Os11  1  0.821462  0.576229  0.220233  1
  Ru  Ru12  1  0.397974  0.076713  0.220861  1
  Ru  Ru13  1  0.177113  0.423287  0.779139  1
