# generated using pymatgen
data_Tb5ReRuO12
_symmetry_space_group_name_H-M   'P 1'
_cell_length_a   6.88486878
_cell_length_b   6.88486912
_cell_length_c   7.56559459
_cell_angle_alpha   73.74879116
_cell_angle_beta   73.74879050
_cell_angle_gamma   48.80562685
_symmetry_Int_Tables_number   1
_chemical_formula_structural   Tb5ReRuO12
_chemical_formula_sum   'Tb5 Re1 Ru1 O12'
_cell_volume   256.79642931
_cell_formula_units_Z   1
loop_
 _symmetry_equiv_pos_site_id
 _symmetry_equiv_pos_as_xyz
  1  'x, y, z'
loop_
 _atom_site_type_symbol
 _atom_site_label
 _atom_site_symmetry_multiplicity
 _atom_site_fract_x
 _atom_site_fract_y
 _atom_site_fract_z
 _atom_site_occupancy
  Tb  Tb0  1  0.712290  0.681083  0.642944  1
  Tb  Tb1  1  0.318917  0.287710  0.357056  1
  Tb  Tb2  1  0.690655  0.680752  0.173034  1
  Tb  Tb3  1  0.319248  0.309345  0.826966  1
  Tb  Tb4  1  0.009664  0.990336  0.500000  1
  Re  Re5  1  0.202012  0.797988  0.000000  1
  Ru  Ru6  1  0.768132  0.231868  0.000000  1
  O  O7  1  0.002829  0.000304  0.201870  1
  O  O8  1  0.999696  0.997171  0.798130  1
  O  O9  1  0.567330  0.086486  0.084454  1
  O  O10  1  0.403758  0.911251  0.916459  1
  O  O11  1  0.913514  0.432670  0.915546  1
  O  O12  1  0.088749  0.596242  0.083541  1
  O  O13  1  0.484479  0.513979  0.174375  1
  O  O14  1  0.486021  0.515521  0.825625  1
  O  O15  1  0.410092  0.891091  0.431310  1
  O  O16  1  0.600401  0.086697  0.577782  1
  O  O17  1  0.108909  0.589908  0.568690  1
  O  O18  1  0.913303  0.399599  0.422218  1
