# generated using pymatgen
data_Hf8Ti9Nb3Si15Ge
_symmetry_space_group_name_H-M   'P 1'
_cell_length_a   6.65050917
_cell_length_b   6.79246261
_cell_length_c   12.95081239
_cell_angle_alpha   90.00871719
_cell_angle_beta   90.06912364
_cell_angle_gamma   90.00665540
_symmetry_Int_Tables_number   1
_chemical_formula_structural   Hf8Ti9Nb3Si15Ge
_chemical_formula_sum   'Hf8 Ti9 Nb3 Si15 Ge1'
_cell_volume   585.03094820
_cell_formula_units_Z   1
loop_
 _symmetry_equiv_pos_site_id
 _symmetry_equiv_pos_as_xyz
  1  'x, y, z'
loop_
 _atom_site_type_symbol
 _atom_site_label
 _atom_site_symmetry_multiplicity
 _atom_site_fract_x
 _atom_site_fract_y
 _atom_site_fract_z
 _atom_site_occupancy
  Hf  Hf0  1  0.498333  0.677732  0.596582  1
  Hf  Hf1  1  0.996879  0.826068  0.905035  1
  Hf  Hf2  1  0.504223  0.325631  0.095009  1
  Hf  Hf3  1  0.003826  0.172466  0.404873  1
  Hf  Hf4  1  0.508204  0.322688  0.403685  1
  Hf  Hf5  1  0.004298  0.174664  0.094500  1
  Hf  Hf6  1  0.496066  0.675362  0.904946  1
  Hf  Hf7  1  0.994932  0.827716  0.596192  1
  Ti  Ti8  1  0.659389  0.172442  0.625401  1
  Ti  Ti9  1  0.159843  0.325865  0.874842  1
  Ti  Ti10  1  0.339365  0.826193  0.124031  1
  Ti  Ti11  1  0.838135  0.673501  0.375982  1
  Ti  Ti12  1  0.341972  0.829711  0.374414  1
  Ti  Ti13  1  0.839722  0.673919  0.123704  1
  Ti  Ti14  1  0.658994  0.173665  0.875317  1
  Ti  Ti15  1  0.157494  0.323977  0.626501  1
  Ti  Ti16  1  0.829991  0.495036  0.750231  1
  Nb  Nb17  1  0.330361  0.003031  0.750178  1
  Nb  Nb18  1  0.169917  0.504631  0.248111  1
  Nb  Nb19  1  0.669406  0.996447  0.249832  1
  Si  Si20  1  0.673416  0.961463  0.463901  1
  Si  Si21  1  0.172760  0.538170  0.036225  1
  Si  Si22  1  0.327088  0.038964  0.962787  1
  Si  Si23  1  0.822498  0.460922  0.539145  1
  Si  Si24  1  0.326569  0.039378  0.537094  1
  Si  Si25  1  0.826958  0.461939  0.961266  1
  Si  Si26  1  0.672536  0.962209  0.036492  1
  Si  Si27  1  0.457105  0.383170  0.750001  1
  Si  Si28  1  0.952656  0.119733  0.750857  1
  Si  Si29  1  0.545308  0.617833  0.249564  1
  Si  Si30  1  0.044580  0.881716  0.249960  1
  Si  Si31  1  0.702226  0.862973  0.750946  1
  Si  Si32  1  0.195725  0.630876  0.750085  1
  Si  Si33  1  0.299379  0.134384  0.249282  1
  Si  Si34  1  0.801498  0.366643  0.249691  1
  Ge  Ge35  1  0.178347  0.538877  0.463336  1
