# generated using pymatgen
data_Sm2Cd2Sn3Hg
_symmetry_space_group_name_H-M   'P 1'
_cell_length_a   4.73957900
_cell_length_b   4.82204100
_cell_length_c   8.95686000
_cell_angle_alpha   90.00000000
_cell_angle_beta   90.00000000
_cell_angle_gamma   90.00000000
_symmetry_Int_Tables_number   1
_chemical_formula_structural   Sm2Cd2Sn3Hg
_chemical_formula_sum   'Sm2 Cd2 Sn3 Hg1'
_cell_volume   204.70405762
_cell_formula_units_Z   1
loop_
 _symmetry_equiv_pos_site_id
 _symmetry_equiv_pos_as_xyz
  1  'x, y, z'
loop_
 _atom_site_type_symbol
 _atom_site_label
 _atom_site_symmetry_multiplicity
 _atom_site_fract_x
 _atom_site_fract_y
 _atom_site_fract_z
 _atom_site_occupancy
  Sm  Sm0  1  0.000000  0.000000  0.245803  1
  Sm  Sm1  1  0.000000  0.000000  0.754197  1
  Cd  Cd2  1  0.500000  0.500000  0.252722  1
  Cd  Cd3  1  0.500000  0.500000  0.747278  1
  Sn  Sn4  1  0.000000  0.500000  0.000000  1
  Sn  Sn5  1  0.500000  0.000000  0.500000  1
  Sn  Sn6  1  0.500000  0.000000  0.000000  1
  Hg  Hg7  1  0.000000  0.500000  0.500000  1
