# generated using pymatgen
data_Sm6Y2InPd24
_symmetry_space_group_name_H-M   'P 1'
_cell_length_a   8.47701835
_cell_length_b   8.47701835
_cell_length_c   8.47701835
_cell_angle_alpha   89.97686852
_cell_angle_beta   89.97686852
_cell_angle_gamma   89.97686852
_symmetry_Int_Tables_number   1
_chemical_formula_structural   Sm6Y2InPd24
_chemical_formula_sum   'Sm6 Y2 In1 Pd24'
_cell_volume   609.15703332
_cell_formula_units_Z   1
loop_
 _symmetry_equiv_pos_site_id
 _symmetry_equiv_pos_as_xyz
  1  'x, y, z'
loop_
 _atom_site_type_symbol
 _atom_site_label
 _atom_site_symmetry_multiplicity
 _atom_site_fract_x
 _atom_site_fract_y
 _atom_site_fract_z
 _atom_site_occupancy
  Sm  Sm0  1  0.748675  0.748675  0.251258  1
  Sm  Sm1  1  0.748675  0.251258  0.748675  1
  Sm  Sm2  1  0.251325  0.251325  0.748742  1
  Sm  Sm3  1  0.251325  0.748742  0.251325  1
  Sm  Sm4  1  0.251258  0.748675  0.748675  1
  Sm  Sm5  1  0.748742  0.251325  0.251325  1
  Y  Y6  1  0.251363  0.251363  0.251363  1
  Y  Y7  1  0.748637  0.748637  0.748637  1
  In  In8  1  0.000000  0.000000  0.000000  1
  Pd  Pd9  1  0.266712  0.499367  0.000895  1
  Pd  Pd10  1  0.733288  0.500633  0.999105  1
  Pd  Pd11  1  0.000895  0.266712  0.499367  1
  Pd  Pd12  1  0.499367  0.266712  0.000895  1
  Pd  Pd13  1  0.999105  0.733288  0.500633  1
  Pd  Pd14  1  0.500633  0.733288  0.999105  1
  Pd  Pd15  1  0.499367  0.000895  0.266712  1
  Pd  Pd16  1  0.266712  0.000895  0.499367  1
  Pd  Pd17  1  0.500633  0.999105  0.733288  1
  Pd  Pd18  1  0.733288  0.999105  0.500633  1
  Pd  Pd19  1  0.000895  0.499367  0.266712  1
  Pd  Pd20  1  0.999105  0.500633  0.733288  1
  Pd  Pd21  1  0.255143  0.499150  0.499150  1
  Pd  Pd22  1  0.744857  0.500850  0.500850  1
  Pd  Pd23  1  0.499150  0.255143  0.499150  1
  Pd  Pd24  1  0.500850  0.744857  0.500850  1
  Pd  Pd25  1  0.499150  0.499150  0.255143  1
  Pd  Pd26  1  0.500850  0.500850  0.744857  1
  Pd  Pd27  1  0.313302  0.000757  0.000757  1
  Pd  Pd28  1  0.686698  0.999243  0.999243  1
  Pd  Pd29  1  0.000757  0.313302  0.000757  1
  Pd  Pd30  1  0.999243  0.686698  0.999243  1
  Pd  Pd31  1  0.000757  0.000757  0.313302  1
  Pd  Pd32  1  0.999243  0.999243  0.686698  1
