# generated using pymatgen
data_Tb2CrSiO8
_symmetry_space_group_name_H-M   'P 1'
_cell_length_a   5.92715982
_cell_length_b   5.92715974
_cell_length_c   5.92715900
_cell_angle_alpha   105.90201053
_cell_angle_beta   105.90200939
_cell_angle_gamma   116.87298228
_symmetry_Int_Tables_number   1
_chemical_formula_structural   Tb2CrSiO8
_chemical_formula_sum   'Tb2 Cr1 Si1 O8'
_cell_volume   158.26335130
_cell_formula_units_Z   1
loop_
 _symmetry_equiv_pos_site_id
 _symmetry_equiv_pos_as_xyz
  1  'x, y, z'
loop_
 _atom_site_type_symbol
 _atom_site_label
 _atom_site_symmetry_multiplicity
 _atom_site_fract_x
 _atom_site_fract_y
 _atom_site_fract_z
 _atom_site_occupancy
  Tb  Tb0  1  0.000000  0.000000  0.000000  1
  Tb  Tb1  1  0.250000  0.750000  0.500000  1
  Cr  Cr2  1  0.500000  0.500000  0.000000  1
  Si  Si3  1  0.750000  0.250000  0.500000  1
  O  O4  1  0.334099  0.515564  0.181465  1
  O  O5  1  0.399488  0.078664  0.320824  1
  O  O6  1  0.757840  0.078664  0.679176  1
  O  O7  1  0.334099  0.152634  0.818535  1
  O  O8  1  0.847366  0.665901  0.181465  1
  O  O9  1  0.921336  0.242160  0.320824  1
  O  O10  1  0.921336  0.600512  0.679176  1
  O  O11  1  0.484436  0.665901  0.818535  1
