# generated using pymatgen
data_Ta4Cr6SiP
_symmetry_space_group_name_H-M   'P 1'
_cell_length_a   4.85735900
_cell_length_b   4.85735937
_cell_length_c   8.03193400
_cell_angle_alpha   90.00000000
_cell_angle_beta   90.00000000
_cell_angle_gamma   119.99999070
_symmetry_Int_Tables_number   1
_chemical_formula_structural   Ta4Cr6SiP
_chemical_formula_sum   'Ta4 Cr6 Si1 P1'
_cell_volume   164.11612026
_cell_formula_units_Z   1
loop_
 _symmetry_equiv_pos_site_id
 _symmetry_equiv_pos_as_xyz
  1  'x, y, z'
loop_
 _atom_site_type_symbol
 _atom_site_label
 _atom_site_symmetry_multiplicity
 _atom_site_fract_x
 _atom_site_fract_y
 _atom_site_fract_z
 _atom_site_occupancy
  Ta  Ta0  1  0.333333  0.666667  0.434794  1
  Ta  Ta1  1  0.666667  0.333333  0.565206  1
  Ta  Ta2  1  0.666667  0.333333  0.934700  1
  Ta  Ta3  1  0.333333  0.666667  0.065300  1
  Cr  Cr4  1  0.828139  0.171861  0.247874  1
  Cr  Cr5  1  0.828139  0.656279  0.247874  1
  Cr  Cr6  1  0.343721  0.171861  0.247874  1
  Cr  Cr7  1  0.171861  0.828139  0.752126  1
  Cr  Cr8  1  0.171861  0.343721  0.752126  1
  Cr  Cr9  1  0.656279  0.828139  0.752126  1
  Si  Si10  1  0.000000  0.000000  0.500000  1
  P  P11  1  0.000000  0.000000  0.000000  1
