# generated using pymatgen
data_Th10CuBi6Pb
_symmetry_space_group_name_H-M   'P 1'
_cell_length_a   9.71607772
_cell_length_b   9.72438699
_cell_length_c   6.64315845
_cell_angle_alpha   90.07568561
_cell_angle_beta   89.96212807
_cell_angle_gamma   120.02829724
_symmetry_Int_Tables_number   1
_chemical_formula_structural   Th10CuBi6Pb
_chemical_formula_sum   'Th10 Cu1 Bi6 Pb1'
_cell_volume   543.41818940
_cell_formula_units_Z   1
loop_
 _symmetry_equiv_pos_site_id
 _symmetry_equiv_pos_as_xyz
  1  'x, y, z'
loop_
 _atom_site_type_symbol
 _atom_site_label
 _atom_site_symmetry_multiplicity
 _atom_site_fract_x
 _atom_site_fract_y
 _atom_site_fract_z
 _atom_site_occupancy
  Th  Th0  1  0.666906  0.333723  0.500332  1
  Th  Th1  1  0.333094  0.666818  0.500332  1
  Th  Th2  1  0.332562  0.665660  0.999317  1
  Th  Th3  1  0.667438  0.333097  0.999317  1
  Th  Th4  1  0.727040  0.726822  0.271470  1
  Th  Th5  1  0.272960  0.999782  0.271470  1
  Th  Th6  1  0.000000  0.273734  0.270457  1
  Th  Th7  1  0.272785  0.273984  0.728799  1
  Th  Th8  1  0.727215  0.001199  0.728799  1
  Th  Th9  1  0.000000  0.726051  0.728765  1
  Cu  Cu10  1  0.000000  0.000357  0.500912  1
  Bi  Bi11  1  0.000000  0.999813  0.999783  1
  Bi  Bi12  1  0.382109  0.382490  0.244173  1
  Bi  Bi13  1  0.617891  0.000381  0.244173  1
  Bi  Bi14  1  0.000000  0.617328  0.244199  1
  Bi  Bi15  1  0.617684  0.617646  0.755845  1
  Bi  Bi16  1  0.382316  0.999962  0.755845  1
  Pb  Pb17  1  0.000000  0.381151  0.756011  1
