# generated using pymatgen
data_Y3Lu17(Cd3Re)2
_symmetry_space_group_name_H-M   'P 1'
_cell_length_a   9.34867500
_cell_length_b   9.34867521
_cell_length_c   9.84755800
_cell_angle_alpha   90.00000000
_cell_angle_beta   90.00000000
_cell_angle_gamma   120.00000278
_symmetry_Int_Tables_number   1
_chemical_formula_structural   Y3Lu17(Cd3Re)2
_chemical_formula_sum   'Y3 Lu17 Cd6 Re2'
_cell_volume   745.34836144
_cell_formula_units_Z   1
loop_
 _symmetry_equiv_pos_site_id
 _symmetry_equiv_pos_as_xyz
  1  'x, y, z'
loop_
 _atom_site_type_symbol
 _atom_site_label
 _atom_site_symmetry_multiplicity
 _atom_site_fract_x
 _atom_site_fract_y
 _atom_site_fract_z
 _atom_site_occupancy
  Y  Y0  1  0.464282  0.535718  0.750000  1
  Y  Y1  1  0.464282  0.928563  0.750000  1
  Y  Y2  1  0.071437  0.535718  0.750000  1
  Lu  Lu3  1  0.000000  0.000000  0.499713  1
  Lu  Lu4  1  0.000000  0.000000  0.000287  1
  Lu  Lu5  1  0.209671  0.790329  0.442700  1
  Lu  Lu6  1  0.209671  0.419344  0.442700  1
  Lu  Lu7  1  0.580656  0.790329  0.442700  1
  Lu  Lu8  1  0.789345  0.210655  0.552862  1
  Lu  Lu9  1  0.789345  0.578688  0.552862  1
  Lu  Lu10  1  0.421312  0.210655  0.552862  1
  Lu  Lu11  1  0.789345  0.210655  0.947138  1
  Lu  Lu12  1  0.789345  0.578688  0.947138  1
  Lu  Lu13  1  0.421312  0.210655  0.947138  1
  Lu  Lu14  1  0.209671  0.790329  0.057300  1
  Lu  Lu15  1  0.209671  0.419344  0.057300  1
  Lu  Lu16  1  0.580656  0.790329  0.057300  1
  Lu  Lu17  1  0.536967  0.463033  0.250000  1
  Lu  Lu18  1  0.536967  0.073934  0.250000  1
  Lu  Lu19  1  0.926066  0.463033  0.250000  1
  Cd  Cd20  1  0.886380  0.113620  0.250000  1
  Cd  Cd21  1  0.886380  0.772760  0.250000  1
  Cd  Cd22  1  0.227240  0.113620  0.250000  1
  Cd  Cd23  1  0.111308  0.888692  0.750000  1
  Cd  Cd24  1  0.111308  0.222615  0.750000  1
  Cd  Cd25  1  0.777385  0.888692  0.750000  1
  Re  Re26  1  0.333333  0.666667  0.250000  1
  Re  Re27  1  0.666667  0.333333  0.750000  1
