# generated using pymatgen
data_Zr10Cd2Bi5Pb
_symmetry_space_group_name_H-M   'P 1'
_cell_length_a   8.94007455
_cell_length_b   8.92131711
_cell_length_c   6.05960600
_cell_angle_alpha   90.00000000
_cell_angle_beta   90.00000000
_cell_angle_gamma   119.93062084
_symmetry_Int_Tables_number   1
_chemical_formula_structural   Zr10Cd2Bi5Pb
_chemical_formula_sum   'Zr10 Cd2 Bi5 Pb1'
_cell_volume   418.84017425
_cell_formula_units_Z   1
loop_
 _symmetry_equiv_pos_site_id
 _symmetry_equiv_pos_as_xyz
  1  'x, y, z'
loop_
 _atom_site_type_symbol
 _atom_site_label
 _atom_site_symmetry_multiplicity
 _atom_site_fract_x
 _atom_site_fract_y
 _atom_site_fract_z
 _atom_site_occupancy
  Zr  Zr0  1  0.667496  0.333801  0.000584  1
  Zr  Zr1  1  0.332504  0.666306  0.000584  1
  Zr  Zr2  1  0.332504  0.666306  0.499416  1
  Zr  Zr3  1  0.667496  0.333801  0.499416  1
  Zr  Zr4  1  0.718324  0.719244  0.750000  1
  Zr  Zr5  1  0.281676  0.000920  0.750000  1
  Zr  Zr6  1  0.000000  0.280510  0.750000  1
  Zr  Zr7  1  0.281685  0.281232  0.250000  1
  Zr  Zr8  1  0.718315  0.999547  0.250000  1
  Zr  Zr9  1  0.000000  0.718518  0.250000  1
  Cd  Cd10  1  0.000000  0.000607  0.000397  1
  Cd  Cd11  1  0.000000  0.000607  0.499603  1
  Bi  Bi12  1  0.380062  0.380584  0.750000  1
  Bi  Bi13  1  0.619938  0.000522  0.750000  1
  Bi  Bi14  1  0.000000  0.619965  0.750000  1
  Bi  Bi15  1  0.619704  0.619537  0.250000  1
  Bi  Bi16  1  0.380296  0.999834  0.250000  1
  Pb  Pb17  1  0.000000  0.378158  0.250000  1
