# generated using pymatgen
data_Tb6Ho2In3Co
_symmetry_space_group_name_H-M   'P 1'
_cell_length_a   10.38927201
_cell_length_b   10.39834968
_cell_length_c   7.08050100
_cell_angle_alpha   89.95121922
_cell_angle_beta   89.99695578
_cell_angle_gamma   119.97030227
_symmetry_Int_Tables_number   1
_chemical_formula_structural   Tb6Ho2In3Co
_chemical_formula_sum   'Tb12 Ho4 In6 Co2'
_cell_volume   662.63415642
_cell_formula_units_Z   2
loop_
 _symmetry_equiv_pos_site_id
 _symmetry_equiv_pos_as_xyz
  1  'x, y, z'
loop_
 _atom_site_type_symbol
 _atom_site_label
 _atom_site_symmetry_multiplicity
 _atom_site_fract_x
 _atom_site_fract_y
 _atom_site_fract_z
 _atom_site_occupancy
  Tb  Tb0  1  0.644082  0.822165  0.992857  1
  Tb  Tb1  1  0.178110  0.822163  0.992824  1
  Tb  Tb2  1  0.666609  0.333266  0.179087  1
  Tb  Tb3  1  0.333072  0.666118  0.677623  1
  Tb  Tb4  1  0.536841  0.073644  0.786889  1
  Tb  Tb5  1  0.926549  0.463090  0.786803  1
  Tb  Tb6  1  0.536564  0.463098  0.786804  1
  Tb  Tb7  1  0.463726  0.927452  0.288242  1
  Tb  Tb8  1  0.073012  0.536038  0.287525  1
  Tb  Tb9  1  0.463022  0.536043  0.287521  1
  Tb  Tb10  1  0.000068  0.000197  0.774612  1
  Tb  Tb11  1  0.000219  0.000386  0.275671  1
  Ho  Ho12  1  0.821946  0.643906  0.492466  1
  Ho  Ho13  1  0.356063  0.178017  0.492551  1
  Ho  Ho14  1  0.821978  0.178035  0.492551  1
  Ho  Ho15  1  0.178203  0.356423  0.992146  1
  In  In16  1  0.836636  0.673258  0.037462  1
  In  In17  1  0.325885  0.163871  0.036942  1
  In  In18  1  0.837931  0.163863  0.037112  1
  In  In19  1  0.162614  0.325209  0.536845  1
  In  In20  1  0.674931  0.837440  0.535621  1
  In  In21  1  0.162452  0.837398  0.535628  1
  Co  Co22  1  0.666473  0.332909  0.559773  1
  Co  Co23  1  0.333012  0.666007  0.060517  1
