# generated using pymatgen
data_NaErNi9P7Ir3
_symmetry_space_group_name_H-M   'P 1'
_cell_length_a   9.19672700
_cell_length_b   9.19672743
_cell_length_c   3.74069000
_cell_angle_alpha   90.00000000
_cell_angle_beta   90.00000000
_cell_angle_gamma   119.99999485
_symmetry_Int_Tables_number   1
_chemical_formula_structural   NaErNi9P7Ir3
_chemical_formula_sum   'Na1 Er1 Ni9 P7 Ir3'
_cell_volume   273.99900327
_cell_formula_units_Z   1
loop_
 _symmetry_equiv_pos_site_id
 _symmetry_equiv_pos_as_xyz
  1  'x, y, z'
loop_
 _atom_site_type_symbol
 _atom_site_label
 _atom_site_symmetry_multiplicity
 _atom_site_fract_x
 _atom_site_fract_y
 _atom_site_fract_z
 _atom_site_occupancy
  Na  Na0  1  0.000000  0.000000  0.000000  1
  Er  Er1  1  0.333333  0.666667  0.500000  1
  Ni  Ni2  1  0.097341  0.398243  0.000000  1
  Ni  Ni3  1  0.300903  0.902659  0.000000  1
  Ni  Ni4  1  0.601757  0.699097  0.000000  1
  Ni  Ni5  1  0.820361  0.606664  0.000000  1
  Ni  Ni6  1  0.786303  0.179639  0.000000  1
  Ni  Ni7  1  0.393336  0.213697  0.000000  1
  Ni  Ni8  1  0.862055  0.406578  0.500000  1
  Ni  Ni9  1  0.544523  0.137945  0.500000  1
  Ni  Ni10  1  0.593422  0.455477  0.500000  1
  P  P11  1  0.079679  0.626472  0.000000  1
  P  P12  1  0.546793  0.920321  0.000000  1
  P  P13  1  0.373528  0.453207  0.000000  1
  P  P14  1  0.777187  0.735502  0.500000  1
  P  P15  1  0.958315  0.222813  0.500000  1
  P  P16  1  0.264498  0.041685  0.500000  1
  P  P17  1  0.666667  0.333333  0.000000  1
  Ir  Ir18  1  0.052425  0.759647  0.500000  1
  Ir  Ir19  1  0.707222  0.947575  0.500000  1
  Ir  Ir20  1  0.240353  0.292778  0.500000  1
