# generated using pymatgen
data_Th4Mg3Au10
_symmetry_space_group_name_H-M   'P 1'
_cell_length_a   8.70556613
_cell_length_b   8.70556478
_cell_length_c   10.35879200
_cell_angle_alpha   90.00000000
_cell_angle_beta   90.00000000
_cell_angle_gamma   108.34458176
_symmetry_Int_Tables_number   1
_chemical_formula_structural   Th4Mg3Au10
_chemical_formula_sum   'Th8 Mg6 Au20'
_cell_volume   745.16433587
_cell_formula_units_Z   2
loop_
 _symmetry_equiv_pos_site_id
 _symmetry_equiv_pos_as_xyz
  1  'x, y, z'
loop_
 _atom_site_type_symbol
 _atom_site_label
 _atom_site_symmetry_multiplicity
 _atom_site_fract_x
 _atom_site_fract_y
 _atom_site_fract_z
 _atom_site_occupancy
  Th  Th0  1  0.701732  0.298268  0.000000  1
  Th  Th1  1  0.298268  0.701732  0.000000  1
  Th  Th2  1  0.798268  0.201732  0.500000  1
  Th  Th3  1  0.201732  0.798268  0.500000  1
  Th  Th4  1  0.300589  0.300589  0.204250  1
  Th  Th5  1  0.699411  0.699411  0.795750  1
  Th  Th6  1  0.199411  0.199411  0.704250  1
  Th  Th7  1  0.800589  0.800589  0.295750  1
  Mg  Mg8  1  0.011480  0.511480  0.250000  1
  Mg  Mg9  1  0.988520  0.488520  0.750000  1
  Mg  Mg10  1  0.488520  0.988520  0.750000  1
  Mg  Mg11  1  0.511480  0.011480  0.250000  1
  Mg  Mg12  1  0.000000  0.000000  0.000000  1
  Mg  Mg13  1  0.500000  0.500000  0.500000  1
  Au  Au14  1  0.095692  0.095692  0.403401  1
  Au  Au15  1  0.904308  0.904308  0.596599  1
  Au  Au16  1  0.404308  0.404308  0.903401  1
  Au  Au17  1  0.595692  0.595692  0.096599  1
  Au  Au18  1  0.877960  0.162715  0.209650  1
  Au  Au19  1  0.122040  0.837285  0.790350  1
  Au  Au20  1  0.622040  0.337285  0.709650  1
  Au  Au21  1  0.662715  0.377960  0.290350  1
  Au  Au22  1  0.377960  0.662715  0.290350  1
  Au  Au23  1  0.337285  0.622040  0.709650  1
  Au  Au24  1  0.837285  0.122040  0.790350  1
  Au  Au25  1  0.162715  0.877960  0.209650  1
  Au  Au26  1  0.932180  0.658148  0.018032  1
  Au  Au27  1  0.067820  0.341852  0.981968  1
  Au  Au28  1  0.567820  0.841852  0.518032  1
  Au  Au29  1  0.158148  0.432180  0.481968  1
  Au  Au30  1  0.432180  0.158148  0.481968  1
  Au  Au31  1  0.841852  0.567820  0.518032  1
  Au  Au32  1  0.341852  0.067820  0.981968  1
  Au  Au33  1  0.658148  0.932180  0.018032  1
