# generated using pymatgen
data_CaLaYb6(Si3Pd)4
_symmetry_space_group_name_H-M   'P 1'
_cell_length_a   8.25407200
_cell_length_b   8.25407060
_cell_length_c   8.39337600
_cell_angle_alpha   90.00000000
_cell_angle_beta   90.00000000
_cell_angle_gamma   119.99999759
_symmetry_Int_Tables_number   1
_chemical_formula_structural   CaLaYb6(Si3Pd)4
_chemical_formula_sum   'Ca1 La1 Yb6 Si12 Pd4'
_cell_volume   495.22635989
_cell_formula_units_Z   1
loop_
 _symmetry_equiv_pos_site_id
 _symmetry_equiv_pos_as_xyz
  1  'x, y, z'
loop_
 _atom_site_type_symbol
 _atom_site_label
 _atom_site_symmetry_multiplicity
 _atom_site_fract_x
 _atom_site_fract_y
 _atom_site_fract_z
 _atom_site_occupancy
  Ca  Ca0  1  0.000000  0.000000  0.250000  1
  La  La1  1  0.000000  0.000000  0.750000  1
  Yb  Yb2  1  0.501004  0.002009  0.250000  1
  Yb  Yb3  1  0.498979  0.997957  0.750000  1
  Yb  Yb4  1  0.997991  0.498996  0.250000  1
  Yb  Yb5  1  0.002043  0.501021  0.750000  1
  Yb  Yb6  1  0.501004  0.498996  0.250000  1
  Yb  Yb7  1  0.498979  0.501021  0.750000  1
  Si  Si8  1  0.165363  0.330727  0.001220  1
  Si  Si9  1  0.834646  0.669293  0.000233  1
  Si  Si10  1  0.669273  0.834637  0.001220  1
  Si  Si11  1  0.834646  0.669293  0.499767  1
  Si  Si12  1  0.330707  0.165354  0.000233  1
  Si  Si13  1  0.165363  0.330727  0.498780  1
  Si  Si14  1  0.165363  0.834637  0.001220  1
  Si  Si15  1  0.330707  0.165354  0.499767  1
  Si  Si16  1  0.834646  0.165354  0.000233  1
  Si  Si17  1  0.669273  0.834637  0.498780  1
  Si  Si18  1  0.834646  0.165354  0.499767  1
  Si  Si19  1  0.165363  0.834637  0.498780  1
  Pd  Pd20  1  0.333333  0.666667  0.004751  1
  Pd  Pd21  1  0.666667  0.333333  0.000346  1
  Pd  Pd22  1  0.666667  0.333333  0.499654  1
  Pd  Pd23  1  0.333333  0.666667  0.495249  1
