# generated using pymatgen
data_Nd5IrAu2
_symmetry_space_group_name_H-M   'P 1'
_cell_length_a   12.38060500
_cell_length_b   8.92129800
_cell_length_c   7.99068900
_cell_angle_alpha   90.00000000
_cell_angle_beta   90.00000000
_cell_angle_gamma   90.00000000
_symmetry_Int_Tables_number   1
_chemical_formula_structural   Nd5IrAu2
_chemical_formula_sum   'Nd20 Ir4 Au8'
_cell_volume   882.58012312
_cell_formula_units_Z   4
loop_
 _symmetry_equiv_pos_site_id
 _symmetry_equiv_pos_as_xyz
  1  'x, y, z'
loop_
 _atom_site_type_symbol
 _atom_site_label
 _atom_site_symmetry_multiplicity
 _atom_site_fract_x
 _atom_site_fract_y
 _atom_site_fract_z
 _atom_site_occupancy
  Nd  Nd0  1  0.991790  0.249999  0.047500  1
  Nd  Nd1  1  0.308345  0.750000  0.129620  1
  Nd  Nd2  1  0.274804  0.249999  0.162760  1
  Nd  Nd3  1  0.582965  0.538392  0.177040  1
  Nd  Nd4  1  0.582965  0.961607  0.177040  1
  Nd  Nd5  1  0.082965  0.538392  0.322959  1
  Nd  Nd6  1  0.082965  0.961607  0.322959  1
  Nd  Nd7  1  0.774805  0.249999  0.337240  1
  Nd  Nd8  1  0.808345  0.750000  0.370381  1
  Nd  Nd9  1  0.491791  0.249999  0.452502  1
  Nd  Nd10  1  0.508209  0.750000  0.547499  1
  Nd  Nd11  1  0.191655  0.249999  0.629619  1
  Nd  Nd12  1  0.225195  0.750000  0.662761  1
  Nd  Nd13  1  0.917036  0.038392  0.677042  1
  Nd  Nd14  1  0.917036  0.461608  0.677042  1
  Nd  Nd15  1  0.417035  0.038392  0.822960  1
  Nd  Nd16  1  0.417035  0.461608  0.822960  1
  Nd  Nd17  1  0.725195  0.750000  0.837241  1
  Nd  Nd18  1  0.691655  0.249999  0.870381  1
  Nd  Nd19  1  0.008209  0.750000  0.952502  1
  Ir  Ir20  1  0.502241  0.249999  0.076320  1
  Ir  Ir21  1  0.002241  0.249999  0.423680  1
  Ir  Ir22  1  0.997759  0.750000  0.576319  1
  Ir  Ir23  1  0.497759  0.750000  0.923681  1
  Au  Au24  1  0.830493  0.512958  0.066532  1
  Au  Au25  1  0.830493  0.987042  0.066532  1
  Au  Au26  1  0.330493  0.512958  0.433468  1
  Au  Au27  1  0.330493  0.987042  0.433468  1
  Au  Au28  1  0.669508  0.012957  0.566532  1
  Au  Au29  1  0.669508  0.487042  0.566532  1
  Au  Au30  1  0.169508  0.012957  0.933468  1
  Au  Au31  1  0.169508  0.487042  0.933468  1
