# generated using pymatgen
data_LiTbThAgAs4
_symmetry_space_group_name_H-M   'P 1'
_cell_length_a   4.03461500
_cell_length_b   4.04235600
_cell_length_c   10.31809800
_cell_angle_alpha   90.00000000
_cell_angle_beta   90.00000000
_cell_angle_gamma   90.00000000
_symmetry_Int_Tables_number   1
_chemical_formula_structural   LiTbThAgAs4
_chemical_formula_sum   'Li1 Tb1 Th1 Ag1 As4'
_cell_volume   168.28147319
_cell_formula_units_Z   1
loop_
 _symmetry_equiv_pos_site_id
 _symmetry_equiv_pos_as_xyz
  1  'x, y, z'
loop_
 _atom_site_type_symbol
 _atom_site_label
 _atom_site_symmetry_multiplicity
 _atom_site_fract_x
 _atom_site_fract_y
 _atom_site_fract_z
 _atom_site_occupancy
  Li  Li0  1  0.000000  0.000000  0.506374  1
  Tb  Tb1  1  0.500000  0.000000  0.776301  1
  Th  Th2  1  0.000000  0.500000  0.220044  1
  Ag  Ag3  1  0.500000  0.500000  0.504099  1
  As  As4  1  0.000000  0.000000  0.996704  1
  As  As5  1  0.500000  0.500000  0.996166  1
  As  As6  1  0.000000  0.500000  0.676155  1
  As  As7  1  0.500000  0.000000  0.324156  1
