# generated using pymatgen
data_CaDyPa2(Al3Rh)6
_symmetry_space_group_name_H-M   'P 1'
_cell_length_a   7.60703397
_cell_length_b   7.60350713
_cell_length_c   9.41292200
_cell_angle_alpha   90.00000000
_cell_angle_beta   90.00000000
_cell_angle_gamma   119.51198269
_symmetry_Int_Tables_number   1
_chemical_formula_structural   CaDyPa2(Al3Rh)6
_chemical_formula_sum   'Ca1 Dy1 Pa2 Al18 Rh6'
_cell_volume   473.80446471
_cell_formula_units_Z   1
loop_
 _symmetry_equiv_pos_site_id
 _symmetry_equiv_pos_as_xyz
  1  'x, y, z'
loop_
 _atom_site_type_symbol
 _atom_site_label
 _atom_site_symmetry_multiplicity
 _atom_site_fract_x
 _atom_site_fract_y
 _atom_site_fract_z
 _atom_site_occupancy
  Ca  Ca0  1  0.671033  0.993685  0.750000  1
  Dy  Dy1  1  0.330441  0.006527  0.250000  1
  Pa  Pa2  1  0.997385  0.671784  0.750000  1
  Pa  Pa3  1  0.002547  0.328030  0.250000  1
  Al  Al4  1  0.131421  0.125614  0.750000  1
  Al  Al5  1  0.869747  0.873399  0.250000  1
  Al  Al6  1  0.999873  0.332034  0.577892  1
  Al  Al7  1  0.999228  0.667300  0.421918  1
  Al  Al8  1  0.999228  0.667300  0.078082  1
  Al  Al9  1  0.338686  0.002761  0.924574  1
  Al  Al10  1  0.999873  0.332034  0.922108  1
  Al  Al11  1  0.662025  0.996956  0.074221  1
  Al  Al12  1  0.662025  0.996956  0.425779  1
  Al  Al13  1  0.338686  0.002761  0.575426  1
  Al  Al14  1  0.334651  0.333291  0.052582  1
  Al  Al15  1  0.664999  0.666649  0.947962  1
  Al  Al16  1  0.664999  0.666649  0.552038  1
  Al  Al17  1  0.334651  0.333291  0.447418  1
  Al  Al18  1  0.337817  0.547895  0.750000  1
  Al  Al19  1  0.660322  0.452153  0.250000  1
  Al  Al20  1  0.551182  0.345253  0.750000  1
  Al  Al21  1  0.450343  0.658228  0.250000  1
  Rh  Rh22  1  0.674362  0.330238  0.497811  1
  Rh  Rh23  1  0.322949  0.668761  0.499050  1
  Rh  Rh24  1  0.322949  0.668761  0.000950  1
  Rh  Rh25  1  0.674362  0.330238  0.002189  1
  Rh  Rh26  1  0.002109  0.000726  0.498551  1
  Rh  Rh27  1  0.002109  0.000726  0.001449  1
