# generated using pymatgen
data_Nd3MgIn2Au3
_symmetry_space_group_name_H-M   'P 1'
_cell_length_a   7.85670610
_cell_length_b   7.85670654
_cell_length_c   4.19259400
_cell_angle_alpha   90.00000000
_cell_angle_beta   90.00000000
_cell_angle_gamma   120.38827157
_symmetry_Int_Tables_number   1
_chemical_formula_structural   Nd3MgIn2Au3
_chemical_formula_sum   'Nd3 Mg1 In2 Au3'
_cell_volume   223.24512268
_cell_formula_units_Z   1
loop_
 _symmetry_equiv_pos_site_id
 _symmetry_equiv_pos_as_xyz
  1  'x, y, z'
loop_
 _atom_site_type_symbol
 _atom_site_label
 _atom_site_symmetry_multiplicity
 _atom_site_fract_x
 _atom_site_fract_y
 _atom_site_fract_z
 _atom_site_occupancy
  Nd  Nd0  1  0.588820  0.000014  0.000000  1
  Nd  Nd1  1  0.000014  0.588820  0.000000  1
  Nd  Nd2  1  0.408624  0.408624  0.000000  1
  Mg  Mg3  1  0.755500  0.755500  0.500000  1
  In  In4  1  0.250269  0.998855  0.500000  1
  In  In5  1  0.998855  0.250269  0.500000  1
  Au  Au6  1  0.342748  0.668330  0.500000  1
  Au  Au7  1  0.668330  0.342748  0.500000  1
  Au  Au8  1  0.986839  0.986839  0.000000  1
