# generated using pymatgen
data_Mg3Nb(AlRh2)4
_symmetry_space_group_name_H-M   'P 1'
_cell_length_a   6.13159800
_cell_length_b   6.13095200
_cell_length_c   6.14651200
_cell_angle_alpha   89.99996267
_cell_angle_beta   89.99968268
_cell_angle_gamma   89.99930848
_symmetry_Int_Tables_number   1
_chemical_formula_structural   Mg3Nb(AlRh2)4
_chemical_formula_sum   'Mg3 Nb1 Al4 Rh8'
_cell_volume   231.06295532
_cell_formula_units_Z   1
loop_
 _symmetry_equiv_pos_site_id
 _symmetry_equiv_pos_as_xyz
  1  'x, y, z'
loop_
 _atom_site_type_symbol
 _atom_site_label
 _atom_site_symmetry_multiplicity
 _atom_site_fract_x
 _atom_site_fract_y
 _atom_site_fract_z
 _atom_site_occupancy
  Mg  Mg0  1  0.250018  0.750000  0.000004  1
  Mg  Mg1  1  0.249984  0.750001  0.499985  1
  Mg  Mg2  1  0.750018  0.250001  0.500013  1
  Nb  Nb3  1  0.749986  0.250002  0.000003  1
  Al  Al4  1  0.249980  0.250001  0.000002  1
  Al  Al5  1  0.750021  0.750001  0.999999  1
  Al  Al6  1  0.250021  0.250001  0.499992  1
  Al  Al7  1  0.749980  0.750001  0.500010  1
  Rh  Rh8  1  0.999059  0.000938  0.249724  1
  Rh  Rh9  1  0.999056  0.499055  0.249721  1
  Rh  Rh10  1  0.500951  0.000940  0.249730  1
  Rh  Rh11  1  0.500951  0.499065  0.249729  1
  Rh  Rh12  1  0.500931  0.000934  0.750269  1
  Rh  Rh13  1  0.500930  0.499064  0.750270  1
  Rh  Rh14  1  0.999062  0.000933  0.750272  1
  Rh  Rh15  1  0.999057  0.499068  0.750276  1
