# generated using pymatgen
data_Zr8MnTl2(PO4)12
_symmetry_space_group_name_H-M   'P 1'
_cell_length_a   8.91716330
_cell_length_b   9.41746422
_cell_length_c   15.67978419
_cell_angle_alpha   93.27679715
_cell_angle_beta   106.51787760
_cell_angle_gamma   118.39628787
_symmetry_Int_Tables_number   1
_chemical_formula_structural   Zr8MnTl2(PO4)12
_chemical_formula_sum   'Zr8 Mn1 Tl2 P12 O48'
_cell_volume   1081.23435750
_cell_formula_units_Z   1
loop_
 _symmetry_equiv_pos_site_id
 _symmetry_equiv_pos_as_xyz
  1  'x, y, z'
loop_
 _atom_site_type_symbol
 _atom_site_label
 _atom_site_symmetry_multiplicity
 _atom_site_fract_x
 _atom_site_fract_y
 _atom_site_fract_z
 _atom_site_occupancy
  Zr  Zr0  1  0.144767  0.116322  0.673966  1
  Zr  Zr1  1  0.356055  0.640416  0.579686  1
  Zr  Zr2  1  0.150034  0.619676  0.177694  1
  Zr  Zr3  1  0.349426  0.125039  0.067400  1
  Zr  Zr4  1  0.643945  0.359584  0.420314  1
  Zr  Zr5  1  0.855233  0.883678  0.326034  1
  Zr  Zr6  1  0.650574  0.874961  0.932600  1
  Zr  Zr7  1  0.849966  0.380324  0.822306  1
  Mn  Mn8  1  0.500000  0.500000  0.000000  1
  Tl  Tl9  1  0.041891  0.276428  0.275559  1
  Tl  Tl10  1  0.958109  0.723572  0.724441  1
  P  P11  1  0.740667  0.763092  0.510730  1
  P  P12  1  0.040718  0.629492  0.379731  1
  P  P13  1  0.457959  0.977695  0.737253  1
  P  P14  1  0.542041  0.022305  0.262747  1
  P  P15  1  0.959282  0.370508  0.620269  1
  P  P16  1  0.750561  0.276892  0.021652  1
  P  P17  1  0.259333  0.236908  0.489270  1
  P  P18  1  0.038974  0.129447  0.873753  1
  P  P19  1  0.473195  0.487491  0.218290  1
  P  P20  1  0.526805  0.512509  0.781710  1
  P  P21  1  0.961026  0.870553  0.126247  1
  P  P22  1  0.249439  0.723108  0.978348  1
  O  O23  1  0.267829  0.404116  0.505060  1
  O  O24  1  0.503424  0.607182  0.707509  1
  O  O25  1  0.924162  0.890260  0.587951  1
  O  O26  1  0.128627  0.529919  0.621106  1
  O  O27  1  0.730908  0.828003  0.422396  1
  O  O28  1  0.583426  0.741480  0.541312  1
  O  O29  1  0.085836  0.594462  0.295070  1
  O  O30  1  0.204703  0.677357  0.466135  1
  O  O31  1  0.372302  0.850407  0.242794  1
  O  O32  1  0.430497  0.868822  0.651660  1
  O  O33  1  0.709928  0.005444  0.273872  1
  O  O34  1  0.996476  0.226783  0.626403  1
  O  O35  1  0.294066  0.905966  0.993089  1
  O  O36  1  0.003524  0.773217  0.373597  1
  O  O37  1  0.290072  0.994556  0.726128  1
  O  O38  1  0.569503  0.131178  0.348340  1
  O  O39  1  0.627698  0.149593  0.757206  1
  O  O40  1  0.511991  0.104142  0.180320  1
  O  O41  1  0.795297  0.322643  0.533865  1
  O  O42  1  0.915606  0.378582  0.110495  1
  O  O43  1  0.115740  0.009231  0.100175  1
  O  O44  1  0.914164  0.405538  0.704930  1
  O  O45  1  0.790604  0.351953  0.941220  1
  O  O46  1  0.416574  0.258520  0.458688  1
  O  O47  1  0.581425  0.283125  0.027846  1
  O  O48  1  0.269092  0.171997  0.577604  1
  O  O49  1  0.039702  0.056693  0.783655  1
  O  O50  1  0.871373  0.470081  0.378894  1
  O  O51  1  0.075838  0.109740  0.412049  1
  O  O52  1  0.227313  0.196220  0.951373  1
  O  O53  1  0.496576  0.392818  0.292491  1
  O  O54  1  0.356664  0.341008  0.764147  1
  O  O55  1  0.434691  0.389726  0.121453  1
  O  O56  1  0.692960  0.493300  0.789093  1
  O  O57  1  0.986579  0.721430  0.133854  1
  O  O58  1  0.732171  0.595884  0.494940  1
  O  O59  1  0.013421  0.278570  0.866146  1
  O  O60  1  0.307040  0.506700  0.210907  1
  O  O61  1  0.565309  0.610274  0.878547  1
  O  O62  1  0.643336  0.658992  0.235853  1
  O  O63  1  0.772687  0.803780  0.048627  1
  O  O64  1  0.960298  0.943307  0.216345  1
  O  O65  1  0.418575  0.716875  0.972154  1
  O  O66  1  0.209396  0.648047  0.058780  1
  O  O67  1  0.884260  0.990769  0.899825  1
  O  O68  1  0.084394  0.621418  0.889505  1
  O  O69  1  0.488009  0.895858  0.819680  1
  O  O70  1  0.705934  0.094034  0.006911  1
