# generated using pymatgen
data_Sc4NbRe19Tc5
_symmetry_space_group_name_H-M   'P 1'
_cell_length_a   8.42937655
_cell_length_b   8.43709799
_cell_length_c   8.43507166
_cell_angle_alpha   109.53449511
_cell_angle_beta   109.45522627
_cell_angle_gamma   109.37101339
_symmetry_Int_Tables_number   1
_chemical_formula_structural   Sc4NbRe19Tc5
_chemical_formula_sum   'Sc4 Nb1 Re19 Tc5'
_cell_volume   462.10229309
_cell_formula_units_Z   1
loop_
 _symmetry_equiv_pos_site_id
 _symmetry_equiv_pos_as_xyz
  1  'x, y, z'
loop_
 _atom_site_type_symbol
 _atom_site_label
 _atom_site_symmetry_multiplicity
 _atom_site_fract_x
 _atom_site_fract_y
 _atom_site_fract_z
 _atom_site_occupancy
  Sc  Sc0  1  0.002424  0.631283  0.999987  1
  Sc  Sc1  1  0.632221  0.001292  0.002050  1
  Sc  Sc2  1  0.998075  0.000338  0.630582  1
  Sc  Sc3  1  0.998858  0.998168  0.998563  1
  Nb  Nb4  1  0.369195  0.369676  0.369310  1
  Re  Re5  1  0.998239  0.676164  0.395981  1
  Re  Re6  1  0.598589  0.599577  0.279568  1
  Re  Re7  1  0.809820  0.809645  0.185731  1
  Re  Re8  1  0.377328  0.193473  0.000376  1
  Re  Re9  1  0.194409  0.376399  0.000222  1
  Re  Re10  1  0.621809  0.815185  0.622408  1
  Re  Re11  1  0.378769  0.000823  0.194467  1
  Re  Re12  1  0.000795  0.377265  0.194609  1
  Re  Re13  1  0.816167  0.622669  0.621315  1
  Re  Re14  1  0.186107  0.809101  0.808463  1
  Re  Re15  1  0.808454  0.185205  0.810265  1
  Re  Re16  1  0.195022  0.002292  0.378404  1
  Re  Re17  1  0.000545  0.194743  0.379041  1
  Re  Re18  1  0.623792  0.623513  0.816137  1
  Re  Re19  1  0.396376  0.998151  0.675419  1
  Re  Re20  1  0.600062  0.280431  0.599453  1
  Re  Re21  1  0.676023  0.396975  0.998512  1
  Re  Re22  1  0.396268  0.675312  0.998123  1
  Re  Re23  1  0.323744  0.324621  0.722053  1
  Tc  Tc24  1  0.997243  0.396126  0.676886  1
  Tc  Tc25  1  0.280187  0.599352  0.599483  1
  Tc  Tc26  1  0.721265  0.323291  0.322920  1
  Tc  Tc27  1  0.321865  0.720407  0.322770  1
  Tc  Tc28  1  0.676349  0.998528  0.396899  1
