# generated using pymatgen
data_Dy10Sn5BiCl2
_symmetry_space_group_name_H-M   'P 1'
_cell_length_a   9.15226600
_cell_length_b   9.15226619
_cell_length_c   6.53476700
_cell_angle_alpha   90.00000000
_cell_angle_beta   90.00000000
_cell_angle_gamma   120.13693338
_symmetry_Int_Tables_number   1
_chemical_formula_structural   Dy10Sn5BiCl2
_chemical_formula_sum   'Dy10 Sn5 Bi1 Cl2'
_cell_volume   473.38785036
_cell_formula_units_Z   1
loop_
 _symmetry_equiv_pos_site_id
 _symmetry_equiv_pos_as_xyz
  1  'x, y, z'
loop_
 _atom_site_type_symbol
 _atom_site_label
 _atom_site_symmetry_multiplicity
 _atom_site_fract_x
 _atom_site_fract_y
 _atom_site_fract_z
 _atom_site_occupancy
  Dy  Dy0  1  0.263817  0.000767  0.750000  1
  Dy  Dy1  1  0.738244  0.005117  0.250000  1
  Dy  Dy2  1  0.000767  0.263817  0.750000  1
  Dy  Dy3  1  0.005117  0.738244  0.250000  1
  Dy  Dy4  1  0.738002  0.738002  0.750000  1
  Dy  Dy5  1  0.258383  0.258383  0.250000  1
  Dy  Dy6  1  0.330600  0.668347  0.501483  1
  Dy  Dy7  1  0.668347  0.330600  0.501483  1
  Dy  Dy8  1  0.668347  0.330600  0.998517  1
  Dy  Dy9  1  0.330600  0.668347  0.998517  1
  Sn  Sn10  1  0.611304  0.999393  0.750000  1
  Sn  Sn11  1  0.390110  0.001058  0.250000  1
  Sn  Sn12  1  0.999393  0.611304  0.750000  1
  Sn  Sn13  1  0.001058  0.390110  0.250000  1
  Sn  Sn14  1  0.388398  0.388398  0.750000  1
  Bi  Bi15  1  0.611622  0.611622  0.250000  1
  Cl  Cl16  1  0.997946  0.997946  0.499288  1
  Cl  Cl17  1  0.997946  0.997946  0.000712  1
