# generated using pymatgen
data_Ce4Nd(FeB3)2
_symmetry_space_group_name_H-M   'P 1'
_cell_length_a   5.31615972
_cell_length_b   5.31616069
_cell_length_c   8.78396325
_cell_angle_alpha   72.38579757
_cell_angle_beta   72.38580485
_cell_angle_gamma   59.99998948
_symmetry_Int_Tables_number   1
_chemical_formula_structural   Ce4Nd(FeB3)2
_chemical_formula_sum   'Ce4 Nd1 Fe2 B6'
_cell_volume   201.43792731
_cell_formula_units_Z   1
loop_
 _symmetry_equiv_pos_site_id
 _symmetry_equiv_pos_as_xyz
  1  'x, y, z'
loop_
 _atom_site_type_symbol
 _atom_site_label
 _atom_site_symmetry_multiplicity
 _atom_site_fract_x
 _atom_site_fract_y
 _atom_site_fract_z
 _atom_site_occupancy
  Ce  Ce0  1  0.749824  0.749824  0.750528  1
  Ce  Ce1  1  0.250176  0.250176  0.249472  1
  Ce  Ce2  1  0.583030  0.583030  0.250910  1
  Ce  Ce3  1  0.416970  0.416970  0.749090  1
  Nd  Nd4  1  0.000000  0.000000  0.000000  1
  Fe  Fe5  1  0.879910  0.879910  0.360273  1
  Fe  Fe6  1  0.120090  0.120090  0.639728  1
  B  B7  1  0.500000  0.168378  0.500000  1
  B  B8  1  0.831622  0.500000  0.500000  1
  B  B9  1  0.168378  0.831622  0.500000  1
  B  B10  1  0.168378  0.500000  0.500000  1
  B  B11  1  0.831622  0.168378  0.500000  1
  B  B12  1  0.500000  0.831622  0.500000  1
