# generated using pymatgen
data_Zr10Sn3(BiSb)2
_symmetry_space_group_name_H-M   'P 1'
_cell_length_a   5.94566746
_cell_length_b   8.74243200
_cell_length_c   8.74004418
_cell_angle_alpha   119.99084575
_cell_angle_beta   90.15601726
_cell_angle_gamma   89.92165892
_symmetry_Int_Tables_number   1
_chemical_formula_structural   Zr10Sn3(BiSb)2
_chemical_formula_sum   'Zr10 Sn3 Bi2 Sb2'
_cell_volume   393.47358433
_cell_formula_units_Z   1
loop_
 _symmetry_equiv_pos_site_id
 _symmetry_equiv_pos_as_xyz
  1  'x, y, z'
loop_
 _atom_site_type_symbol
 _atom_site_label
 _atom_site_symmetry_multiplicity
 _atom_site_fract_x
 _atom_site_fract_y
 _atom_site_fract_z
 _atom_site_occupancy
  Zr  Zr0  1  0.497460  0.329362  0.666098  1
  Zr  Zr1  1  0.497455  0.670640  0.336737  1
  Zr  Zr2  1  0.004327  0.670280  0.336249  1
  Zr  Zr3  1  0.004329  0.329716  0.665966  1
  Zr  Zr4  1  0.772332  0.260228  0.993933  1
  Zr  Zr5  1  0.772326  0.739770  0.733700  1
  Zr  Zr6  1  0.770621  0.999999  0.268912  1
  Zr  Zr7  1  0.229604  0.732968  0.000355  1
  Zr  Zr8  1  0.229599  0.267038  0.267396  1
  Zr  Zr9  1  0.229024  0.999999  0.730918  1
  Sn  Sn10  1  0.254684  0.386201  0.001332  1
  Sn  Sn11  1  0.254682  0.613798  0.615133  1
  Sn  Sn12  1  0.255426  0.000000  0.385013  1
  Bi  Bi13  1  0.742940  0.611293  0.999267  1
  Bi  Bi14  1  0.742938  0.388707  0.387975  1
  Sb  Sb15  1  0.745386  0.999999  0.610302  1
  Sb  Sb16  1  0.496868  0.000004  0.000715  1
