# generated using pymatgen
data_Hf5Zr5Zn2(BiPb)3
_symmetry_space_group_name_H-M   'P 1'
_cell_length_a   8.83066500
_cell_length_b   8.82747914
_cell_length_c   5.89709000
_cell_angle_alpha   90.00000000
_cell_angle_beta   90.00000000
_cell_angle_gamma   120.01194302
_symmetry_Int_Tables_number   1
_chemical_formula_structural   Hf5Zr5Zn2(BiPb)3
_chemical_formula_sum   'Hf5 Zr5 Zn2 Bi3 Pb3'
_cell_volume   398.05787412
_cell_formula_units_Z   1
loop_
 _symmetry_equiv_pos_site_id
 _symmetry_equiv_pos_as_xyz
  1  'x, y, z'
loop_
 _atom_site_type_symbol
 _atom_site_label
 _atom_site_symmetry_multiplicity
 _atom_site_fract_x
 _atom_site_fract_y
 _atom_site_fract_z
 _atom_site_occupancy
  Hf  Hf0  1  0.333164  0.666915  0.000491  1
  Hf  Hf1  1  0.666250  0.333085  0.499509  1
  Hf  Hf2  1  0.666250  0.333085  0.000491  1
  Hf  Hf3  1  0.333164  0.666915  0.499509  1
  Hf  Hf4  1  0.265632  0.000000  0.250000  1
  Zr  Zr5  1  0.266421  0.264879  0.750000  1
  Zr  Zr6  1  0.001542  0.735121  0.750000  1
  Zr  Zr7  1  0.000881  0.267087  0.250000  1
  Zr  Zr8  1  0.733794  0.732913  0.250000  1
  Zr  Zr9  1  0.733026  0.000000  0.750000  1
  Zn  Zn10  1  0.001018  0.000000  0.000900  1
  Zn  Zn11  1  0.001018  0.000000  0.499100  1
  Bi  Bi12  1  0.613369  0.000000  0.250000  1
  Bi  Bi13  1  0.614165  0.613566  0.750000  1
  Bi  Bi14  1  0.000600  0.386434  0.750000  1
  Pb  Pb15  1  0.000510  0.615795  0.250000  1
  Pb  Pb16  1  0.384716  0.384205  0.250000  1
  Pb  Pb17  1  0.384480  0.000000  0.750000  1
