# generated using pymatgen
data_Sc4Tc5Os3
_symmetry_space_group_name_H-M   'P 1'
_cell_length_a   5.22670309
_cell_length_b   5.22670281
_cell_length_c   8.67347500
_cell_angle_alpha   90.00000000
_cell_angle_beta   90.00000000
_cell_angle_gamma   120.93259152
_symmetry_Int_Tables_number   1
_chemical_formula_structural   Sc4Tc5Os3
_chemical_formula_sum   'Sc4 Tc5 Os3'
_cell_volume   203.24551108
_cell_formula_units_Z   1
loop_
 _symmetry_equiv_pos_site_id
 _symmetry_equiv_pos_as_xyz
  1  'x, y, z'
loop_
 _atom_site_type_symbol
 _atom_site_label
 _atom_site_symmetry_multiplicity
 _atom_site_fract_x
 _atom_site_fract_y
 _atom_site_fract_z
 _atom_site_occupancy
  Sc  Sc0  1  0.334338  0.665662  0.433623  1
  Sc  Sc1  1  0.665650  0.334350  0.563752  1
  Sc  Sc2  1  0.665650  0.334350  0.936248  1
  Sc  Sc3  1  0.334338  0.665662  0.066377  1
  Tc  Tc4  1  0.172512  0.346388  0.750000  1
  Tc  Tc5  1  0.173892  0.826108  0.750000  1
  Tc  Tc6  1  0.343743  0.172744  0.250000  1
  Tc  Tc7  1  0.827256  0.656257  0.250000  1
  Tc  Tc8  1  0.653612  0.827488  0.750000  1
  Os  Os9  1  0.001392  0.998608  0.999249  1
  Os  Os10  1  0.826224  0.173776  0.250000  1
  Os  Os11  1  0.001392  0.998608  0.500751  1
