# generated using pymatgen
data_LaYb2ThPt4
_symmetry_space_group_name_H-M   'P 1'
_cell_length_a   4.50202200
_cell_length_b   5.69269446
_cell_length_c   7.37062842
_cell_angle_alpha   89.09229501
_cell_angle_beta   90.00000000
_cell_angle_gamma   90.00000000
_symmetry_Int_Tables_number   1
_chemical_formula_structural   LaYb2ThPt4
_chemical_formula_sum   'La1 Yb2 Th1 Pt4'
_cell_volume   188.87544597
_cell_formula_units_Z   1
loop_
 _symmetry_equiv_pos_site_id
 _symmetry_equiv_pos_as_xyz
  1  'x, y, z'
loop_
 _atom_site_type_symbol
 _atom_site_label
 _atom_site_symmetry_multiplicity
 _atom_site_fract_x
 _atom_site_fract_y
 _atom_site_fract_z
 _atom_site_occupancy
  La  La0  1  0.250000  0.361998  0.680088  1
  Yb  Yb1  1  0.750000  0.643116  0.318382  1
  Yb  Yb2  1  0.750000  0.856838  0.817604  1
  Th  Th3  1  0.250000  0.136946  0.181387  1
  Pt  Pt4  1  0.750000  0.149412  0.444412  1
  Pt  Pt5  1  0.250000  0.849576  0.541220  1
  Pt  Pt6  1  0.250000  0.660252  0.049978  1
  Pt  Pt7  1  0.750000  0.341863  0.966928  1
