# generated using pymatgen
data_Pa(MnC)4
_symmetry_space_group_name_H-M   'P 1'
_cell_length_a   5.65466375
_cell_length_b   5.65466479
_cell_length_c   5.65466414
_cell_angle_alpha   94.60882092
_cell_angle_beta   94.60882936
_cell_angle_gamma   147.06572206
_symmetry_Int_Tables_number   1
_chemical_formula_structural   Pa(MnC)4
_chemical_formula_sum   'Pa1 Mn4 C4'
_cell_volume   94.26965250
_cell_formula_units_Z   1
loop_
 _symmetry_equiv_pos_site_id
 _symmetry_equiv_pos_as_xyz
  1  'x, y, z'
loop_
 _atom_site_type_symbol
 _atom_site_label
 _atom_site_symmetry_multiplicity
 _atom_site_fract_x
 _atom_site_fract_y
 _atom_site_fract_z
 _atom_site_occupancy
  Pa  Pa0  1  0.000000  0.000000  0.000000  1
  Mn  Mn1  1  0.823305  0.362108  0.185412  1
  Mn  Mn2  1  0.637893  0.823305  0.461196  1
  Mn  Mn3  1  0.362108  0.176696  0.538805  1
  Mn  Mn4  1  0.176696  0.637893  0.814588  1
  C  C5  1  0.401530  0.751021  0.152549  1
  C  C6  1  0.751021  0.598471  0.349491  1
  C  C7  1  0.248980  0.401530  0.650510  1
  C  C8  1  0.598471  0.248980  0.847452  1
