# generated using pymatgen
data_Y8Tm2IrRu3
_symmetry_space_group_name_H-M   'P 1'
_cell_length_a   6.38814076
_cell_length_b   7.31771968
_cell_length_c   8.47822336
_cell_angle_alpha   96.76119233
_cell_angle_beta   111.93824498
_cell_angle_gamma   90.17687920
_symmetry_Int_Tables_number   1
_chemical_formula_structural   Y8Tm2IrRu3
_chemical_formula_sum   'Y8 Tm2 Ir1 Ru3'
_cell_volume   364.59533937
_cell_formula_units_Z   1
loop_
 _symmetry_equiv_pos_site_id
 _symmetry_equiv_pos_as_xyz
  1  'x, y, z'
loop_
 _atom_site_type_symbol
 _atom_site_label
 _atom_site_symmetry_multiplicity
 _atom_site_fract_x
 _atom_site_fract_y
 _atom_site_fract_z
 _atom_site_occupancy
  Y  Y0  1  0.974558  0.914552  0.184148  1
  Y  Y1  1  0.791219  0.584063  0.814769  1
  Y  Y2  1  0.022614  0.085735  0.813928  1
  Y  Y3  1  0.207830  0.418051  0.184578  1
  Y  Y4  1  0.646526  0.814672  0.435500  1
  Y  Y5  1  0.209559  0.684890  0.566656  1
  Y  Y6  1  0.355852  0.182979  0.566137  1
  Y  Y7  1  0.792852  0.315759  0.434106  1
  Tm  Tm8  1  0.422062  0.749824  0.999456  1
  Tm  Tm9  1  0.576642  0.249235  0.999493  1
  Ir  Ir10  1  0.397862  0.074748  0.216812  1
  Ru  Ru11  1  0.816390  0.573422  0.214626  1
  Ru  Ru12  1  0.605074  0.926183  0.784390  1
  Ru  Ru13  1  0.180961  0.425886  0.785401  1
