# generated using pymatgen
data_NaCu4(PO5)2
_symmetry_space_group_name_H-M   'P 1'
_cell_length_a   5.46112376
_cell_length_b   5.70847197
_cell_length_c   7.63437232
_cell_angle_alpha   101.43952166
_cell_angle_beta   87.20589156
_cell_angle_gamma   114.88609449
_symmetry_Int_Tables_number   1
_chemical_formula_structural   NaCu4(PO5)2
_chemical_formula_sum   'Na1 Cu4 P2 O10'
_cell_volume   211.44963799
_cell_formula_units_Z   1
loop_
 _symmetry_equiv_pos_site_id
 _symmetry_equiv_pos_as_xyz
  1  'x, y, z'
loop_
 _atom_site_type_symbol
 _atom_site_label
 _atom_site_symmetry_multiplicity
 _atom_site_fract_x
 _atom_site_fract_y
 _atom_site_fract_z
 _atom_site_occupancy
  Na  Na0  1  0.000000  0.000000  0.000000  1
  Cu  Cu1  1  0.292781  0.654243  0.028735  1
  Cu  Cu2  1  0.707219  0.345757  0.971265  1
  Cu  Cu3  1  0.916620  0.723930  0.384179  1
  Cu  Cu4  1  0.083380  0.276070  0.615821  1
  P  P5  1  0.537920  0.823346  0.709051  1
  P  P6  1  0.462080  0.176654  0.290949  1
  O  O7  1  0.967924  0.614227  0.139485  1
  O  O8  1  0.032076  0.385773  0.860515  1
  O  O9  1  0.474322  0.063389  0.788957  1
  O  O10  1  0.525678  0.936611  0.211043  1
  O  O11  1  0.584638  0.701464  0.864788  1
  O  O12  1  0.415362  0.298536  0.135212  1
  O  O13  1  0.306156  0.622797  0.578070  1
  O  O14  1  0.188253  0.084459  0.391063  1
  O  O15  1  0.811747  0.915541  0.608937  1
  O  O16  1  0.693844  0.377203  0.421930  1
