# generated using pymatgen
data_Y17Ho3(CoBi2)4
_symmetry_space_group_name_H-M   'P 1'
_cell_length_a   8.02724210
_cell_length_b   8.88992214
_cell_length_c   12.40037511
_cell_angle_alpha   89.98728862
_cell_angle_beta   89.99139466
_cell_angle_gamma   89.98384178
_symmetry_Int_Tables_number   1
_chemical_formula_structural   Y17Ho3(CoBi2)4
_chemical_formula_sum   'Y17 Ho3 Co4 Bi8'
_cell_volume   884.91001228
_cell_formula_units_Z   1
loop_
 _symmetry_equiv_pos_site_id
 _symmetry_equiv_pos_as_xyz
  1  'x, y, z'
loop_
 _atom_site_type_symbol
 _atom_site_label
 _atom_site_symmetry_multiplicity
 _atom_site_fract_x
 _atom_site_fract_y
 _atom_site_fract_z
 _atom_site_occupancy
  Y  Y0  1  0.347713  0.750885  0.700448  1
  Y  Y1  1  0.652883  0.249500  0.299050  1
  Y  Y2  1  0.847638  0.248952  0.799316  1
  Y  Y3  1  0.152401  0.751017  0.200590  1
  Y  Y4  1  0.882270  0.751139  0.809163  1
  Y  Y5  1  0.117812  0.249045  0.190646  1
  Y  Y6  1  0.382636  0.249297  0.691138  1
  Y  Y7  1  0.617936  0.750601  0.309444  1
  Y  Y8  1  0.676397  0.537228  0.564166  1
  Y  Y9  1  0.323944  0.463836  0.436180  1
  Y  Y10  1  0.176370  0.463126  0.936120  1
  Y  Y11  1  0.323332  0.036020  0.435907  1
  Y  Y12  1  0.823699  0.536946  0.063802  1
  Y  Y13  1  0.046714  0.751141  0.498331  1
  Y  Y14  1  0.950405  0.248584  0.502267  1
  Y  Y15  1  0.548384  0.247821  0.002041  1
  Y  Y16  1  0.451711  0.752238  0.997922  1
  Ho  Ho17  1  0.673688  0.962872  0.563080  1
  Ho  Ho18  1  0.825741  0.963463  0.062992  1
  Ho  Ho19  1  0.174361  0.036672  0.936861  1
  Co  Co20  1  0.063419  0.752452  0.991760  1
  Co  Co21  1  0.936523  0.247617  0.008207  1
  Co  Co22  1  0.565488  0.248455  0.508693  1
  Co  Co23  1  0.437375  0.750937  0.491926  1
  Bi  Bi24  1  0.572405  0.508761  0.827323  1
  Bi  Bi25  1  0.427778  0.491404  0.172820  1
  Bi  Bi26  1  0.072480  0.491245  0.673115  1
  Bi  Bi27  1  0.428199  0.008734  0.173496  1
  Bi  Bi28  1  0.927931  0.508710  0.326911  1
  Bi  Bi29  1  0.572215  0.991298  0.826498  1
  Bi  Bi30  1  0.927562  0.991212  0.326486  1
  Bi  Bi31  1  0.072591  0.008792  0.673303  1
