# generated using pymatgen
data_CaTl(PO3)3
_symmetry_space_group_name_H-M   'P 1'
_cell_length_a   10.28539700
_cell_length_b   7.55274219
_cell_length_c   14.68110100
_cell_angle_alpha   59.21915188
_cell_angle_beta   90.00000000
_cell_angle_gamma   90.00000000
_symmetry_Int_Tables_number   1
_chemical_formula_structural   CaTl(PO3)3
_chemical_formula_sum   'Ca4 Tl4 P12 O36'
_cell_volume   979.81422351
_cell_formula_units_Z   4
loop_
 _symmetry_equiv_pos_site_id
 _symmetry_equiv_pos_as_xyz
  1  'x, y, z'
loop_
 _atom_site_type_symbol
 _atom_site_label
 _atom_site_symmetry_multiplicity
 _atom_site_fract_x
 _atom_site_fract_y
 _atom_site_fract_z
 _atom_site_occupancy
  Ca  Ca0  1  0.012185  0.516589  0.226040  1
  Ca  Ca1  1  0.512185  0.483411  0.273960  1
  Ca  Ca2  1  0.987815  0.483411  0.773960  1
  Ca  Ca3  1  0.487815  0.516589  0.726040  1
  Tl  Tl4  1  0.421788  0.148701  0.581789  1
  Tl  Tl5  1  0.921788  0.851299  0.918211  1
  Tl  Tl6  1  0.578212  0.851299  0.418211  1
  Tl  Tl7  1  0.078212  0.148701  0.081789  1
  P  P8  1  0.748921  0.900195  0.664454  1
  P  P9  1  0.248921  0.099805  0.835546  1
  P  P10  1  0.251079  0.099805  0.335546  1
  P  P11  1  0.751079  0.900195  0.164454  1
  P  P12  1  0.748145  0.327571  0.633282  1
  P  P13  1  0.248145  0.672429  0.866718  1
  P  P14  1  0.251855  0.672429  0.366718  1
  P  P15  1  0.751855  0.327571  0.133282  1
  P  P16  1  0.781370  0.260684  0.456208  1
  P  P17  1  0.281370  0.739316  0.043792  1
  P  P18  1  0.218630  0.739316  0.543792  1
  P  P19  1  0.718630  0.260684  0.956208  1
  O  O20  1  0.817739  0.025737  0.548773  1
  O  O21  1  0.317739  0.974263  0.951227  1
  O  O22  1  0.182261  0.974263  0.451227  1
  O  O23  1  0.682261  0.025737  0.048773  1
  O  O24  1  0.717472  0.081536  0.690055  1
  O  O25  1  0.217472  0.918464  0.809945  1
  O  O26  1  0.282528  0.918464  0.309945  1
  O  O27  1  0.782528  0.081536  0.190055  1
  O  O28  1  0.806625  0.383602  0.518888  1
  O  O29  1  0.306625  0.616398  0.981112  1
  O  O30  1  0.193375  0.616398  0.481112  1
  O  O31  1  0.693375  0.383602  0.018888  1
  O  O32  1  0.847719  0.757056  0.742420  1
  O  O33  1  0.347719  0.242944  0.757580  1
  O  O34  1  0.152281  0.242944  0.257580  1
  O  O35  1  0.652281  0.757056  0.242420  1
  O  O36  1  0.619755  0.816942  0.655078  1
  O  O37  1  0.119755  0.183058  0.844922  1
  O  O38  1  0.380245  0.183058  0.344922  1
  O  O39  1  0.880245  0.816942  0.155078  1
  O  O40  1  0.852884  0.360388  0.693197  1
  O  O41  1  0.352884  0.639612  0.806803  1
  O  O42  1  0.147116  0.639612  0.306803  1
  O  O43  1  0.647116  0.360388  0.193197  1
  O  O44  1  0.618266  0.432900  0.617113  1
  O  O45  1  0.118266  0.567100  0.882887  1
  O  O46  1  0.381734  0.567100  0.382887  1
  O  O47  1  0.881734  0.432900  0.117113  1
  O  O48  1  0.638036  0.268464  0.431322  1
  O  O49  1  0.138036  0.731536  0.068678  1
  O  O50  1  0.361964  0.731536  0.568678  1
  O  O51  1  0.861964  0.268464  0.931322  1
  O  O52  1  0.879989  0.328967  0.370872  1
  O  O53  1  0.379989  0.671033  0.129128  1
  O  O54  1  0.120011  0.671033  0.629128  1
  O  O55  1  0.620011  0.328967  0.870872  1
