# generated using pymatgen
data_Sc4P2Ir3Pt4
_symmetry_space_group_name_H-M   'P 1'
_cell_length_a   4.03187800
_cell_length_b   6.47685900
_cell_length_c   15.96972800
_cell_angle_alpha   90.00000000
_cell_angle_beta   90.00000000
_cell_angle_gamma   90.00000000
_symmetry_Int_Tables_number   1
_chemical_formula_structural   Sc4P2Ir3Pt4
_chemical_formula_sum   'Sc8 P4 Ir6 Pt8'
_cell_volume   417.03196484
_cell_formula_units_Z   2
loop_
 _symmetry_equiv_pos_site_id
 _symmetry_equiv_pos_as_xyz
  1  'x, y, z'
loop_
 _atom_site_type_symbol
 _atom_site_label
 _atom_site_symmetry_multiplicity
 _atom_site_fract_x
 _atom_site_fract_y
 _atom_site_fract_z
 _atom_site_occupancy
  Sc  Sc0  1  0.000000  0.280114  0.461734  1
  Sc  Sc1  1  0.000000  0.719886  0.538266  1
  Sc  Sc2  1  0.000000  0.780114  0.038266  1
  Sc  Sc3  1  0.000000  0.219886  0.961734  1
  Sc  Sc4  1  0.000000  0.530005  0.290009  1
  Sc  Sc5  1  0.000000  0.469995  0.709991  1
  Sc  Sc6  1  0.000000  0.030005  0.209991  1
  Sc  Sc7  1  0.000000  0.969995  0.790009  1
  P  P8  1  0.500000  0.839352  0.306419  1
  P  P9  1  0.500000  0.160648  0.693581  1
  P  P10  1  0.500000  0.339352  0.193581  1
  P  P11  1  0.500000  0.660648  0.806419  1
  Ir  Ir12  1  0.000000  0.905143  0.379665  1
  Ir  Ir13  1  0.000000  0.094857  0.620335  1
  Ir  Ir14  1  0.000000  0.405143  0.120335  1
  Ir  Ir15  1  0.000000  0.594857  0.879665  1
  Ir  Ir16  1  0.500000  0.500000  0.000000  1
  Ir  Ir17  1  0.500000  0.000000  0.500000  1
  Pt  Pt18  1  0.500000  0.599455  0.420712  1
  Pt  Pt19  1  0.500000  0.400545  0.579288  1
  Pt  Pt20  1  0.500000  0.099455  0.079288  1
  Pt  Pt21  1  0.500000  0.900545  0.920712  1
  Pt  Pt22  1  0.500000  0.210896  0.334843  1
  Pt  Pt23  1  0.500000  0.789104  0.665157  1
  Pt  Pt24  1  0.500000  0.710896  0.165157  1
  Pt  Pt25  1  0.500000  0.289104  0.834843  1
