# generated using pymatgen
data_Pr2Co7(P2Ru)3
_symmetry_space_group_name_H-M   'P 1'
_cell_length_a   3.77161800
_cell_length_b   10.58707300
_cell_length_c   11.99716200
_cell_angle_alpha   90.00000000
_cell_angle_beta   90.00000000
_cell_angle_gamma   90.00000000
_symmetry_Int_Tables_number   1
_chemical_formula_structural   Pr2Co7(P2Ru)3
_chemical_formula_sum   'Pr4 Co14 P12 Ru6'
_cell_volume   479.05141867
_cell_formula_units_Z   2
loop_
 _symmetry_equiv_pos_site_id
 _symmetry_equiv_pos_as_xyz
  1  'x, y, z'
loop_
 _atom_site_type_symbol
 _atom_site_label
 _atom_site_symmetry_multiplicity
 _atom_site_fract_x
 _atom_site_fract_y
 _atom_site_fract_z
 _atom_site_occupancy
  Pr  Pr0  1  0.250000  0.587315  0.704528  1
  Pr  Pr1  1  0.250000  0.912685  0.204528  1
  Pr  Pr2  1  0.750000  0.414820  0.293035  1
  Pr  Pr3  1  0.750000  0.085180  0.793035  1
  Co  Co4  1  0.750000  0.600032  0.509298  1
  Co  Co5  1  0.750000  0.899968  0.009298  1
  Co  Co6  1  0.250000  0.224755  0.178504  1
  Co  Co7  1  0.250000  0.275245  0.678504  1
  Co  Co8  1  0.750000  0.777813  0.823646  1
  Co  Co9  1  0.750000  0.722187  0.323646  1
  Co  Co10  1  0.250000  0.884113  0.699544  1
  Co  Co11  1  0.250000  0.615887  0.199544  1
  Co  Co12  1  0.750000  0.114049  0.299632  1
  Co  Co13  1  0.750000  0.385951  0.799632  1
  Co  Co14  1  0.250000  0.465765  0.932102  1
  Co  Co15  1  0.250000  0.034235  0.432102  1
  Co  Co16  1  0.750000  0.536452  0.066449  1
  Co  Co17  1  0.750000  0.963548  0.566449  1
  P  P18  1  0.250000  0.422345  0.108886  1
  P  P19  1  0.250000  0.077655  0.608886  1
  P  P20  1  0.750000  0.579454  0.889905  1
  P  P21  1  0.750000  0.920546  0.389905  1
  P  P22  1  0.250000  0.277362  0.867025  1
  P  P23  1  0.250000  0.222638  0.367025  1
  P  P24  1  0.750000  0.724032  0.132566  1
  P  P25  1  0.750000  0.775968  0.632566  1
  P  P26  1  0.250000  0.603287  0.389872  1
  P  P27  1  0.250000  0.896713  0.889872  1
  P  P28  1  0.750000  0.397419  0.611273  1
  P  P29  1  0.750000  0.102581  0.111273  1
  Ru  Ru30  1  0.250000  0.711519  0.989135  1
  Ru  Ru31  1  0.250000  0.788481  0.489135  1
  Ru  Ru32  1  0.750000  0.291580  0.013101  1
  Ru  Ru33  1  0.750000  0.208420  0.513101  1
  Ru  Ru34  1  0.250000  0.407793  0.491500  1
  Ru  Ru35  1  0.250000  0.092207  0.991500  1
