# generated using pymatgen
data_Nd2LuGaSi
_symmetry_space_group_name_H-M   'P 1'
_cell_length_a   7.65340300
_cell_length_b   7.63292700
_cell_length_c   4.44521800
_cell_angle_alpha   90.00000000
_cell_angle_beta   90.00000000
_cell_angle_gamma   90.00000000
_symmetry_Int_Tables_number   1
_chemical_formula_structural   Nd2LuGaSi
_chemical_formula_sum   'Nd4 Lu2 Ga2 Si2'
_cell_volume   259.68015125
_cell_formula_units_Z   2
loop_
 _symmetry_equiv_pos_site_id
 _symmetry_equiv_pos_as_xyz
  1  'x, y, z'
loop_
 _atom_site_type_symbol
 _atom_site_label
 _atom_site_symmetry_multiplicity
 _atom_site_fract_x
 _atom_site_fract_y
 _atom_site_fract_z
 _atom_site_occupancy
  Nd  Nd0  1  0.674417  0.176448  0.500000  1
  Nd  Nd1  1  0.825583  0.676448  0.500000  1
  Nd  Nd2  1  0.178200  0.324073  0.500000  1
  Nd  Nd3  1  0.321800  0.824073  0.500000  1
  Lu  Lu4  1  0.494320  0.496138  0.000000  1
  Lu  Lu5  1  0.005680  0.996138  0.000000  1
  Ga  Ga6  1  0.617742  0.882690  0.000000  1
  Ga  Ga7  1  0.882258  0.382690  0.000000  1
  Si  Si8  1  0.120762  0.620651  0.000000  1
  Si  Si9  1  0.379238  0.120651  0.000000  1
