# generated using pymatgen
data_Tb5V3(Ni4P3)4
_symmetry_space_group_name_H-M   'P 1'
_cell_length_a   12.15098100
_cell_length_b   12.15098055
_cell_length_c   3.73029400
_cell_angle_alpha   90.00000000
_cell_angle_beta   90.00000000
_cell_angle_gamma   119.99999849
_symmetry_Int_Tables_number   1
_chemical_formula_structural   Tb5V3(Ni4P3)4
_chemical_formula_sum   'Tb5 V3 Ni16 P12'
_cell_volume   476.97582472
_cell_formula_units_Z   1
loop_
 _symmetry_equiv_pos_site_id
 _symmetry_equiv_pos_as_xyz
  1  'x, y, z'
loop_
 _atom_site_type_symbol
 _atom_site_label
 _atom_site_symmetry_multiplicity
 _atom_site_fract_x
 _atom_site_fract_y
 _atom_site_fract_z
 _atom_site_occupancy
  Tb  Tb0  1  0.812445  0.000000  0.500000  1
  Tb  Tb1  1  0.000000  0.812445  0.500000  1
  Tb  Tb2  1  0.187555  0.187555  0.500000  1
  Tb  Tb3  1  0.333333  0.666667  0.000000  1
  Tb  Tb4  1  0.666667  0.333333  0.000000  1
  V  V5  1  0.440474  0.000000  0.000000  1
  V  V6  1  0.000000  0.440474  0.000000  1
  V  V7  1  0.559526  0.559526  0.000000  1
  Ni  Ni8  1  0.280640  0.000000  0.500000  1
  Ni  Ni9  1  0.000000  0.280640  0.500000  1
  Ni  Ni10  1  0.719360  0.719360  0.500000  1
  Ni  Ni11  1  0.621294  0.804327  0.000000  1
  Ni  Ni12  1  0.195673  0.816967  0.000000  1
  Ni  Ni13  1  0.183033  0.378706  0.000000  1
  Ni  Ni14  1  0.378706  0.183033  0.000000  1
  Ni  Ni15  1  0.804327  0.621294  0.000000  1
  Ni  Ni16  1  0.816967  0.195673  0.000000  1
  Ni  Ni17  1  0.516664  0.875722  0.500000  1
  Ni  Ni18  1  0.124278  0.640942  0.500000  1
  Ni  Ni19  1  0.359058  0.483336  0.500000  1
  Ni  Ni20  1  0.483336  0.359058  0.500000  1
  Ni  Ni21  1  0.875722  0.516664  0.500000  1
  Ni  Ni22  1  0.640942  0.124278  0.500000  1
  Ni  Ni23  1  0.000000  0.000000  0.000000  1
  P  P24  1  0.179074  0.000000  0.000000  1
  P  P25  1  0.000000  0.179074  0.000000  1
  P  P26  1  0.820926  0.820926  0.000000  1
  P  P27  1  0.521781  0.684584  0.500000  1
  P  P28  1  0.315416  0.837197  0.500000  1
  P  P29  1  0.162803  0.478219  0.500000  1
  P  P30  1  0.478219  0.162803  0.500000  1
  P  P31  1  0.684584  0.521781  0.500000  1
  P  P32  1  0.837197  0.315416  0.500000  1
  P  P33  1  0.632422  0.000000  0.000000  1
  P  P34  1  0.000000  0.632422  0.000000  1
  P  P35  1  0.367578  0.367578  0.000000  1
