# generated using pymatgen
data_Ta9Al3CuGe
_symmetry_space_group_name_H-M   'P 1'
_cell_length_a   9.90450086
_cell_length_b   9.92449028
_cell_length_c   9.90450003
_cell_angle_alpha   93.82409691
_cell_angle_beta   93.72942553
_cell_angle_gamma   150.04049323
_symmetry_Int_Tables_number   1
_chemical_formula_structural   Ta9Al3CuGe
_chemical_formula_sum   'Ta18 Al6 Cu2 Ge2'
_cell_volume   470.14375584
_cell_formula_units_Z   2
loop_
 _symmetry_equiv_pos_site_id
 _symmetry_equiv_pos_as_xyz
  1  'x, y, z'
loop_
 _atom_site_type_symbol
 _atom_site_label
 _atom_site_symmetry_multiplicity
 _atom_site_fract_x
 _atom_site_fract_y
 _atom_site_fract_z
 _atom_site_occupancy
  Ta  Ta0  1  0.564798  0.792585  0.356096  1
  Ta  Ta1  1  0.082919  0.157650  0.241793  1
  Ta  Ta2  1  0.584145  0.342350  0.925269  1
  Ta  Ta3  1  0.655349  0.580647  0.242089  1
  Ta  Ta4  1  0.344651  0.419353  0.757911  1
  Ta  Ta5  1  0.791279  0.435100  0.227777  1
  Ta  Ta6  1  0.415855  0.657650  0.074731  1
  Ta  Ta7  1  0.161441  0.919353  0.074703  1
  Ta  Ta8  1  0.707323  0.935100  0.643821  1
  Ta  Ta9  1  0.435202  0.207415  0.643904  1
  Ta  Ta10  1  0.917081  0.842350  0.758207  1
  Ta  Ta11  1  0.063511  0.707415  0.772213  1
  Ta  Ta12  1  0.208721  0.564900  0.772223  1
  Ta  Ta13  1  0.250934  0.750000  0.500934  1
  Ta  Ta14  1  0.292677  0.064900  0.356179  1
  Ta  Ta15  1  0.749066  0.250000  0.499066  1
  Ta  Ta16  1  0.838559  0.080647  0.925297  1
  Ta  Ta17  1  0.936489  0.292585  0.227787  1
  Al  Al18  1  0.375508  0.875429  0.239583  1
  Al  Al19  1  0.864154  0.624571  0.500078  1
  Al  Al20  1  0.135846  0.375429  0.499922  1
  Al  Al21  1  0.624492  0.124571  0.760417  1
  Al  Al22  1  0.000000  0.500000  0.000000  1
  Al  Al23  1  0.000000  0.000000  0.500000  1
  Cu  Cu24  1  0.500000  0.000000  0.000000  1
  Cu  Cu25  1  0.500000  0.500000  0.500000  1
  Ge  Ge26  1  0.750345  0.750000  0.000345  1
  Ge  Ge27  1  0.249655  0.250000  0.999655  1
