# generated using pymatgen
data_Gd4HoTmTa2O14
_symmetry_space_group_name_H-M   'P 1'
_cell_length_a   6.48321430
_cell_length_b   6.54996749
_cell_length_c   7.53405494
_cell_angle_alpha   90.02387827
_cell_angle_beta   90.02028970
_cell_angle_gamma   108.81335379
_symmetry_Int_Tables_number   1
_chemical_formula_structural   Gd4HoTmTa2O14
_chemical_formula_sum   'Gd4 Ho1 Tm1 Ta2 O14'
_cell_volume   302.83972134
_cell_formula_units_Z   1
loop_
 _symmetry_equiv_pos_site_id
 _symmetry_equiv_pos_as_xyz
  1  'x, y, z'
loop_
 _atom_site_type_symbol
 _atom_site_label
 _atom_site_symmetry_multiplicity
 _atom_site_fract_x
 _atom_site_fract_y
 _atom_site_fract_z
 _atom_site_occupancy
  Gd  Gd0  1  0.526701  0.536482  0.497501  1
  Gd  Gd1  1  0.474560  0.465448  0.996768  1
  Gd  Gd2  1  0.999824  0.532287  0.242951  1
  Gd  Gd3  1  0.000375  0.467498  0.742939  1
  Ho  Ho4  1  0.464320  0.000279  0.257678  1
  Tm  Tm5  1  0.535496  0.000147  0.757953  1
  Ta  Ta6  1  0.003220  0.001692  0.499701  1
  Ta  Ta7  1  0.996974  0.998498  0.998679  1
  O  O8  1  0.927710  0.061197  0.749507  1
  O  O9  1  0.071004  0.940304  0.249499  1
  O  O10  1  0.364848  0.645574  0.245671  1
  O  O11  1  0.635446  0.351938  0.745242  1
  O  O12  1  0.378475  0.639610  0.754050  1
  O  O13  1  0.623501  0.363356  0.253263  1
  O  O14  1  0.324611  0.071872  0.969737  1
  O  O15  1  0.674294  0.926934  0.473554  1
  O  O16  1  0.302905  0.030499  0.549724  1
  O  O17  1  0.695137  0.967067  0.045278  1
  O  O18  1  0.072606  0.313069  0.462652  1
  O  O19  1  0.927728  0.686611  0.962717  1
  O  O20  1  0.913483  0.672616  0.522283  1
  O  O21  1  0.086783  0.327026  0.022648  1
