# generated using pymatgen
data_Y3Th(Fe2I)2
_symmetry_space_group_name_H-M   'P 1'
_cell_length_a   3.97163600
_cell_length_b   3.97163542
_cell_length_c   17.44130800
_cell_angle_alpha   90.00000000
_cell_angle_beta   90.00000000
_cell_angle_gamma   120.00000484
_symmetry_Int_Tables_number   1
_chemical_formula_structural   Y3Th(Fe2I)2
_chemical_formula_sum   'Y3 Th1 Fe4 I2'
_cell_volume   238.25853973
_cell_formula_units_Z   1
loop_
 _symmetry_equiv_pos_site_id
 _symmetry_equiv_pos_as_xyz
  1  'x, y, z'
loop_
 _atom_site_type_symbol
 _atom_site_label
 _atom_site_symmetry_multiplicity
 _atom_site_fract_x
 _atom_site_fract_y
 _atom_site_fract_z
 _atom_site_occupancy
  Y  Y0  1  0.000000  0.000000  0.396862  1
  Y  Y1  1  0.000000  0.000000  0.604231  1
  Y  Y2  1  0.000000  0.000000  0.890814  1
  Th  Th3  1  0.000000  0.000000  0.101423  1
  Fe  Fe4  1  0.333334  0.666667  0.997932  1
  Fe  Fe5  1  0.333334  0.666667  0.496173  1
  Fe  Fe6  1  0.666668  0.333334  0.506400  1
  Fe  Fe7  1  0.666668  0.333334  0.998202  1
  I  I8  1  0.666668  0.333334  0.257598  1
  I  I9  1  0.333334  0.666667  0.750367  1
