# generated using pymatgen
data_Tb9Yb(In2Au)4
_symmetry_space_group_name_H-M   'P 1'
_cell_length_a   3.69331700
_cell_length_b   8.24294175
_cell_length_c   18.49297300
_cell_angle_alpha   90.03734713
_cell_angle_beta   90.00000000
_cell_angle_gamma   90.00000000
_symmetry_Int_Tables_number   1
_chemical_formula_structural   Tb9Yb(In2Au)4
_chemical_formula_sum   'Tb9 Yb1 In8 Au4'
_cell_volume   562.99619448
_cell_formula_units_Z   1
loop_
 _symmetry_equiv_pos_site_id
 _symmetry_equiv_pos_as_xyz
  1  'x, y, z'
loop_
 _atom_site_type_symbol
 _atom_site_label
 _atom_site_symmetry_multiplicity
 _atom_site_fract_x
 _atom_site_fract_y
 _atom_site_fract_z
 _atom_site_occupancy
  Tb  Tb0  1  0.000000  0.118661  0.419761  1
  Tb  Tb1  1  0.000000  0.879503  0.580137  1
  Tb  Tb2  1  0.000000  0.379375  0.920115  1
  Tb  Tb3  1  0.000000  0.620507  0.080496  1
  Tb  Tb4  1  0.000000  0.239398  0.217708  1
  Tb  Tb5  1  0.000000  0.761227  0.782349  1
  Tb  Tb6  1  0.000000  0.261637  0.717557  1
  Tb  Tb7  1  0.000000  0.000610  0.000085  1
  Tb  Tb8  1  0.000000  0.500093  0.500116  1
  Yb  Yb9  1  0.000000  0.739933  0.282241  1
  In  In10  1  0.500000  0.424286  0.352918  1
  In  In11  1  0.500000  0.577161  0.646509  1
  In  In12  1  0.500000  0.077058  0.853284  1
  In  In13  1  0.500000  0.922568  0.146849  1
  In  In14  1  0.500000  0.290113  0.066764  1
  In  In15  1  0.500000  0.710026  0.933128  1
  In  In16  1  0.500000  0.209537  0.566749  1
  In  In17  1  0.500000  0.790055  0.432615  1
  Au  Au18  1  0.500000  0.026236  0.302807  1
  Au  Au19  1  0.500000  0.971811  0.696805  1
  Au  Au20  1  0.500000  0.471778  0.803232  1
  Au  Au21  1  0.500000  0.528425  0.197773  1
