# generated using pymatgen
data_La20Co4Sn3Ge5
_symmetry_space_group_name_H-M   'P 1'
_cell_length_a   8.29885697
_cell_length_b   9.00731609
_cell_length_c   12.57670200
_cell_angle_alpha   89.71714943
_cell_angle_beta   90.04850100
_cell_angle_gamma   90.10595336
_symmetry_Int_Tables_number   1
_chemical_formula_structural   La20Co4Sn3Ge5
_chemical_formula_sum   'La20 Co4 Sn3 Ge5'
_cell_volume   940.10046388
_cell_formula_units_Z   1
loop_
 _symmetry_equiv_pos_site_id
 _symmetry_equiv_pos_as_xyz
  1  'x, y, z'
loop_
 _atom_site_type_symbol
 _atom_site_label
 _atom_site_symmetry_multiplicity
 _atom_site_fract_x
 _atom_site_fract_y
 _atom_site_fract_z
 _atom_site_occupancy
  La  La0  1  0.332923  0.761985  0.705729  1
  La  La1  1  0.670827  0.245774  0.293487  1
  La  La2  1  0.833943  0.239389  0.791498  1
  La  La3  1  0.162521  0.756328  0.210906  1
  La  La4  1  0.860624  0.760324  0.801165  1
  La  La5  1  0.136322  0.243986  0.201879  1
  La  La6  1  0.361180  0.239273  0.697230  1
  La  La7  1  0.646313  0.754535  0.301097  1
  La  La8  1  0.676045  0.525041  0.566086  1
  La  La9  1  0.317095  0.478104  0.431682  1
  La  La10  1  0.176205  0.476663  0.933396  1
  La  La11  1  0.327900  0.031010  0.426791  1
  La  La12  1  0.824798  0.522585  0.073703  1
  La  La13  1  0.677788  0.966507  0.571664  1
  La  La14  1  0.825478  0.964917  0.074292  1
  La  La15  1  0.173594  0.035212  0.929055  1
  La  La16  1  0.042204  0.756791  0.493861  1
  La  La17  1  0.952331  0.243593  0.496933  1
  La  La18  1  0.551872  0.236173  0.001881  1
  La  La19  1  0.447846  0.764472  0.999185  1
  Co  Co20  1  0.080818  0.755719  0.987323  1
  Co  Co21  1  0.917311  0.243935  0.017278  1
  Co  Co22  1  0.585905  0.245175  0.514100  1
  Co  Co23  1  0.415315  0.754703  0.481879  1
  Sn  Sn24  1  0.562902  0.506821  0.827714  1
  Sn  Sn25  1  0.435823  0.492859  0.171723  1
  Sn  Sn26  1  0.063934  0.493334  0.672348  1
  Ge  Ge27  1  0.442211  0.004823  0.176011  1
  Ge  Ge28  1  0.941276  0.504289  0.327962  1
  Ge  Ge29  1  0.558932  0.995090  0.825401  1
  Ge  Ge30  1  0.939940  0.995492  0.326446  1
  Ge  Ge31  1  0.057825  0.005100  0.670292  1
