# generated using pymatgen
data_YbPrAl20IrOs3
_symmetry_space_group_name_H-M   'P 1'
_cell_length_a   6.88736965
_cell_length_b   6.88664676
_cell_length_c   9.18842915
_cell_angle_alpha   90.20459542
_cell_angle_beta   90.03286879
_cell_angle_gamma   96.53261358
_symmetry_Int_Tables_number   1
_chemical_formula_structural   YbPrAl20IrOs3
_chemical_formula_sum   'Yb1 Pr1 Al20 Ir1 Os3'
_cell_volume   432.98268973
_cell_formula_units_Z   1
loop_
 _symmetry_equiv_pos_site_id
 _symmetry_equiv_pos_as_xyz
  1  'x, y, z'
loop_
 _atom_site_type_symbol
 _atom_site_label
 _atom_site_symmetry_multiplicity
 _atom_site_fract_x
 _atom_site_fract_y
 _atom_site_fract_z
 _atom_site_occupancy
  Yb  Yb0  1  0.371766  0.625732  0.250329  1
  Pr  Pr1  1  0.626488  0.375557  0.750219  1
  Al  Al2  1  0.279539  0.016350  0.747703  1
  Al  Al3  1  0.019941  0.283493  0.249275  1
  Al  Al4  1  0.718118  0.979950  0.252138  1
  Al  Al5  1  0.983916  0.719355  0.750623  1
  Al  Al6  1  0.879737  0.123349  0.950636  1
  Al  Al7  1  0.121452  0.875606  0.047634  1
  Al  Al8  1  0.877576  0.122771  0.547640  1
  Al  Al9  1  0.123805  0.875594  0.453592  1
  Al  Al10  1  0.644922  0.913046  0.749084  1
  Al  Al11  1  0.916930  0.646367  0.250310  1
  Al  Al12  1  0.352823  0.083222  0.250980  1
  Al  Al13  1  0.087537  0.356039  0.749652  1
  Al  Al14  1  0.340370  0.657554  0.897602  1
  Al  Al15  1  0.660569  0.341447  0.104269  1
  Al  Al16  1  0.342287  0.658452  0.600117  1
  Al  Al17  1  0.659004  0.339689  0.397725  1
  Al  Al18  1  0.724350  0.724784  0.001173  1
  Al  Al19  1  0.723355  0.724778  0.498412  1
  Al  Al20  1  0.274121  0.277811  0.003225  1
  Al  Al21  1  0.274623  0.277007  0.497612  1
  Ir  Ir22  1  0.498985  0.000558  0.000477  1
  Os  Os23  1  0.999348  0.500565  0.000463  1
  Os  Os24  1  0.499282  0.000474  0.499624  1
  Os  Os25  1  0.999157  0.500447  0.499484  1
