# generated using pymatgen
data_Sc12FeCo3
_symmetry_space_group_name_H-M   'P 1'
_cell_length_a   5.83940800
_cell_length_b   8.46507200
_cell_length_c   13.04779400
_cell_angle_alpha   90.00000000
_cell_angle_beta   90.00000000
_cell_angle_gamma   90.00000000
_symmetry_Int_Tables_number   1
_chemical_formula_structural   Sc12FeCo3
_chemical_formula_sum   'Sc24 Fe2 Co6'
_cell_volume   644.96562470
_cell_formula_units_Z   2
loop_
 _symmetry_equiv_pos_site_id
 _symmetry_equiv_pos_as_xyz
  1  'x, y, z'
loop_
 _atom_site_type_symbol
 _atom_site_label
 _atom_site_symmetry_multiplicity
 _atom_site_fract_x
 _atom_site_fract_y
 _atom_site_fract_z
 _atom_site_occupancy
  Sc  Sc0  1  0.546369  0.750000  0.352886  1
  Sc  Sc1  1  0.046369  0.250000  0.147114  1
  Sc  Sc2  1  0.453450  0.250000  0.646148  1
  Sc  Sc3  1  0.953450  0.750000  0.853852  1
  Sc  Sc4  1  0.785194  0.750000  0.108626  1
  Sc  Sc5  1  0.285194  0.250000  0.391374  1
  Sc  Sc6  1  0.214202  0.250000  0.890217  1
  Sc  Sc7  1  0.714202  0.750000  0.609783  1
  Sc  Sc8  1  0.407757  0.932648  0.787775  1
  Sc  Sc9  1  0.907757  0.067352  0.712225  1
  Sc  Sc10  1  0.591792  0.431605  0.212419  1
  Sc  Sc11  1  0.091792  0.568395  0.287581  1
  Sc  Sc12  1  0.591792  0.068395  0.212419  1
  Sc  Sc13  1  0.091792  0.931605  0.287581  1
  Sc  Sc14  1  0.407757  0.567352  0.787775  1
  Sc  Sc15  1  0.907757  0.432648  0.712225  1
  Sc  Sc16  1  0.246005  0.935152  0.535286  1
  Sc  Sc17  1  0.746005  0.064848  0.964714  1
  Sc  Sc18  1  0.757212  0.438812  0.463801  1
  Sc  Sc19  1  0.257212  0.561188  0.036199  1
  Sc  Sc20  1  0.757212  0.061188  0.463801  1
  Sc  Sc21  1  0.257212  0.938812  0.036199  1
  Sc  Sc22  1  0.246005  0.564848  0.535286  1
  Sc  Sc23  1  0.746005  0.435152  0.964714  1
  Fe  Fe24  1  0.940570  0.750000  0.441868  1
  Fe  Fe25  1  0.440570  0.250000  0.058132  1
  Co  Co26  1  0.053135  0.250000  0.559693  1
  Co  Co27  1  0.553135  0.750000  0.940307  1
  Co  Co28  1  0.374894  0.750000  0.179351  1
  Co  Co29  1  0.874894  0.250000  0.320649  1
  Co  Co30  1  0.626655  0.250000  0.819680  1
  Co  Co31  1  0.126655  0.750000  0.680320  1
