# generated using pymatgen
data_HoPa4Fe3(P3Ru4)4
_symmetry_space_group_name_H-M   'P 1'
_cell_length_a   12.57348800
_cell_length_b   12.57348935
_cell_length_c   3.86716000
_cell_angle_alpha   90.00000000
_cell_angle_beta   90.00000000
_cell_angle_gamma   120.00000172
_symmetry_Int_Tables_number   1
_chemical_formula_structural   HoPa4Fe3(P3Ru4)4
_chemical_formula_sum   'Ho1 Pa4 Fe3 P12 Ru16'
_cell_volume   529.46146250
_cell_formula_units_Z   1
loop_
 _symmetry_equiv_pos_site_id
 _symmetry_equiv_pos_as_xyz
  1  'x, y, z'
loop_
 _atom_site_type_symbol
 _atom_site_label
 _atom_site_symmetry_multiplicity
 _atom_site_fract_x
 _atom_site_fract_y
 _atom_site_fract_z
 _atom_site_occupancy
  Ho  Ho0  1  0.333333  0.666667  0.000000  1
  Pa  Pa1  1  0.000098  0.184871  0.500000  1
  Pa  Pa2  1  0.815129  0.815228  0.500000  1
  Pa  Pa3  1  0.184772  0.999902  0.500000  1
  Pa  Pa4  1  0.666667  0.333333  0.000000  1
  Fe  Fe5  1  0.000303  0.718287  0.500000  1
  Fe  Fe6  1  0.281713  0.282018  0.500000  1
  Fe  Fe7  1  0.717982  0.999697  0.500000  1
  P  P8  1  0.000515  0.814047  0.000000  1
  P  P9  1  0.185953  0.186468  0.000000  1
  P  P10  1  0.813532  0.999485  0.000000  1
  P  P11  1  0.690134  0.161353  0.500000  1
  P  P12  1  0.838647  0.528781  0.500000  1
  P  P13  1  0.471219  0.309866  0.500000  1
  P  P14  1  0.164605  0.689101  0.500000  1
  P  P15  1  0.524497  0.835395  0.500000  1
  P  P16  1  0.310899  0.475503  0.500000  1
  P  P17  1  0.001526  0.374102  0.000000  1
  P  P18  1  0.625898  0.627424  0.000000  1
  P  P19  1  0.372576  0.998474  0.000000  1
  Ru  Ru20  1  0.997389  0.556924  0.000000  1
  Ru  Ru21  1  0.443076  0.440465  0.000000  1
  Ru  Ru22  1  0.559535  0.002611  0.000000  1
  Ru  Ru23  1  0.809350  0.180839  0.000000  1
  Ru  Ru24  1  0.819161  0.628512  0.000000  1
  Ru  Ru25  1  0.371488  0.190650  0.000000  1
  Ru  Ru26  1  0.180083  0.807851  0.000000  1
  Ru  Ru27  1  0.627769  0.819917  0.000000  1
  Ru  Ru28  1  0.192149  0.372231  0.000000  1
  Ru  Ru29  1  0.869446  0.363017  0.500000  1
  Ru  Ru30  1  0.636983  0.506430  0.500000  1
  Ru  Ru31  1  0.493570  0.130554  0.500000  1
  Ru  Ru32  1  0.363394  0.874634  0.500000  1
  Ru  Ru33  1  0.511240  0.636606  0.500000  1
  Ru  Ru34  1  0.125366  0.488760  0.500000  1
  Ru  Ru35  1  0.000000  0.000000  0.000000  1
