# generated using pymatgen
data_Nd8GaCuPd23
_symmetry_space_group_name_H-M   'P 1'
_cell_length_a   8.44511600
_cell_length_b   8.48873900
_cell_length_c   8.54455500
_cell_angle_alpha   90.00000000
_cell_angle_beta   90.00000000
_cell_angle_gamma   90.00000000
_symmetry_Int_Tables_number   1
_chemical_formula_structural   Nd8GaCuPd23
_chemical_formula_sum   'Nd8 Ga1 Cu1 Pd23'
_cell_volume   612.54535318
_cell_formula_units_Z   1
loop_
 _symmetry_equiv_pos_site_id
 _symmetry_equiv_pos_as_xyz
  1  'x, y, z'
loop_
 _atom_site_type_symbol
 _atom_site_label
 _atom_site_symmetry_multiplicity
 _atom_site_fract_x
 _atom_site_fract_y
 _atom_site_fract_z
 _atom_site_occupancy
  Nd  Nd0  1  0.251756  0.249565  0.255971  1
  Nd  Nd1  1  0.747674  0.747600  0.748728  1
  Nd  Nd2  1  0.747674  0.747600  0.251272  1
  Nd  Nd3  1  0.747674  0.252400  0.748728  1
  Nd  Nd4  1  0.251756  0.249565  0.744029  1
  Nd  Nd5  1  0.251756  0.750435  0.255971  1
  Nd  Nd6  1  0.251756  0.750435  0.744029  1
  Nd  Nd7  1  0.747674  0.252400  0.251272  1
  Ga  Ga8  1  0.998693  0.000000  0.000000  1
  Cu  Cu9  1  0.268869  0.500000  0.000000  1
  Pd  Pd10  1  0.741080  0.500000  0.000000  1
  Pd  Pd11  1  0.998173  0.260377  0.500000  1
  Pd  Pd12  1  0.494163  0.265353  0.000000  1
  Pd  Pd13  1  0.998173  0.739623  0.500000  1
  Pd  Pd14  1  0.494163  0.734647  0.000000  1
  Pd  Pd15  1  0.500237  0.000000  0.261194  1
  Pd  Pd16  1  0.260190  0.000000  0.500000  1
  Pd  Pd17  1  0.500237  0.000000  0.738806  1
  Pd  Pd18  1  0.738934  0.000000  0.500000  1
  Pd  Pd19  1  0.002026  0.500000  0.261909  1
  Pd  Pd20  1  0.002026  0.500000  0.738091  1
  Pd  Pd21  1  0.253484  0.500000  0.500000  1
  Pd  Pd22  1  0.745717  0.500000  0.500000  1
  Pd  Pd23  1  0.500944  0.254388  0.500000  1
  Pd  Pd24  1  0.500944  0.745612  0.500000  1
  Pd  Pd25  1  0.495962  0.500000  0.251300  1
  Pd  Pd26  1  0.495962  0.500000  0.748700  1
  Pd  Pd27  1  0.293158  0.000000  0.000000  1
  Pd  Pd28  1  0.702615  0.000000  0.000000  1
  Pd  Pd29  1  0.009836  0.298163  0.000000  1
  Pd  Pd30  1  0.009836  0.701837  0.000000  1
  Pd  Pd31  1  0.998429  0.000000  0.292185  1
  Pd  Pd32  1  0.998429  0.000000  0.707815  1
