# generated using pymatgen
data_Tb11DyTc3Rh
_symmetry_space_group_name_H-M   'P 1'
_cell_length_a   6.31182608
_cell_length_b   7.43116992
_cell_length_c   9.23606612
_cell_angle_alpha   90.00800106
_cell_angle_beta   90.01685474
_cell_angle_gamma   89.92402896
_symmetry_Int_Tables_number   1
_chemical_formula_structural   Tb11DyTc3Rh
_chemical_formula_sum   'Tb11 Dy1 Tc3 Rh1'
_cell_volume   433.21037032
_cell_formula_units_Z   1
loop_
 _symmetry_equiv_pos_site_id
 _symmetry_equiv_pos_as_xyz
  1  'x, y, z'
loop_
 _atom_site_type_symbol
 _atom_site_label
 _atom_site_symmetry_multiplicity
 _atom_site_fract_x
 _atom_site_fract_y
 _atom_site_fract_z
 _atom_site_occupancy
  Tb  Tb0  1  0.332215  0.676559  0.065986  1
  Tb  Tb1  1  0.163097  0.176434  0.436280  1
  Tb  Tb2  1  0.663865  0.321355  0.561542  1
  Tb  Tb3  1  0.837493  0.826141  0.938476  1
  Tb  Tb4  1  0.663861  0.321310  0.938523  1
  Tb  Tb5  1  0.837377  0.825989  0.561597  1
  Tb  Tb6  1  0.332329  0.676537  0.433974  1
  Tb  Tb7  1  0.872643  0.541489  0.249934  1
  Tb  Tb8  1  0.625064  0.039222  0.249899  1
  Tb  Tb9  1  0.132093  0.457371  0.750073  1
  Tb  Tb10  1  0.370454  0.959216  0.750090  1
  Dy  Dy11  1  0.163097  0.176353  0.063618  1
  Tc  Tc12  1  0.040247  0.884286  0.249965  1
  Tc  Tc13  1  0.461310  0.386578  0.249898  1
  Tc  Tc14  1  0.959785  0.115968  0.750163  1
  Rh  Rh15  1  0.545071  0.615188  0.749983  1
