# generated using pymatgen
data_HoEr11Co5Hg
_symmetry_space_group_name_H-M   'P 1'
_cell_length_a   8.17589156
_cell_length_b   8.17589045
_cell_length_c   8.17741301
_cell_angle_alpha   110.56946358
_cell_angle_beta   110.57627933
_cell_angle_gamma   107.28184085
_symmetry_Int_Tables_number   1
_chemical_formula_structural   HoEr11Co5Hg
_chemical_formula_sum   'Ho1 Er11 Co5 Hg1'
_cell_volume   420.37266291
_cell_formula_units_Z   1
loop_
 _symmetry_equiv_pos_site_id
 _symmetry_equiv_pos_as_xyz
  1  'x, y, z'
loop_
 _atom_site_type_symbol
 _atom_site_label
 _atom_site_symmetry_multiplicity
 _atom_site_fract_x
 _atom_site_fract_y
 _atom_site_fract_z
 _atom_site_occupancy
  Ho  Ho0  1  0.289543  0.184768  0.474311  1
  Er  Er1  1  0.710868  0.815464  0.526330  1
  Er  Er2  1  0.289309  0.814962  0.104271  1
  Er  Er3  1  0.711111  0.184568  0.895680  1
  Er  Er4  1  0.619232  0.315412  0.303642  1
  Er  Er5  1  0.380805  0.684977  0.696386  1
  Er  Er6  1  0.011410  0.315581  0.696386  1
  Er  Er7  1  0.988228  0.684409  0.303642  1
  Er  Er8  1  0.212562  0.405347  0.192524  1
  Er  Er9  1  0.787996  0.595590  0.807857  1
  Er  Er10  1  0.212267  0.019861  0.807857  1
  Er  Er11  1  0.787177  0.979962  0.192524  1
  Co  Co12  1  0.999400  0.376873  0.376273  1
  Co  Co13  1  0.000166  0.623232  0.623398  1
  Co  Co14  1  0.385944  0.885090  0.499589  1
  Co  Co15  1  0.614498  0.113645  0.499589  1
  Co  Co16  1  0.999457  0.000302  0.999759  1
  Hg  Hg17  1  0.500025  0.499955  0.999980  1
