# generated using pymatgen
data_YbCe2(BN2)2
_symmetry_space_group_name_H-M   'P 1'
_cell_length_a   6.31833026
_cell_length_b   6.31833111
_cell_length_c   6.31833059
_cell_angle_alpha   147.65932433
_cell_angle_beta   121.35366657
_cell_angle_gamma   68.58001465
_symmetry_Int_Tables_number   1
_chemical_formula_structural   YbCe2(BN2)2
_chemical_formula_sum   'Yb1 Ce2 B2 N4'
_cell_volume   113.69131986
_cell_formula_units_Z   1
loop_
 _symmetry_equiv_pos_site_id
 _symmetry_equiv_pos_as_xyz
  1  'x, y, z'
loop_
 _atom_site_type_symbol
 _atom_site_label
 _atom_site_symmetry_multiplicity
 _atom_site_fract_x
 _atom_site_fract_y
 _atom_site_fract_z
 _atom_site_occupancy
  Yb  Yb0  1  0.000000  0.000000  0.000000  1
  Ce  Ce1  1  0.698508  0.198508  0.500000  1
  Ce  Ce2  1  0.301492  0.801492  0.500000  1
  B  B3  1  0.356364  0.500000  0.856364  1
  B  B4  1  0.643636  0.500000  0.143636  1
  N  N5  1  0.367487  0.624264  0.743222  1
  N  N6  1  0.881041  0.624264  0.256778  1
  N  N7  1  0.118959  0.375736  0.743222  1
  N  N8  1  0.632513  0.375736  0.256778  1
