# generated using pymatgen
data_Tb16MgHg3Rh4
_symmetry_space_group_name_H-M   'P 1'
_cell_length_a   9.64391694
_cell_length_b   9.68801464
_cell_length_c   9.68801500
_cell_angle_alpha   60.00000218
_cell_angle_beta   59.84862645
_cell_angle_gamma   59.84862811
_symmetry_Int_Tables_number   1
_chemical_formula_structural   Tb16MgHg3Rh4
_chemical_formula_sum   'Tb16 Mg1 Hg3 Rh4'
_cell_volume   638.57306538
_cell_formula_units_Z   1
loop_
 _symmetry_equiv_pos_site_id
 _symmetry_equiv_pos_as_xyz
  1  'x, y, z'
loop_
 _atom_site_type_symbol
 _atom_site_label
 _atom_site_symmetry_multiplicity
 _atom_site_fract_x
 _atom_site_fract_y
 _atom_site_fract_z
 _atom_site_occupancy
  Tb  Tb0  1  0.351038  0.349094  0.349094  1
  Tb  Tb1  1  0.351038  0.349094  0.950775  1
  Tb  Tb2  1  0.351038  0.950775  0.349094  1
  Tb  Tb3  1  0.942633  0.352456  0.352456  1
  Tb  Tb4  1  0.810224  0.189641  0.189641  1
  Tb  Tb5  1  0.186143  0.812924  0.812924  1
  Tb  Tb6  1  0.186143  0.812924  0.188008  1
  Tb  Tb7  1  0.810224  0.189641  0.810495  1
  Tb  Tb8  1  0.186143  0.188008  0.812924  1
  Tb  Tb9  1  0.810224  0.810495  0.189641  1
  Tb  Tb10  1  0.934357  0.564409  0.564409  1
  Tb  Tb11  1  0.562917  0.936326  0.936326  1
  Tb  Tb12  1  0.562917  0.936326  0.564432  1
  Tb  Tb13  1  0.934357  0.564409  0.936825  1
  Tb  Tb14  1  0.562917  0.564432  0.936326  1
  Tb  Tb15  1  0.934357  0.936825  0.564409  1
  Mg  Mg16  1  0.284607  0.571798  0.571798  1
  Hg  Hg17  1  0.580975  0.586439  0.586439  1
  Hg  Hg18  1  0.580975  0.586439  0.246148  1
  Hg  Hg19  1  0.580975  0.246148  0.586439  1
  Rh  Rh20  1  0.141355  0.143532  0.143532  1
  Rh  Rh21  1  0.141355  0.143532  0.571580  1
  Rh  Rh22  1  0.141355  0.571580  0.143532  1
  Rh  Rh23  1  0.571734  0.142755  0.142755  1
