# generated using pymatgen
data_SmHoV3Ni9As7
_symmetry_space_group_name_H-M   'P 1'
_cell_length_a   9.55949400
_cell_length_b   9.55949344
_cell_length_c   3.85201900
_cell_angle_alpha   90.00000000
_cell_angle_beta   90.00000000
_cell_angle_gamma   120.00000795
_symmetry_Int_Tables_number   1
_chemical_formula_structural   SmHoV3Ni9As7
_chemical_formula_sum   'Sm1 Ho1 V3 Ni9 As7'
_cell_volume   304.85182678
_cell_formula_units_Z   1
loop_
 _symmetry_equiv_pos_site_id
 _symmetry_equiv_pos_as_xyz
  1  'x, y, z'
loop_
 _atom_site_type_symbol
 _atom_site_label
 _atom_site_symmetry_multiplicity
 _atom_site_fract_x
 _atom_site_fract_y
 _atom_site_fract_z
 _atom_site_occupancy
  Sm  Sm0  1  0.333333  0.666667  0.000000  1
  Ho  Ho1  1  0.000000  0.000000  0.500000  1
  V  V2  1  0.769967  0.548864  0.500000  1
  V  V3  1  0.451136  0.221102  0.500000  1
  V  V4  1  0.778898  0.230033  0.500000  1
  Ni  Ni5  1  0.288512  0.387504  0.500000  1
  Ni  Ni6  1  0.612496  0.901009  0.500000  1
  Ni  Ni7  1  0.098991  0.711488  0.500000  1
  Ni  Ni8  1  0.515296  0.462074  0.000000  1
  Ni  Ni9  1  0.537926  0.053221  0.000000  1
  Ni  Ni10  1  0.946779  0.484704  0.000000  1
  Ni  Ni11  1  0.730649  0.765867  0.000000  1
  Ni  Ni12  1  0.234133  0.964783  0.000000  1
  Ni  Ni13  1  0.035217  0.269351  0.000000  1
  As  As14  1  0.963809  0.742732  0.000000  1
  As  As15  1  0.257268  0.221077  0.000000  1
  As  As16  1  0.778923  0.036191  0.000000  1
  As  As17  1  0.666667  0.333333  0.000000  1
  As  As18  1  0.557332  0.627527  0.500000  1
  As  As19  1  0.372473  0.929805  0.500000  1
  As  As20  1  0.070195  0.442668  0.500000  1
