# generated using pymatgen
data_NdNiBN
_symmetry_space_group_name_H-M   'P 1'
_cell_length_a   3.64150200
_cell_length_b   3.64150200
_cell_length_c   7.56400400
_cell_angle_alpha   90.00000000
_cell_angle_beta   90.00000000
_cell_angle_gamma   90.00000000
_symmetry_Int_Tables_number   1
_chemical_formula_structural   NdNiBN
_chemical_formula_sum   'Nd2 Ni2 B2 N2'
_cell_volume   100.30275352
_cell_formula_units_Z   2
loop_
 _symmetry_equiv_pos_site_id
 _symmetry_equiv_pos_as_xyz
  1  'x, y, z'
loop_
 _atom_site_type_symbol
 _atom_site_label
 _atom_site_symmetry_multiplicity
 _atom_site_fract_x
 _atom_site_fract_y
 _atom_site_fract_z
 _atom_site_occupancy
  Nd  Nd0  1  0.000000  0.500000  0.328405  1
  Nd  Nd1  1  0.500000  0.000000  0.671595  1
  Ni  Ni2  1  0.000000  0.000000  0.000000  1
  Ni  Ni3  1  0.500000  0.500000  0.000000  1
  B  B4  1  0.000000  0.500000  0.848341  1
  B  B5  1  0.500000  0.000000  0.151659  1
  N  N6  1  0.000000  0.500000  0.656269  1
  N  N7  1  0.500000  0.000000  0.343731  1
