# generated using pymatgen
data_Tm4MoOs7
_symmetry_space_group_name_H-M   'P 1'
_cell_length_a   5.42982548
_cell_length_b   5.25091001
_cell_length_c   8.82150800
_cell_angle_alpha   90.00000000
_cell_angle_beta   90.00000000
_cell_angle_gamma   121.03827600
_symmetry_Int_Tables_number   1
_chemical_formula_structural   Tm4MoOs7
_chemical_formula_sum   'Tm4 Mo1 Os7'
_cell_volume   215.50354416
_cell_formula_units_Z   1
loop_
 _symmetry_equiv_pos_site_id
 _symmetry_equiv_pos_as_xyz
  1  'x, y, z'
loop_
 _atom_site_type_symbol
 _atom_site_label
 _atom_site_symmetry_multiplicity
 _atom_site_fract_x
 _atom_site_fract_y
 _atom_site_fract_z
 _atom_site_occupancy
  Tm  Tm0  1  0.669804  0.339182  0.563140  1
  Tm  Tm1  1  0.332703  0.665932  0.433822  1
  Tm  Tm2  1  0.332703  0.665932  0.066178  1
  Tm  Tm3  1  0.669804  0.339182  0.936860  1
  Mo  Mo4  1  0.167849  0.334331  0.750000  1
  Os  Os5  1  0.003142  0.007752  0.497555  1
  Os  Os6  1  0.003142  0.007752  0.002445  1
  Os  Os7  1  0.173097  0.825811  0.750000  1
  Os  Os8  1  0.653197  0.826264  0.750000  1
  Os  Os9  1  0.825351  0.650806  0.250000  1
  Os  Os10  1  0.826675  0.168352  0.250000  1
  Os  Os11  1  0.342532  0.168703  0.250000  1
