# generated using pymatgen
data_K6HoLuF12
_symmetry_space_group_name_H-M   'P 1'
_cell_length_a   6.59430743
_cell_length_b   6.37295301
_cell_length_c   11.09065851
_cell_angle_alpha   55.32253424
_cell_angle_beta   90.00515621
_cell_angle_gamma   89.94090250
_symmetry_Int_Tables_number   1
_chemical_formula_structural   K6HoLuF12
_chemical_formula_sum   'K6 Ho1 Lu1 F12'
_cell_volume   383.29486214
_cell_formula_units_Z   1
loop_
 _symmetry_equiv_pos_site_id
 _symmetry_equiv_pos_as_xyz
  1  'x, y, z'
loop_
 _atom_site_type_symbol
 _atom_site_label
 _atom_site_symmetry_multiplicity
 _atom_site_fract_x
 _atom_site_fract_y
 _atom_site_fract_z
 _atom_site_occupancy
  K  K0  1  0.500000  0.500000  0.000000  1
  K  K1  1  0.000000  0.500000  0.500000  1
  K  K2  1  0.049306  0.732060  0.755166  1
  K  K3  1  0.950694  0.267940  0.244834  1
  K  K4  1  0.550094  0.264740  0.748120  1
  K  K5  1  0.449906  0.735260  0.251880  1
  Ho  Ho6  1  0.500000  0.000000  0.500000  1
  Lu  Lu7  1  0.000000  0.000000  0.000000  1
  F  F8  1  0.773602  0.765773  0.566127  1
  F  F9  1  0.226398  0.234227  0.433873  1
  F  F10  1  0.267585  0.229702  0.935640  1
  F  F11  1  0.732415  0.770298  0.064360  1
  F  F12  1  0.448085  0.882953  0.724328  1
  F  F13  1  0.551915  0.117047  0.275672  1
  F  F14  1  0.949412  0.114303  0.780456  1
  F  F15  1  0.050588  0.885697  0.219544  1
  F  F16  1  0.324939  0.671363  0.548817  1
  F  F17  1  0.675061  0.328637  0.451183  1
  F  F18  1  0.826744  0.320994  0.952547  1
  F  F19  1  0.173256  0.679006  0.047453  1
