# generated using pymatgen
data_Hf8Mn4Fe3Si14Ir
_symmetry_space_group_name_H-M   'P 1'
_cell_length_a   9.60110292
_cell_length_b   9.58369978
_cell_length_c   9.60301107
_cell_angle_alpha   93.95681373
_cell_angle_beta   94.09040853
_cell_angle_gamma   149.25972352
_symmetry_Int_Tables_number   1
_chemical_formula_structural   Hf8Mn4Fe3Si14Ir
_chemical_formula_sum   'Hf8 Mn4 Fe3 Si14 Ir1'
_cell_volume   435.54178262
_cell_formula_units_Z   1
loop_
 _symmetry_equiv_pos_site_id
 _symmetry_equiv_pos_as_xyz
  1  'x, y, z'
loop_
 _atom_site_type_symbol
 _atom_site_label
 _atom_site_symmetry_multiplicity
 _atom_site_fract_x
 _atom_site_fract_y
 _atom_site_fract_z
 _atom_site_occupancy
  Hf  Hf0  1  0.138078  0.138056  0.276205  1
  Hf  Hf1  1  0.861841  0.861861  0.723613  1
  Hf  Hf2  1  0.135773  0.860029  0.999112  1
  Hf  Hf3  1  0.863328  0.139054  0.999065  1
  Hf  Hf4  1  0.305071  0.500083  0.803211  1
  Hf  Hf5  1  0.696656  0.501634  0.196051  1
  Hf  Hf6  1  0.499340  0.694349  0.196031  1
  Hf  Hf7  1  0.498155  0.303173  0.803241  1
  Mn  Mn8  1  0.601176  0.101179  0.202402  1
  Mn  Mn9  1  0.898881  0.398853  0.797766  1
  Mn  Mn10  1  0.101377  0.897070  0.499837  1
  Mn  Mn11  1  0.398412  0.602787  0.499809  1
  Fe  Fe12  1  0.395769  0.895783  0.791533  1
  Fe  Fe13  1  0.901661  0.102745  0.502632  1
  Fe  Fe14  1  0.600983  0.399892  0.502626  1
  Si  Si15  1  0.291195  0.291204  0.582201  1
  Si  Si16  1  0.709028  0.709040  0.418171  1
  Si  Si17  1  0.301040  0.717120  0.994460  1
  Si  Si18  1  0.693420  0.277320  0.994456  1
  Si  Si19  1  0.088441  0.496654  0.590595  1
  Si  Si20  1  0.888505  0.482622  0.413982  1
  Si  Si21  1  0.525629  0.931522  0.413989  1
  Si  Si22  1  0.502194  0.093987  0.590603  1
  Si  Si23  1  0.249571  0.249609  0.999764  1
  Si  Si24  1  0.750210  0.750158  0.999759  1
  Si  Si25  1  0.305828  0.014131  0.298948  1
  Si  Si26  1  0.706240  0.002652  0.703184  1
  Si  Si27  1  0.996917  0.700547  0.703244  1
  Si  Si28  1  0.992970  0.284599  0.298885  1
  Ir  Ir29  1  0.102311  0.602288  0.204622  1
