# generated using pymatgen
data_Ho10Pb6Br
_symmetry_space_group_name_H-M   'P 1'
_cell_length_a   9.12918600
_cell_length_b   9.12918601
_cell_length_c   6.64031500
_cell_angle_alpha   90.00000000
_cell_angle_beta   90.00000000
_cell_angle_gamma   119.99999997
_symmetry_Int_Tables_number   1
_chemical_formula_structural   Ho10Pb6Br
_chemical_formula_sum   'Ho10 Pb6 Br1'
_cell_volume   479.27350923
_cell_formula_units_Z   1
loop_
 _symmetry_equiv_pos_site_id
 _symmetry_equiv_pos_as_xyz
  1  'x, y, z'
loop_
 _atom_site_type_symbol
 _atom_site_label
 _atom_site_symmetry_multiplicity
 _atom_site_fract_x
 _atom_site_fract_y
 _atom_site_fract_z
 _atom_site_occupancy
  Ho  Ho0  1  0.333333  0.666667  0.500000  1
  Ho  Ho1  1  0.666667  0.333333  0.500000  1
  Ho  Ho2  1  0.666667  0.333333  0.000000  1
  Ho  Ho3  1  0.333333  0.666667  0.000000  1
  Ho  Ho4  1  0.000000  0.747260  0.233630  1
  Ho  Ho5  1  0.252740  0.252740  0.233630  1
  Ho  Ho6  1  0.747260  0.000000  0.233630  1
  Ho  Ho7  1  0.000000  0.252740  0.766370  1
  Ho  Ho8  1  0.747260  0.747260  0.766370  1
  Ho  Ho9  1  0.252740  0.000000  0.766370  1
  Pb  Pb10  1  0.000000  0.391662  0.249129  1
  Pb  Pb11  1  0.608338  0.608338  0.249129  1
  Pb  Pb12  1  0.391662  0.000000  0.249129  1
  Pb  Pb13  1  0.000000  0.608338  0.750871  1
  Pb  Pb14  1  0.391662  0.391662  0.750871  1
  Pb  Pb15  1  0.608338  0.000000  0.750871  1
  Br  Br16  1  0.000000  0.000000  0.500000  1
