# generated using pymatgen
data_V3SiIrN
_symmetry_space_group_name_H-M   'P 1'
_cell_length_a   6.56879000
_cell_length_b   6.56879000
_cell_length_c   6.56879000
_cell_angle_alpha   90.00000000
_cell_angle_beta   90.00000000
_cell_angle_gamma   90.00000000
_symmetry_Int_Tables_number   1
_chemical_formula_structural   V3SiIrN
_chemical_formula_sum   'V12 Si4 Ir4 N4'
_cell_volume   283.43673327
_cell_formula_units_Z   4
loop_
 _symmetry_equiv_pos_site_id
 _symmetry_equiv_pos_as_xyz
  1  'x, y, z'
loop_
 _atom_site_type_symbol
 _atom_site_label
 _atom_site_symmetry_multiplicity
 _atom_site_fract_x
 _atom_site_fract_y
 _atom_site_fract_z
 _atom_site_occupancy
  V  V0  1  0.785643  0.955757  0.384119  1
  V  V1  1  0.714357  0.044243  0.884119  1
  V  V2  1  0.214357  0.455757  0.115881  1
  V  V3  1  0.285643  0.544243  0.615881  1
  V  V4  1  0.955757  0.384119  0.785643  1
  V  V5  1  0.044243  0.884119  0.714357  1
  V  V6  1  0.455757  0.115881  0.214357  1
  V  V7  1  0.544243  0.615881  0.285643  1
  V  V8  1  0.384119  0.785643  0.955757  1
  V  V9  1  0.884119  0.714357  0.044243  1
  V  V10  1  0.115881  0.214357  0.455757  1
  V  V11  1  0.615881  0.285643  0.544243  1
  Si  Si12  1  0.570890  0.429110  0.929110  1
  Si  Si13  1  0.429110  0.929110  0.570890  1
  Si  Si14  1  0.929110  0.570890  0.429110  1
  Si  Si15  1  0.070890  0.070890  0.070890  1
  Ir  Ir16  1  0.174926  0.825074  0.325074  1
  Ir  Ir17  1  0.325074  0.174926  0.825074  1
  Ir  Ir18  1  0.825074  0.325074  0.174926  1
  Ir  Ir19  1  0.674926  0.674926  0.674926  1
  N  N20  1  0.871356  0.128644  0.628644  1
  N  N21  1  0.628644  0.871356  0.128644  1
  N  N22  1  0.128644  0.628644  0.871356  1
  N  N23  1  0.371356  0.371356  0.371356  1
