# generated using pymatgen
data_Er5ThZn4Pt13
_symmetry_space_group_name_H-M   'P 1'
_cell_length_a   8.25862954
_cell_length_b   8.25862908
_cell_length_c   8.25862900
_cell_angle_alpha   109.35187709
_cell_angle_beta   109.53092024
_cell_angle_gamma   109.53093191
_symmetry_Int_Tables_number   1
_chemical_formula_structural   Er5ThZn4Pt13
_chemical_formula_sum   'Er5 Th1 Zn4 Pt13'
_cell_volume   433.61130002
_cell_formula_units_Z   1
loop_
 _symmetry_equiv_pos_site_id
 _symmetry_equiv_pos_as_xyz
  1  'x, y, z'
loop_
 _atom_site_type_symbol
 _atom_site_label
 _atom_site_symmetry_multiplicity
 _atom_site_fract_x
 _atom_site_fract_y
 _atom_site_fract_z
 _atom_site_occupancy
  Er  Er0  1  0.698367  0.698827  0.000459  1
  Er  Er1  1  0.301633  0.000459  0.302092  1
  Er  Er2  1  0.000000  0.302901  0.302901  1
  Er  Er3  1  0.301633  0.302092  0.000459  1
  Er  Er4  1  0.698367  0.000459  0.698827  1
  Th  Th5  1  0.000000  0.701561  0.701561  1
  Zn  Zn6  1  0.000000  0.000397  0.494487  1
  Zn  Zn7  1  0.000000  0.494487  0.000397  1
  Zn  Zn8  1  0.505910  0.000397  0.000397  1
  Zn  Zn9  1  0.494090  0.494487  0.494487  1
  Pt  Pt10  1  0.332169  0.332189  0.664358  1
  Pt  Pt11  1  0.667831  0.000021  0.332189  1
  Pt  Pt12  1  0.000000  0.668777  0.329786  1
  Pt  Pt13  1  0.667831  0.332189  0.000021  1
  Pt  Pt14  1  0.332169  0.664358  0.332189  1
  Pt  Pt15  1  0.000000  0.329786  0.668777  1
  Pt  Pt16  1  0.333279  0.668199  0.001479  1
  Pt  Pt17  1  0.333279  0.001479  0.668199  1
  Pt  Pt18  1  0.661009  0.329786  0.329786  1
  Pt  Pt19  1  0.666721  0.668199  0.334919  1
  Pt  Pt20  1  0.666721  0.334919  0.668199  1
  Pt  Pt21  1  0.338991  0.668777  0.668777  1
  Pt  Pt22  1  0.000000  0.005256  0.005256  1
