# generated using pymatgen
data_Mg2Sc2B8IrRu9
_symmetry_space_group_name_H-M   'P 1'
_cell_length_a   2.98109200
_cell_length_b   8.47049242
_cell_length_c   10.11462135
_cell_angle_alpha   90.47088248
_cell_angle_beta   90.00000000
_cell_angle_gamma   90.00000000
_symmetry_Int_Tables_number   1
_chemical_formula_structural   Mg2Sc2B8IrRu9
_chemical_formula_sum   'Mg2 Sc2 B8 Ir1 Ru9'
_cell_volume   255.39888665
_cell_formula_units_Z   1
loop_
 _symmetry_equiv_pos_site_id
 _symmetry_equiv_pos_as_xyz
  1  'x, y, z'
loop_
 _atom_site_type_symbol
 _atom_site_label
 _atom_site_symmetry_multiplicity
 _atom_site_fract_x
 _atom_site_fract_y
 _atom_site_fract_z
 _atom_site_occupancy
  Mg  Mg0  1  0.500000  0.152404  0.685112  1
  Mg  Mg1  1  0.500000  0.847596  0.314888  1
  Sc  Sc2  1  0.500000  0.653189  0.817122  1
  Sc  Sc3  1  0.500000  0.346811  0.182878  1
  B  B4  1  0.500000  0.850403  0.604818  1
  B  B5  1  0.500000  0.149597  0.395182  1
  B  B6  1  0.500000  0.350580  0.897260  1
  B  B7  1  0.500000  0.649420  0.102740  1
  B  B8  1  0.500000  0.962404  0.911538  1
  B  B9  1  0.500000  0.037596  0.088462  1
  B  B10  1  0.500000  0.461377  0.589796  1
  B  B11  1  0.500000  0.538623  0.410204  1
  Ir  Ir12  1  0.000000  0.000000  0.500000  1
  Ru  Ru13  1  0.000000  0.397790  0.737652  1
  Ru  Ru14  1  0.000000  0.602210  0.262348  1
  Ru  Ru15  1  0.000000  0.902895  0.761261  1
  Ru  Ru16  1  0.000000  0.097105  0.238739  1
  Ru  Ru17  1  0.000000  0.500000  0.000000  1
  Ru  Ru18  1  0.000000  0.657760  0.548524  1
  Ru  Ru19  1  0.000000  0.342240  0.451476  1
  Ru  Ru20  1  0.000000  0.158347  0.955425  1
  Ru  Ru21  1  0.000000  0.841653  0.044575  1
