# generated using pymatgen
data_Dy10PtRh3Pb8
_symmetry_space_group_name_H-M   'P 1'
_cell_length_a   3.76310500
_cell_length_b   8.12437601
_cell_length_c   18.34357133
_cell_angle_alpha   89.96862700
_cell_angle_beta   90.00000000
_cell_angle_gamma   90.00000000
_symmetry_Int_Tables_number   1
_chemical_formula_structural   Dy10PtRh3Pb8
_chemical_formula_sum   'Dy10 Pt1 Rh3 Pb8'
_cell_volume   560.81572066
_cell_formula_units_Z   1
loop_
 _symmetry_equiv_pos_site_id
 _symmetry_equiv_pos_as_xyz
  1  'x, y, z'
loop_
 _atom_site_type_symbol
 _atom_site_label
 _atom_site_symmetry_multiplicity
 _atom_site_fract_x
 _atom_site_fract_y
 _atom_site_fract_z
 _atom_site_occupancy
  Dy  Dy0  1  0.000000  0.112560  0.411381  1
  Dy  Dy1  1  0.000000  0.886015  0.589720  1
  Dy  Dy2  1  0.000000  0.385956  0.909824  1
  Dy  Dy3  1  0.000000  0.614386  0.087789  1
  Dy  Dy4  1  0.000000  0.236948  0.219679  1
  Dy  Dy5  1  0.000000  0.758759  0.780770  1
  Dy  Dy6  1  0.000000  0.258422  0.718672  1
  Dy  Dy7  1  0.000000  0.746160  0.282376  1
  Dy  Dy8  1  0.000000  0.996997  0.998354  1
  Dy  Dy9  1  0.000000  0.499358  0.500892  1
  Pt  Pt10  1  0.500000  0.529107  0.197310  1
  Rh  Rh11  1  0.500000  0.025850  0.304906  1
  Rh  Rh12  1  0.500000  0.975561  0.694535  1
  Rh  Rh13  1  0.500000  0.475894  0.805315  1
  Pb  Pb14  1  0.500000  0.413033  0.351156  1
  Pb  Pb15  1  0.500000  0.583782  0.651408  1
  Pb  Pb16  1  0.500000  0.083785  0.847983  1
  Pb  Pb17  1  0.500000  0.921282  0.150498  1
  Pb  Pb18  1  0.500000  0.291023  0.061919  1
  Pb  Pb19  1  0.500000  0.705218  0.934638  1
  Pb  Pb20  1  0.500000  0.205751  0.564728  1
  Pb  Pb21  1  0.500000  0.794151  0.436147  1
