# generated using pymatgen
data_CePrZn4Ru
_symmetry_space_group_name_H-M   'P 1'
_cell_length_a   7.23796800
_cell_length_b   7.23796800
_cell_length_c   5.20648300
_cell_angle_alpha   90.00000000
_cell_angle_beta   90.00000000
_cell_angle_gamma   90.00000000
_symmetry_Int_Tables_number   1
_chemical_formula_structural   CePrZn4Ru
_chemical_formula_sum   'Ce2 Pr2 Zn8 Ru2'
_cell_volume   272.75817257
_cell_formula_units_Z   2
loop_
 _symmetry_equiv_pos_site_id
 _symmetry_equiv_pos_as_xyz
  1  'x, y, z'
loop_
 _atom_site_type_symbol
 _atom_site_label
 _atom_site_symmetry_multiplicity
 _atom_site_fract_x
 _atom_site_fract_y
 _atom_site_fract_z
 _atom_site_occupancy
  Ce  Ce0  1  0.000000  0.000000  0.000000  1
  Ce  Ce1  1  0.500000  0.500000  0.000000  1
  Pr  Pr2  1  0.000000  0.500000  0.776043  1
  Pr  Pr3  1  0.500000  0.000000  0.223957  1
  Zn  Zn4  1  0.185152  0.685152  0.290148  1
  Zn  Zn5  1  0.814848  0.685152  0.290148  1
  Zn  Zn6  1  0.814848  0.314848  0.290148  1
  Zn  Zn7  1  0.314848  0.185152  0.709852  1
  Zn  Zn8  1  0.185152  0.314848  0.290148  1
  Zn  Zn9  1  0.685152  0.185152  0.709852  1
  Zn  Zn10  1  0.685152  0.814848  0.709852  1
  Zn  Zn11  1  0.314848  0.814848  0.709852  1
  Ru  Ru12  1  0.500000  0.500000  0.500000  1
  Ru  Ru13  1  0.000000  0.000000  0.500000  1
