# generated using pymatgen
data_Ho2Er14Cd4NiIr3
_symmetry_space_group_name_H-M   'P 1'
_cell_length_a   9.51460682
_cell_length_b   9.51460741
_cell_length_c   9.51432689
_cell_angle_alpha   60.19515619
_cell_angle_beta   60.19515215
_cell_angle_gamma   60.21153476
_symmetry_Int_Tables_number   1
_chemical_formula_structural   Ho2Er14Cd4NiIr3
_chemical_formula_sum   'Ho2 Er14 Cd4 Ni1 Ir3'
_cell_volume   611.80517129
_cell_formula_units_Z   1
loop_
 _symmetry_equiv_pos_site_id
 _symmetry_equiv_pos_as_xyz
  1  'x, y, z'
loop_
 _atom_site_type_symbol
 _atom_site_label
 _atom_site_symmetry_multiplicity
 _atom_site_fract_x
 _atom_site_fract_y
 _atom_site_fract_z
 _atom_site_occupancy
  Ho  Ho0  1  0.812168  0.812168  0.188409  1
  Ho  Ho1  1  0.186999  0.186999  0.813985  1
  Er  Er2  1  0.598804  0.598804  0.598904  1
  Er  Er3  1  0.598020  0.598020  0.203305  1
  Er  Er4  1  0.598049  0.203134  0.598259  1
  Er  Er5  1  0.203134  0.598049  0.598259  1
  Er  Er6  1  0.061307  0.439963  0.439814  1
  Er  Er7  1  0.438355  0.060263  0.060081  1
  Er  Er8  1  0.439963  0.061307  0.439814  1
  Er  Er9  1  0.060263  0.438355  0.060081  1
  Er  Er10  1  0.439853  0.439853  0.061488  1
  Er  Er11  1  0.060207  0.060207  0.438194  1
  Er  Er12  1  0.189137  0.811555  0.811579  1
  Er  Er13  1  0.814020  0.187365  0.187232  1
  Er  Er14  1  0.811555  0.189137  0.811579  1
  Er  Er15  1  0.187365  0.814020  0.187232  1
  Cd  Cd16  1  0.830555  0.830555  0.830234  1
  Cd  Cd17  1  0.831858  0.831858  0.505848  1
  Cd  Cd18  1  0.831521  0.505889  0.831924  1
  Cd  Cd19  1  0.505889  0.831521  0.831924  1
  Ni  Ni20  1  0.391830  0.391830  0.392292  1
  Ir  Ir21  1  0.392435  0.392435  0.824880  1
  Ir  Ir22  1  0.391860  0.824855  0.392343  1
  Ir  Ir23  1  0.824855  0.391860  0.392343  1
