# generated using pymatgen
data_Ca10Pd4Pb2F
_symmetry_space_group_name_H-M   'P 1'
_cell_length_a   9.09153940
_cell_length_b   9.09155711
_cell_length_c   9.09226018
_cell_angle_alpha   127.33067725
_cell_angle_beta   127.33047112
_cell_angle_gamma   77.70877270
_symmetry_Int_Tables_number   1
_chemical_formula_structural   Ca10Pd4Pb2F
_chemical_formula_sum   'Ca10 Pd4 Pb2 F1'
_cell_volume   460.69402265
_cell_formula_units_Z   1
loop_
 _symmetry_equiv_pos_site_id
 _symmetry_equiv_pos_as_xyz
  1  'x, y, z'
loop_
 _atom_site_type_symbol
 _atom_site_label
 _atom_site_symmetry_multiplicity
 _atom_site_fract_x
 _atom_site_fract_y
 _atom_site_fract_z
 _atom_site_occupancy
  Ca  Ca0  1  0.766338  0.452876  0.000013  1
  Ca  Ca1  1  0.452877  0.766339  0.000013  1
  Ca  Ca2  1  0.951723  0.951723  0.670484  1
  Ca  Ca3  1  0.281185  0.281184  0.329440  1
  Ca  Ca4  1  0.718836  0.048252  0.000015  1
  Ca  Ca5  1  0.048252  0.718836  0.000015  1
  Ca  Ca6  1  0.547164  0.547165  0.313515  1
  Ca  Ca7  1  0.233657  0.233657  0.686489  1
  Ca  Ca8  1  0.250016  0.750009  0.500008  1
  Ca  Ca9  1  0.750009  0.250015  0.500008  1
  Pd  Pd10  1  0.118468  0.374785  0.999995  1
  Pd  Pd11  1  0.374785  0.118469  0.999997  1
  Pd  Pd12  1  0.881558  0.881558  0.256375  1
  Pd  Pd13  1  0.625157  0.625157  0.743604  1
  Pb  Pb14  1  0.999958  0.500036  0.500011  1
  Pb  Pb15  1  0.500035  0.999957  0.500011  1
  F  F16  1  0.499982  0.499982  0.000007  1
