# generated using pymatgen
data_Ta6Al3Zn8Ir
_symmetry_space_group_name_H-M   'P 1'
_cell_length_a   8.79399000
_cell_length_b   8.79398836
_cell_length_c   8.13303200
_cell_angle_alpha   90.00000000
_cell_angle_beta   90.00000000
_cell_angle_gamma   119.99999113
_symmetry_Int_Tables_number   1
_chemical_formula_structural   Ta6Al3Zn8Ir
_chemical_formula_sum   'Ta12 Al6 Zn16 Ir2'
_cell_volume   544.69702766
_cell_formula_units_Z   2
loop_
 _symmetry_equiv_pos_site_id
 _symmetry_equiv_pos_as_xyz
  1  'x, y, z'
loop_
 _atom_site_type_symbol
 _atom_site_label
 _atom_site_symmetry_multiplicity
 _atom_site_fract_x
 _atom_site_fract_y
 _atom_site_fract_z
 _atom_site_occupancy
  Ta  Ta0  1  0.331461  0.000000  0.069420  1
  Ta  Ta1  1  0.668539  0.000000  0.930580  1
  Ta  Ta2  1  0.000000  0.331461  0.069420  1
  Ta  Ta3  1  0.668539  0.000000  0.569420  1
  Ta  Ta4  1  0.000000  0.331461  0.430580  1
  Ta  Ta5  1  0.000000  0.668539  0.930580  1
  Ta  Ta6  1  0.331461  0.000000  0.430580  1
  Ta  Ta7  1  0.000000  0.668539  0.569420  1
  Ta  Ta8  1  0.668539  0.668539  0.069420  1
  Ta  Ta9  1  0.331461  0.331461  0.930580  1
  Ta  Ta10  1  0.331461  0.331461  0.569420  1
  Ta  Ta11  1  0.668539  0.668539  0.430580  1
  Al  Al12  1  0.172880  0.000000  0.750000  1
  Al  Al13  1  0.827120  0.000000  0.250000  1
  Al  Al14  1  0.000000  0.172880  0.750000  1
  Al  Al15  1  0.000000  0.827120  0.250000  1
  Al  Al16  1  0.827120  0.827120  0.750000  1
  Al  Al17  1  0.172880  0.172880  0.250000  1
  Zn  Zn18  1  0.161752  0.495606  0.750000  1
  Zn  Zn19  1  0.838248  0.504394  0.250000  1
  Zn  Zn20  1  0.504394  0.666147  0.750000  1
  Zn  Zn21  1  0.495606  0.161752  0.750000  1
  Zn  Zn22  1  0.495606  0.333853  0.250000  1
  Zn  Zn23  1  0.504394  0.838248  0.250000  1
  Zn  Zn24  1  0.333853  0.838248  0.750000  1
  Zn  Zn25  1  0.666147  0.504394  0.750000  1
  Zn  Zn26  1  0.666147  0.161752  0.250000  1
  Zn  Zn27  1  0.333853  0.495606  0.250000  1
  Zn  Zn28  1  0.838248  0.333853  0.750000  1
  Zn  Zn29  1  0.161752  0.666147  0.250000  1
  Zn  Zn30  1  0.333333  0.666667  0.500000  1
  Zn  Zn31  1  0.666667  0.333333  0.500000  1
  Zn  Zn32  1  0.666667  0.333333  0.000000  1
  Zn  Zn33  1  0.333333  0.666667  0.000000  1
  Ir  Ir34  1  0.000000  0.000000  0.500000  1
  Ir  Ir35  1  0.000000  0.000000  0.000000  1
