# generated using pymatgen
data_CeSi4(RuRh)3
_symmetry_space_group_name_H-M   'P 1'
_cell_length_a   7.01040500
_cell_length_b   7.01046170
_cell_length_c   3.84140100
_cell_angle_alpha   90.00000000
_cell_angle_beta   90.00000000
_cell_angle_gamma   119.99973719
_symmetry_Int_Tables_number   1
_chemical_formula_structural   CeSi4(RuRh)3
_chemical_formula_sum   'Ce1 Si4 Ru3 Rh3'
_cell_volume   163.49751498
_cell_formula_units_Z   1
loop_
 _symmetry_equiv_pos_site_id
 _symmetry_equiv_pos_as_xyz
  1  'x, y, z'
loop_
 _atom_site_type_symbol
 _atom_site_label
 _atom_site_symmetry_multiplicity
 _atom_site_fract_x
 _atom_site_fract_y
 _atom_site_fract_z
 _atom_site_occupancy
  Ce  Ce0  1  0.999983  0.999968  0.000000  1
  Si  Si1  1  0.333323  0.666644  0.000000  1
  Si  Si2  1  0.406935  0.203471  0.500000  1
  Si  Si3  1  0.796535  0.203471  0.500000  1
  Si  Si4  1  0.796530  0.593059  0.500000  1
  Ru  Ru5  1  0.533398  0.066795  0.000000  1
  Ru  Ru6  1  0.533401  0.466590  0.000000  1
  Ru  Ru7  1  0.933190  0.466590  0.000000  1
  Rh  Rh8  1  0.197846  0.395690  0.500000  1
  Rh  Rh9  1  0.197857  0.802161  0.500000  1
  Rh  Rh10  1  0.604304  0.802161  0.500000  1
