# generated using pymatgen
data_Er20Sn7BiOs4
_symmetry_space_group_name_H-M   'P 1'
_cell_length_a   7.67330149
_cell_length_b   9.09794526
_cell_length_c   12.18501478
_cell_angle_alpha   90.02138854
_cell_angle_beta   90.20270544
_cell_angle_gamma   89.94004519
_symmetry_Int_Tables_number   1
_chemical_formula_structural   Er20Sn7BiOs4
_chemical_formula_sum   'Er20 Sn7 Bi1 Os4'
_cell_volume   850.64559432
_cell_formula_units_Z   1
loop_
 _symmetry_equiv_pos_site_id
 _symmetry_equiv_pos_as_xyz
  1  'x, y, z'
loop_
 _atom_site_type_symbol
 _atom_site_label
 _atom_site_symmetry_multiplicity
 _atom_site_fract_x
 _atom_site_fract_y
 _atom_site_fract_z
 _atom_site_occupancy
  Er  Er0  1  0.655975  0.753528  0.714979  1
  Er  Er1  1  0.346458  0.250461  0.283060  1
  Er  Er2  1  0.148205  0.246795  0.784491  1
  Er  Er3  1  0.847186  0.750836  0.217567  1
  Er  Er4  1  0.117000  0.753897  0.804238  1
  Er  Er5  1  0.877006  0.249331  0.197164  1
  Er  Er6  1  0.625728  0.247195  0.694116  1
  Er  Er7  1  0.377680  0.749677  0.303439  1
  Er  Er8  1  0.546023  0.752372  0.998985  1
  Er  Er9  1  0.455052  0.247605  0.004399  1
  Er  Er10  1  0.045034  0.249900  0.503003  1
  Er  Er11  1  0.956250  0.750029  0.496753  1
  Er  Er12  1  0.825945  0.463886  0.929473  1
  Er  Er13  1  0.175451  0.533952  0.074703  1
  Er  Er14  1  0.322262  0.535305  0.567023  1
  Er  Er15  1  0.175823  0.964595  0.072243  1
  Er  Er16  1  0.677681  0.464821  0.427703  1
  Er  Er17  1  0.821471  0.035107  0.928948  1
  Er  Er18  1  0.676865  0.034290  0.427780  1
  Er  Er19  1  0.324287  0.965390  0.571794  1
  Sn  Sn20  1  0.923681  0.004537  0.666176  1
  Sn  Sn21  1  0.078511  0.995818  0.333088  1
  Sn  Sn22  1  0.423194  0.996056  0.831854  1
  Sn  Sn23  1  0.077140  0.503919  0.333150  1
  Sn  Sn24  1  0.575829  0.004043  0.168499  1
  Sn  Sn25  1  0.924052  0.496665  0.668268  1
  Sn  Sn26  1  0.577970  0.495667  0.166393  1
  Bi  Bi27  1  0.422307  0.505586  0.829909  1
  Os  Os28  1  0.924491  0.749592  0.993921  1
  Os  Os29  1  0.074696  0.249422  0.008188  1
  Os  Os30  1  0.425471  0.250076  0.506276  1
  Os  Os31  1  0.575275  0.749646  0.492414  1
