# generated using pymatgen
data_YU5Co18(SiP3)3
_symmetry_space_group_name_H-M   'P 1'
_cell_length_a   3.71639000
_cell_length_b   10.47801966
_cell_length_c   12.34794577
_cell_angle_alpha   89.95949227
_cell_angle_beta   90.00000000
_cell_angle_gamma   90.00000000
_symmetry_Int_Tables_number   1
_chemical_formula_structural   YU5Co18(SiP3)3
_chemical_formula_sum   'Y1 U5 Co18 Si3 P9'
_cell_volume   480.83391952
_cell_formula_units_Z   1
loop_
 _symmetry_equiv_pos_site_id
 _symmetry_equiv_pos_as_xyz
  1  'x, y, z'
loop_
 _atom_site_type_symbol
 _atom_site_label
 _atom_site_symmetry_multiplicity
 _atom_site_fract_x
 _atom_site_fract_y
 _atom_site_fract_z
 _atom_site_occupancy
  Y  Y0  1  0.500000  0.000257  0.482528  1
  U  U1  1  0.000000  0.499947  0.523693  1
  U  U2  1  0.500000  0.823604  0.207483  1
  U  U3  1  0.500000  0.180123  0.205265  1
  U  U4  1  0.000000  0.680594  0.793959  1
  U  U5  1  0.000000  0.319411  0.792782  1
  Co  Co6  1  0.500000  0.500808  0.160230  1
  Co  Co7  1  0.000000  0.000923  0.839941  1
  Co  Co8  1  0.500000  0.499425  0.702024  1
  Co  Co9  1  0.000000  0.999851  0.285687  1
  Co  Co10  1  0.000000  0.495818  0.982108  1
  Co  Co11  1  0.500000  0.000848  0.009827  1
  Co  Co12  1  0.500000  0.332363  0.996432  1
  Co  Co13  1  0.500000  0.666380  0.993079  1
  Co  Co14  1  0.000000  0.169526  0.002443  1
  Co  Co15  1  0.000000  0.832526  0.001751  1
  Co  Co16  1  0.500000  0.306638  0.432129  1
  Co  Co17  1  0.500000  0.693810  0.433485  1
  Co  Co18  1  0.000000  0.201567  0.574580  1
  Co  Co19  1  0.000000  0.798509  0.575223  1
  Co  Co20  1  0.500000  0.878257  0.712608  1
  Co  Co21  1  0.500000  0.121988  0.712354  1
  Co  Co22  1  0.000000  0.619993  0.293453  1
  Co  Co23  1  0.000000  0.379317  0.288746  1
  Si  Si24  1  0.000000  0.190042  0.386887  1
  Si  Si25  1  0.000000  0.810230  0.387907  1
  Si  Si26  1  0.000000  0.649038  0.108760  1
  P  P27  1  0.500000  0.499185  0.884580  1
  P  P28  1  0.000000  0.000411  0.108401  1
  P  P29  1  0.500000  0.500263  0.343637  1
  P  P30  1  0.000000  0.999969  0.657529  1
  P  P31  1  0.500000  0.307722  0.613221  1
  P  P32  1  0.500000  0.692084  0.614125  1
  P  P33  1  0.500000  0.844829  0.893165  1
  P  P34  1  0.500000  0.155802  0.892494  1
  P  P35  1  0.000000  0.347942  0.107483  1
