# generated using pymatgen
data_Nd2Eu6Si12PdPt3
_symmetry_space_group_name_H-M   'P 1'
_cell_length_a   8.30130600
_cell_length_b   8.30130610
_cell_length_c   8.64722600
_cell_angle_alpha   90.00000000
_cell_angle_beta   90.00000000
_cell_angle_gamma   119.99999959
_symmetry_Int_Tables_number   1
_chemical_formula_structural   Nd2Eu6Si12PdPt3
_chemical_formula_sum   'Nd2 Eu6 Si12 Pd1 Pt3'
_cell_volume   516.06011462
_cell_formula_units_Z   1
loop_
 _symmetry_equiv_pos_site_id
 _symmetry_equiv_pos_as_xyz
  1  'x, y, z'
loop_
 _atom_site_type_symbol
 _atom_site_label
 _atom_site_symmetry_multiplicity
 _atom_site_fract_x
 _atom_site_fract_y
 _atom_site_fract_z
 _atom_site_occupancy
  Nd  Nd0  1  0.000000  0.000000  0.250444  1
  Nd  Nd1  1  0.000000  0.000000  0.749589  1
  Eu  Eu2  1  0.500591  0.001180  0.249895  1
  Eu  Eu3  1  0.500265  0.000531  0.750014  1
  Eu  Eu4  1  0.998820  0.499409  0.249895  1
  Eu  Eu5  1  0.999469  0.499735  0.750014  1
  Eu  Eu6  1  0.500591  0.499409  0.249895  1
  Eu  Eu7  1  0.500265  0.499735  0.750014  1
  Si  Si8  1  0.165381  0.330762  0.000164  1
  Si  Si9  1  0.834827  0.669653  0.999857  1
  Si  Si10  1  0.669238  0.834619  0.000164  1
  Si  Si11  1  0.835005  0.670014  0.500161  1
  Si  Si12  1  0.330347  0.165173  0.999857  1
  Si  Si13  1  0.164634  0.329267  0.499872  1
  Si  Si14  1  0.165381  0.834619  0.000164  1
  Si  Si15  1  0.329986  0.164995  0.500161  1
  Si  Si16  1  0.834827  0.165173  0.999857  1
  Si  Si17  1  0.670733  0.835366  0.499872  1
  Si  Si18  1  0.835005  0.164995  0.500161  1
  Si  Si19  1  0.164634  0.835366  0.499872  1
  Pd  Pd20  1  0.333333  0.666667  0.499667  1
  Pt  Pt21  1  0.333333  0.666667  0.000228  1
  Pt  Pt22  1  0.666667  0.333333  0.000005  1
  Pt  Pt23  1  0.666667  0.333333  0.500178  1
