# generated using pymatgen
data_Y16MgIn(AgIr2)2
_symmetry_space_group_name_H-M   'P 1'
_cell_length_a   9.64752426
_cell_length_b   9.69449101
_cell_length_c   9.67862976
_cell_angle_alpha   59.94578372
_cell_angle_beta   59.86997093
_cell_angle_gamma   59.83882909
_symmetry_Int_Tables_number   1
_chemical_formula_structural   Y16MgIn(AgIr2)2
_chemical_formula_sum   'Y16 Mg1 In1 Ag2 Ir4'
_cell_volume   638.41479866
_cell_formula_units_Z   1
loop_
 _symmetry_equiv_pos_site_id
 _symmetry_equiv_pos_as_xyz
  1  'x, y, z'
loop_
 _atom_site_type_symbol
 _atom_site_label
 _atom_site_symmetry_multiplicity
 _atom_site_fract_x
 _atom_site_fract_y
 _atom_site_fract_z
 _atom_site_occupancy
  Y  Y0  1  0.809628  0.191167  0.808037  1
  Y  Y1  1  0.933477  0.564113  0.560764  1
  Y  Y2  1  0.558761  0.940226  0.560787  1
  Y  Y3  1  0.811945  0.190343  0.186236  1
  Y  Y4  1  0.189681  0.809185  0.191950  1
  Y  Y5  1  0.348546  0.953869  0.349614  1
  Y  Y6  1  0.933477  0.941646  0.560764  1
  Y  Y7  1  0.559147  0.941136  0.936073  1
  Y  Y8  1  0.190291  0.808010  0.807525  1
  Y  Y9  1  0.350728  0.350298  0.948677  1
  Y  Y10  1  0.559147  0.563643  0.936073  1
  Y  Y11  1  0.348546  0.347974  0.349614  1
  Y  Y12  1  0.190291  0.194173  0.807525  1
  Y  Y13  1  0.811945  0.811476  0.186236  1
  Y  Y14  1  0.936483  0.564063  0.935390  1
  Y  Y15  1  0.957129  0.346975  0.348921  1
  Mg  Mg16  1  0.577849  0.571190  0.279774  1
  In  In17  1  0.254894  0.580559  0.583989  1
  Ag  Ag18  1  0.584760  0.582054  0.581525  1
  Ag  Ag19  1  0.584760  0.251662  0.581525  1
  Ir  Ir20  1  0.144323  0.139532  0.576614  1
  Ir  Ir21  1  0.575838  0.141548  0.141068  1
  Ir  Ir22  1  0.144178  0.575392  0.140662  1
  Ir  Ir23  1  0.144178  0.139769  0.140662  1
