# generated using pymatgen
data_PuNiSn2Pd
_symmetry_space_group_name_H-M   'P 1'
_cell_length_a   4.44787800
_cell_length_b   4.44787800
_cell_length_c   10.57615600
_cell_angle_alpha   90.00000000
_cell_angle_beta   90.00000000
_cell_angle_gamma   90.00000000
_symmetry_Int_Tables_number   1
_chemical_formula_structural   PuNiSn2Pd
_chemical_formula_sum   'Pu2 Ni2 Sn4 Pd2'
_cell_volume   209.23463765
_cell_formula_units_Z   2
loop_
 _symmetry_equiv_pos_site_id
 _symmetry_equiv_pos_as_xyz
  1  'x, y, z'
loop_
 _atom_site_type_symbol
 _atom_site_label
 _atom_site_symmetry_multiplicity
 _atom_site_fract_x
 _atom_site_fract_y
 _atom_site_fract_z
 _atom_site_occupancy
  Pu  Pu0  1  0.000000  0.500000  0.251547  1
  Pu  Pu1  1  0.500000  0.000000  0.748453  1
  Ni  Ni2  1  0.000000  0.500000  0.621911  1
  Ni  Ni3  1  0.500000  0.000000  0.378089  1
  Sn  Sn4  1  0.000000  0.000000  0.500000  1
  Sn  Sn5  1  0.500000  0.500000  0.500000  1
  Sn  Sn6  1  0.000000  0.500000  0.855392  1
  Sn  Sn7  1  0.500000  0.000000  0.144608  1
  Pd  Pd8  1  0.000000  0.000000  0.000000  1
  Pd  Pd9  1  0.500000  0.500000  0.000000  1
