# generated using pymatgen
data_Si(Ni4P3)5
_symmetry_space_group_name_H-M   'P 1'
_cell_length_a   6.79525701
_cell_length_b   6.79525451
_cell_length_c   10.96967700
_cell_angle_alpha   89.99751537
_cell_angle_beta   90.00249946
_cell_angle_gamma   120.00344910
_symmetry_Int_Tables_number   1
_chemical_formula_structural   Si(Ni4P3)5
_chemical_formula_sum   'Si1 Ni20 P15'
_cell_volume   438.65288598
_cell_formula_units_Z   1
loop_
 _symmetry_equiv_pos_site_id
 _symmetry_equiv_pos_as_xyz
  1  'x, y, z'
loop_
 _atom_site_type_symbol
 _atom_site_label
 _atom_site_symmetry_multiplicity
 _atom_site_fract_x
 _atom_site_fract_y
 _atom_site_fract_z
 _atom_site_occupancy
  Si  Si0  1  0.333335  0.666664  0.966370  1
  Ni  Ni1  1  0.539010  0.460988  0.000569  1
  Ni  Ni2  1  0.462895  0.537105  0.500510  1
  Ni  Ni3  1  0.539001  0.077985  0.000582  1
  Ni  Ni4  1  0.922014  0.460998  0.000582  1
  Ni  Ni5  1  0.074149  0.537098  0.500515  1
  Ni  Ni6  1  0.462901  0.925847  0.500516  1
  Ni  Ni7  1  0.207222  0.792778  0.149169  1
  Ni  Ni8  1  0.792642  0.207356  0.647696  1
  Ni  Ni9  1  0.207216  0.414393  0.149186  1
  Ni  Ni10  1  0.585606  0.792783  0.149185  1
  Ni  Ni11  1  0.414695  0.207371  0.647741  1
  Ni  Ni12  1  0.792628  0.585308  0.647740  1
  Ni  Ni13  1  0.000011  0.999989  0.112891  1
  Ni  Ni14  1  0.999997  0.000002  0.612765  1
  Ni  Ni15  1  0.540438  0.459562  0.290864  1
  Ni  Ni16  1  0.460558  0.539443  0.789694  1
  Ni  Ni17  1  0.540429  0.080851  0.290838  1
  Ni  Ni18  1  0.919150  0.459572  0.290837  1
  Ni  Ni19  1  0.078856  0.539412  0.789682  1
  Ni  Ni20  1  0.460589  0.921145  0.789682  1
  P  P21  1  0.666645  0.333355  0.469799  1
  P  P22  1  0.817834  0.182166  0.142773  1
  P  P23  1  0.181712  0.818288  0.643053  1
  P  P24  1  0.817801  0.635577  0.142769  1
  P  P25  1  0.364422  0.182199  0.142769  1
  P  P26  1  0.636504  0.818264  0.643058  1
  P  P27  1  0.181736  0.363497  0.643058  1
  P  P28  1  0.999995  0.000006  0.412972  1
  P  P29  1  0.000010  0.999990  0.912188  1
  P  P30  1  0.178844  0.821157  0.354051  1
  P  P31  1  0.820892  0.179108  0.854004  1
  P  P32  1  0.178838  0.357706  0.354054  1
  P  P33  1  0.642295  0.821162  0.354054  1
  P  P34  1  0.358227  0.179099  0.853991  1
  P  P35  1  0.820901  0.641773  0.853991  1
