# generated using pymatgen
data_Sr(La3Pt8)2
_symmetry_space_group_name_H-M   'P 1'
_cell_length_a   9.60924728
_cell_length_b   9.60924678
_cell_length_c   9.57584838
_cell_angle_alpha   131.57788531
_cell_angle_beta   131.57789030
_cell_angle_gamma   70.91988118
_symmetry_Int_Tables_number   1
_chemical_formula_structural   Sr(La3Pt8)2
_chemical_formula_sum   'Sr1 La6 Pt16'
_cell_volume   484.50226780
_cell_formula_units_Z   1
loop_
 _symmetry_equiv_pos_site_id
 _symmetry_equiv_pos_as_xyz
  1  'x, y, z'
loop_
 _atom_site_type_symbol
 _atom_site_label
 _atom_site_symmetry_multiplicity
 _atom_site_fract_x
 _atom_site_fract_y
 _atom_site_fract_z
 _atom_site_occupancy
  Sr  Sr0  1  0.103222  0.103222  0.422634  1
  La  La1  1  0.685259  0.685259  0.585020  1
  La  La2  1  0.898643  0.316078  0.001506  1
  La  La3  1  0.752174  0.248908  0.499108  1
  La  La4  1  0.497761  0.497761  0.996460  1
  La  La5  1  0.316078  0.898643  0.001506  1
  La  La6  1  0.248908  0.752174  0.499108  1
  Pt  Pt7  1  0.433370  0.192241  0.998886  1
  Pt  Pt8  1  0.685593  0.934968  0.490537  1
  Pt  Pt9  1  0.934968  0.685593  0.490537  1
  Pt  Pt10  1  0.192241  0.433370  0.998886  1
  Pt  Pt11  1  0.320252  0.801059  0.250183  1
  Pt  Pt12  1  0.936842  0.667169  0.995551  1
  Pt  Pt13  1  0.806264  0.806264  0.240240  1
  Pt  Pt14  1  0.064485  0.556118  0.749092  1
  Pt  Pt15  1  0.061458  0.061458  0.737455  1
  Pt  Pt16  1  0.667169  0.936842  0.995551  1
  Pt  Pt17  1  0.565235  0.565235  0.757056  1
  Pt  Pt18  1  0.801059  0.320252  0.250183  1
  Pt  Pt19  1  0.556118  0.064485  0.749092  1
  Pt  Pt20  1  0.195783  0.451141  0.513309  1
  Pt  Pt21  1  0.325975  0.325975  0.264788  1
  Pt  Pt22  1  0.451141  0.195783  0.513309  1
