# generated using pymatgen
data_ZrScMo4
_symmetry_space_group_name_H-M   'P 1'
_cell_length_a   5.38370946
_cell_length_b   5.38371010
_cell_length_c   5.38371000
_cell_angle_alpha   60.00000059
_cell_angle_beta   59.99999667
_cell_angle_gamma   60.00000171
_symmetry_Int_Tables_number   1
_chemical_formula_structural   ZrScMo4
_chemical_formula_sum   'Zr1 Sc1 Mo4'
_cell_volume   110.33922696
_cell_formula_units_Z   1
loop_
 _symmetry_equiv_pos_site_id
 _symmetry_equiv_pos_as_xyz
  1  'x, y, z'
loop_
 _atom_site_type_symbol
 _atom_site_label
 _atom_site_symmetry_multiplicity
 _atom_site_fract_x
 _atom_site_fract_y
 _atom_site_fract_z
 _atom_site_occupancy
  Zr  Zr0  1  0.000000  0.000000  0.000000  1
  Sc  Sc1  1  0.250000  0.250000  0.250000  1
  Mo  Mo2  1  0.624909  0.624909  0.125273  1
  Mo  Mo3  1  0.624909  0.125273  0.624909  1
  Mo  Mo4  1  0.125273  0.624909  0.624909  1
  Mo  Mo5  1  0.624909  0.624909  0.624909  1
