# generated using pymatgen
data_Er2Pu(Co3P2)3
_symmetry_space_group_name_H-M   'P 1'
_cell_length_a   3.68374400
_cell_length_b   10.50457500
_cell_length_c   12.07818500
_cell_angle_alpha   90.00000000
_cell_angle_beta   90.00000000
_cell_angle_gamma   90.00000000
_symmetry_Int_Tables_number   1
_chemical_formula_structural   Er2Pu(Co3P2)3
_chemical_formula_sum   'Er4 Pu2 Co18 P12'
_cell_volume   467.37944122
_cell_formula_units_Z   2
loop_
 _symmetry_equiv_pos_site_id
 _symmetry_equiv_pos_as_xyz
  1  'x, y, z'
loop_
 _atom_site_type_symbol
 _atom_site_label
 _atom_site_symmetry_multiplicity
 _atom_site_fract_x
 _atom_site_fract_y
 _atom_site_fract_z
 _atom_site_occupancy
  Er  Er0  1  0.250000  0.933684  0.795146  1
  Er  Er1  1  0.250000  0.566316  0.795146  1
  Er  Er2  1  0.750000  0.066316  0.204854  1
  Er  Er3  1  0.750000  0.433684  0.204854  1
  Pu  Pu4  1  0.750000  0.250000  0.471403  1
  Pu  Pu5  1  0.250000  0.750000  0.528597  1
  Co  Co6  1  0.250000  0.250000  0.840405  1
  Co  Co7  1  0.750000  0.750000  0.159595  1
  Co  Co8  1  0.250000  0.250000  0.300592  1
  Co  Co9  1  0.750000  0.750000  0.699408  1
  Co  Co10  1  0.750000  0.250000  0.014952  1
  Co  Co11  1  0.250000  0.750000  0.985048  1
  Co  Co12  1  0.250000  0.416294  0.006202  1
  Co  Co13  1  0.250000  0.083706  0.006202  1
  Co  Co14  1  0.750000  0.583706  0.993798  1
  Co  Co15  1  0.750000  0.916294  0.993798  1
  Co  Co16  1  0.250000  0.451975  0.569727  1
  Co  Co17  1  0.250000  0.048025  0.569727  1
  Co  Co18  1  0.750000  0.548025  0.430273  1
  Co  Co19  1  0.750000  0.951975  0.430273  1
  Co  Co20  1  0.250000  0.870250  0.289519  1
  Co  Co21  1  0.250000  0.629750  0.289519  1
  Co  Co22  1  0.750000  0.129750  0.710481  1
  Co  Co23  1  0.750000  0.370250  0.710481  1
  P  P24  1  0.250000  0.250000  0.119854  1
  P  P25  1  0.750000  0.750000  0.880146  1
  P  P26  1  0.250000  0.250000  0.653359  1
  P  P27  1  0.750000  0.750000  0.346641  1
  P  P28  1  0.250000  0.442420  0.383524  1
  P  P29  1  0.250000  0.057580  0.383524  1
  P  P30  1  0.750000  0.557580  0.616476  1
  P  P31  1  0.750000  0.942420  0.616476  1
  P  P32  1  0.250000  0.902686  0.106459  1
  P  P33  1  0.250000  0.597314  0.106459  1
  P  P34  1  0.750000  0.097314  0.893541  1
  P  P35  1  0.750000  0.402686  0.893541  1
