# generated using pymatgen
data_Nd3Th2Pb3C
_symmetry_space_group_name_H-M   'P 1'
_cell_length_a   9.49609700
_cell_length_b   9.49609687
_cell_length_c   6.59556300
_cell_angle_alpha   90.00000000
_cell_angle_beta   90.00000000
_cell_angle_gamma   120.42366374
_symmetry_Int_Tables_number   1
_chemical_formula_structural   Nd3Th2Pb3C
_chemical_formula_sum   'Nd6 Th4 Pb6 C2'
_cell_volume   512.86475382
_cell_formula_units_Z   2
loop_
 _symmetry_equiv_pos_site_id
 _symmetry_equiv_pos_as_xyz
  1  'x, y, z'
loop_
 _atom_site_type_symbol
 _atom_site_label
 _atom_site_symmetry_multiplicity
 _atom_site_fract_x
 _atom_site_fract_y
 _atom_site_fract_z
 _atom_site_occupancy
  Nd  Nd0  1  0.664596  0.332556  0.000374  1
  Nd  Nd1  1  0.332556  0.664596  0.000374  1
  Nd  Nd2  1  0.332556  0.664596  0.499626  1
  Nd  Nd3  1  0.664596  0.332556  0.499626  1
  Nd  Nd4  1  0.777945  0.997796  0.250000  1
  Nd  Nd5  1  0.997796  0.777945  0.250000  1
  Th  Th6  1  0.788057  0.788057  0.750000  1
  Th  Th7  1  0.216840  0.001677  0.750000  1
  Th  Th8  1  0.001677  0.216840  0.750000  1
  Th  Th9  1  0.211410  0.211410  0.250000  1
  Pb  Pb10  1  0.403765  0.403765  0.750000  1
  Pb  Pb11  1  0.598853  0.999252  0.750000  1
  Pb  Pb12  1  0.999252  0.598853  0.750000  1
  Pb  Pb13  1  0.599456  0.599456  0.250000  1
  Pb  Pb14  1  0.398411  0.997422  0.250000  1
  Pb  Pb15  1  0.997422  0.398411  0.250000  1
  C  C16  1  0.007406  0.007406  0.990707  1
  C  C17  1  0.007406  0.007406  0.509294  1
