# generated using pymatgen
data_Dy4Sc4Cr(B8Ir)3
_symmetry_space_group_name_H-M   'P 1'
_cell_length_a   3.53910000
_cell_length_b   8.99620390
_cell_length_c   11.38649113
_cell_angle_alpha   90.05103489
_cell_angle_beta   90.00000000
_cell_angle_gamma   90.00000000
_symmetry_Int_Tables_number   1
_chemical_formula_structural   Dy4Sc4Cr(B8Ir)3
_chemical_formula_sum   'Dy4 Sc4 Cr1 B24 Ir3'
_cell_volume   362.52825770
_cell_formula_units_Z   1
loop_
 _symmetry_equiv_pos_site_id
 _symmetry_equiv_pos_as_xyz
  1  'x, y, z'
loop_
 _atom_site_type_symbol
 _atom_site_label
 _atom_site_symmetry_multiplicity
 _atom_site_fract_x
 _atom_site_fract_y
 _atom_site_fract_z
 _atom_site_occupancy
  Dy  Dy0  1  0.500000  0.316585  0.410143  1
  Dy  Dy1  1  0.500000  0.680008  0.585230  1
  Dy  Dy2  1  0.500000  0.179694  0.918396  1
  Dy  Dy3  1  0.500000  0.823826  0.087480  1
  Sc  Sc4  1  0.500000  0.440782  0.124597  1
  Sc  Sc5  1  0.500000  0.555077  0.876275  1
  Sc  Sc6  1  0.500000  0.054871  0.624631  1
  Sc  Sc7  1  0.500000  0.949280  0.372575  1
  Cr  Cr8  1  0.500000  0.141415  0.181296  1
  B  B9  1  0.000000  0.100152  0.473347  1
  B  B10  1  0.000000  0.899853  0.527056  1
  B  B11  1  0.000000  0.400010  0.972712  1
  B  B12  1  0.000000  0.600672  0.027061  1
  B  B13  1  0.000000  0.129834  0.316041  1
  B  B14  1  0.000000  0.869929  0.681154  1
  B  B15  1  0.000000  0.370546  0.819297  1
  B  B16  1  0.000000  0.629430  0.181992  1
  B  B17  1  0.000000  0.054856  0.067843  1
  B  B18  1  0.000000  0.945569  0.934129  1
  B  B19  1  0.000000  0.444536  0.565935  1
  B  B20  1  0.000000  0.554075  0.432939  1
  B  B21  1  0.000000  0.480814  0.285002  1
  B  B22  1  0.000000  0.518231  0.715358  1
  B  B23  1  0.000000  0.018392  0.785291  1
  B  B24  1  0.000000  0.982813  0.214261  1
  B  B25  1  0.000000  0.252465  0.082029  1
  B  B26  1  0.000000  0.746469  0.920240  1
  B  B27  1  0.000000  0.245571  0.579938  1
  B  B28  1  0.000000  0.754859  0.418993  1
  B  B29  1  0.000000  0.294127  0.234190  1
  B  B30  1  0.000000  0.704905  0.764577  1
  B  B31  1  0.000000  0.205449  0.735808  1
  B  B32  1  0.000000  0.795627  0.265376  1
  Ir  Ir33  1  0.500000  0.859146  0.818681  1
  Ir  Ir34  1  0.500000  0.359463  0.681064  1
  Ir  Ir35  1  0.500000  0.640669  0.319064  1
