# generated using pymatgen
data_La2Lu14Tl5InCo2
_symmetry_space_group_name_H-M   'P 1'
_cell_length_a   10.16862512
_cell_length_b   10.16557417
_cell_length_c   7.20844775
_cell_angle_alpha   89.89522474
_cell_angle_beta   90.00724043
_cell_angle_gamma   119.99386327
_symmetry_Int_Tables_number   1
_chemical_formula_structural   La2Lu14Tl5InCo2
_chemical_formula_sum   'La2 Lu14 Tl5 In1 Co2'
_cell_volume   645.34579336
_cell_formula_units_Z   1
loop_
 _symmetry_equiv_pos_site_id
 _symmetry_equiv_pos_as_xyz
  1  'x, y, z'
loop_
 _atom_site_type_symbol
 _atom_site_label
 _atom_site_symmetry_multiplicity
 _atom_site_fract_x
 _atom_site_fract_y
 _atom_site_fract_z
 _atom_site_occupancy
  La  La0  1  0.999027  0.997943  0.497719  1
  La  La1  1  0.999607  0.999203  0.996929  1
  Lu  Lu2  1  0.462496  0.540135  0.483611  1
  Lu  Lu3  1  0.077633  0.540140  0.483587  1
  Lu  Lu4  1  0.460429  0.920867  0.482084  1
  Lu  Lu5  1  0.538997  0.460303  0.981268  1
  Lu  Lu6  1  0.921210  0.460231  0.981258  1
  Lu  Lu7  1  0.539423  0.078855  0.982384  1
  Lu  Lu8  1  0.818185  0.182543  0.282993  1
  Lu  Lu9  1  0.364319  0.182583  0.282939  1
  Lu  Lu10  1  0.817884  0.635787  0.280072  1
  Lu  Lu11  1  0.182683  0.818234  0.783461  1
  Lu  Lu12  1  0.635621  0.818286  0.783498  1
  Lu  Lu13  1  0.182020  0.364050  0.782264  1
  Lu  Lu14  1  0.332899  0.665759  0.085149  1
  Lu  Lu15  1  0.666710  0.333457  0.584522  1
  Tl  Tl16  1  0.167017  0.834629  0.229003  1
  Tl  Tl17  1  0.667725  0.834613  0.229078  1
  Tl  Tl18  1  0.166013  0.332257  0.229255  1
  Tl  Tl19  1  0.834401  0.166569  0.728270  1
  Tl  Tl20  1  0.332231  0.166603  0.728292  1
  In  In21  1  0.833555  0.667188  0.729502  1
  Co  Co22  1  0.333351  0.666604  0.709014  1
  Co  Co23  1  0.666565  0.333161  0.208399  1
