# generated using pymatgen
data_Y2Sc2Al15(GaIr2)3
_symmetry_space_group_name_H-M   'P 1'
_cell_length_a   7.49670911
_cell_length_b   7.49850501
_cell_length_c   9.45490700
_cell_angle_alpha   90.00000000
_cell_angle_beta   90.00000000
_cell_angle_gamma   119.45882045
_symmetry_Int_Tables_number   1
_chemical_formula_structural   Y2Sc2Al15(GaIr2)3
_chemical_formula_sum   'Y2 Sc2 Al15 Ga3 Ir6'
_cell_volume   462.78133335
_cell_formula_units_Z   1
loop_
 _symmetry_equiv_pos_site_id
 _symmetry_equiv_pos_as_xyz
  1  'x, y, z'
loop_
 _atom_site_type_symbol
 _atom_site_label
 _atom_site_symmetry_multiplicity
 _atom_site_fract_x
 _atom_site_fract_y
 _atom_site_fract_z
 _atom_site_occupancy
  Y  Y0  1  0.998038  0.675385  0.250000  1
  Y  Y1  1  0.670392  0.990990  0.250000  1
  Sc  Sc2  1  0.005473  0.324659  0.750000  1
  Sc  Sc3  1  0.323458  0.003229  0.750000  1
  Al  Al4  1  0.002440  0.335425  0.067614  1
  Al  Al5  1  0.001811  0.664342  0.919598  1
  Al  Al6  1  0.001811  0.664342  0.580402  1
  Al  Al7  1  0.336001  0.004078  0.432097  1
  Al  Al8  1  0.002440  0.335425  0.432386  1
  Al  Al9  1  0.664339  0.002501  0.580149  1
  Al  Al10  1  0.664339  0.002501  0.919851  1
  Al  Al11  1  0.336001  0.004078  0.067903  1
  Al  Al12  1  0.331274  0.331378  0.565268  1
  Al  Al13  1  0.665684  0.665353  0.451885  1
  Al  Al14  1  0.665684  0.665353  0.048115  1
  Al  Al15  1  0.331274  0.331378  0.934732  1
  Al  Al16  1  0.661585  0.443118  0.750000  1
  Al  Al17  1  0.549724  0.339372  0.250000  1
  Al  Al18  1  0.443975  0.661617  0.750000  1
  Ga  Ga19  1  0.133522  0.134161  0.250000  1
  Ga  Ga20  1  0.869180  0.869068  0.750000  1
  Ga  Ga21  1  0.339248  0.544806  0.250000  1
  Ir  Ir22  1  0.671907  0.329153  0.998916  1
  Ir  Ir23  1  0.328436  0.673205  0.996734  1
  Ir  Ir24  1  0.328436  0.673205  0.503266  1
  Ir  Ir25  1  0.671907  0.329153  0.501084  1
  Ir  Ir26  1  0.000811  0.001364  0.997934  1
  Ir  Ir27  1  0.000811  0.001364  0.502066  1
