# generated using pymatgen
data_HfSc7(CdCu2)4
_symmetry_space_group_name_H-M   'P 1'
_cell_length_a   7.28052441
_cell_length_b   7.28052522
_cell_length_c   6.79089200
_cell_angle_alpha   90.00000000
_cell_angle_beta   90.00000000
_cell_angle_gamma   90.37666197
_symmetry_Int_Tables_number   1
_chemical_formula_structural   HfSc7(CdCu2)4
_chemical_formula_sum   'Hf1 Sc7 Cd4 Cu8'
_cell_volume   359.95052535
_cell_formula_units_Z   1
loop_
 _symmetry_equiv_pos_site_id
 _symmetry_equiv_pos_as_xyz
  1  'x, y, z'
loop_
 _atom_site_type_symbol
 _atom_site_label
 _atom_site_symmetry_multiplicity
 _atom_site_fract_x
 _atom_site_fract_y
 _atom_site_fract_z
 _atom_site_occupancy
  Hf  Hf0  1  0.187754  0.187754  0.500000  1
  Sc  Sc1  1  0.156460  0.156460  0.000000  1
  Sc  Sc2  1  0.843740  0.843740  0.000000  1
  Sc  Sc3  1  0.655508  0.342622  0.500000  1
  Sc  Sc4  1  0.342622  0.655508  0.500000  1
  Sc  Sc5  1  0.687758  0.311819  0.000000  1
  Sc  Sc6  1  0.311819  0.687758  0.000000  1
  Sc  Sc7  1  0.812336  0.812336  0.500000  1
  Cd  Cd8  1  0.501150  0.999868  0.250357  1
  Cd  Cd9  1  0.501150  0.999868  0.749643  1
  Cd  Cd10  1  0.999868  0.501150  0.250357  1
  Cd  Cd11  1  0.999868  0.501150  0.749643  1
  Cu  Cu12  1  0.375876  0.375876  0.216286  1
  Cu  Cu13  1  0.621686  0.621686  0.784895  1
  Cu  Cu14  1  0.621686  0.621686  0.215105  1
  Cu  Cu15  1  0.878429  0.123992  0.712243  1
  Cu  Cu16  1  0.878429  0.123992  0.287757  1
  Cu  Cu17  1  0.375876  0.375876  0.783714  1
  Cu  Cu18  1  0.123992  0.878429  0.287757  1
  Cu  Cu19  1  0.123992  0.878429  0.712243  1
