# generated using pymatgen
data_Nd8AlCu(Si6Ir)2
_symmetry_space_group_name_H-M   'P 1'
_cell_length_a   8.25140600
_cell_length_b   8.25140582
_cell_length_c   8.50912400
_cell_angle_alpha   90.00000000
_cell_angle_beta   90.00000000
_cell_angle_gamma   120.00000074
_symmetry_Int_Tables_number   1
_chemical_formula_structural   Nd8AlCu(Si6Ir)2
_chemical_formula_sum   'Nd8 Al1 Cu1 Si12 Ir2'
_cell_volume   501.73151888
_cell_formula_units_Z   1
loop_
 _symmetry_equiv_pos_site_id
 _symmetry_equiv_pos_as_xyz
  1  'x, y, z'
loop_
 _atom_site_type_symbol
 _atom_site_label
 _atom_site_symmetry_multiplicity
 _atom_site_fract_x
 _atom_site_fract_y
 _atom_site_fract_z
 _atom_site_occupancy
  Nd  Nd0  1  0.000000  0.000000  0.749175  1
  Nd  Nd1  1  0.000000  0.000000  0.251183  1
  Nd  Nd2  1  0.498734  0.501266  0.744189  1
  Nd  Nd3  1  0.498734  0.997470  0.744189  1
  Nd  Nd4  1  0.002530  0.501266  0.744189  1
  Nd  Nd5  1  0.500173  0.499827  0.255687  1
  Nd  Nd6  1  0.999656  0.499827  0.255687  1
  Nd  Nd7  1  0.500173  0.000344  0.255687  1
  Al  Al8  1  0.666667  0.333333  0.995880  1
  Cu  Cu9  1  0.333333  0.666667  0.001416  1
  Si  Si10  1  0.836864  0.163136  0.000314  1
  Si  Si11  1  0.836864  0.673728  0.000314  1
  Si  Si12  1  0.326272  0.163136  0.000314  1
  Si  Si13  1  0.832628  0.167372  0.501016  1
  Si  Si14  1  0.832628  0.665255  0.501016  1
  Si  Si15  1  0.334745  0.167372  0.501016  1
  Si  Si16  1  0.167045  0.832955  0.499039  1
  Si  Si17  1  0.665911  0.832955  0.499039  1
  Si  Si18  1  0.167045  0.334089  0.499039  1
  Si  Si19  1  0.170198  0.829802  0.000316  1
  Si  Si20  1  0.659603  0.829802  0.000316  1
  Si  Si21  1  0.170198  0.340397  0.000316  1
  Ir  Ir22  1  0.666667  0.333333  0.501887  1
  Ir  Ir23  1  0.333333  0.666667  0.498782  1
