# generated using pymatgen
data_CeB3W
_symmetry_space_group_name_H-M   'P 1'
_cell_length_a   3.14244100
_cell_length_b   5.56828941
_cell_length_c   6.90411474
_cell_angle_alpha   75.18296357
_cell_angle_beta   90.00000000
_cell_angle_gamma   90.00000000
_symmetry_Int_Tables_number   1
_chemical_formula_structural   CeB3W
_chemical_formula_sum   'Ce2 B6 W2'
_cell_volume   116.79115167
_cell_formula_units_Z   2
loop_
 _symmetry_equiv_pos_site_id
 _symmetry_equiv_pos_as_xyz
  1  'x, y, z'
loop_
 _atom_site_type_symbol
 _atom_site_label
 _atom_site_symmetry_multiplicity
 _atom_site_fract_x
 _atom_site_fract_y
 _atom_site_fract_z
 _atom_site_occupancy
  Ce  Ce0  1  0.250000  0.346310  0.687181  1
  Ce  Ce1  1  0.750000  0.653690  0.312819  1
  B  B2  1  0.250000  0.919779  0.529426  1
  B  B3  1  0.750000  0.080221  0.470574  1
  B  B4  1  0.250000  0.910168  0.009889  1
  B  B5  1  0.750000  0.089832  0.990111  1
  B  B6  1  0.250000  0.581490  0.009107  1
  B  B7  1  0.750000  0.418510  0.990893  1
  W  W8  1  0.250000  0.182519  0.213664  1
  W  W9  1  0.750000  0.817481  0.786336  1
