# generated using pymatgen
data_Dy11Y9Cd6CoRu
_symmetry_space_group_name_H-M   'P 1'
_cell_length_a   9.62087200
_cell_length_b   9.62087152
_cell_length_c   9.82531500
_cell_angle_alpha   90.00000000
_cell_angle_beta   90.00000000
_cell_angle_gamma   120.00000166
_symmetry_Int_Tables_number   1
_chemical_formula_structural   Dy11Y9Cd6CoRu
_chemical_formula_sum   'Dy11 Y9 Cd6 Co1 Ru1'
_cell_volume   787.60045555
_cell_formula_units_Z   1
loop_
 _symmetry_equiv_pos_site_id
 _symmetry_equiv_pos_as_xyz
  1  'x, y, z'
loop_
 _atom_site_type_symbol
 _atom_site_label
 _atom_site_symmetry_multiplicity
 _atom_site_fract_x
 _atom_site_fract_y
 _atom_site_fract_z
 _atom_site_occupancy
  Dy  Dy0  1  0.000000  0.000000  0.500311  1
  Dy  Dy1  1  0.000000  0.000000  0.999619  1
  Dy  Dy2  1  0.212258  0.787742  0.435795  1
  Dy  Dy3  1  0.212258  0.424518  0.435795  1
  Dy  Dy4  1  0.575482  0.787742  0.435795  1
  Dy  Dy5  1  0.790609  0.209391  0.560444  1
  Dy  Dy6  1  0.790609  0.581217  0.560444  1
  Dy  Dy7  1  0.418783  0.209391  0.560444  1
  Dy  Dy8  1  0.790524  0.209476  0.939522  1
  Dy  Dy9  1  0.790524  0.581049  0.939522  1
  Dy  Dy10  1  0.418951  0.209476  0.939522  1
  Y  Y11  1  0.211719  0.788281  0.063763  1
  Y  Y12  1  0.211719  0.423440  0.063763  1
  Y  Y13  1  0.576560  0.788281  0.063763  1
  Y  Y14  1  0.541755  0.458245  0.250236  1
  Y  Y15  1  0.541755  0.083509  0.250236  1
  Y  Y16  1  0.916491  0.458245  0.250236  1
  Y  Y17  1  0.458433  0.541567  0.749777  1
  Y  Y18  1  0.458433  0.916868  0.749777  1
  Y  Y19  1  0.083132  0.541567  0.749777  1
  Cd  Cd20  1  0.885276  0.114724  0.249925  1
  Cd  Cd21  1  0.885276  0.770552  0.249925  1
  Cd  Cd22  1  0.229448  0.114724  0.249925  1
  Cd  Cd23  1  0.114619  0.885381  0.750114  1
  Cd  Cd24  1  0.114619  0.229237  0.750114  1
  Cd  Cd25  1  0.770763  0.885381  0.750114  1
  Co  Co26  1  0.333333  0.666667  0.251545  1
  Ru  Ru27  1  0.666667  0.333333  0.749802  1
