# generated using pymatgen
data_Ce2Zr4Co16Si6P
_symmetry_space_group_name_H-M   'P 1'
_cell_length_a   8.14340798
_cell_length_b   8.14200289
_cell_length_c   8.14135831
_cell_angle_alpha   60.01557791
_cell_angle_beta   59.83553760
_cell_angle_gamma   59.99313406
_symmetry_Int_Tables_number   1
_chemical_formula_structural   Ce2Zr4Co16Si6P
_chemical_formula_sum   'Ce2 Zr4 Co16 Si6 P1'
_cell_volume   381.24582790
_cell_formula_units_Z   1
loop_
 _symmetry_equiv_pos_site_id
 _symmetry_equiv_pos_as_xyz
  1  'x, y, z'
loop_
 _atom_site_type_symbol
 _atom_site_label
 _atom_site_symmetry_multiplicity
 _atom_site_fract_x
 _atom_site_fract_y
 _atom_site_fract_z
 _atom_site_occupancy
  Ce  Ce0  1  0.708185  0.292286  0.291843  1
  Ce  Ce1  1  0.291703  0.292191  0.708243  1
  Zr  Zr2  1  0.294913  0.710066  0.705056  1
  Zr  Zr3  1  0.705027  0.710025  0.294957  1
  Zr  Zr4  1  0.288015  0.717303  0.288024  1
  Zr  Zr5  1  0.711982  0.293332  0.711939  1
  Co  Co6  1  0.118015  0.117478  0.639521  1
  Co  Co7  1  0.667337  0.991544  0.667493  1
  Co  Co8  1  0.360637  0.874836  0.882060  1
  Co  Co9  1  0.009698  0.328165  0.329533  1
  Co  Co10  1  0.989871  0.667547  0.670631  1
  Co  Co11  1  0.329482  0.328118  0.009646  1
  Co  Co12  1  0.670583  0.667675  0.989850  1
  Co  Co13  1  0.639387  0.117438  0.118004  1
  Co  Co14  1  0.669555  0.675594  0.669510  1
  Co  Co15  1  0.882099  0.874674  0.360716  1
  Co  Co16  1  0.124397  0.115955  0.124222  1
  Co  Co17  1  0.875727  0.364774  0.875541  1
  Co  Co18  1  0.879218  0.879736  0.879189  1
  Co  Co19  1  0.332655  0.326301  0.332855  1
  Co  Co20  1  0.120762  0.638331  0.120751  1
  Co  Co21  1  0.330622  0.014229  0.330607  1
  Si  Si22  1  0.000188  0.515007  0.000034  1
  Si  Si23  1  0.003249  0.993947  0.508506  1
  Si  Si24  1  0.000104  0.999796  0.999914  1
  Si  Si25  1  0.491191  0.505438  0.997034  1
  Si  Si26  1  0.508454  0.993999  0.003142  1
  Si  Si27  1  0.997126  0.505353  0.491234  1
  P  P28  1  0.499816  0.988861  0.499946  1
