# generated using pymatgen
data_La8Ho12Si13Au3
_symmetry_space_group_name_H-M   'P 1'
_cell_length_a   7.66936416
_cell_length_b   7.79090428
_cell_length_c   15.04479523
_cell_angle_alpha   89.93909261
_cell_angle_beta   89.52508668
_cell_angle_gamma   89.73439267
_symmetry_Int_Tables_number   1
_chemical_formula_structural   La8Ho12Si13Au3
_chemical_formula_sum   'La8 Ho12 Si13 Au3'
_cell_volume   898.90479170
_cell_formula_units_Z   1
loop_
 _symmetry_equiv_pos_site_id
 _symmetry_equiv_pos_as_xyz
  1  'x, y, z'
loop_
 _atom_site_type_symbol
 _atom_site_label
 _atom_site_symmetry_multiplicity
 _atom_site_fract_x
 _atom_site_fract_y
 _atom_site_fract_z
 _atom_site_occupancy
  La  La0  1  0.985827  0.823995  0.100697  1
  La  La1  1  0.480006  0.677124  0.400264  1
  La  La2  1  0.516710  0.321909  0.898863  1
  La  La3  1  0.019892  0.176817  0.599116  1
  La  La4  1  0.021515  0.178802  0.898529  1
  La  La5  1  0.523673  0.324920  0.598839  1
  La  La6  1  0.479243  0.677006  0.102926  1
  La  La7  1  0.975952  0.821402  0.397848  1
  Ho  Ho8  1  0.658180  0.998065  0.251860  1
  Ho  Ho9  1  0.157060  0.502121  0.250105  1
  Ho  Ho10  1  0.841084  0.495887  0.748067  1
  Ho  Ho11  1  0.340175  0.004571  0.750788  1
  Ho  Ho12  1  0.666353  0.826826  0.875826  1
  Ho  Ho13  1  0.170955  0.678172  0.622133  1
  Ho  Ho14  1  0.831271  0.328843  0.125228  1
  Ho  Ho15  1  0.323902  0.172654  0.377670  1
  Ho  Ho16  1  0.324481  0.171254  0.122808  1
  Ho  Ho17  1  0.823653  0.324042  0.376439  1
  Ho  Ho18  1  0.175784  0.670630  0.878086  1
  Ho  Ho19  1  0.680086  0.826880  0.621121  1
  Si  Si20  1  0.775080  0.621885  0.251374  1
  Si  Si21  1  0.276778  0.877530  0.251909  1
  Si  Si22  1  0.725708  0.119541  0.748716  1
  Si  Si23  1  0.226471  0.381876  0.747525  1
  Si  Si24  1  0.032511  0.115229  0.250976  1
  Si  Si25  1  0.529084  0.381891  0.251923  1
  Si  Si26  1  0.467602  0.616756  0.748478  1
  Si  Si27  1  0.964375  0.882822  0.750410  1
  Si  Si28  1  0.143713  0.467128  0.459953  1
  Si  Si29  1  0.157215  0.464955  0.044082  1
  Si  Si30  1  0.653840  0.035147  0.456988  1
  Si  Si31  1  0.342271  0.964724  0.957001  1
  Si  Si32  1  0.857313  0.531786  0.538582  1
  Au  Au33  1  0.844278  0.535137  0.958316  1
  Au  Au34  1  0.352283  0.966698  0.543902  1
  Au  Au35  1  0.655678  0.034976  0.042654  1
