# generated using pymatgen
data_Tb3Pa3FeCo17P12
_symmetry_space_group_name_H-M   'P 1'
_cell_length_a   3.73934900
_cell_length_b   10.50304276
_cell_length_c   12.21966226
_cell_angle_alpha   90.08422930
_cell_angle_beta   90.00000000
_cell_angle_gamma   90.00000000
_symmetry_Int_Tables_number   1
_chemical_formula_structural   Tb3Pa3FeCo17P12
_chemical_formula_sum   'Tb3 Pa3 Fe1 Co17 P12'
_cell_volume   479.92112546
_cell_formula_units_Z   1
loop_
 _symmetry_equiv_pos_site_id
 _symmetry_equiv_pos_as_xyz
  1  'x, y, z'
loop_
 _atom_site_type_symbol
 _atom_site_label
 _atom_site_symmetry_multiplicity
 _atom_site_fract_x
 _atom_site_fract_y
 _atom_site_fract_z
 _atom_site_occupancy
  Tb  Tb0  1  0.500000  0.186649  0.205121  1
  Tb  Tb1  1  0.000000  0.685881  0.794288  1
  Tb  Tb2  1  0.000000  0.314224  0.793015  1
  Pa  Pa3  1  0.000000  0.498993  0.527985  1
  Pa  Pa4  1  0.500000  0.000697  0.475425  1
  Pa  Pa5  1  0.500000  0.818153  0.207909  1
  Fe  Fe6  1  0.000000  0.999595  0.845553  1
  Co  Co7  1  0.500000  0.500270  0.159797  1
  Co  Co8  1  0.500000  0.499334  0.694363  1
  Co  Co9  1  0.000000  0.993668  0.300560  1
  Co  Co10  1  0.000000  0.500029  0.981719  1
  Co  Co11  1  0.500000  0.000072  0.015617  1
  Co  Co12  1  0.500000  0.335392  0.992907  1
  Co  Co13  1  0.500000  0.666175  0.994902  1
  Co  Co14  1  0.000000  0.167831  0.006039  1
  Co  Co15  1  0.000000  0.834307  0.008443  1
  Co  Co16  1  0.500000  0.300442  0.430957  1
  Co  Co17  1  0.500000  0.696729  0.429759  1
  Co  Co18  1  0.000000  0.195760  0.567283  1
  Co  Co19  1  0.000000  0.803074  0.570510  1
  Co  Co20  1  0.500000  0.880477  0.711725  1
  Co  Co21  1  0.500000  0.119603  0.711095  1
  Co  Co22  1  0.000000  0.622728  0.286380  1
  Co  Co23  1  0.000000  0.381490  0.288919  1
  P  P24  1  0.500000  0.500249  0.877410  1
  P  P25  1  0.000000  0.003035  0.118888  1
  P  P26  1  0.500000  0.498538  0.343347  1
  P  P27  1  0.000000  0.999441  0.660456  1
  P  P28  1  0.500000  0.305219  0.615488  1
  P  P29  1  0.500000  0.693560  0.616427  1
  P  P30  1  0.000000  0.190597  0.382348  1
  P  P31  1  0.000000  0.806239  0.388649  1
  P  P32  1  0.500000  0.848015  0.894693  1
  P  P33  1  0.500000  0.153201  0.894555  1
  P  P34  1  0.000000  0.650497  0.102911  1
  P  P35  1  0.000000  0.349839  0.104559  1
