# generated using pymatgen
data_Tb4HoTm15Pt16
_symmetry_space_group_name_H-M   'P 1'
_cell_length_a   7.41262211
_cell_length_b   7.49177559
_cell_length_c   14.60811804
_cell_angle_alpha   90.01835980
_cell_angle_beta   90.00839568
_cell_angle_gamma   89.97741134
_symmetry_Int_Tables_number   1
_chemical_formula_structural   Tb4HoTm15Pt16
_chemical_formula_sum   'Tb4 Ho1 Tm15 Pt16'
_cell_volume   811.24275097
_cell_formula_units_Z   1
loop_
 _symmetry_equiv_pos_site_id
 _symmetry_equiv_pos_as_xyz
  1  'x, y, z'
loop_
 _atom_site_type_symbol
 _atom_site_label
 _atom_site_symmetry_multiplicity
 _atom_site_fract_x
 _atom_site_fract_y
 _atom_site_fract_z
 _atom_site_occupancy
  Tb  Tb0  1  0.999051  0.179133  0.407056  1
  Tb  Tb1  1  0.499244  0.321630  0.407519  1
  Tb  Tb2  1  0.999014  0.178653  0.092404  1
  Tb  Tb3  1  0.500727  0.678840  0.907597  1
  Ho  Ho4  1  0.001296  0.820333  0.592776  1
  Tm  Tm5  1  0.656069  0.167365  0.622741  1
  Tm  Tm6  1  0.156026  0.332709  0.877359  1
  Tm  Tm7  1  0.343904  0.832699  0.122549  1
  Tm  Tm8  1  0.843925  0.667355  0.377348  1
  Tm  Tm9  1  0.344796  0.831890  0.377646  1
  Tm  Tm10  1  0.844024  0.667568  0.122049  1
  Tm  Tm11  1  0.655908  0.167563  0.877746  1
  Tm  Tm12  1  0.156418  0.332757  0.622506  1
  Tm  Tm13  1  0.501649  0.680196  0.593155  1
  Tm  Tm14  1  0.001716  0.819879  0.906839  1
  Tm  Tm15  1  0.498201  0.319906  0.093027  1
  Tm  Tm16  1  0.819176  0.510265  0.749961  1
  Tm  Tm17  1  0.318959  0.989687  0.750076  1
  Tm  Tm18  1  0.180926  0.489954  0.249618  1
  Tm  Tm19  1  0.680669  0.010175  0.249738  1
  Pt  Pt20  1  0.683064  0.965529  0.458764  1
  Pt  Pt21  1  0.184803  0.533385  0.041600  1
  Pt  Pt22  1  0.315257  0.033343  0.958392  1
  Pt  Pt23  1  0.815280  0.467728  0.541987  1
  Pt  Pt24  1  0.316813  0.032275  0.542197  1
  Pt  Pt25  1  0.817002  0.466938  0.958323  1
  Pt  Pt26  1  0.683016  0.967038  0.041656  1
  Pt  Pt27  1  0.183396  0.534623  0.458913  1
  Pt  Pt28  1  0.453754  0.386627  0.749791  1
  Pt  Pt29  1  0.953708  0.113366  0.750269  1
  Pt  Pt30  1  0.546097  0.613702  0.249543  1
  Pt  Pt31  1  0.046542  0.885976  0.249986  1
  Pt  Pt32  1  0.681918  0.856240  0.749686  1
  Pt  Pt33  1  0.181670  0.644036  0.750310  1
  Pt  Pt34  1  0.318664  0.143821  0.249301  1
  Pt  Pt35  1  0.817316  0.356818  0.249569  1
