# generated using pymatgen
data_CrBiI18
_symmetry_space_group_name_H-M   'P 1'
_cell_length_a   10.24735953
_cell_length_b   10.28817486
_cell_length_c   10.25071202
_cell_angle_alpha   87.79036574
_cell_angle_beta   87.86666404
_cell_angle_gamma   87.71000240
_symmetry_Int_Tables_number   1
_chemical_formula_structural   CrBiI18
_chemical_formula_sum   'Cr1 Bi1 I18'
_cell_volume   1078.34265885
_cell_formula_units_Z   1
loop_
 _symmetry_equiv_pos_site_id
 _symmetry_equiv_pos_as_xyz
  1  'x, y, z'
loop_
 _atom_site_type_symbol
 _atom_site_label
 _atom_site_symmetry_multiplicity
 _atom_site_fract_x
 _atom_site_fract_y
 _atom_site_fract_z
 _atom_site_occupancy
  Cr  Cr0  1  0.500000  0.500000  0.500000  1
  Bi  Bi1  1  0.000000  0.000000  0.000000  1
  I  I2  1  0.766331  0.474484  0.498125  1
  I  I3  1  0.496830  0.765102  0.473255  1
  I  I4  1  0.474284  0.498203  0.766259  1
  I  I5  1  0.233669  0.525516  0.501875  1
  I  I6  1  0.503170  0.234898  0.526745  1
  I  I7  1  0.525716  0.501797  0.233741  1
  I  I8  1  0.883107  0.385186  0.744227  1
  I  I9  1  0.742655  0.881614  0.385012  1
  I  I10  1  0.385655  0.743441  0.883038  1
  I  I11  1  0.116893  0.614814  0.255773  1
  I  I12  1  0.257345  0.118386  0.614988  1
  I  I13  1  0.614345  0.256559  0.116962  1
  I  I14  1  0.021639  0.974967  0.696144  1
  I  I15  1  0.696085  0.021267  0.973624  1
  I  I16  1  0.973610  0.697261  0.019693  1
  I  I17  1  0.978361  0.025033  0.303856  1
  I  I18  1  0.303915  0.978733  0.026376  1
  I  I19  1  0.026390  0.302739  0.980307  1
