# generated using pymatgen
data_Zr10In5Ga2Te
_symmetry_space_group_name_H-M   'P 1'
_cell_length_a   8.76733995
_cell_length_b   8.76734020
_cell_length_c   5.89849900
_cell_angle_alpha   90.00000000
_cell_angle_beta   90.00000000
_cell_angle_gamma   119.83909841
_symmetry_Int_Tables_number   1
_chemical_formula_structural   Zr10In5Ga2Te
_chemical_formula_sum   'Zr10 In5 Ga2 Te1'
_cell_volume   393.28710782
_cell_formula_units_Z   1
loop_
 _symmetry_equiv_pos_site_id
 _symmetry_equiv_pos_as_xyz
  1  'x, y, z'
loop_
 _atom_site_type_symbol
 _atom_site_label
 _atom_site_symmetry_multiplicity
 _atom_site_fract_x
 _atom_site_fract_y
 _atom_site_fract_z
 _atom_site_occupancy
  Zr  Zr0  1  0.000964  0.267662  0.250000  1
  Zr  Zr1  1  0.734116  0.994665  0.750000  1
  Zr  Zr2  1  0.734377  0.734377  0.250000  1
  Zr  Zr3  1  0.666758  0.334545  0.498887  1
  Zr  Zr4  1  0.994665  0.734116  0.750000  1
  Zr  Zr5  1  0.268855  0.268855  0.750000  1
  Zr  Zr6  1  0.334545  0.666758  0.001113  1
  Zr  Zr7  1  0.666758  0.334545  0.001113  1
  Zr  Zr8  1  0.334545  0.666758  0.498887  1
  Zr  Zr9  1  0.267662  0.000964  0.250000  1
  In  In10  1  0.614546  0.001384  0.250000  1
  In  In11  1  0.384673  0.998105  0.750000  1
  In  In12  1  0.382580  0.382580  0.250000  1
  In  In13  1  0.001384  0.614546  0.250000  1
  In  In14  1  0.998105  0.384673  0.750000  1
  Ga  Ga15  1  0.003075  0.003075  0.002243  1
  Ga  Ga16  1  0.003075  0.003075  0.497757  1
  Te  Te17  1  0.609317  0.609317  0.750000  1
