# generated using pymatgen
data_Tb7NdCd2PdPt
_symmetry_space_group_name_H-M   'P 1'
_cell_length_a   9.79004704
_cell_length_b   9.79004743
_cell_length_c   9.75932800
_cell_angle_alpha   60.10374415
_cell_angle_beta   60.10374283
_cell_angle_gamma   60.01251475
_symmetry_Int_Tables_number   1
_chemical_formula_structural   Tb7NdCd2PdPt
_chemical_formula_sum   'Tb14 Nd2 Cd4 Pd2 Pt2'
_cell_volume   662.51377183
_cell_formula_units_Z   2
loop_
 _symmetry_equiv_pos_site_id
 _symmetry_equiv_pos_as_xyz
  1  'x, y, z'
loop_
 _atom_site_type_symbol
 _atom_site_label
 _atom_site_symmetry_multiplicity
 _atom_site_fract_x
 _atom_site_fract_y
 _atom_site_fract_z
 _atom_site_occupancy
  Tb  Tb0  1  0.352270  0.352270  0.348795  1
  Tb  Tb1  1  0.352270  0.352270  0.946666  1
  Tb  Tb2  1  0.354038  0.941928  0.352017  1
  Tb  Tb3  1  0.941928  0.354038  0.352017  1
  Tb  Tb4  1  0.809403  0.190122  0.189494  1
  Tb  Tb5  1  0.190122  0.809403  0.810982  1
  Tb  Tb6  1  0.190122  0.809403  0.189494  1
  Tb  Tb7  1  0.809403  0.190122  0.810982  1
  Tb  Tb8  1  0.190631  0.190631  0.809369  1
  Tb  Tb9  1  0.810477  0.810477  0.189523  1
  Tb  Tb10  1  0.937892  0.563028  0.562415  1
  Tb  Tb11  1  0.563028  0.937892  0.936665  1
  Tb  Tb12  1  0.563028  0.937892  0.562415  1
  Tb  Tb13  1  0.937892  0.563028  0.936665  1
  Nd  Nd14  1  0.567694  0.567694  0.932306  1
  Nd  Nd15  1  0.932771  0.932771  0.567229  1
  Cd  Cd16  1  0.581962  0.581962  0.579046  1
  Cd  Cd17  1  0.581962  0.581962  0.257031  1
  Cd  Cd18  1  0.578559  0.256046  0.582698  1
  Cd  Cd19  1  0.256046  0.578559  0.582698  1
  Pd  Pd20  1  0.144150  0.144150  0.142838  1
  Pd  Pd21  1  0.144150  0.144150  0.568862  1
  Pt  Pt22  1  0.140113  0.570091  0.144898  1
  Pt  Pt23  1  0.570091  0.140113  0.144898  1
