# generated using pymatgen
data_TbDy2Ho(CI)2
_symmetry_space_group_name_H-M   'P 1'
_cell_length_a   3.76459500
_cell_length_b   3.76459483
_cell_length_c   14.76375800
_cell_angle_alpha   90.00000000
_cell_angle_beta   90.00000000
_cell_angle_gamma   119.99999269
_symmetry_Int_Tables_number   1
_chemical_formula_structural   TbDy2Ho(CI)2
_chemical_formula_sum   'Tb1 Dy2 Ho1 C2 I2'
_cell_volume   181.20245793
_cell_formula_units_Z   1
loop_
 _symmetry_equiv_pos_site_id
 _symmetry_equiv_pos_as_xyz
  1  'x, y, z'
loop_
 _atom_site_type_symbol
 _atom_site_label
 _atom_site_symmetry_multiplicity
 _atom_site_fract_x
 _atom_site_fract_y
 _atom_site_fract_z
 _atom_site_occupancy
  Tb  Tb0  1  0.333333  0.666667  0.914805  1
  Dy  Dy1  1  0.333333  0.666667  0.584807  1
  Dy  Dy2  1  0.666667  0.333333  0.414328  1
  Ho  Ho3  1  0.666667  0.333333  0.085527  1
  C  C4  1  0.000000  0.000000  0.002688  1
  C  C5  1  0.000000  0.000000  0.499380  1
  I  I6  1  0.333333  0.666667  0.249830  1
  I  I7  1  0.666667  0.333333  0.748633  1
