# generated using pymatgen
data_Ce2Th3Ni19
_symmetry_space_group_name_H-M   'P 1'
_cell_length_a   4.98515606
_cell_length_b   4.98515671
_cell_length_c   16.67876900
_cell_angle_alpha   81.40516242
_cell_angle_beta   81.40516129
_cell_angle_gamma   59.99999134
_symmetry_Int_Tables_number   1
_chemical_formula_structural   Ce2Th3Ni19
_chemical_formula_sum   'Ce2 Th3 Ni19'
_cell_volume   353.57985760
_cell_formula_units_Z   1
loop_
 _symmetry_equiv_pos_site_id
 _symmetry_equiv_pos_as_xyz
  1  'x, y, z'
loop_
 _atom_site_type_symbol
 _atom_site_label
 _atom_site_symmetry_multiplicity
 _atom_site_fract_x
 _atom_site_fract_y
 _atom_site_fract_z
 _atom_site_occupancy
  Ce  Ce0  1  0.848177  0.848177  0.455469  1
  Ce  Ce1  1  0.151823  0.151823  0.544531  1
  Th  Th2  1  0.000000  0.000000  0.000000  1
  Th  Th3  1  0.921553  0.921553  0.235341  1
  Th  Th4  1  0.078447  0.078447  0.764659  1
  Ni  Ni5  1  0.500000  0.500000  0.500000  1
  Ni  Ni6  1  0.748940  0.748941  0.753179  1
  Ni  Ni7  1  0.251059  0.251059  0.246822  1
  Ni  Ni8  1  0.666661  0.666661  0.000020  1
  Ni  Ni9  1  0.333339  0.333339  0.999980  1
  Ni  Ni10  1  0.584668  0.584668  0.245997  1
  Ni  Ni11  1  0.415332  0.415332  0.754003  1
  Ni  Ni12  1  0.376649  0.376649  0.370539  1
  Ni  Ni13  1  0.876161  0.376649  0.370539  1
  Ni  Ni14  1  0.376649  0.876161  0.370539  1
  Ni  Ni15  1  0.623351  0.623351  0.629461  1
  Ni  Ni16  1  0.123839  0.623351  0.629461  1
  Ni  Ni17  1  0.623351  0.123839  0.629461  1
  Ni  Ni18  1  0.459184  0.459184  0.122230  1
  Ni  Ni19  1  0.959402  0.459184  0.122230  1
  Ni  Ni20  1  0.459184  0.959402  0.122230  1
  Ni  Ni21  1  0.540816  0.540816  0.877770  1
  Ni  Ni22  1  0.040598  0.540816  0.877770  1
  Ni  Ni23  1  0.540816  0.040598  0.877770  1
