# generated using pymatgen
data_YTm3(Al8Pt3)3
_symmetry_space_group_name_H-M   'P 1'
_cell_length_a   7.51312032
_cell_length_b   7.53497176
_cell_length_c   13.14648764
_cell_angle_alpha   84.59748797
_cell_angle_beta   79.12237061
_cell_angle_gamma   59.98370795
_symmetry_Int_Tables_number   1
_chemical_formula_structural   YTm3(Al8Pt3)3
_chemical_formula_sum   'Y1 Tm3 Al24 Pt9'
_cell_volume   632.84426544
_cell_formula_units_Z   1
loop_
 _symmetry_equiv_pos_site_id
 _symmetry_equiv_pos_as_xyz
  1  'x, y, z'
loop_
 _atom_site_type_symbol
 _atom_site_label
 _atom_site_symmetry_multiplicity
 _atom_site_fract_x
 _atom_site_fract_y
 _atom_site_fract_z
 _atom_site_occupancy
  Y  Y0  1  0.393499  0.168649  0.808059  1
  Tm  Tm1  1  0.606405  0.831169  0.192671  1
  Tm  Tm2  1  0.734286  0.498745  0.807144  1
  Tm  Tm3  1  0.265597  0.501355  0.192880  1
  Al  Al4  1  0.684533  0.833357  0.944457  1
  Al  Al5  1  0.315807  0.166107  0.056196  1
  Al  Al6  1  0.146561  0.832423  0.561322  1
  Al  Al7  1  0.853497  0.167564  0.438610  1
  Al  Al8  1  0.479440  0.166595  0.558440  1
  Al  Al9  1  0.520605  0.833379  0.441355  1
  Al  Al10  1  0.217640  0.165245  0.328950  1
  Al  Al11  1  0.782823  0.834380  0.670749  1
  Al  Al12  1  0.437697  0.506415  0.670862  1
  Al  Al13  1  0.562393  0.493960  0.328829  1
  Al  Al14  1  0.109079  0.160226  0.669774  1
  Al  Al15  1  0.890658  0.839780  0.329885  1
  Al  Al16  1  0.353548  0.499616  0.944530  1
  Al  Al17  1  0.646363  0.500928  0.055784  1
  Al  Al18  1  0.015294  0.167993  0.952420  1
  Al  Al19  1  0.984062  0.832037  0.047943  1
  Al  Al20  1  0.186783  0.499309  0.441279  1
  Al  Al21  1  0.813220  0.500713  0.558655  1
  Al  Al22  1  0.733669  0.163842  0.183337  1
  Al  Al23  1  0.266323  0.835523  0.816650  1
  Al  Al24  1  0.061169  0.631430  0.815499  1
  Al  Al25  1  0.938245  0.369169  0.184472  1
  Al  Al26  1  0.855506  0.042056  0.816050  1
  Al  Al27  1  0.145095  0.957910  0.183946  1
  Pt  Pt28  1  0.119305  0.491746  0.639023  1
  Pt  Pt29  1  0.880280  0.508901  0.360554  1
  Pt  Pt30  1  0.657032  0.171502  0.999951  1
  Pt  Pt31  1  0.343001  0.828442  0.000293  1
  Pt  Pt32  1  0.537386  0.166809  0.360689  1
  Pt  Pt33  1  0.462666  0.832667  0.638969  1
  Pt  Pt34  1  0.778528  0.175521  0.637433  1
  Pt  Pt35  1  0.222090  0.824410  0.362206  1
  Pt  Pt36  1  0.999915  0.500127  0.000135  1
