# generated using pymatgen
data_Er8Ta2Ti9Si16Ir
_symmetry_space_group_name_H-M   'P 1'
_cell_length_a   7.00195238
_cell_length_b   7.00195262
_cell_length_c   12.83046223
_cell_angle_alpha   90.15994925
_cell_angle_beta   89.84005133
_cell_angle_gamma   89.70317225
_symmetry_Int_Tables_number   1
_chemical_formula_structural   Er8Ta2Ti9Si16Ir
_chemical_formula_sum   'Er8 Ta2 Ti9 Si16 Ir1'
_cell_volume   629.03004962
_cell_formula_units_Z   1
loop_
 _symmetry_equiv_pos_site_id
 _symmetry_equiv_pos_as_xyz
  1  'x, y, z'
loop_
 _atom_site_type_symbol
 _atom_site_label
 _atom_site_symmetry_multiplicity
 _atom_site_fract_x
 _atom_site_fract_y
 _atom_site_fract_z
 _atom_site_occupancy
  Er  Er0  1  0.341303  0.003765  0.467139  1
  Er  Er1  1  0.496812  0.842477  0.718470  1
  Er  Er2  1  0.501161  0.157404  0.215181  1
  Er  Er3  1  0.842477  0.496812  0.281530  1
  Er  Er4  1  0.157404  0.501161  0.784819  1
  Er  Er5  1  0.657571  0.998394  0.968711  1
  Er  Er6  1  0.003765  0.341303  0.532861  1
  Er  Er7  1  0.998394  0.657571  0.031289  1
  Ta  Ta8  1  0.175029  0.826427  0.247766  1
  Ta  Ta9  1  0.826427  0.175029  0.752234  1
  Ti  Ti10  1  0.674067  0.674067  0.500000  1
  Ti  Ti11  1  0.147998  0.001861  0.874887  1
  Ti  Ti12  1  0.492739  0.657433  0.125221  1
  Ti  Ti13  1  0.507586  0.348641  0.628960  1
  Ti  Ti14  1  0.657433  0.492739  0.874779  1
  Ti  Ti15  1  0.348641  0.507586  0.371040  1
  Ti  Ti16  1  0.849861  0.993908  0.373570  1
  Ti  Ti17  1  0.001861  0.147998  0.125113  1
  Ti  Ti18  1  0.993908  0.849861  0.626430  1
  Si  Si19  1  0.202801  0.133683  0.684707  1
  Si  Si20  1  0.371606  0.701344  0.933249  1
  Si  Si21  1  0.631677  0.296379  0.433842  1
  Si  Si22  1  0.701344  0.371606  0.066751  1
  Si  Si23  1  0.296379  0.631677  0.566158  1
  Si  Si24  1  0.796379  0.866692  0.183454  1
  Si  Si25  1  0.133683  0.202801  0.315293  1
  Si  Si26  1  0.866692  0.796379  0.816546  1
  Si  Si27  1  0.287586  0.952744  0.061884  1
  Si  Si28  1  0.547912  0.792594  0.315695  1
  Si  Si29  1  0.448628  0.208934  0.818529  1
  Si  Si30  1  0.792594  0.547912  0.684305  1
  Si  Si31  1  0.208934  0.448628  0.181471  1
  Si  Si32  1  0.707319  0.047479  0.565062  1
  Si  Si33  1  0.952744  0.287586  0.938116  1
  Si  Si34  1  0.047479  0.707319  0.434938  1
  Ir  Ir35  1  0.331809  0.331809  0.000000  1
