# generated using pymatgen
data_Zr2Ni11MoP7
_symmetry_space_group_name_H-M   'P 1'
_cell_length_a   9.03113404
_cell_length_b   9.04905395
_cell_length_c   3.62501600
_cell_angle_alpha   90.00000000
_cell_angle_beta   90.00000000
_cell_angle_gamma   120.21207826
_symmetry_Int_Tables_number   1
_chemical_formula_structural   Zr2Ni11MoP7
_chemical_formula_sum   'Zr2 Ni11 Mo1 P7'
_cell_volume   256.00824197
_cell_formula_units_Z   1
loop_
 _symmetry_equiv_pos_site_id
 _symmetry_equiv_pos_as_xyz
  1  'x, y, z'
loop_
 _atom_site_type_symbol
 _atom_site_label
 _atom_site_symmetry_multiplicity
 _atom_site_fract_x
 _atom_site_fract_y
 _atom_site_fract_z
 _atom_site_occupancy
  Zr  Zr0  1  0.001892  0.004548  0.000000  1
  Zr  Zr1  1  0.332018  0.667013  0.500000  1
  Ni  Ni2  1  0.295538  0.396160  0.000000  1
  Ni  Ni3  1  0.102724  0.708961  0.000000  1
  Ni  Ni4  1  0.537678  0.428396  0.500000  1
  Ni  Ni5  1  0.386739  0.173717  0.000000  1
  Ni  Ni6  1  0.786781  0.617921  0.000000  1
  Ni  Ni7  1  0.824678  0.206750  0.000000  1
  Ni  Ni8  1  0.233360  0.945657  0.500000  1
  Ni  Ni9  1  0.055497  0.282662  0.500000  1
  Ni  Ni10  1  0.713374  0.767318  0.500000  1
  Ni  Ni11  1  0.574078  0.112025  0.500000  1
  Ni  Ni12  1  0.605201  0.896600  0.000000  1
  Mo  Mo13  1  0.881706  0.455264  0.500000  1
  P  P14  1  0.662568  0.330887  0.000000  1
  P  P15  1  0.081703  0.450705  0.000000  1
  P  P16  1  0.257643  0.213360  0.500000  1
  P  P17  1  0.785196  0.042560  0.500000  1
  P  P18  1  0.958613  0.750163  0.500000  1
  P  P19  1  0.546938  0.627666  0.000000  1
  P  P20  1  0.376076  0.921669  0.000000  1
