# generated using pymatgen
data_Ba4TeW3O16
_symmetry_space_group_name_H-M   'P 1'
_cell_length_a   5.19524704
_cell_length_b   6.00566143
_cell_length_c   13.63478000
_cell_angle_alpha   90.00000000
_cell_angle_beta   90.00000000
_cell_angle_gamma   89.62977172
_symmetry_Int_Tables_number   1
_chemical_formula_structural   Ba4TeW3O16
_chemical_formula_sum   'Ba4 Te1 W3 O16'
_cell_volume   425.40845475
_cell_formula_units_Z   1
loop_
 _symmetry_equiv_pos_site_id
 _symmetry_equiv_pos_as_xyz
  1  'x, y, z'
loop_
 _atom_site_type_symbol
 _atom_site_label
 _atom_site_symmetry_multiplicity
 _atom_site_fract_x
 _atom_site_fract_y
 _atom_site_fract_z
 _atom_site_occupancy
  Ba  Ba0  1  0.250000  0.000000  0.157970  1
  Ba  Ba1  1  0.750000  0.000000  0.841003  1
  Ba  Ba2  1  0.250000  0.500000  0.659298  1
  Ba  Ba3  1  0.750000  0.500000  0.345601  1
  Te  Te4  1  0.250000  0.500000  0.931708  1
  W  W5  1  0.250000  0.000000  0.426780  1
  W  W6  1  0.750000  0.000000  0.570936  1
  W  W7  1  0.750000  0.500000  0.072146  1
  O  O8  1  0.358075  0.203758  0.334326  1
  O  O9  1  0.860857  0.202851  0.662228  1
  O  O10  1  0.940870  0.175387  0.456945  1
  O  O11  1  0.441152  0.176207  0.539570  1
  O  O12  1  0.434548  0.327004  0.042119  1
  O  O13  1  0.941962  0.322101  0.961490  1
  O  O14  1  0.840598  0.288597  0.163677  1
  O  O15  1  0.367927  0.296405  0.836924  1
  O  O16  1  0.659402  0.711403  0.163677  1
  O  O17  1  0.132073  0.703595  0.836924  1
  O  O18  1  0.065452  0.672996  0.042119  1
  O  O19  1  0.558038  0.677899  0.961490  1
  O  O20  1  0.559130  0.824613  0.456945  1
  O  O21  1  0.058848  0.823793  0.539570  1
  O  O22  1  0.141925  0.796242  0.334326  1
  O  O23  1  0.639143  0.797149  0.662228  1
