# generated using pymatgen
data_Na2Ho3P12Rh19
_symmetry_space_group_name_H-M   'P 1'
_cell_length_a   12.67695215
_cell_length_b   12.62234525
_cell_length_c   3.92380400
_cell_angle_alpha   90.00000000
_cell_angle_beta   90.00000000
_cell_angle_gamma   119.85760403
_symmetry_Int_Tables_number   1
_chemical_formula_structural   Na2Ho3P12Rh19
_chemical_formula_sum   'Na2 Ho3 P12 Rh19'
_cell_volume   544.52047582
_cell_formula_units_Z   1
loop_
 _symmetry_equiv_pos_site_id
 _symmetry_equiv_pos_as_xyz
  1  'x, y, z'
loop_
 _atom_site_type_symbol
 _atom_site_label
 _atom_site_symmetry_multiplicity
 _atom_site_fract_x
 _atom_site_fract_y
 _atom_site_fract_z
 _atom_site_occupancy
  Na  Na0  1  0.816354  0.816310  0.500000  1
  Na  Na1  1  0.183646  0.999957  0.500000  1
  Ho  Ho2  1  0.000000  0.183162  0.500000  1
  Ho  Ho3  1  0.666759  0.332839  0.000000  1
  Ho  Ho4  1  0.333241  0.666081  0.000000  1
  P  P5  1  0.480296  0.313101  0.500000  1
  P  P6  1  0.820897  0.000086  0.000000  1
  P  P7  1  0.179103  0.179189  0.000000  1
  P  P8  1  0.000000  0.819662  0.000000  1
  P  P9  1  0.365226  0.000197  0.000000  1
  P  P10  1  0.685660  0.167167  0.500000  1
  P  P11  1  0.832233  0.520069  0.500000  1
  P  P12  1  0.519704  0.832806  0.500000  1
  P  P13  1  0.167767  0.687836  0.500000  1
  P  P14  1  0.314340  0.481507  0.500000  1
  P  P15  1  0.000000  0.363573  0.000000  1
  P  P16  1  0.634774  0.634971  0.000000  1
  Rh  Rh17  1  0.806323  0.180844  0.000000  1
  Rh  Rh18  1  0.376205  0.194907  0.000000  1
  Rh  Rh19  1  0.640345  0.509302  0.500000  1
  Rh  Rh20  1  0.868047  0.359562  0.500000  1
  Rh  Rh21  1  0.359655  0.868957  0.500000  1
  Rh  Rh22  1  0.509544  0.640801  0.500000  1
  Rh  Rh23  1  0.131953  0.491515  0.500000  1
  Rh  Rh24  1  0.818325  0.623795  0.000000  1
  Rh  Rh25  1  0.623795  0.818702  0.000000  1
  Rh  Rh26  1  0.181675  0.805470  0.000000  1
  Rh  Rh27  1  0.193677  0.374522  0.000000  1
  Rh  Rh28  1  0.000000  0.718113  0.500000  1
  Rh  Rh29  1  0.280965  0.281607  0.500000  1
  Rh  Rh30  1  0.719035  0.000642  0.500000  1
  Rh  Rh31  1  0.000000  0.545612  0.000000  1
  Rh  Rh32  1  0.453762  0.453859  0.000000  1
  Rh  Rh33  1  0.546238  0.000097  0.000000  1
  Rh  Rh34  1  0.000000  0.001921  0.000000  1
  Rh  Rh35  1  0.490456  0.131257  0.500000  1
