# generated using pymatgen
data_BaSrHo2(Si4N7)2
_symmetry_space_group_name_H-M   'P 1'
_cell_length_a   6.07325900
_cell_length_b   6.07325912
_cell_length_c   9.88656000
_cell_angle_alpha   90.00000000
_cell_angle_beta   90.00000000
_cell_angle_gamma   119.99999392
_symmetry_Int_Tables_number   1
_chemical_formula_structural   BaSrHo2(Si4N7)2
_chemical_formula_sum   'Ba1 Sr1 Ho2 Si8 N14'
_cell_volume   315.80534618
_cell_formula_units_Z   1
loop_
 _symmetry_equiv_pos_site_id
 _symmetry_equiv_pos_as_xyz
  1  'x, y, z'
loop_
 _atom_site_type_symbol
 _atom_site_label
 _atom_site_symmetry_multiplicity
 _atom_site_fract_x
 _atom_site_fract_y
 _atom_site_fract_z
 _atom_site_occupancy
  Ba  Ba0  1  0.666667  0.333333  0.863332  1
  Sr  Sr1  1  0.333333  0.666667  0.365070  1
  Ho  Ho2  1  0.333333  0.666667  0.735362  1
  Ho  Ho3  1  0.666667  0.333333  0.237291  1
  Si  Si4  1  0.826064  0.652127  0.545021  1
  Si  Si5  1  0.174383  0.825617  0.047391  1
  Si  Si6  1  0.651233  0.825617  0.047391  1
  Si  Si7  1  0.347873  0.173936  0.545021  1
  Si  Si8  1  0.826064  0.173936  0.545021  1
  Si  Si9  1  0.174383  0.348767  0.047391  1
  Si  Si10  1  0.000000  0.000000  0.814977  1
  Si  Si11  1  0.000000  0.000000  0.313413  1
  N  N12  1  0.000000  0.000000  0.623068  1
  N  N13  1  0.000000  0.000000  0.123160  1
  N  N14  1  0.153423  0.306848  0.874188  1
  N  N15  1  0.847047  0.152953  0.372654  1
  N  N16  1  0.305907  0.152953  0.372654  1
  N  N17  1  0.693152  0.846577  0.874188  1
  N  N18  1  0.153423  0.846577  0.874188  1
  N  N19  1  0.847047  0.694093  0.372654  1
  N  N20  1  0.978089  0.489046  0.596707  1
  N  N21  1  0.487519  0.975037  0.101416  1
  N  N22  1  0.487519  0.512481  0.101416  1
  N  N23  1  0.510954  0.489046  0.596707  1
  N  N24  1  0.024963  0.512481  0.101416  1
  N  N25  1  0.510954  0.021911  0.596707  1
