# generated using pymatgen
data_La8BeZnPd23
_symmetry_space_group_name_H-M   'P 1'
_cell_length_a   8.57056600
_cell_length_b   8.54567300
_cell_length_c   8.54567300
_cell_angle_alpha   90.00000000
_cell_angle_beta   90.00000000
_cell_angle_gamma   90.00000000
_symmetry_Int_Tables_number   1
_chemical_formula_structural   La8BeZnPd23
_chemical_formula_sum   'La8 Be1 Zn1 Pd23'
_cell_volume   625.89581073
_cell_formula_units_Z   1
loop_
 _symmetry_equiv_pos_site_id
 _symmetry_equiv_pos_as_xyz
  1  'x, y, z'
loop_
 _atom_site_type_symbol
 _atom_site_label
 _atom_site_symmetry_multiplicity
 _atom_site_fract_x
 _atom_site_fract_y
 _atom_site_fract_z
 _atom_site_occupancy
  La  La0  1  0.242926  0.251527  0.251527  1
  La  La1  1  0.743940  0.746313  0.746313  1
  La  La2  1  0.743940  0.746313  0.253687  1
  La  La3  1  0.743940  0.253687  0.746313  1
  La  La4  1  0.242926  0.251527  0.748473  1
  La  La5  1  0.242926  0.748473  0.251527  1
  La  La6  1  0.242926  0.748473  0.748473  1
  La  La7  1  0.743940  0.253687  0.253687  1
  Be  Be8  1  0.450071  0.000000  0.000000  1
  Zn  Zn9  1  0.032883  0.000000  0.000000  1
  Pd  Pd10  1  0.251289  0.500000  0.000000  1
  Pd  Pd11  1  0.733741  0.500000  0.000000  1
  Pd  Pd12  1  0.995555  0.259435  0.500000  1
  Pd  Pd13  1  0.492513  0.262318  0.000000  1
  Pd  Pd14  1  0.995555  0.740565  0.500000  1
  Pd  Pd15  1  0.492513  0.737682  0.000000  1
  Pd  Pd16  1  0.492513  0.000000  0.262318  1
  Pd  Pd17  1  0.251289  0.000000  0.500000  1
  Pd  Pd18  1  0.492513  0.000000  0.737682  1
  Pd  Pd19  1  0.733741  0.000000  0.500000  1
  Pd  Pd20  1  0.995555  0.500000  0.259435  1
  Pd  Pd21  1  0.995555  0.500000  0.740565  1
  Pd  Pd22  1  0.247220  0.500000  0.500000  1
  Pd  Pd23  1  0.740174  0.500000  0.500000  1
  Pd  Pd24  1  0.492194  0.252532  0.500000  1
  Pd  Pd25  1  0.492194  0.747468  0.500000  1
  Pd  Pd26  1  0.492194  0.500000  0.252532  1
  Pd  Pd27  1  0.492194  0.500000  0.747468  1
  Pd  Pd28  1  0.725834  0.000000  0.000000  1
  Pd  Pd29  1  0.991312  0.290699  0.000000  1
  Pd  Pd30  1  0.991312  0.709301  0.000000  1
  Pd  Pd31  1  0.991312  0.000000  0.290699  1
  Pd  Pd32  1  0.991312  0.000000  0.709301  1
