# generated using pymatgen
data_Sc2TaNb(CoP)4
_symmetry_space_group_name_H-M   'P 1'
_cell_length_a   3.63628400
_cell_length_b   6.16645452
_cell_length_c   7.02887160
_cell_angle_alpha   89.95281840
_cell_angle_beta   90.00000000
_cell_angle_gamma   90.00000000
_symmetry_Int_Tables_number   1
_chemical_formula_structural   Sc2TaNb(CoP)4
_chemical_formula_sum   'Sc2 Ta1 Nb1 Co4 P4'
_cell_volume   157.60819320
_cell_formula_units_Z   1
loop_
 _symmetry_equiv_pos_site_id
 _symmetry_equiv_pos_as_xyz
  1  'x, y, z'
loop_
 _atom_site_type_symbol
 _atom_site_label
 _atom_site_symmetry_multiplicity
 _atom_site_fract_x
 _atom_site_fract_y
 _atom_site_fract_z
 _atom_site_occupancy
  Sc  Sc0  1  0.750000  0.977237  0.180869  1
  Sc  Sc1  1  0.750000  0.477392  0.318953  1
  Ta  Ta2  1  0.250000  0.523090  0.681967  1
  Nb  Nb3  1  0.250000  0.023294  0.818692  1
  Co  Co4  1  0.250000  0.141257  0.440305  1
  Co  Co5  1  0.250000  0.639853  0.059257  1
  Co  Co6  1  0.750000  0.859552  0.563535  1
  Co  Co7  1  0.750000  0.362111  0.935492  1
  P  P8  1  0.250000  0.270711  0.113192  1
  P  P9  1  0.250000  0.770254  0.387653  1
  P  P10  1  0.750000  0.726989  0.879623  1
  P  P11  1  0.750000  0.228259  0.620463  1
