# generated using pymatgen
data_ReNO
_symmetry_space_group_name_H-M   'P 1'
_cell_length_a   4.85626900
_cell_length_b   5.61108409
_cell_length_c   5.60743748
_cell_angle_alpha   61.45087343
_cell_angle_beta   90.00000000
_cell_angle_gamma   90.00000000
_symmetry_Int_Tables_number   1
_chemical_formula_structural   ReNO
_chemical_formula_sum   'Re4 N4 O4'
_cell_volume   134.21778550
_cell_formula_units_Z   4
loop_
 _symmetry_equiv_pos_site_id
 _symmetry_equiv_pos_as_xyz
  1  'x, y, z'
loop_
 _atom_site_type_symbol
 _atom_site_label
 _atom_site_symmetry_multiplicity
 _atom_site_fract_x
 _atom_site_fract_y
 _atom_site_fract_z
 _atom_site_occupancy
  Re  Re0  1  0.491153  0.777144  0.718418  1
  Re  Re1  1  0.991153  0.222856  0.781582  1
  Re  Re2  1  0.508847  0.222856  0.281582  1
  Re  Re3  1  0.008847  0.777144  0.218418  1
  N  N4  1  0.284195  0.896225  0.379939  1
  N  N5  1  0.784195  0.103775  0.120061  1
  N  N6  1  0.715805  0.103775  0.620061  1
  N  N7  1  0.215805  0.896225  0.879939  1
  O  O8  1  0.808076  0.598497  0.592198  1
  O  O9  1  0.308076  0.401503  0.907802  1
  O  O10  1  0.191924  0.401503  0.407802  1
  O  O11  1  0.691924  0.598497  0.092198  1
