# generated using pymatgen
data_Ho8Ta11TiSi15Ge
_symmetry_space_group_name_H-M   'P 1'
_cell_length_a   7.04147252
_cell_length_b   7.03105361
_cell_length_c   12.96811200
_cell_angle_alpha   89.95623421
_cell_angle_beta   89.95997447
_cell_angle_gamma   89.96042700
_symmetry_Int_Tables_number   1
_chemical_formula_structural   Ho8Ta11TiSi15Ge
_chemical_formula_sum   'Ho8 Ta11 Ti1 Si15 Ge1'
_cell_volume   642.03738092
_cell_formula_units_Z   1
loop_
 _symmetry_equiv_pos_site_id
 _symmetry_equiv_pos_as_xyz
  1  'x, y, z'
loop_
 _atom_site_type_symbol
 _atom_site_label
 _atom_site_symmetry_multiplicity
 _atom_site_fract_x
 _atom_site_fract_y
 _atom_site_fract_z
 _atom_site_occupancy
  Ho  Ho0  1  0.343074  0.001586  0.467038  1
  Ho  Ho1  1  0.499092  0.841715  0.718371  1
  Ho  Ho2  1  0.501942  0.158200  0.218068  1
  Ho  Ho3  1  0.841737  0.497812  0.281819  1
  Ho  Ho4  1  0.157639  0.502800  0.782699  1
  Ho  Ho5  1  0.658395  0.997009  0.968154  1
  Ho  Ho6  1  0.001265  0.342976  0.531248  1
  Ho  Ho7  1  0.997443  0.658921  0.031977  1
  Ta  Ta8  1  0.328496  0.328948  0.999946  1
  Ta  Ta9  1  0.171340  0.828264  0.250063  1
  Ta  Ta10  1  0.824280  0.173231  0.750539  1
  Ta  Ta11  1  0.671367  0.671090  0.499834  1
  Ta  Ta12  1  0.152195  0.006466  0.875105  1
  Ta  Ta13  1  0.492879  0.652508  0.124520  1
  Ta  Ta14  1  0.509974  0.349099  0.623922  1
  Ta  Ta15  1  0.653251  0.492229  0.876342  1
  Ta  Ta16  1  0.347914  0.507304  0.375723  1
  Ta  Ta17  1  0.846312  0.991924  0.373635  1
  Ta  Ta18  1  0.007526  0.152671  0.126204  1
  Ti  Ti19  1  0.990671  0.843651  0.626007  1
  Si  Si20  1  0.366028  0.704279  0.931608  1
  Si  Si21  1  0.634640  0.296234  0.432124  1
  Si  Si22  1  0.703616  0.365671  0.068435  1
  Si  Si23  1  0.295565  0.635345  0.568287  1
  Si  Si24  1  0.796341  0.865536  0.181521  1
  Si  Si25  1  0.134462  0.203657  0.318654  1
  Si  Si26  1  0.865597  0.797372  0.817401  1
  Si  Si27  1  0.294709  0.954150  0.063853  1
  Si  Si28  1  0.545654  0.794580  0.313898  1
  Si  Si29  1  0.455647  0.205739  0.814891  1
  Si  Si30  1  0.796187  0.547262  0.685361  1
  Si  Si31  1  0.205499  0.454325  0.186128  1
  Si  Si32  1  0.708298  0.044840  0.564499  1
  Si  Si33  1  0.954286  0.294724  0.935977  1
  Si  Si34  1  0.045524  0.706597  0.437108  1
  Ge  Ge35  1  0.201154  0.131286  0.679041  1
