# generated using pymatgen
data_Y4Tm4B24Ir3Rh
_symmetry_space_group_name_H-M   'P 1'
_cell_length_a   3.63200700
_cell_length_b   9.15009452
_cell_length_c   11.51079423
_cell_angle_alpha   90.02158098
_cell_angle_beta   90.00000000
_cell_angle_gamma   90.00000000
_symmetry_Int_Tables_number   1
_chemical_formula_structural   Y4Tm4B24Ir3Rh
_chemical_formula_sum   'Y4 Tm4 B24 Ir3 Rh1'
_cell_volume   382.54058410
_cell_formula_units_Z   1
loop_
 _symmetry_equiv_pos_site_id
 _symmetry_equiv_pos_as_xyz
  1  'x, y, z'
loop_
 _atom_site_type_symbol
 _atom_site_label
 _atom_site_symmetry_multiplicity
 _atom_site_fract_x
 _atom_site_fract_y
 _atom_site_fract_z
 _atom_site_occupancy
  Y  Y0  1  0.500000  0.322704  0.412785  1
  Y  Y1  1  0.500000  0.677590  0.586271  1
  Y  Y2  1  0.500000  0.178417  0.913293  1
  Y  Y3  1  0.500000  0.821597  0.087637  1
  Tm  Tm4  1  0.500000  0.445041  0.126222  1
  Tm  Tm5  1  0.500000  0.555674  0.874753  1
  Tm  Tm6  1  0.500000  0.055514  0.625117  1
  Tm  Tm7  1  0.500000  0.943293  0.374123  1
  B  B8  1  0.000000  0.108423  0.470090  1
  B  B9  1  0.000000  0.891208  0.529545  1
  B  B10  1  0.000000  0.391750  0.970559  1
  B  B11  1  0.000000  0.608691  0.029743  1
  B  B12  1  0.000000  0.131455  0.315530  1
  B  B13  1  0.000000  0.868353  0.683953  1
  B  B14  1  0.000000  0.368604  0.816060  1
  B  B15  1  0.000000  0.631868  0.184271  1
  B  B16  1  0.000000  0.053896  0.066640  1
  B  B17  1  0.000000  0.946394  0.933392  1
  B  B18  1  0.000000  0.446058  0.566553  1
  B  B19  1  0.000000  0.553511  0.433595  1
  B  B20  1  0.000000  0.482335  0.286619  1
  B  B21  1  0.000000  0.517624  0.713932  1
  B  B22  1  0.000000  0.017903  0.786251  1
  B  B23  1  0.000000  0.982054  0.213640  1
  B  B24  1  0.000000  0.250769  0.079927  1
  B  B25  1  0.000000  0.749584  0.920220  1
  B  B26  1  0.000000  0.249725  0.579601  1
  B  B27  1  0.000000  0.749889  0.420017  1
  B  B28  1  0.000000  0.293862  0.234124  1
  B  B29  1  0.000000  0.706429  0.765822  1
  B  B30  1  0.000000  0.206347  0.733967  1
  B  B31  1  0.000000  0.793693  0.265461  1
  Ir  Ir32  1  0.500000  0.139081  0.179214  1
  Ir  Ir33  1  0.500000  0.861401  0.820512  1
  Ir  Ir34  1  0.500000  0.360419  0.680355  1
  Rh  Rh35  1  0.500000  0.638843  0.320204  1
