# generated using pymatgen
data_U4Re7(Si2P)2
_symmetry_space_group_name_H-M   'P 1'
_cell_length_a   7.11894649
_cell_length_b   7.12428935
_cell_length_c   7.11894602
_cell_angle_alpha   109.46046144
_cell_angle_beta   109.46234565
_cell_angle_gamma   109.46046411
_symmetry_Int_Tables_number   1
_chemical_formula_structural   U4Re7(Si2P)2
_chemical_formula_sum   'U4 Re7 Si4 P2'
_cell_volume   278.04421802
_cell_formula_units_Z   1
loop_
 _symmetry_equiv_pos_site_id
 _symmetry_equiv_pos_as_xyz
  1  'x, y, z'
loop_
 _atom_site_type_symbol
 _atom_site_label
 _atom_site_symmetry_multiplicity
 _atom_site_fract_x
 _atom_site_fract_y
 _atom_site_fract_z
 _atom_site_occupancy
  U  U0  1  0.490684  0.490859  0.490684  1
  U  U1  1  0.000330  0.000661  0.500330  1
  U  U2  1  0.500330  0.000661  0.000330  1
  U  U3  1  0.000174  0.490859  0.000174  1
  Re  Re4  1  0.749754  0.250041  0.500287  1
  Re  Re5  1  0.500287  0.250041  0.749754  1
  Re  Re6  1  0.500545  0.747806  0.247261  1
  Re  Re7  1  0.250428  0.500855  0.750428  1
  Re  Re8  1  0.750428  0.500855  0.250428  1
  Re  Re9  1  0.247261  0.747806  0.500545  1
  Re  Re10  1  0.007962  0.015923  0.007962  1
  Si  Si11  1  0.997620  0.693565  0.695945  1
  Si  Si12  1  0.685599  0.995263  0.685599  1
  Si  Si13  1  0.309664  0.995263  0.309664  1
  Si  Si14  1  0.695945  0.693565  0.997620  1
  P  P15  1  0.314986  0.312989  0.998003  1
  P  P16  1  0.998003  0.312989  0.314986  1
