# generated using pymatgen
data_Hg2PtRh3(PbO7)2
_symmetry_space_group_name_H-M   'P 1'
_cell_length_a   7.29743860
_cell_length_b   7.20540724
_cell_length_c   7.29584062
_cell_angle_alpha   60.40917827
_cell_angle_beta   61.12930380
_cell_angle_gamma   60.41629609
_symmetry_Int_Tables_number   1
_chemical_formula_structural   Hg2PtRh3(PbO7)2
_chemical_formula_sum   'Hg2 Pt1 Rh3 Pb2 O14'
_cell_volume   275.22455606
_cell_formula_units_Z   1
loop_
 _symmetry_equiv_pos_site_id
 _symmetry_equiv_pos_as_xyz
  1  'x, y, z'
loop_
 _atom_site_type_symbol
 _atom_site_label
 _atom_site_symmetry_multiplicity
 _atom_site_fract_x
 _atom_site_fract_y
 _atom_site_fract_z
 _atom_site_occupancy
  Hg  Hg0  1  0.125000  0.125000  0.125000  1
  Hg  Hg1  1  0.125000  0.625000  0.125000  1
  Pt  Pt2  1  0.125000  0.625000  0.625000  1
  Rh  Rh3  1  0.625000  0.625000  0.125000  1
  Rh  Rh4  1  0.625000  0.625000  0.625000  1
  Rh  Rh5  1  0.625000  0.125000  0.625000  1
  Pb  Pb6  1  0.625000  0.125000  0.125000  1
  Pb  Pb7  1  0.125000  0.125000  0.625000  1
  O  O8  1  0.685422  0.298915  0.303079  1
  O  O9  1  0.707455  0.292267  0.708011  1
  O  O10  1  0.009875  0.990776  0.008573  1
  O  O11  1  0.300872  0.700724  0.297679  1
  O  O12  1  0.685422  0.712584  0.303079  1
  O  O13  1  0.952443  0.537445  0.552496  1
  O  O14  1  0.297557  0.712555  0.697504  1
  O  O15  1  0.240125  0.259224  0.241427  1
  O  O16  1  0.949128  0.549276  0.952321  1
  O  O17  1  0.542545  0.957733  0.541989  1
  O  O18  1  0.564578  0.537416  0.946921  1
  O  O19  1  0.952443  0.957617  0.552496  1
  O  O20  1  0.564578  0.951085  0.946921  1
  O  O21  1  0.297557  0.292383  0.697504  1
