# generated using pymatgen
data_LiYPt3Rh
_symmetry_space_group_name_H-M   'P 1'
_cell_length_a   5.33835521
_cell_length_b   5.31429774
_cell_length_c   5.33835400
_cell_angle_alpha   59.85013204
_cell_angle_beta   59.99999511
_cell_angle_gamma   59.85013728
_symmetry_Int_Tables_number   1
_chemical_formula_structural   LiYPt3Rh
_chemical_formula_sum   'Li1 Y1 Pt3 Rh1'
_cell_volume   106.84598669
_cell_formula_units_Z   1
loop_
 _symmetry_equiv_pos_site_id
 _symmetry_equiv_pos_as_xyz
  1  'x, y, z'
loop_
 _atom_site_type_symbol
 _atom_site_label
 _atom_site_symmetry_multiplicity
 _atom_site_fract_x
 _atom_site_fract_y
 _atom_site_fract_z
 _atom_site_occupancy
  Li  Li0  1  0.250156  0.249532  0.250156  1
  Y  Y1  1  0.999799  0.000604  0.999799  1
  Pt  Pt2  1  0.624551  0.624699  0.126198  1
  Pt  Pt3  1  0.126198  0.624699  0.624551  1
  Pt  Pt4  1  0.624551  0.624699  0.624551  1
  Rh  Rh5  1  0.624744  0.125766  0.624744  1
