# generated using pymatgen
data_Li2TbEr2MgIn3
_symmetry_space_group_name_H-M   'P 1'
_cell_length_a   7.10487520
_cell_length_b   7.16256172
_cell_length_c   4.76984100
_cell_angle_alpha   90.00000000
_cell_angle_beta   90.00000000
_cell_angle_gamma   116.37127844
_symmetry_Int_Tables_number   1
_chemical_formula_structural   Li2TbEr2MgIn3
_chemical_formula_sum   'Li2 Tb1 Er2 Mg1 In3'
_cell_volume   217.47283282
_cell_formula_units_Z   1
loop_
 _symmetry_equiv_pos_site_id
 _symmetry_equiv_pos_as_xyz
  1  'x, y, z'
loop_
 _atom_site_type_symbol
 _atom_site_label
 _atom_site_symmetry_multiplicity
 _atom_site_fract_x
 _atom_site_fract_y
 _atom_site_fract_z
 _atom_site_occupancy
  Li  Li0  1  0.236448  0.008992  0.500000  1
  Li  Li1  1  0.009016  0.236549  0.500000  1
  Tb  Tb2  1  0.553845  0.990016  0.000000  1
  Er  Er3  1  0.989922  0.554495  0.000000  1
  Er  Er4  1  0.436173  0.436660  0.000000  1
  Mg  Mg5  1  0.776448  0.775713  0.500000  1
  In  In6  1  0.320285  0.655725  0.500000  1
  In  In7  1  0.658227  0.324332  0.500000  1
  In  In8  1  0.019634  0.017516  0.000000  1
