# generated using pymatgen
data_PrPuZn22
_symmetry_space_group_name_H-M   'P 1'
_cell_length_a   8.25839366
_cell_length_b   8.25832503
_cell_length_c   8.25839194
_cell_angle_alpha   100.02457354
_cell_angle_beta   100.01367118
_cell_angle_gamma   130.69656757
_symmetry_Int_Tables_number   1
_chemical_formula_structural   PrPuZn22
_chemical_formula_sum   'Pr1 Pu1 Zn22'
_cell_volume   388.10283715
_cell_formula_units_Z   1
loop_
 _symmetry_equiv_pos_site_id
 _symmetry_equiv_pos_as_xyz
  1  'x, y, z'
loop_
 _atom_site_type_symbol
 _atom_site_label
 _atom_site_symmetry_multiplicity
 _atom_site_fract_x
 _atom_site_fract_y
 _atom_site_fract_z
 _atom_site_occupancy
  Pr  Pr0  1  0.749995  0.249994  0.500000  1
  Pu  Pu1  1  0.499958  0.499957  0.000000  1
  Zn  Zn2  1  0.843544  0.429099  0.171394  1
  Zn  Zn3  1  0.124473  0.873627  0.749154  1
  Zn  Zn4  1  0.327855  0.156443  0.585548  1
  Zn  Zn5  1  0.257705  0.429099  0.585555  1
  Zn  Zn6  1  0.327856  0.742308  0.171411  1
  Zn  Zn7  1  0.995697  0.320461  0.917119  1
  Zn  Zn8  1  0.257707  0.672149  0.828607  1
  Zn  Zn9  1  0.250022  0.750023  0.500001  1
  Zn  Zn10  1  0.995697  0.078579  0.675236  1
  Zn  Zn11  1  0.000006  0.000006  0.000000  1
  Zn  Zn12  1  0.679555  0.004325  0.082904  1
  Zn  Zn13  1  0.624683  0.875521  0.749163  1
  Zn  Zn14  1  0.403342  0.320461  0.324763  1
  Zn  Zn15  1  0.921421  0.004325  0.324771  1
  Zn  Zn16  1  0.843542  0.672149  0.414442  1
  Zn  Zn17  1  0.570897  0.742308  0.414452  1
  Zn  Zn18  1  0.679556  0.596652  0.675230  1
  Zn  Zn19  1  0.403342  0.078579  0.082882  1
  Zn  Zn20  1  0.921422  0.596652  0.917096  1
  Zn  Zn21  1  0.570894  0.156443  0.828588  1
  Zn  Zn22  1  0.126357  0.875521  0.250837  1
  Zn  Zn23  1  0.124473  0.375320  0.250846  1
