# generated using pymatgen
data_Zr10Ga5SiO
_symmetry_space_group_name_H-M   'P 1'
_cell_length_a   8.07691354
_cell_length_b   8.08144474
_cell_length_c   5.70975268
_cell_angle_alpha   89.91219458
_cell_angle_beta   90.17571666
_cell_angle_gamma   119.98145421
_symmetry_Int_Tables_number   1
_chemical_formula_structural   Zr10Ga5SiO
_chemical_formula_sum   'Zr10 Ga5 Si1 O1'
_cell_volume   322.82076223
_cell_formula_units_Z   1
loop_
 _symmetry_equiv_pos_site_id
 _symmetry_equiv_pos_as_xyz
  1  'x, y, z'
loop_
 _atom_site_type_symbol
 _atom_site_label
 _atom_site_symmetry_multiplicity
 _atom_site_fract_x
 _atom_site_fract_y
 _atom_site_fract_z
 _atom_site_occupancy
  Zr  Zr0  1  0.998516  0.763301  0.253662  1
  Zr  Zr1  1  0.235215  0.236699  0.253662  1
  Zr  Zr2  1  0.759331  0.000000  0.253008  1
  Zr  Zr3  1  0.996861  0.235308  0.745561  1
  Zr  Zr4  1  0.761553  0.764692  0.745561  1
  Zr  Zr5  1  0.243305  0.000000  0.745671  1
  Zr  Zr6  1  0.337185  0.671033  0.502021  1
  Zr  Zr7  1  0.666153  0.328967  0.502021  1
  Zr  Zr8  1  0.666549  0.330661  0.998532  1
  Zr  Zr9  1  0.335887  0.669339  0.998532  1
  Ga  Ga10  1  0.002053  0.399459  0.245680  1
  Ga  Ga11  1  0.602594  0.600541  0.245680  1
  Ga  Ga12  1  0.394820  0.000000  0.245392  1
  Ga  Ga13  1  0.999317  0.604249  0.754140  1
  Ga  Ga14  1  0.395069  0.395751  0.754140  1
  Si  Si15  1  0.605820  0.000000  0.757733  1
  O  O16  1  0.999773  0.000000  0.499007  1
