# generated using pymatgen
data_U2Si2Pt3
_symmetry_space_group_name_H-M   'P 1'
_cell_length_a   4.03279500
_cell_length_b   7.19138800
_cell_length_c   8.75249000
_cell_angle_alpha   90.00000000
_cell_angle_beta   90.00000000
_cell_angle_gamma   90.00000000
_symmetry_Int_Tables_number   1
_chemical_formula_structural   U2Si2Pt3
_chemical_formula_sum   'U4 Si4 Pt6'
_cell_volume   253.83440720
_cell_formula_units_Z   2
loop_
 _symmetry_equiv_pos_site_id
 _symmetry_equiv_pos_as_xyz
  1  'x, y, z'
loop_
 _atom_site_type_symbol
 _atom_site_label
 _atom_site_symmetry_multiplicity
 _atom_site_fract_x
 _atom_site_fract_y
 _atom_site_fract_z
 _atom_site_occupancy
  U  U0  1  0.000000  0.924915  0.362419  1
  U  U1  1  0.000000  0.075085  0.637581  1
  U  U2  1  0.000000  0.424915  0.137581  1
  U  U3  1  0.000000  0.575085  0.862419  1
  Si  Si4  1  0.500000  0.603081  0.357658  1
  Si  Si5  1  0.500000  0.396919  0.642342  1
  Si  Si6  1  0.500000  0.103081  0.142342  1
  Si  Si7  1  0.500000  0.896919  0.857658  1
  Pt  Pt8  1  0.500000  0.744233  0.112729  1
  Pt  Pt9  1  0.500000  0.255767  0.887271  1
  Pt  Pt10  1  0.500000  0.244233  0.387271  1
  Pt  Pt11  1  0.500000  0.755767  0.612729  1
  Pt  Pt12  1  0.000000  0.500000  0.500000  1
  Pt  Pt13  1  0.000000  0.000000  0.000000  1
