# generated using pymatgen
data_SmYTm6(WO6)4
_symmetry_space_group_name_H-M   'P 1'
_cell_length_a   5.37101700
_cell_length_b   7.67198722
_cell_length_c   11.41789600
_cell_angle_alpha   75.30443796
_cell_angle_beta   90.00000000
_cell_angle_gamma   90.00000000
_symmetry_Int_Tables_number   1
_chemical_formula_structural   SmYTm6(WO6)4
_chemical_formula_sum   'Sm1 Y1 Tm6 W4 O24'
_cell_volume   455.09913890
_cell_formula_units_Z   1
loop_
 _symmetry_equiv_pos_site_id
 _symmetry_equiv_pos_as_xyz
  1  'x, y, z'
loop_
 _atom_site_type_symbol
 _atom_site_label
 _atom_site_symmetry_multiplicity
 _atom_site_fract_x
 _atom_site_fract_y
 _atom_site_fract_z
 _atom_site_occupancy
  Sm  Sm0  1  0.685010  0.500000  0.750000  1
  Y  Y1  1  0.315288  0.500000  0.250000  1
  Tm  Tm2  1  0.742360  0.000000  0.750000  1
  Tm  Tm3  1  0.259620  0.000000  0.250000  1
  Tm  Tm4  1  0.184983  0.796785  0.577290  1
  Tm  Tm5  1  0.815811  0.795610  0.078549  1
  Tm  Tm6  1  0.184983  0.203215  0.922710  1
  Tm  Tm7  1  0.815811  0.204390  0.421451  1
  W  W8  1  0.254815  0.726638  0.885600  1
  W  W9  1  0.744979  0.725387  0.384162  1
  W  W10  1  0.254815  0.273362  0.614400  1
  W  W11  1  0.744979  0.274613  0.115838  1
  O  O12  1  0.040888  0.941771  0.897117  1
  O  O13  1  0.538381  0.846651  0.930644  1
  O  O14  1  0.957909  0.942338  0.394285  1
  O  O15  1  0.457093  0.795719  0.725758  1
  O  O16  1  0.463619  0.847225  0.430594  1
  O  O17  1  0.982911  0.719032  0.769150  1
  O  O18  1  0.541287  0.794125  0.225653  1
  O  O19  1  0.855163  0.637017  0.546940  1
  O  O20  1  0.351342  0.489703  0.887320  1
  O  O21  1  0.018964  0.713365  0.269817  1
  O  O22  1  0.351342  0.510297  0.612680  1
  O  O23  1  0.855163  0.362983  0.953060  1
  O  O24  1  0.148344  0.638223  0.049454  1
  O  O25  1  0.642375  0.489424  0.385922  1
  O  O26  1  0.982911  0.280968  0.730850  1
  O  O27  1  0.642375  0.510576  0.114078  1
  O  O28  1  0.148344  0.361777  0.450546  1
  O  O29  1  0.457093  0.204281  0.774242  1
  O  O30  1  0.018964  0.286635  0.230183  1
  O  O31  1  0.538381  0.153349  0.569356  1
  O  O32  1  0.541287  0.205875  0.274347  1
  O  O33  1  0.040888  0.058229  0.602883  1
  O  O34  1  0.463619  0.152775  0.069406  1
  O  O35  1  0.957909  0.057662  0.105715  1
