# generated using pymatgen
data_Ti6ReSi6Mo3Ru2
_symmetry_space_group_name_H-M   'P 1'
_cell_length_a   7.57872974
_cell_length_b   7.56478656
_cell_length_c   7.57884032
_cell_angle_alpha   126.04518170
_cell_angle_beta   128.99570690
_cell_angle_gamma   77.46818844
_symmetry_Int_Tables_number   1
_chemical_formula_structural   Ti6ReSi6Mo3Ru2
_chemical_formula_sum   'Ti6 Re1 Si6 Mo3 Ru2'
_cell_volume   264.79608849
_cell_formula_units_Z   1
loop_
 _symmetry_equiv_pos_site_id
 _symmetry_equiv_pos_as_xyz
  1  'x, y, z'
loop_
 _atom_site_type_symbol
 _atom_site_label
 _atom_site_symmetry_multiplicity
 _atom_site_fract_x
 _atom_site_fract_y
 _atom_site_fract_z
 _atom_site_occupancy
  Ti  Ti0  1  0.248615  0.902061  0.154599  1
  Ti  Ti1  1  0.946418  0.488508  0.036750  1
  Ti  Ti2  1  0.049258  0.094910  0.540574  1
  Ti  Ti3  1  0.451417  0.488216  0.541900  1
  Ti  Ti4  1  0.747967  0.902444  0.653579  1
  Ti  Ti5  1  0.554392  0.095588  0.046155  1
  Re  Re6  1  0.632137  0.762309  0.129902  1
  Si  Si7  1  0.750830  0.504248  0.252461  1
  Si  Si8  1  0.168584  0.161165  0.992677  1
  Si  Si9  1  0.665641  0.159042  0.493235  1
  Si  Si10  1  0.330954  0.823367  0.492856  1
  Si  Si11  1  0.251732  0.504064  0.753404  1
  Si  Si12  1  0.831776  0.828964  0.996671  1
  Mo  Mo13  1  0.499091  0.234843  0.735958  1
  Mo  Mo14  1  0.001174  0.237815  0.236729  1
  Mo  Mo15  1  0.868011  0.497877  0.629765  1
  Ru  Ru16  1  0.369373  0.495942  0.126604  1
  Ru  Ru17  1  0.132630  0.760849  0.628390  1
