# generated using pymatgen
data_Mn2InPd5
_symmetry_space_group_name_H-M   'P 1'
_cell_length_a   4.09814700
_cell_length_b   5.58432900
_cell_length_c   11.08250600
_cell_angle_alpha   90.00000000
_cell_angle_beta   90.00000000
_cell_angle_gamma   90.00000000
_symmetry_Int_Tables_number   1
_chemical_formula_structural   Mn2InPd5
_chemical_formula_sum   'Mn4 In2 Pd10'
_cell_volume   253.62759543
_cell_formula_units_Z   2
loop_
 _symmetry_equiv_pos_site_id
 _symmetry_equiv_pos_as_xyz
  1  'x, y, z'
loop_
 _atom_site_type_symbol
 _atom_site_label
 _atom_site_symmetry_multiplicity
 _atom_site_fract_x
 _atom_site_fract_y
 _atom_site_fract_z
 _atom_site_occupancy
  Mn  Mn0  1  0.500000  0.305996  0.862703  1
  Mn  Mn1  1  0.500000  0.805996  0.637297  1
  Mn  Mn2  1  0.500000  0.694004  0.137297  1
  Mn  Mn3  1  0.500000  0.194004  0.362703  1
  In  In4  1  0.000000  0.500000  0.500000  1
  In  In5  1  0.000000  0.000000  0.000000  1
  Pd  Pd6  1  0.500000  0.712870  0.380921  1
  Pd  Pd7  1  0.500000  0.287130  0.619079  1
  Pd  Pd8  1  0.000000  0.056374  0.752589  1
  Pd  Pd9  1  0.500000  0.787130  0.880921  1
  Pd  Pd10  1  0.000000  0.443626  0.252589  1
  Pd  Pd11  1  0.000000  0.943626  0.247411  1
  Pd  Pd12  1  0.000000  0.556374  0.747411  1
  Pd  Pd13  1  0.000000  0.500000  0.000000  1
  Pd  Pd14  1  0.000000  0.000000  0.500000  1
  Pd  Pd15  1  0.500000  0.212870  0.119079  1
