# generated using pymatgen
data_Sm(SiAu2)2
_symmetry_space_group_name_H-M   'P 1'
_cell_length_a   4.41133100
_cell_length_b   4.41133100
_cell_length_c   27.39326500
_cell_angle_alpha   90.00000000
_cell_angle_beta   90.00000000
_cell_angle_gamma   90.00000000
_symmetry_Int_Tables_number   1
_chemical_formula_structural   Sm(SiAu2)2
_chemical_formula_sum   'Sm4 Si8 Au16'
_cell_volume   533.06858662
_cell_formula_units_Z   4
loop_
 _symmetry_equiv_pos_site_id
 _symmetry_equiv_pos_as_xyz
  1  'x, y, z'
loop_
 _atom_site_type_symbol
 _atom_site_label
 _atom_site_symmetry_multiplicity
 _atom_site_fract_x
 _atom_site_fract_y
 _atom_site_fract_z
 _atom_site_occupancy
  Sm  Sm0  1  0.000000  0.500000  0.749288  1
  Sm  Sm1  1  0.500000  0.000000  0.250712  1
  Sm  Sm2  1  0.500000  0.500000  0.000000  1
  Sm  Sm3  1  0.500000  0.500000  0.500000  1
  Si  Si4  1  0.000000  0.000000  0.956869  1
  Si  Si5  1  0.000000  0.000000  0.457052  1
  Si  Si6  1  0.500000  0.000000  0.792498  1
  Si  Si7  1  0.500000  0.000000  0.706111  1
  Si  Si8  1  0.000000  0.500000  0.207502  1
  Si  Si9  1  0.000000  0.500000  0.293889  1
  Si  Si10  1  0.000000  0.000000  0.043131  1
  Si  Si11  1  0.000000  0.000000  0.542948  1
  Au  Au12  1  0.500000  0.000000  0.086288  1
  Au  Au13  1  0.500000  0.500000  0.662968  1
  Au  Au14  1  0.500000  0.500000  0.835515  1
  Au  Au15  1  0.000000  0.500000  0.086510  1
  Au  Au16  1  0.500000  0.000000  0.913490  1
  Au  Au17  1  0.000000  0.000000  0.663181  1
  Au  Au18  1  0.000000  0.500000  0.414233  1
  Au  Au19  1  0.500000  0.500000  0.337032  1
  Au  Au20  1  0.500000  0.000000  0.414295  1
  Au  Au21  1  0.000000  0.000000  0.336819  1
  Au  Au22  1  0.000000  0.000000  0.164424  1
  Au  Au23  1  0.500000  0.000000  0.585767  1
  Au  Au24  1  0.000000  0.000000  0.835576  1
  Au  Au25  1  0.500000  0.500000  0.164485  1
  Au  Au26  1  0.000000  0.500000  0.585705  1
  Au  Au27  1  0.000000  0.500000  0.913712  1
