# generated using pymatgen
data_NpNbCd6O12
_symmetry_space_group_name_H-M   'P 1'
_cell_length_a   5.80409716
_cell_length_b   5.65969213
_cell_length_c   10.08134910
_cell_angle_alpha   55.14669578
_cell_angle_beta   90.64647756
_cell_angle_gamma   89.84266069
_symmetry_Int_Tables_number   1
_chemical_formula_structural   NpNbCd6O12
_chemical_formula_sum   'Np1 Nb1 Cd6 O12'
_cell_volume   271.72663694
_cell_formula_units_Z   1
loop_
 _symmetry_equiv_pos_site_id
 _symmetry_equiv_pos_as_xyz
  1  'x, y, z'
loop_
 _atom_site_type_symbol
 _atom_site_label
 _atom_site_symmetry_multiplicity
 _atom_site_fract_x
 _atom_site_fract_y
 _atom_site_fract_z
 _atom_site_occupancy
  Np  Np0  1  0.500000  0.000000  0.500000  1
  Nb  Nb1  1  0.000000  0.000000  0.000000  1
  Cd  Cd2  1  0.042968  0.728183  0.775004  1
  Cd  Cd3  1  0.957032  0.271817  0.224996  1
  Cd  Cd4  1  0.550373  0.239223  0.770175  1
  Cd  Cd5  1  0.449627  0.760777  0.229825  1
  Cd  Cd6  1  0.500000  0.500000  0.000000  1
  Cd  Cd7  1  0.000000  0.500000  0.500000  1
  O  O8  1  0.423310  0.899894  0.728351  1
  O  O9  1  0.576690  0.100106  0.271649  1
  O  O10  1  0.926477  0.125343  0.765647  1
  O  O11  1  0.073523  0.874657  0.234353  1
  O  O12  1  0.797394  0.770147  0.580457  1
  O  O13  1  0.202606  0.229853  0.419543  1
  O  O14  1  0.287858  0.239554  0.928205  1
  O  O15  1  0.712142  0.760446  0.071795  1
  O  O16  1  0.335985  0.638781  0.562267  1
  O  O17  1  0.664015  0.361219  0.437733  1
  O  O18  1  0.823722  0.346056  0.952020  1
  O  O19  1  0.176278  0.653944  0.047980  1
