# generated using pymatgen
data_Hf(Mn2P)2
_symmetry_space_group_name_H-M   'P 1'
_cell_length_a   6.83958400
_cell_length_b   6.83958400
_cell_length_c   3.64972800
_cell_angle_alpha   90.00000000
_cell_angle_beta   90.00000000
_cell_angle_gamma   90.00000000
_symmetry_Int_Tables_number   1
_chemical_formula_structural   Hf(Mn2P)2
_chemical_formula_sum   'Hf2 Mn8 P4'
_cell_volume   170.73394478
_cell_formula_units_Z   2
loop_
 _symmetry_equiv_pos_site_id
 _symmetry_equiv_pos_as_xyz
  1  'x, y, z'
loop_
 _atom_site_type_symbol
 _atom_site_label
 _atom_site_symmetry_multiplicity
 _atom_site_fract_x
 _atom_site_fract_y
 _atom_site_fract_z
 _atom_site_occupancy
  Hf  Hf0  1  0.500000  0.500000  0.000000  1
  Hf  Hf1  1  0.000000  0.000000  0.500000  1
  Mn  Mn2  1  0.585077  0.155612  0.500000  1
  Mn  Mn3  1  0.414923  0.844388  0.500000  1
  Mn  Mn4  1  0.085077  0.344388  0.000000  1
  Mn  Mn5  1  0.914923  0.655612  0.000000  1
  Mn  Mn6  1  0.155612  0.585077  0.500000  1
  Mn  Mn7  1  0.844388  0.414923  0.500000  1
  Mn  Mn8  1  0.344388  0.085077  0.000000  1
  Mn  Mn9  1  0.655612  0.914923  0.000000  1
  P  P10  1  0.714981  0.714981  0.500000  1
  P  P11  1  0.285019  0.285019  0.500000  1
  P  P12  1  0.214981  0.785019  0.000000  1
  P  P13  1  0.785019  0.214981  0.000000  1
