# generated using pymatgen
data_Ho15Er5Ir11Ru
_symmetry_space_group_name_H-M   'P 1'
_cell_length_a   10.80338900
_cell_length_b   10.80301900
_cell_length_c   6.36626800
_cell_angle_alpha   90.00176769
_cell_angle_beta   89.99693732
_cell_angle_gamma   89.99856805
_symmetry_Int_Tables_number   1
_chemical_formula_structural   Ho15Er5Ir11Ru
_chemical_formula_sum   'Ho15 Er5 Ir11 Ru1'
_cell_volume   743.00215032
_cell_formula_units_Z   1
loop_
 _symmetry_equiv_pos_site_id
 _symmetry_equiv_pos_as_xyz
  1  'x, y, z'
loop_
 _atom_site_type_symbol
 _atom_site_label
 _atom_site_symmetry_multiplicity
 _atom_site_fract_x
 _atom_site_fract_y
 _atom_site_fract_z
 _atom_site_occupancy
  Ho  Ho0  1  0.292200  0.086969  0.376143  1
  Ho  Ho1  1  0.292555  0.912999  0.879173  1
  Ho  Ho2  1  0.707438  0.087000  0.879186  1
  Ho  Ho3  1  0.707754  0.913073  0.376190  1
  Ho  Ho4  1  0.587000  0.792568  0.879178  1
  Ho  Ho5  1  0.586913  0.207759  0.376187  1
  Ho  Ho6  1  0.413073  0.792230  0.376188  1
  Ho  Ho7  1  0.412975  0.207441  0.879216  1
  Ho  Ho8  1  0.209244  0.411890  0.622461  1
  Ho  Ho9  1  0.209219  0.587829  0.122096  1
  Ho  Ho10  1  0.790817  0.412071  0.122087  1
  Ho  Ho11  1  0.790739  0.588056  0.622475  1
  Ho  Ho12  1  0.912100  0.709228  0.122106  1
  Ho  Ho13  1  0.911981  0.290714  0.622459  1
  Ho  Ho14  1  0.088052  0.709285  0.622465  1
  Er  Er15  1  0.087880  0.290908  0.122014  1
  Er  Er16  1  0.000005  0.000012  0.499400  1
  Er  Er17  1  0.000021  0.000094  0.999372  1
  Er  Er18  1  0.500022  0.500002  0.999360  1
  Er  Er19  1  0.500018  0.500026  0.499393  1
  Ir  Ir20  1  0.847297  0.153610  0.249967  1
  Ir  Ir21  1  0.847225  0.846786  0.749754  1
  Ir  Ir22  1  0.152712  0.153286  0.750011  1
  Ir  Ir23  1  0.152793  0.846428  0.250020  1
  Ir  Ir24  1  0.653214  0.347225  0.749752  1
  Ir  Ir25  1  0.653570  0.652808  0.250019  1
  Ir  Ir26  1  0.346301  0.347168  0.249960  1
  Ir  Ir27  1  0.346790  0.652757  0.749765  1
  Ir  Ir28  1  0.500004  0.000001  0.622867  1
  Ir  Ir29  1  0.000047  0.499871  0.878673  1
  Ir  Ir30  1  0.000046  0.499900  0.378530  1
  Ru  Ru31  1  0.499997  0.000007  0.123529  1
