# generated using pymatgen
data_Er4Ga18RePd5
_symmetry_space_group_name_H-M   'P 1'
_cell_length_a   7.62901833
_cell_length_b   7.62901933
_cell_length_c   9.56260108
_cell_angle_alpha   89.75634326
_cell_angle_beta   89.75634390
_cell_angle_gamma   119.50477181
_symmetry_Int_Tables_number   1
_chemical_formula_structural   Er4Ga18RePd5
_chemical_formula_sum   'Er4 Ga18 Re1 Pd5'
_cell_volume   484.36666455
_cell_formula_units_Z   1
loop_
 _symmetry_equiv_pos_site_id
 _symmetry_equiv_pos_as_xyz
  1  'x, y, z'
loop_
 _atom_site_type_symbol
 _atom_site_label
 _atom_site_symmetry_multiplicity
 _atom_site_fract_x
 _atom_site_fract_y
 _atom_site_fract_z
 _atom_site_occupancy
  Er  Er0  1  0.998164  0.674353  0.249254  1
  Er  Er1  1  0.001836  0.325647  0.750746  1
  Er  Er2  1  0.674353  0.998164  0.249254  1
  Er  Er3  1  0.325647  0.001836  0.750746  1
  Ga  Ga4  1  0.132257  0.132257  0.248123  1
  Ga  Ga5  1  0.867743  0.867743  0.751877  1
  Ga  Ga6  1  0.000397  0.333979  0.079716  1
  Ga  Ga7  1  0.999603  0.666021  0.920284  1
  Ga  Ga8  1  0.999510  0.662703  0.583394  1
  Ga  Ga9  1  0.337297  0.000490  0.416606  1
  Ga  Ga10  1  0.000490  0.337297  0.416606  1
  Ga  Ga11  1  0.662703  0.999510  0.583394  1
  Ga  Ga12  1  0.666021  0.999603  0.920284  1
  Ga  Ga13  1  0.333979  0.000397  0.079716  1
  Ga  Ga14  1  0.332239  0.332239  0.569444  1
  Ga  Ga15  1  0.667761  0.667761  0.430556  1
  Ga  Ga16  1  0.671170  0.671170  0.066498  1
  Ga  Ga17  1  0.328830  0.328830  0.933502  1
  Ga  Ga18  1  0.341425  0.549146  0.249343  1
  Ga  Ga19  1  0.658575  0.450854  0.750657  1
  Ga  Ga20  1  0.549146  0.341425  0.249343  1
  Ga  Ga21  1  0.450854  0.658575  0.750657  1
  Re  Re22  1  0.000000  0.000000  0.000000  1
  Pd  Pd23  1  0.671243  0.328757  0.000000  1
  Pd  Pd24  1  0.328757  0.671243  0.000000  1
  Pd  Pd25  1  0.329066  0.670934  0.500000  1
  Pd  Pd26  1  0.670934  0.329066  0.500000  1
  Pd  Pd27  1  0.000000  0.000000  0.500000  1
