# generated using pymatgen
data_Dy3Y17(FeHg3)2
_symmetry_space_group_name_H-M   'P 1'
_cell_length_a   9.62488000
_cell_length_b   9.62488122
_cell_length_c   9.66170000
_cell_angle_alpha   90.00000000
_cell_angle_beta   90.00000000
_cell_angle_gamma   119.99999580
_symmetry_Int_Tables_number   1
_chemical_formula_structural   Dy3Y17(FeHg3)2
_chemical_formula_sum   'Dy3 Y17 Fe2 Hg6'
_cell_volume   775.13063344
_cell_formula_units_Z   1
loop_
 _symmetry_equiv_pos_site_id
 _symmetry_equiv_pos_as_xyz
  1  'x, y, z'
loop_
 _atom_site_type_symbol
 _atom_site_label
 _atom_site_symmetry_multiplicity
 _atom_site_fract_x
 _atom_site_fract_y
 _atom_site_fract_z
 _atom_site_occupancy
  Dy  Dy0  1  0.212326  0.787674  0.435585  1
  Dy  Dy1  1  0.212326  0.424653  0.435585  1
  Dy  Dy2  1  0.575347  0.787674  0.435585  1
  Y  Y3  1  0.000000  0.000000  0.499515  1
  Y  Y4  1  0.000000  0.000000  0.000122  1
  Y  Y5  1  0.541724  0.458276  0.250379  1
  Y  Y6  1  0.541724  0.083449  0.250379  1
  Y  Y7  1  0.916551  0.458276  0.250379  1
  Y  Y8  1  0.457996  0.542004  0.749516  1
  Y  Y9  1  0.457996  0.915992  0.749516  1
  Y  Y10  1  0.084008  0.542004  0.749516  1
  Y  Y11  1  0.788348  0.211652  0.563914  1
  Y  Y12  1  0.788348  0.576696  0.563914  1
  Y  Y13  1  0.423304  0.211652  0.563914  1
  Y  Y14  1  0.788217  0.211783  0.935851  1
  Y  Y15  1  0.788217  0.576433  0.935851  1
  Y  Y16  1  0.423567  0.211783  0.935851  1
  Y  Y17  1  0.211760  0.788240  0.064293  1
  Y  Y18  1  0.211760  0.423522  0.064293  1
  Y  Y19  1  0.576478  0.788240  0.064293  1
  Fe  Fe20  1  0.333333  0.666667  0.252077  1
  Fe  Fe21  1  0.666667  0.333333  0.749701  1
  Hg  Hg22  1  0.881929  0.118071  0.249862  1
  Hg  Hg23  1  0.881929  0.763858  0.249862  1
  Hg  Hg24  1  0.236142  0.118071  0.249862  1
  Hg  Hg25  1  0.117953  0.882047  0.750128  1
  Hg  Hg26  1  0.117953  0.235906  0.750128  1
  Hg  Hg27  1  0.764094  0.882047  0.750128  1
