# generated using pymatgen
data_Sr2Mn3Fe(AsO4)4
_symmetry_space_group_name_H-M   'P 1'
_cell_length_a   5.86629696
_cell_length_b   7.12396438
_cell_length_c   9.76572060
_cell_angle_alpha   110.69646194
_cell_angle_beta   101.16593980
_cell_angle_gamma   98.99569956
_symmetry_Int_Tables_number   1
_chemical_formula_structural   Sr2Mn3Fe(AsO4)4
_chemical_formula_sum   'Sr2 Mn3 Fe1 As4 O16'
_cell_volume   363.14713251
_cell_formula_units_Z   1
loop_
 _symmetry_equiv_pos_site_id
 _symmetry_equiv_pos_as_xyz
  1  'x, y, z'
loop_
 _atom_site_type_symbol
 _atom_site_label
 _atom_site_symmetry_multiplicity
 _atom_site_fract_x
 _atom_site_fract_y
 _atom_site_fract_z
 _atom_site_occupancy
  Sr  Sr0  1  0.250852  0.203455  0.448117  1
  Sr  Sr1  1  0.748298  0.796540  0.550880  1
  Mn  Mn2  1  0.138231  0.850612  0.057719  1
  Mn  Mn3  1  0.507058  0.594002  0.847918  1
  Mn  Mn4  1  0.863440  0.150638  0.942919  1
  Fe  Fe5  1  0.493087  0.402913  0.153078  1
  As  As6  1  0.336092  0.022504  0.795156  1
  As  As7  1  0.664325  0.980246  0.206318  1
  As  As8  1  0.889526  0.414713  0.727991  1
  As  As9  1  0.111062  0.582880  0.269840  1
  O  O10  1  0.877898  0.585807  0.903978  1
  O  O11  1  0.132634  0.411625  0.095900  1
  O  O12  1  0.496573  0.274471  0.920931  1
  O  O13  1  0.500752  0.730275  0.081401  1
  O  O14  1  0.102165  0.942445  0.862560  1
  O  O15  1  0.897987  0.058317  0.137864  1
  O  O16  1  0.549921  0.879352  0.808303  1
  O  O17  1  0.451060  0.124684  0.194791  1
  O  O18  1  0.828524  0.172208  0.727858  1
  O  O19  1  0.168129  0.826031  0.271531  1
  O  O20  1  0.162475  0.466980  0.691361  1
  O  O21  1  0.832241  0.526954  0.300595  1
  O  O22  1  0.227019  0.987498  0.611787  1
  O  O23  1  0.774097  0.014535  0.389441  1
  O  O24  1  0.657489  0.453305  0.611331  1
  O  O25  1  0.339065  0.547015  0.390435  1
