# generated using pymatgen
data_DyHoZn(Co2B)3
_symmetry_space_group_name_H-M   'P 1'
_cell_length_a   5.07999101
_cell_length_b   5.08211917
_cell_length_c   12.61321500
_cell_angle_alpha   90.00000000
_cell_angle_beta   89.99997744
_cell_angle_gamma   119.95334178
_symmetry_Int_Tables_number   1
_chemical_formula_structural   DyHoZn(Co2B)3
_chemical_formula_sum   'Dy2 Ho2 Zn2 Co12 B6'
_cell_volume   282.14230759
_cell_formula_units_Z   2
loop_
 _symmetry_equiv_pos_site_id
 _symmetry_equiv_pos_as_xyz
  1  'x, y, z'
loop_
 _atom_site_type_symbol
 _atom_site_label
 _atom_site_symmetry_multiplicity
 _atom_site_fract_x
 _atom_site_fract_y
 _atom_site_fract_z
 _atom_site_occupancy
  Dy  Dy0  1  0.000000  0.000000  0.999980  1
  Dy  Dy1  1  0.000000  0.000000  0.739312  1
  Ho  Ho2  1  0.000000  0.000000  0.260691  1
  Ho  Ho3  1  0.000000  0.000000  0.500077  1
  Zn  Zn4  1  0.333359  0.666681  0.999956  1
  Zn  Zn5  1  0.666641  0.333319  0.999956  1
  Co  Co6  1  0.500000  0.000001  0.613656  1
  Co  Co7  1  0.500000  0.000000  0.838194  1
  Co  Co8  1  0.500000  0.500000  0.838226  1
  Co  Co9  1  0.500000  0.500000  0.386370  1
  Co  Co10  1  0.000000  0.500000  0.613620  1
  Co  Co11  1  0.000000  0.500000  0.161808  1
  Co  Co12  1  0.000000  0.500000  0.838203  1
  Co  Co13  1  0.500000  0.500000  0.161790  1
  Co  Co14  1  0.500000  0.000000  0.386379  1
  Co  Co15  1  0.500000  0.000000  0.161774  1
  Co  Co16  1  0.500000  0.500000  0.613645  1
  Co  Co17  1  0.000000  0.500000  0.386383  1
  B  B18  1  0.666725  0.333486  0.730307  1
  B  B19  1  0.333275  0.666514  0.730307  1
  B  B20  1  0.333409  0.666605  0.269638  1
  B  B21  1  0.666625  0.333367  0.500046  1
  B  B22  1  0.666590  0.333395  0.269638  1
  B  B23  1  0.333375  0.666632  0.500046  1
