# generated using pymatgen
data_TbMgCd(P3Pd10)2
_symmetry_space_group_name_H-M   'P 1'
_cell_length_a   8.61850948
_cell_length_b   8.61850936
_cell_length_c   8.61850800
_cell_angle_alpha   59.99999755
_cell_angle_beta   59.99999800
_cell_angle_gamma   59.99999378
_symmetry_Int_Tables_number   1
_chemical_formula_structural   TbMgCd(P3Pd10)2
_chemical_formula_sum   'Tb1 Mg1 Cd1 P6 Pd20'
_cell_volume   452.66964998
_cell_formula_units_Z   1
loop_
 _symmetry_equiv_pos_site_id
 _symmetry_equiv_pos_as_xyz
  1  'x, y, z'
loop_
 _atom_site_type_symbol
 _atom_site_label
 _atom_site_symmetry_multiplicity
 _atom_site_fract_x
 _atom_site_fract_y
 _atom_site_fract_z
 _atom_site_occupancy
  Tb  Tb0  1  0.750000  0.750000  0.750000  1
  Mg  Mg1  1  0.000000  0.000000  0.000000  1
  Cd  Cd2  1  0.250000  0.250000  0.250000  1
  P  P3  1  0.735550  0.264450  0.264450  1
  P  P4  1  0.264450  0.735550  0.735550  1
  P  P5  1  0.264450  0.735550  0.264450  1
  P  P6  1  0.735550  0.264450  0.735550  1
  P  P7  1  0.264450  0.264450  0.735550  1
  P  P8  1  0.735550  0.735550  0.264450  1
  Pd  Pd9  1  0.382213  0.382213  0.382213  1
  Pd  Pd10  1  0.613745  0.613745  0.613745  1
  Pd  Pd11  1  0.382213  0.382213  0.853361  1
  Pd  Pd12  1  0.382213  0.853361  0.382213  1
  Pd  Pd13  1  0.613745  0.613745  0.158765  1
  Pd  Pd14  1  0.613745  0.158765  0.613745  1
  Pd  Pd15  1  0.853361  0.382213  0.382213  1
  Pd  Pd16  1  0.158765  0.613745  0.613745  1
  Pd  Pd17  1  0.344456  0.998581  0.998581  1
  Pd  Pd18  1  0.658382  0.998581  0.998581  1
  Pd  Pd19  1  0.998581  0.344456  0.658382  1
  Pd  Pd20  1  0.998581  0.658382  0.344456  1
  Pd  Pd21  1  0.998581  0.344456  0.998581  1
  Pd  Pd22  1  0.658382  0.998581  0.344456  1
  Pd  Pd23  1  0.998581  0.658382  0.998581  1
  Pd  Pd24  1  0.344456  0.998581  0.658382  1
  Pd  Pd25  1  0.998581  0.998581  0.344456  1
  Pd  Pd26  1  0.998581  0.998581  0.658382  1
  Pd  Pd27  1  0.658382  0.344456  0.998581  1
  Pd  Pd28  1  0.344456  0.658382  0.998581  1
