# generated using pymatgen
data_PdRh2IF24
_symmetry_space_group_name_H-M   'P 1'
_cell_length_a   5.21958602
_cell_length_b   8.84292200
_cell_length_c   9.77163166
_cell_angle_alpha   90.00000000
_cell_angle_beta   89.96183531
_cell_angle_gamma   90.00000000
_symmetry_Int_Tables_number   1
_chemical_formula_structural   PdRh2IF24
_chemical_formula_sum   'Pd1 Rh2 I1 F24'
_cell_volume   451.02316176
_cell_formula_units_Z   1
loop_
 _symmetry_equiv_pos_site_id
 _symmetry_equiv_pos_as_xyz
  1  'x, y, z'
loop_
 _atom_site_type_symbol
 _atom_site_label
 _atom_site_symmetry_multiplicity
 _atom_site_fract_x
 _atom_site_fract_y
 _atom_site_fract_z
 _atom_site_occupancy
  Pd  Pd0  1  0.084146  0.250000  0.371464  1
  Rh  Rh1  1  0.415770  0.250000  0.871359  1
  Rh  Rh2  1  0.583960  0.750000  0.130252  1
  I  I3  1  0.916099  0.750000  0.626411  1
  F  F4  1  0.205211  0.750000  0.512658  1
  F  F5  1  0.789762  0.250000  0.485907  1
  F  F6  1  0.704991  0.250000  0.984226  1
  F  F7  1  0.295656  0.750000  0.015452  1
  F  F8  1  0.627667  0.750000  0.741362  1
  F  F9  1  0.379729  0.250000  0.258072  1
  F  F10  1  0.126549  0.250000  0.757706  1
  F  F11  1  0.873988  0.750000  0.243644  1
  F  F12  1  0.763423  0.599961  0.518907  1
  F  F13  1  0.236107  0.402355  0.483074  1
  F  F14  1  0.264303  0.400303  0.979346  1
  F  F15  1  0.236107  0.097645  0.483074  1
  F  F16  1  0.734833  0.600756  0.020234  1
  F  F17  1  0.763423  0.900039  0.518907  1
  F  F18  1  0.734833  0.899244  0.020234  1
  F  F19  1  0.264303  0.099697  0.979346  1
  F  F20  1  0.067755  0.601718  0.736377  1
  F  F21  1  0.932447  0.402375  0.261205  1
  F  F22  1  0.565552  0.400323  0.761594  1
  F  F23  1  0.932447  0.097625  0.261205  1
  F  F24  1  0.433819  0.600985  0.240006  1
  F  F25  1  0.067755  0.898282  0.736377  1
  F  F26  1  0.433819  0.899015  0.240006  1
  F  F27  1  0.565552  0.099677  0.761594  1
