# generated using pymatgen
data_YbIrCl6
_symmetry_space_group_name_H-M   'P 1'
_cell_length_a   6.56915092
_cell_length_b   6.56941941
_cell_length_c   6.44889819
_cell_angle_alpha   89.95679995
_cell_angle_beta   89.96307336
_cell_angle_gamma   120.01683716
_symmetry_Int_Tables_number   1
_chemical_formula_structural   YbIrCl6
_chemical_formula_sum   'Yb1 Ir1 Cl6'
_cell_volume   240.97847198
_cell_formula_units_Z   1
loop_
 _symmetry_equiv_pos_site_id
 _symmetry_equiv_pos_as_xyz
  1  'x, y, z'
loop_
 _atom_site_type_symbol
 _atom_site_label
 _atom_site_symmetry_multiplicity
 _atom_site_fract_x
 _atom_site_fract_y
 _atom_site_fract_z
 _atom_site_occupancy
  Yb  Yb0  1  0.666746  0.333260  0.000000  1
  Ir  Ir1  1  0.333393  0.666613  0.999999  1
  Cl  Cl2  1  0.621455  0.664710  0.214443  1
  Cl  Cl3  1  0.043204  0.378457  0.214540  1
  Cl  Cl4  1  0.334987  0.956598  0.214524  1
  Cl  Cl5  1  0.621543  0.956802  0.785469  1
  Cl  Cl6  1  0.043393  0.665011  0.785471  1
  Cl  Cl7  1  0.335281  0.378551  0.785551  1
