# generated using pymatgen
data_PrZnAgPt3
_symmetry_space_group_name_H-M   'P 1'
_cell_length_a   5.25904793
_cell_length_b   5.25904698
_cell_length_c   5.25904701
_cell_angle_alpha   63.62744475
_cell_angle_beta   63.62744605
_cell_angle_gamma   63.62744324
_symmetry_Int_Tables_number   1
_chemical_formula_structural   PrZnAgPt3
_chemical_formula_sum   'Pr1 Zn1 Ag1 Pt3'
_cell_volume   111.09216140
_cell_formula_units_Z   1
loop_
 _symmetry_equiv_pos_site_id
 _symmetry_equiv_pos_as_xyz
  1  'x, y, z'
loop_
 _atom_site_type_symbol
 _atom_site_label
 _atom_site_symmetry_multiplicity
 _atom_site_fract_x
 _atom_site_fract_y
 _atom_site_fract_z
 _atom_site_occupancy
  Pr  Pr0  1  0.003512  0.003512  0.003512  1
  Zn  Zn1  1  0.623136  0.623136  0.623136  1
  Ag  Ag2  1  0.253191  0.253191  0.253191  1
  Pt  Pt3  1  0.622018  0.622018  0.126123  1
  Pt  Pt4  1  0.622018  0.126123  0.622018  1
  Pt  Pt5  1  0.126123  0.622018  0.622018  1
