# generated using pymatgen
data_Dy2Ho3Tc5(P6Ir7)2
_symmetry_space_group_name_H-M   'P 1'
_cell_length_a   12.62460605
_cell_length_b   12.72213087
_cell_length_c   3.97870600
_cell_angle_alpha   90.00000000
_cell_angle_beta   90.00000000
_cell_angle_gamma   120.15085761
_symmetry_Int_Tables_number   1
_chemical_formula_structural   Dy2Ho3Tc5(P6Ir7)2
_chemical_formula_sum   'Dy2 Ho3 Tc5 P12 Ir14'
_cell_volume   552.57085649
_cell_formula_units_Z   1
loop_
 _symmetry_equiv_pos_site_id
 _symmetry_equiv_pos_as_xyz
  1  'x, y, z'
loop_
 _atom_site_type_symbol
 _atom_site_label
 _atom_site_symmetry_multiplicity
 _atom_site_fract_x
 _atom_site_fract_y
 _atom_site_fract_z
 _atom_site_occupancy
  Dy  Dy0  1  0.186576  0.185075  0.000000  1
  Dy  Dy1  1  0.810632  0.998448  0.000000  1
  Ho  Ho2  1  0.334296  0.668018  0.500000  1
  Ho  Ho3  1  0.666632  0.333424  0.500000  1
  Ho  Ho4  1  0.999457  0.810876  0.000000  1
  Tc  Tc5  1  0.996479  0.450143  0.500000  1
  Tc  Tc6  1  0.548598  0.544872  0.500000  1
  Tc  Tc7  1  0.456999  0.009316  0.500000  1
  Tc  Tc8  1  0.620403  0.799011  0.500000  1
  Tc  Tc9  1  0.201018  0.821815  0.500000  1
  P  P10  1  0.006472  0.640049  0.500000  1
  P  P11  1  0.363562  0.364837  0.500000  1
  P  P12  1  0.633112  0.993558  0.500000  1
  P  P13  1  0.519923  0.693855  0.000000  1
  P  P14  1  0.308242  0.829736  0.000000  1
  P  P15  1  0.170061  0.483437  0.000000  1
  P  P16  1  0.483541  0.169730  0.000000  1
  P  P17  1  0.685888  0.516290  0.000000  1
  P  P18  1  0.832240  0.314878  0.000000  1
  P  P19  1  0.998947  0.176326  0.500000  1
  P  P20  1  0.817201  0.820261  0.500000  1
  P  P21  1  0.177087  0.993629  0.500000  1
  Ir  Ir22  1  0.507677  0.874522  0.000000  1
  Ir  Ir23  1  0.127985  0.635991  0.000000  1
  Ir  Ir24  1  0.361845  0.494337  0.000000  1
  Ir  Ir25  1  0.491108  0.359013  0.000000  1
  Ir  Ir26  1  0.865558  0.506100  0.000000  1
  Ir  Ir27  1  0.643417  0.137079  0.000000  1
  Ir  Ir28  1  0.000298  0.285397  0.000000  1
  Ir  Ir29  1  0.716632  0.711030  0.000000  1
  Ir  Ir30  1  0.287172  0.005190  0.000000  1
  Ir  Ir31  1  0.180098  0.375428  0.500000  1
  Ir  Ir32  1  0.374066  0.183808  0.500000  1
  Ir  Ir33  1  0.807953  0.623033  0.500000  1
  Ir  Ir34  1  0.819229  0.192569  0.500000  1
  Ir  Ir35  1  0.999593  0.998917  0.500000  1
