# generated using pymatgen
data_PrHo5(WO7)2
_symmetry_space_group_name_H-M   'P 1'
_cell_length_a   6.48492369
_cell_length_b   6.48492504
_cell_length_c   7.52486934
_cell_angle_alpha   89.89770996
_cell_angle_beta   90.10228912
_cell_angle_gamma   108.87789671
_symmetry_Int_Tables_number   1
_chemical_formula_structural   PrHo5(WO7)2
_chemical_formula_sum   'Pr1 Ho5 W2 O14'
_cell_volume   299.43005817
_cell_formula_units_Z   1
loop_
 _symmetry_equiv_pos_site_id
 _symmetry_equiv_pos_as_xyz
  1  'x, y, z'
loop_
 _atom_site_type_symbol
 _atom_site_label
 _atom_site_symmetry_multiplicity
 _atom_site_fract_x
 _atom_site_fract_y
 _atom_site_fract_z
 _atom_site_occupancy
  Pr  Pr0  1  0.501874  0.501874  0.500000  1
  Ho  Ho1  1  0.471432  0.471432  0.000000  1
  Ho  Ho2  1  0.000500  0.534659  0.243719  1
  Ho  Ho3  1  0.996576  0.468605  0.750599  1
  Ho  Ho4  1  0.534659  0.000500  0.756281  1
  Ho  Ho5  1  0.468605  0.996576  0.249401  1
  W  W6  1  0.000606  0.000606  0.500000  1
  W  W7  1  0.999773  0.999773  0.000000  1
  O  O8  1  0.926506  0.075977  0.749636  1
  O  O9  1  0.075977  0.926506  0.250364  1
  O  O10  1  0.359452  0.639451  0.238738  1
  O  O11  1  0.639451  0.359452  0.761262  1
  O  O12  1  0.363621  0.634334  0.761356  1
  O  O13  1  0.634334  0.363621  0.238644  1
  O  O14  1  0.325390  0.081562  0.972138  1
  O  O15  1  0.677384  0.926585  0.471771  1
  O  O16  1  0.321578  0.070374  0.533269  1
  O  O17  1  0.684829  0.938929  0.033037  1
  O  O18  1  0.070374  0.321578  0.466731  1
  O  O19  1  0.938929  0.684829  0.966963  1
  O  O20  1  0.926585  0.677384  0.528229  1
  O  O21  1  0.081562  0.325390  0.027862  1
