# generated using pymatgen
data_YPa(AlC)6
_symmetry_space_group_name_H-M   'P 1'
_cell_length_a   3.42330600
_cell_length_b   3.42330553
_cell_length_c   17.44690800
_cell_angle_alpha   90.00000000
_cell_angle_beta   90.00000000
_cell_angle_gamma   119.99998518
_symmetry_Int_Tables_number   1
_chemical_formula_structural   YPa(AlC)6
_chemical_formula_sum   'Y1 Pa1 Al6 C6'
_cell_volume   177.06819123
_cell_formula_units_Z   1
loop_
 _symmetry_equiv_pos_site_id
 _symmetry_equiv_pos_as_xyz
  1  'x, y, z'
loop_
 _atom_site_type_symbol
 _atom_site_label
 _atom_site_symmetry_multiplicity
 _atom_site_fract_x
 _atom_site_fract_y
 _atom_site_fract_z
 _atom_site_occupancy
  Y  Y0  1  0.000000  0.000000  0.502340  1
  Pa  Pa1  1  0.000000  0.000000  0.002205  1
  Al  Al2  1  0.666667  0.333333  0.634362  1
  Al  Al3  1  0.333333  0.666667  0.138944  1
  Al  Al4  1  0.666667  0.333333  0.865736  1
  Al  Al5  1  0.333333  0.666667  0.370271  1
  Al  Al6  1  0.666667  0.333333  0.261172  1
  Al  Al7  1  0.333333  0.666667  0.745000  1
  C  C8  1  0.666667  0.333333  0.406166  1
  C  C9  1  0.333333  0.666667  0.907316  1
  C  C10  1  0.666667  0.333333  0.096490  1
  C  C11  1  0.333333  0.666667  0.597626  1
  C  C12  1  0.666667  0.333333  0.750888  1
  C  C13  1  0.333333  0.666667  0.253686  1
