# generated using pymatgen
data_YbPt(S2O7)2
_symmetry_space_group_name_H-M   'P 1'
_cell_length_a   5.68003929
_cell_length_b   6.93803791
_cell_length_c   8.99875456
_cell_angle_alpha   106.53417504
_cell_angle_beta   93.20872653
_cell_angle_gamma   102.88858897
_symmetry_Int_Tables_number   1
_chemical_formula_structural   YbPt(S2O7)2
_chemical_formula_sum   'Yb1 Pt1 S4 O14'
_cell_volume   328.67846730
_cell_formula_units_Z   1
loop_
 _symmetry_equiv_pos_site_id
 _symmetry_equiv_pos_as_xyz
  1  'x, y, z'
loop_
 _atom_site_type_symbol
 _atom_site_label
 _atom_site_symmetry_multiplicity
 _atom_site_fract_x
 _atom_site_fract_y
 _atom_site_fract_z
 _atom_site_occupancy
  Yb  Yb0  1  0.500000  0.000000  0.000000  1
  Pt  Pt1  1  0.500000  0.500000  0.500000  1
  S  S2  1  0.922001  0.730222  0.765955  1
  S  S3  1  0.077999  0.269778  0.234045  1
  S  S4  1  0.654438  0.309282  0.746926  1
  S  S5  1  0.345562  0.690718  0.253074  1
  O  O6  1  0.846147  0.669496  0.593659  1
  O  O7  1  0.153853  0.330504  0.406341  1
  O  O8  1  0.459304  0.396919  0.690138  1
  O  O9  1  0.540696  0.603081  0.309862  1
  O  O10  1  0.180037  0.827808  0.801060  1
  O  O11  1  0.819963  0.172192  0.198940  1
  O  O12  1  0.767396  0.842688  0.859809  1
  O  O13  1  0.232604  0.157312  0.140191  1
  O  O14  1  0.595117  0.268603  0.891842  1
  O  O15  1  0.404883  0.731397  0.108158  1
  O  O16  1  0.901206  0.517332  0.810839  1
  O  O17  1  0.098794  0.482668  0.189161  1
  O  O18  1  0.736762  0.157402  0.633486  1
  O  O19  1  0.263238  0.842598  0.366514  1
