# generated using pymatgen
data_Dy5Bi2Pb
_symmetry_space_group_name_H-M   'P 1'
_cell_length_a   9.18150700
_cell_length_b   9.16474089
_cell_length_c   6.45648200
_cell_angle_alpha   90.00000000
_cell_angle_beta   90.00000000
_cell_angle_gamma   119.93961449
_symmetry_Int_Tables_number   1
_chemical_formula_structural   Dy5Bi2Pb
_chemical_formula_sum   'Dy10 Bi4 Pb2'
_cell_volume   470.78723326
_cell_formula_units_Z   2
loop_
 _symmetry_equiv_pos_site_id
 _symmetry_equiv_pos_as_xyz
  1  'x, y, z'
loop_
 _atom_site_type_symbol
 _atom_site_label
 _atom_site_symmetry_multiplicity
 _atom_site_fract_x
 _atom_site_fract_y
 _atom_site_fract_z
 _atom_site_occupancy
  Dy  Dy0  1  0.664667  0.331833  0.999418  1
  Dy  Dy1  1  0.335333  0.667168  0.999418  1
  Dy  Dy2  1  0.335333  0.667168  0.500582  1
  Dy  Dy3  1  0.664667  0.331833  0.500582  1
  Dy  Dy4  1  0.755815  0.759097  0.750000  1
  Dy  Dy5  1  0.244185  0.003282  0.750000  1
  Dy  Dy6  1  0.000000  0.239621  0.750000  1
  Dy  Dy7  1  0.242227  0.241560  0.250000  1
  Dy  Dy8  1  0.757773  0.999333  0.250000  1
  Dy  Dy9  1  0.000000  0.758103  0.250000  1
  Bi  Bi10  1  0.000000  0.610552  0.750000  1
  Bi  Bi11  1  0.610690  0.609615  0.250000  1
  Bi  Bi12  1  0.389310  0.998925  0.250000  1
  Bi  Bi13  1  0.000000  0.389983  0.250000  1
  Pb  Pb14  1  0.389965  0.390946  0.750000  1
  Pb  Pb15  1  0.610035  0.000981  0.750000  1
