# generated using pymatgen
data_Lu5GaCoBi
_symmetry_space_group_name_H-M   'P 1'
_cell_length_a   8.44070267
_cell_length_b   8.44070306
_cell_length_c   8.64887400
_cell_angle_alpha   125.96415930
_cell_angle_beta   125.96415262
_cell_angle_gamma   78.25678273
_symmetry_Int_Tables_number   1
_chemical_formula_structural   Lu5GaCoBi
_chemical_formula_sum   'Lu10 Ga2 Co2 Bi2'
_cell_volume   394.15875941
_cell_formula_units_Z   2
loop_
 _symmetry_equiv_pos_site_id
 _symmetry_equiv_pos_as_xyz
  1  'x, y, z'
loop_
 _atom_site_type_symbol
 _atom_site_label
 _atom_site_symmetry_multiplicity
 _atom_site_fract_x
 _atom_site_fract_y
 _atom_site_fract_z
 _atom_site_occupancy
  Lu  Lu0  1  0.000000  0.000000  0.000000  1
  Lu  Lu1  1  0.500000  0.500000  0.000000  1
  Lu  Lu2  1  0.776381  0.276381  0.786841  1
  Lu  Lu3  1  0.223619  0.723619  0.213159  1
  Lu  Lu4  1  0.489540  0.989540  0.213159  1
  Lu  Lu5  1  0.310794  0.453336  0.500000  1
  Lu  Lu6  1  0.046664  0.189206  0.500000  1
  Lu  Lu7  1  0.510460  0.010460  0.786841  1
  Lu  Lu8  1  0.689206  0.546664  0.500000  1
  Lu  Lu9  1  0.953336  0.810794  0.500000  1
  Ga  Ga10  1  0.136197  0.636197  0.772395  1
  Ga  Ga11  1  0.863803  0.363803  0.227605  1
  Co  Co12  1  0.631974  0.868026  0.500000  1
  Co  Co13  1  0.368026  0.131974  0.500000  1
  Bi  Bi14  1  0.250000  0.250000  0.000000  1
  Bi  Bi15  1  0.750000  0.750000  0.000000  1
