# generated using pymatgen
data_Tm16CdIn3Ni4
_symmetry_space_group_name_H-M   'P 1'
_cell_length_a   9.45358602
_cell_length_b   9.44534103
_cell_length_c   9.44534100
_cell_angle_alpha   60.00000359
_cell_angle_beta   60.02885007
_cell_angle_gamma   60.02885419
_symmetry_Int_Tables_number   1
_chemical_formula_structural   Tm16CdIn3Ni4
_chemical_formula_sum   'Tm16 Cd1 In3 Ni4'
_cell_volume   596.63144261
_cell_formula_units_Z   1
loop_
 _symmetry_equiv_pos_site_id
 _symmetry_equiv_pos_as_xyz
  1  'x, y, z'
loop_
 _atom_site_type_symbol
 _atom_site_label
 _atom_site_symmetry_multiplicity
 _atom_site_fract_x
 _atom_site_fract_y
 _atom_site_fract_z
 _atom_site_occupancy
  Tm  Tm0  1  0.347497  0.347891  0.347891  1
  Tm  Tm1  1  0.347497  0.347891  0.956720  1
  Tm  Tm2  1  0.347497  0.956720  0.347891  1
  Tm  Tm3  1  0.955456  0.348181  0.348181  1
  Tm  Tm4  1  0.811813  0.188014  0.188014  1
  Tm  Tm5  1  0.187608  0.812738  0.812738  1
  Tm  Tm6  1  0.187608  0.812738  0.186917  1
  Tm  Tm7  1  0.811813  0.188014  0.812159  1
  Tm  Tm8  1  0.187608  0.186917  0.812738  1
  Tm  Tm9  1  0.811813  0.812159  0.188014  1
  Tm  Tm10  1  0.938630  0.562964  0.562964  1
  Tm  Tm11  1  0.564114  0.936881  0.936881  1
  Tm  Tm12  1  0.564114  0.936881  0.562123  1
  Tm  Tm13  1  0.938630  0.562964  0.935442  1
  Tm  Tm14  1  0.564114  0.562123  0.936881  1
  Tm  Tm15  1  0.938630  0.935442  0.562964  1
  Cd  Cd16  1  0.251608  0.582798  0.582798  1
  In  In17  1  0.581546  0.583191  0.583191  1
  In  In18  1  0.581546  0.583191  0.252072  1
  In  In19  1  0.581546  0.252072  0.583191  1
  Ni  Ni20  1  0.142423  0.141849  0.141849  1
  Ni  Ni21  1  0.142423  0.141849  0.573879  1
  Ni  Ni22  1  0.142423  0.573879  0.141849  1
  Ni  Ni23  1  0.572044  0.142652  0.142652  1
