# generated using pymatgen
data_RbPaCl6
_symmetry_space_group_name_H-M   'P 1'
_cell_length_a   7.23779374
_cell_length_b   7.23779380
_cell_length_c   13.00157404
_cell_angle_alpha   79.47172296
_cell_angle_beta   79.47172208
_cell_angle_gamma   55.78985200
_symmetry_Int_Tables_number   1
_chemical_formula_structural   RbPaCl6
_chemical_formula_sum   'Rb2 Pa2 Cl12'
_cell_volume   551.08456175
_cell_formula_units_Z   2
loop_
 _symmetry_equiv_pos_site_id
 _symmetry_equiv_pos_as_xyz
  1  'x, y, z'
loop_
 _atom_site_type_symbol
 _atom_site_label
 _atom_site_symmetry_multiplicity
 _atom_site_fract_x
 _atom_site_fract_y
 _atom_site_fract_z
 _atom_site_occupancy
  Rb  Rb0  1  0.884904  0.115096  0.750000  1
  Rb  Rb1  1  0.115096  0.884904  0.250000  1
  Pa  Pa2  1  0.500000  0.000000  0.500000  1
  Pa  Pa3  1  0.000000  0.500000  0.000000  1
  Cl  Cl4  1  0.456549  0.692982  0.610264  1
  Cl  Cl5  1  0.543451  0.307018  0.389736  1
  Cl  Cl6  1  0.307018  0.543451  0.889736  1
  Cl  Cl7  1  0.692982  0.456549  0.110264  1
  Cl  Cl8  1  0.369342  0.203711  0.665963  1
  Cl  Cl9  1  0.630658  0.796289  0.334037  1
  Cl  Cl10  1  0.796289  0.630658  0.834037  1
  Cl  Cl11  1  0.203711  0.369342  0.165963  1
  Cl  Cl12  1  0.797934  0.908446  0.039652  1
  Cl  Cl13  1  0.202066  0.091554  0.960348  1
  Cl  Cl14  1  0.091554  0.202066  0.460348  1
  Cl  Cl15  1  0.908446  0.797934  0.539652  1
