# generated using pymatgen
data_Tb6SmY13Sn16
_symmetry_space_group_name_H-M   'P 1'
_cell_length_a   8.06683524
_cell_length_b   8.20999474
_cell_length_c   15.52729296
_cell_angle_alpha   90.00436924
_cell_angle_beta   90.07854795
_cell_angle_gamma   89.93546720
_symmetry_Int_Tables_number   1
_chemical_formula_structural   Tb6SmY13Sn16
_chemical_formula_sum   'Tb6 Sm1 Y13 Sn16'
_cell_volume   1028.35041529
_cell_formula_units_Z   1
loop_
 _symmetry_equiv_pos_site_id
 _symmetry_equiv_pos_as_xyz
  1  'x, y, z'
loop_
 _atom_site_type_symbol
 _atom_site_label
 _atom_site_symmetry_multiplicity
 _atom_site_fract_x
 _atom_site_fract_y
 _atom_site_fract_z
 _atom_site_occupancy
  Tb  Tb0  1  0.478932  0.678959  0.402151  1
  Tb  Tb1  1  0.978820  0.821073  0.097740  1
  Tb  Tb2  1  0.478715  0.678811  0.097720  1
  Tb  Tb3  1  0.979174  0.820817  0.402094  1
  Tb  Tb4  1  0.521066  0.321465  0.597670  1
  Tb  Tb5  1  0.021048  0.179092  0.902132  1
  Sm  Sm6  1  0.020425  0.179256  0.597381  1
  Y  Y7  1  0.367367  0.836204  0.878107  1
  Y  Y8  1  0.866944  0.663586  0.621912  1
  Y  Y9  1  0.633111  0.163573  0.377896  1
  Y  Y10  1  0.132873  0.336392  0.121831  1
  Y  Y11  1  0.632724  0.163563  0.121976  1
  Y  Y12  1  0.133254  0.336704  0.377875  1
  Y  Y13  1  0.367157  0.836200  0.622114  1
  Y  Y14  1  0.867187  0.663537  0.878300  1
  Y  Y15  1  0.521679  0.321586  0.902391  1
  Y  Y16  1  0.199158  0.502473  0.750344  1
  Y  Y17  1  0.698818  0.997403  0.750347  1
  Y  Y18  1  0.800974  0.497656  0.249898  1
  Y  Y19  1  0.301005  0.002310  0.249921  1
  Sn  Sn20  1  0.292827  0.035255  0.041938  1
  Sn  Sn21  1  0.792739  0.464516  0.458098  1
  Sn  Sn22  1  0.705354  0.963067  0.541505  1
  Sn  Sn23  1  0.207354  0.535436  0.958176  1
  Sn  Sn24  1  0.707131  0.964618  0.958164  1
  Sn  Sn25  1  0.207644  0.536843  0.541629  1
  Sn  Sn26  1  0.294138  0.034868  0.457559  1
  Sn  Sn27  1  0.792421  0.464169  0.041783  1
  Sn  Sn28  1  0.565472  0.618566  0.749917  1
  Sn  Sn29  1  0.065430  0.880857  0.750193  1
  Sn  Sn30  1  0.434599  0.381494  0.250002  1
  Sn  Sn31  1  0.934729  0.118619  0.249946  1
  Sn  Sn32  1  0.330584  0.146606  0.750502  1
  Sn  Sn33  1  0.828657  0.354282  0.750814  1
  Sn  Sn34  1  0.670336  0.853473  0.250010  1
  Sn  Sn35  1  0.170156  0.646675  0.249967  1
