# generated using pymatgen
data_Ho9Tm(Co2Rh)2
_symmetry_space_group_name_H-M   'P 1'
_cell_length_a   7.07206090
_cell_length_b   7.07206123
_cell_length_c   8.69908442
_cell_angle_alpha   113.98409372
_cell_angle_beta   113.98409362
_cell_angle_gamma   90.00000362
_symmetry_Int_Tables_number   1
_chemical_formula_structural   Ho9Tm(Co2Rh)2
_chemical_formula_sum   'Ho9 Tm1 Co4 Rh2'
_cell_volume   356.00395240
_cell_formula_units_Z   1
loop_
 _symmetry_equiv_pos_site_id
 _symmetry_equiv_pos_as_xyz
  1  'x, y, z'
loop_
 _atom_site_type_symbol
 _atom_site_label
 _atom_site_symmetry_multiplicity
 _atom_site_fract_x
 _atom_site_fract_y
 _atom_site_fract_z
 _atom_site_occupancy
  Ho  Ho0  1  0.000000  0.000000  0.000000  1
  Ho  Ho1  1  0.464001  0.318899  0.282483  1
  Ho  Ho2  1  0.963585  0.464001  0.282483  1
  Ho  Ho3  1  0.318899  0.818481  0.282483  1
  Ho  Ho4  1  0.818481  0.963585  0.282483  1
  Ho  Ho5  1  0.181518  0.036416  0.717516  1
  Ho  Ho6  1  0.681100  0.181518  0.717516  1
  Ho  Ho7  1  0.036416  0.535998  0.717516  1
  Ho  Ho8  1  0.535998  0.681100  0.717516  1
  Tm  Tm9  1  0.500000  0.500000  0.000000  1
  Co  Co10  1  0.612455  0.113065  0.000000  1
  Co  Co11  1  0.113065  0.387546  0.000000  1
  Co  Co12  1  0.886935  0.612455  0.000000  1
  Co  Co13  1  0.387546  0.886935  0.000000  1
  Rh  Rh14  1  0.250128  0.250128  0.500256  1
  Rh  Rh15  1  0.749872  0.749872  0.499744  1
