# generated using pymatgen
data_Ac4YbEr5Sn8
_symmetry_space_group_name_H-M   'P 1'
_cell_length_a   8.24012600
_cell_length_b   8.49908000
_cell_length_c   15.97454900
_cell_angle_alpha   90.00000000
_cell_angle_beta   90.00000000
_cell_angle_gamma   90.00000000
_symmetry_Int_Tables_number   1
_chemical_formula_structural   Ac4YbEr5Sn8
_chemical_formula_sum   'Ac8 Yb2 Er10 Sn16'
_cell_volume   1118.75341899
_cell_formula_units_Z   2
loop_
 _symmetry_equiv_pos_site_id
 _symmetry_equiv_pos_as_xyz
  1  'x, y, z'
loop_
 _atom_site_type_symbol
 _atom_site_label
 _atom_site_symmetry_multiplicity
 _atom_site_fract_x
 _atom_site_fract_y
 _atom_site_fract_z
 _atom_site_occupancy
  Ac  Ac0  1  0.501476  0.674518  0.595970  1
  Ac  Ac1  1  0.001476  0.825482  0.904030  1
  Ac  Ac2  1  0.494595  0.320622  0.094594  1
  Ac  Ac3  1  0.994595  0.179378  0.405406  1
  Ac  Ac4  1  0.494595  0.320622  0.405406  1
  Ac  Ac5  1  0.994595  0.179378  0.094594  1
  Ac  Ac6  1  0.501476  0.674518  0.904030  1
  Ac  Ac7  1  0.001476  0.825482  0.595970  1
  Yb  Yb8  1  0.166573  0.498616  0.250000  1
  Yb  Yb9  1  0.666573  0.001384  0.250000  1
  Er  Er10  1  0.671939  0.164183  0.626964  1
  Er  Er11  1  0.171939  0.335817  0.873036  1
  Er  Er12  1  0.331187  0.832323  0.123319  1
  Er  Er13  1  0.831187  0.667677  0.376681  1
  Er  Er14  1  0.331187  0.832323  0.376681  1
  Er  Er15  1  0.831187  0.667677  0.123319  1
  Er  Er16  1  0.671939  0.164183  0.873036  1
  Er  Er17  1  0.171939  0.335817  0.626964  1
  Er  Er18  1  0.836240  0.497825  0.750000  1
  Er  Er19  1  0.336240  0.002175  0.750000  1
  Sn  Sn20  1  0.671309  0.957761  0.460339  1
  Sn  Sn21  1  0.171309  0.542239  0.039661  1
  Sn  Sn22  1  0.329599  0.041346  0.955573  1
  Sn  Sn23  1  0.829599  0.458654  0.544427  1
  Sn  Sn24  1  0.329599  0.041346  0.544427  1
  Sn  Sn25  1  0.829599  0.458654  0.955573  1
  Sn  Sn26  1  0.671309  0.957761  0.039661  1
  Sn  Sn27  1  0.171309  0.542239  0.460339  1
  Sn  Sn28  1  0.477533  0.366285  0.750000  1
  Sn  Sn29  1  0.977533  0.133715  0.750000  1
  Sn  Sn30  1  0.529895  0.631214  0.250000  1
  Sn  Sn31  1  0.029895  0.868786  0.250000  1
  Sn  Sn32  1  0.699499  0.862386  0.750000  1
  Sn  Sn33  1  0.199499  0.637614  0.750000  1
  Sn  Sn34  1  0.290050  0.125528  0.250000  1
  Sn  Sn35  1  0.790050  0.374472  0.250000  1
