# generated using pymatgen
data_DyY2Lu2Bi3
_symmetry_space_group_name_H-M   'P 1'
_cell_length_a   8.19106100
_cell_length_b   9.45677300
_cell_length_c   12.00566700
_cell_angle_alpha   90.00000000
_cell_angle_beta   90.00000000
_cell_angle_gamma   90.00000000
_symmetry_Int_Tables_number   1
_chemical_formula_structural   DyY2Lu2Bi3
_chemical_formula_sum   'Dy4 Y8 Lu8 Bi12'
_cell_volume   929.97102559
_cell_formula_units_Z   4
loop_
 _symmetry_equiv_pos_site_id
 _symmetry_equiv_pos_as_xyz
  1  'x, y, z'
loop_
 _atom_site_type_symbol
 _atom_site_label
 _atom_site_symmetry_multiplicity
 _atom_site_fract_x
 _atom_site_fract_y
 _atom_site_fract_z
 _atom_site_occupancy
  Dy  Dy0  1  0.307682  0.435574  0.940787  1
  Dy  Dy1  1  0.807682  0.064426  0.559213  1
  Dy  Dy2  1  0.692318  0.935574  0.059213  1
  Dy  Dy3  1  0.192318  0.564426  0.440787  1
  Y  Y4  1  0.186083  0.750118  0.718804  1
  Y  Y5  1  0.686083  0.749882  0.781196  1
  Y  Y6  1  0.813917  0.250118  0.281196  1
  Y  Y7  1  0.313917  0.249882  0.218804  1
  Y  Y8  1  0.353111  0.750014  0.216417  1
  Y  Y9  1  0.853111  0.749986  0.283583  1
  Y  Y10  1  0.646889  0.250014  0.783583  1
  Y  Y11  1  0.146889  0.249986  0.716417  1
  Lu  Lu12  1  0.023696  0.749979  0.989658  1
  Lu  Lu13  1  0.523696  0.750021  0.510342  1
  Lu  Lu14  1  0.976304  0.249979  0.010342  1
  Lu  Lu15  1  0.476304  0.250021  0.489658  1
  Lu  Lu16  1  0.692708  0.566585  0.059082  1
  Lu  Lu17  1  0.192708  0.933415  0.440918  1
  Lu  Lu18  1  0.307292  0.066585  0.940918  1
  Lu  Lu19  1  0.807292  0.433415  0.559082  1
  Bi  Bi20  1  0.433629  0.003941  0.671473  1
  Bi  Bi21  1  0.933629  0.496059  0.828527  1
  Bi  Bi22  1  0.566371  0.503941  0.328527  1
  Bi  Bi23  1  0.066371  0.996059  0.171473  1
  Bi  Bi24  1  0.565815  0.996356  0.328328  1
  Bi  Bi25  1  0.065815  0.503644  0.171672  1
  Bi  Bi26  1  0.434185  0.496356  0.671672  1
  Bi  Bi27  1  0.934185  0.003644  0.828328  1
  Bi  Bi28  1  0.404256  0.752252  0.957289  1
  Bi  Bi29  1  0.904256  0.747748  0.542711  1
  Bi  Bi30  1  0.595744  0.252252  0.042711  1
  Bi  Bi31  1  0.095744  0.247748  0.457289  1
