# generated using pymatgen
data_KZr5TiBI14
_symmetry_space_group_name_H-M   'P 1'
_cell_length_a   11.01255995
_cell_length_b   11.01255957
_cell_length_c   13.03705570
_cell_angle_alpha   89.21479800
_cell_angle_beta   89.21479734
_cell_angle_gamma   93.66860221
_symmetry_Int_Tables_number   1
_chemical_formula_structural   KZr5TiBI14
_chemical_formula_sum   'K2 Zr10 Ti2 B2 I28'
_cell_volume   1577.53160595
_cell_formula_units_Z   2
loop_
 _symmetry_equiv_pos_site_id
 _symmetry_equiv_pos_as_xyz
  1  'x, y, z'
loop_
 _atom_site_type_symbol
 _atom_site_label
 _atom_site_symmetry_multiplicity
 _atom_site_fract_x
 _atom_site_fract_y
 _atom_site_fract_z
 _atom_site_occupancy
  K  K0  1  0.500000  0.500000  0.000000  1
  K  K1  1  0.000000  0.000000  0.500000  1
  Zr  Zr2  1  0.131418  0.131418  0.901474  1
  Zr  Zr3  1  0.868582  0.868582  0.098526  1
  Zr  Zr4  1  0.954355  0.166861  0.108696  1
  Zr  Zr5  1  0.045645  0.833139  0.891304  1
  Zr  Zr6  1  0.543081  0.331077  0.609579  1
  Zr  Zr7  1  0.668923  0.456919  0.390421  1
  Zr  Zr8  1  0.456919  0.668923  0.390421  1
  Zr  Zr9  1  0.331077  0.543081  0.609579  1
  Zr  Zr10  1  0.833139  0.045645  0.891304  1
  Zr  Zr11  1  0.166861  0.954355  0.108696  1
  Ti  Ti12  1  0.379220  0.379220  0.409529  1
  Ti  Ti13  1  0.620780  0.620780  0.590471  1
  B  B14  1  0.000000  0.000000  0.000000  1
  B  B15  1  0.500000  0.500000  0.500000  1
  I  I16  1  0.109465  0.358580  0.006907  1
  I  I17  1  0.890535  0.641420  0.993093  1
  I  I18  1  0.389792  0.151048  0.503504  1
  I  I19  1  0.848952  0.610208  0.496496  1
  I  I20  1  0.610208  0.848952  0.496496  1
  I  I21  1  0.151048  0.389792  0.503504  1
  I  I22  1  0.641420  0.890535  0.993093  1
  I  I23  1  0.358580  0.109465  0.006907  1
  I  I24  1  0.748067  0.251933  0.000000  1
  I  I25  1  0.251933  0.748067  0.000000  1
  I  I26  1  0.750414  0.249586  0.500000  1
  I  I27  1  0.249586  0.750414  0.500000  1
  I  I28  1  0.895332  0.397361  0.250191  1
  I  I29  1  0.104668  0.602639  0.749809  1
  I  I30  1  0.602639  0.104668  0.749809  1
  I  I31  1  0.397361  0.895332  0.250191  1
  I  I32  1  0.145848  0.145848  0.260859  1
  I  I33  1  0.854152  0.854152  0.739141  1
  I  I34  1  0.347096  0.347096  0.764329  1
  I  I35  1  0.652904  0.652904  0.235671  1
  I  I36  1  0.293987  0.530387  0.256338  1
  I  I37  1  0.706013  0.469613  0.743662  1
  I  I38  1  0.214425  0.965770  0.748862  1
  I  I39  1  0.034230  0.785575  0.251138  1
  I  I40  1  0.785575  0.034230  0.251138  1
  I  I41  1  0.965770  0.214425  0.748862  1
  I  I42  1  0.469613  0.706013  0.743662  1
  I  I43  1  0.530387  0.293987  0.256338  1
