# generated using pymatgen
data_CsEuH9W
_symmetry_space_group_name_H-M   'P 1'
_cell_length_a   9.33366900
_cell_length_b   9.33366748
_cell_length_c   5.81383200
_cell_angle_alpha   90.00000000
_cell_angle_beta   90.00000000
_cell_angle_gamma   120.00000184
_symmetry_Int_Tables_number   1
_chemical_formula_structural   CsEuH9W
_chemical_formula_sum   'Cs3 Eu3 H27 W3'
_cell_volume   438.62948493
_cell_formula_units_Z   3
loop_
 _symmetry_equiv_pos_site_id
 _symmetry_equiv_pos_as_xyz
  1  'x, y, z'
loop_
 _atom_site_type_symbol
 _atom_site_label
 _atom_site_symmetry_multiplicity
 _atom_site_fract_x
 _atom_site_fract_y
 _atom_site_fract_z
 _atom_site_occupancy
  Cs  Cs0  1  0.000000  0.585692  0.000000  1
  Cs  Cs1  1  0.414308  0.414308  0.000000  1
  Cs  Cs2  1  0.585692  0.000000  0.000000  1
  Eu  Eu3  1  0.000000  0.273636  0.500000  1
  Eu  Eu4  1  0.726364  0.726364  0.500000  1
  Eu  Eu5  1  0.273636  0.000000  0.500000  1
  H  H6  1  0.786202  0.304745  0.715725  1
  H  H7  1  0.695255  0.481457  0.715725  1
  H  H8  1  0.518543  0.213798  0.715725  1
  H  H9  1  0.213798  0.518543  0.284275  1
  H  H10  1  0.518543  0.213798  0.284275  1
  H  H11  1  0.786202  0.304745  0.284275  1
  H  H12  1  0.695255  0.481457  0.284275  1
  H  H13  1  0.304745  0.786202  0.715725  1
  H  H14  1  0.481457  0.695255  0.715725  1
  H  H15  1  0.188372  0.000000  0.000000  1
  H  H16  1  0.811628  0.811628  0.000000  1
  H  H17  1  0.000000  0.188372  0.000000  1
  H  H18  1  0.868397  0.000000  0.228097  1
  H  H19  1  0.131603  0.131603  0.771903  1
  H  H20  1  0.000000  0.868397  0.771903  1
  H  H21  1  0.000000  0.868397  0.228097  1
  H  H22  1  0.131603  0.131603  0.228097  1
  H  H23  1  0.868397  0.000000  0.771903  1
  H  H24  1  0.130375  0.629963  0.500000  1
  H  H25  1  0.499588  0.869625  0.500000  1
  H  H26  1  0.370037  0.500412  0.500000  1
  H  H27  1  0.500412  0.370037  0.500000  1
  H  H28  1  0.869625  0.499588  0.500000  1
  H  H29  1  0.629963  0.130375  0.500000  1
  H  H30  1  0.213798  0.518543  0.715725  1
  H  H31  1  0.304745  0.786202  0.284275  1
  H  H32  1  0.481457  0.695255  0.284275  1
  W  W33  1  0.666667  0.333333  0.500000  1
  W  W34  1  0.333333  0.666667  0.500000  1
  W  W35  1  0.000000  0.000000  0.000000  1
