# generated using pymatgen
data_LaBeAl2Ga
_symmetry_space_group_name_H-M   'P 1'
_cell_length_a   4.19897002
_cell_length_b   4.19897036
_cell_length_c   6.07380511
_cell_angle_alpha   110.22221422
_cell_angle_beta   110.22222162
_cell_angle_gamma   90.00000016
_symmetry_Int_Tables_number   1
_chemical_formula_structural   LaBeAl2Ga
_chemical_formula_sum   'La1 Be1 Al2 Ga1'
_cell_volume   93.42193797
_cell_formula_units_Z   1
loop_
 _symmetry_equiv_pos_site_id
 _symmetry_equiv_pos_as_xyz
  1  'x, y, z'
loop_
 _atom_site_type_symbol
 _atom_site_label
 _atom_site_symmetry_multiplicity
 _atom_site_fract_x
 _atom_site_fract_y
 _atom_site_fract_z
 _atom_site_occupancy
  La  La0  1  0.999825  0.999825  0.999650  1
  Be  Be1  1  0.618583  0.618583  0.237167  1
  Al  Al2  1  0.741850  0.241850  0.483700  1
  Al  Al3  1  0.241850  0.741850  0.483700  1
  Ga  Ga4  1  0.397891  0.397891  0.795782  1
