# generated using pymatgen
data_Tb3Er(Zn5Sn)2
_symmetry_space_group_name_H-M   'P 1'
_cell_length_a   8.39356401
_cell_length_b   8.39356426
_cell_length_c   9.02121800
_cell_angle_alpha   90.00000000
_cell_angle_beta   90.00000000
_cell_angle_gamma   149.76589446
_symmetry_Int_Tables_number   1
_chemical_formula_structural   Tb3Er(Zn5Sn)2
_chemical_formula_sum   'Tb3 Er1 Zn10 Sn2'
_cell_volume   320.02733929
_cell_formula_units_Z   1
loop_
 _symmetry_equiv_pos_site_id
 _symmetry_equiv_pos_as_xyz
  1  'x, y, z'
loop_
 _atom_site_type_symbol
 _atom_site_label
 _atom_site_symmetry_multiplicity
 _atom_site_fract_x
 _atom_site_fract_y
 _atom_site_fract_z
 _atom_site_occupancy
  Tb  Tb0  1  0.202834  0.797166  0.250000  1
  Tb  Tb1  1  0.999899  0.000101  0.500331  1
  Tb  Tb2  1  0.999899  0.000101  0.999669  1
  Er  Er3  1  0.797047  0.202953  0.750000  1
  Zn  Zn4  1  0.813225  0.186775  0.391255  1
  Zn  Zn5  1  0.186996  0.813004  0.609433  1
  Zn  Zn6  1  0.813225  0.186775  0.108745  1
  Zn  Zn7  1  0.186996  0.813004  0.890567  1
  Zn  Zn8  1  0.656175  0.343825  0.481635  1
  Zn  Zn9  1  0.343811  0.656189  0.518969  1
  Zn  Zn10  1  0.656175  0.343825  0.018365  1
  Zn  Zn11  1  0.343811  0.656189  0.981031  1
  Zn  Zn12  1  0.391965  0.608035  0.250000  1
  Zn  Zn13  1  0.608239  0.391761  0.750000  1
  Sn  Sn14  1  0.553300  0.446700  0.250000  1
  Sn  Sn15  1  0.446402  0.553598  0.750000  1
