# generated using pymatgen
data_Cs4MnFe3S8
_symmetry_space_group_name_H-M   'P 1'
_cell_length_a   5.46006285
_cell_length_b   7.22112891
_cell_length_c   12.42458365
_cell_angle_alpha   89.17563451
_cell_angle_beta   83.18858807
_cell_angle_gamma   79.40497035
_symmetry_Int_Tables_number   1
_chemical_formula_structural   Cs4MnFe3S8
_chemical_formula_sum   'Cs4 Mn1 Fe3 S8'
_cell_volume   478.11005562
_cell_formula_units_Z   1
loop_
 _symmetry_equiv_pos_site_id
 _symmetry_equiv_pos_as_xyz
  1  'x, y, z'
loop_
 _atom_site_type_symbol
 _atom_site_label
 _atom_site_symmetry_multiplicity
 _atom_site_fract_x
 _atom_site_fract_y
 _atom_site_fract_z
 _atom_site_occupancy
  Cs  Cs0  1  0.076820  0.026888  0.674835  1
  Cs  Cs1  1  0.570823  0.530521  0.177445  1
  Cs  Cs2  1  0.425560  0.470067  0.822873  1
  Cs  Cs3  1  0.926531  0.973235  0.325039  1
  Mn  Mn4  1  0.750479  0.997904  0.999389  1
  Fe  Fe5  1  0.252682  0.494548  0.497916  1
  Fe  Fe6  1  0.747453  0.505636  0.502055  1
  Fe  Fe7  1  0.249455  0.001760  0.000522  1
  S  S8  1  0.958013  0.545735  0.637683  1
  S  S9  1  0.458874  0.059857  0.134180  1
  S  S10  1  0.943934  0.230789  0.962689  1
  S  S11  1  0.450504  0.731309  0.454398  1
  S  S12  1  0.555769  0.939217  0.865858  1
  S  S13  1  0.041484  0.454608  0.362156  1
  S  S14  1  0.550052  0.269188  0.545988  1
  S  S15  1  0.041567  0.768735  0.036972  1
