# generated using pymatgen
data_Rb2HgF5
_symmetry_space_group_name_H-M   'P 1'
_cell_length_a   6.33494800
_cell_length_b   8.17026100
_cell_length_c   12.47312200
_cell_angle_alpha   90.00000000
_cell_angle_beta   90.00000000
_cell_angle_gamma   90.00000000
_symmetry_Int_Tables_number   1
_chemical_formula_structural   Rb2HgF5
_chemical_formula_sum   'Rb8 Hg4 F20'
_cell_volume   645.58607594
_cell_formula_units_Z   4
loop_
 _symmetry_equiv_pos_site_id
 _symmetry_equiv_pos_as_xyz
  1  'x, y, z'
loop_
 _atom_site_type_symbol
 _atom_site_label
 _atom_site_symmetry_multiplicity
 _atom_site_fract_x
 _atom_site_fract_y
 _atom_site_fract_z
 _atom_site_occupancy
  Rb  Rb0  1  0.750000  0.509487  0.276584  1
  Rb  Rb1  1  0.250000  0.490513  0.723416  1
  Rb  Rb2  1  0.250000  0.990513  0.776584  1
  Rb  Rb3  1  0.750000  0.009487  0.223416  1
  Rb  Rb4  1  0.750000  0.851835  0.575692  1
  Rb  Rb5  1  0.250000  0.148165  0.424308  1
  Rb  Rb6  1  0.250000  0.648165  0.075692  1
  Rb  Rb7  1  0.750000  0.351835  0.924308  1
  Hg  Hg8  1  0.750000  0.823400  0.936640  1
  Hg  Hg9  1  0.250000  0.176600  0.063360  1
  Hg  Hg10  1  0.250000  0.676600  0.436640  1
  Hg  Hg11  1  0.750000  0.323400  0.563360  1
  F  F12  1  0.750000  0.715354  0.094795  1
  F  F13  1  0.250000  0.284646  0.905205  1
  F  F14  1  0.250000  0.784646  0.594795  1
  F  F15  1  0.750000  0.215354  0.405205  1
  F  F16  1  0.007435  0.658588  0.883845  1
  F  F17  1  0.992565  0.341412  0.116155  1
  F  F18  1  0.992565  0.841412  0.383845  1
  F  F19  1  0.507435  0.341412  0.116155  1
  F  F20  1  0.007435  0.158588  0.616155  1
  F  F21  1  0.492565  0.658588  0.883845  1
  F  F22  1  0.492565  0.158588  0.616155  1
  F  F23  1  0.507435  0.841412  0.383845  1
  F  F24  1  0.000000  0.000000  0.000000  1
  F  F25  1  0.000000  0.500000  0.500000  1
  F  F26  1  0.500000  0.000000  0.000000  1
  F  F27  1  0.500000  0.500000  0.500000  1
  F  F28  1  0.750000  0.960218  0.791854  1
  F  F29  1  0.250000  0.039782  0.208146  1
  F  F30  1  0.250000  0.539782  0.291854  1
  F  F31  1  0.750000  0.460218  0.708146  1
