# generated using pymatgen
data_Rb8Ga11Br
_symmetry_space_group_name_H-M   'P 1'
_cell_length_a   9.88648338
_cell_length_b   9.88648410
_cell_length_c   17.51103657
_cell_angle_alpha   90.00000040
_cell_angle_beta   106.39710264
_cell_angle_gamma   60.00000219
_symmetry_Int_Tables_number   1
_chemical_formula_structural   Rb8Ga11Br
_chemical_formula_sum   'Rb16 Ga22 Br2'
_cell_volume   1401.30816683
_cell_formula_units_Z   2
loop_
 _symmetry_equiv_pos_site_id
 _symmetry_equiv_pos_as_xyz
  1  'x, y, z'
loop_
 _atom_site_type_symbol
 _atom_site_label
 _atom_site_symmetry_multiplicity
 _atom_site_fract_x
 _atom_site_fract_y
 _atom_site_fract_z
 _atom_site_occupancy
  Rb  Rb0  1  0.969482  0.688468  0.068226  1
  Rb  Rb1  1  0.756695  0.342049  0.068226  1
  Rb  Rb2  1  0.410276  0.901255  0.068226  1
  Rb  Rb3  1  0.149362  0.925319  0.224042  1
  Rb  Rb4  1  0.850639  0.574681  0.275958  1
  Rb  Rb5  1  0.589724  0.811531  0.431774  1
  Rb  Rb6  1  0.243306  0.598744  0.431774  1
  Rb  Rb7  1  0.030518  0.157951  0.431774  1
  Rb  Rb8  1  0.969482  0.842049  0.568226  1
  Rb  Rb9  1  0.756695  0.401255  0.568226  1
  Rb  Rb10  1  0.410276  0.188468  0.568226  1
  Rb  Rb11  1  0.149361  0.425319  0.724042  1
  Rb  Rb12  1  0.850639  0.074680  0.775958  1
  Rb  Rb13  1  0.589724  0.098745  0.931774  1
  Rb  Rb14  1  0.243306  0.657951  0.931774  1
  Rb  Rb15  1  0.030518  0.311531  0.931774  1
  Ga  Ga16  1  0.409089  0.295455  0.113633  1
  Ga  Ga17  1  0.702449  0.020631  0.166466  1
  Ga  Ga18  1  0.443386  0.535983  0.166466  1
  Ga  Ga19  1  0.187096  0.276920  0.166466  1
  Ga  Ga20  1  0.695068  0.250001  0.250000  1
  Ga  Ga21  1  0.500000  0.054931  0.250000  1
  Ga  Ga22  1  0.304932  0.445069  0.250000  1
  Ga  Ga23  1  0.812903  0.964016  0.333534  1
  Ga  Ga24  1  0.556614  0.479370  0.333534  1
  Ga  Ga25  1  0.297551  0.223080  0.333534  1
  Ga  Ga26  1  0.590911  0.204544  0.386366  1
  Ga  Ga27  1  0.409089  0.795455  0.613634  1
  Ga  Ga28  1  0.702449  0.776920  0.666466  1
  Ga  Ga29  1  0.443386  0.520630  0.666466  1
  Ga  Ga30  1  0.187097  0.035983  0.666466  1
  Ga  Ga31  1  0.695068  0.554932  0.750000  1
  Ga  Ga32  1  0.500000  0.945068  0.750000  1
  Ga  Ga33  1  0.304932  0.750000  0.750000  1
  Ga  Ga34  1  0.812904  0.723080  0.833534  1
  Ga  Ga35  1  0.556614  0.464016  0.833534  1
  Ga  Ga36  1  0.297551  0.979369  0.833534  1
  Ga  Ga37  1  0.590911  0.704545  0.886366  1
  Br  Br38  1  0.000000  0.000000  0.000000  1
  Br  Br39  1  0.000000  0.500000  0.500000  1
