# generated using pymatgen
data_CaCdCo2(SiO4)2
_symmetry_space_group_name_H-M   'P 1'
_cell_length_a   4.87907300
_cell_length_b   6.40151400
_cell_length_c   11.20849800
_cell_angle_alpha   90.00000000
_cell_angle_beta   90.00000000
_cell_angle_gamma   90.00000000
_symmetry_Int_Tables_number   1
_chemical_formula_structural   CaCdCo2(SiO4)2
_chemical_formula_sum   'Ca2 Cd2 Co4 Si4 O16'
_cell_volume   350.08010800
_cell_formula_units_Z   2
loop_
 _symmetry_equiv_pos_site_id
 _symmetry_equiv_pos_as_xyz
  1  'x, y, z'
loop_
 _atom_site_type_symbol
 _atom_site_label
 _atom_site_symmetry_multiplicity
 _atom_site_fract_x
 _atom_site_fract_y
 _atom_site_fract_z
 _atom_site_occupancy
  Ca  Ca0  1  0.019517  0.749999  0.724055  1
  Ca  Ca1  1  0.519516  0.249999  0.775945  1
  Cd  Cd2  1  0.478785  0.749999  0.223079  1
  Cd  Cd3  1  0.978784  0.249999  0.276922  1
  Co  Co4  1  0.000228  0.999600  0.001812  1
  Co  Co5  1  0.000228  0.500400  0.001812  1
  Co  Co6  1  0.500229  0.000400  0.498188  1
  Co  Co7  1  0.500229  0.499600  0.498188  1
  Si  Si8  1  0.414557  0.249999  0.084308  1
  Si  Si9  1  0.914556  0.749999  0.415693  1
  Si  Si10  1  0.086258  0.249999  0.580733  1
  Si  Si11  1  0.586257  0.749999  0.919267  1
  O  O12  1  0.740210  0.749999  0.052626  1
  O  O13  1  0.751131  0.249999  0.080278  1
  O  O14  1  0.275718  0.042986  0.150354  1
  O  O15  1  0.275718  0.457013  0.150354  1
  O  O16  1  0.775717  0.542986  0.349647  1
  O  O17  1  0.775717  0.957015  0.349647  1
  O  O18  1  0.251130  0.749999  0.419721  1
  O  O19  1  0.240211  0.249999  0.447374  1
  O  O20  1  0.761897  0.749999  0.549307  1
  O  O21  1  0.750125  0.249999  0.578454  1
  O  O22  1  0.222818  0.044521  0.647797  1
  O  O23  1  0.222818  0.455478  0.647797  1
  O  O24  1  0.722817  0.544521  0.852202  1
  O  O25  1  0.722817  0.955480  0.852202  1
  O  O26  1  0.250125  0.749999  0.921546  1
  O  O27  1  0.261897  0.249999  0.950693  1
