# generated using pymatgen
data_TbTh7ScS17
_symmetry_space_group_name_H-M   'P 1'
_cell_length_a   8.08601652
_cell_length_b   8.06627965
_cell_length_c   10.71385500
_cell_angle_alpha   80.72211515
_cell_angle_beta   80.84299381
_cell_angle_gamma   65.06937140
_symmetry_Int_Tables_number   1
_chemical_formula_structural   TbTh7ScS17
_chemical_formula_sum   'Tb1 Th7 Sc1 S17'
_cell_volume   622.14185527
_cell_formula_units_Z   1
loop_
 _symmetry_equiv_pos_site_id
 _symmetry_equiv_pos_as_xyz
  1  'x, y, z'
loop_
 _atom_site_type_symbol
 _atom_site_label
 _atom_site_symmetry_multiplicity
 _atom_site_fract_x
 _atom_site_fract_y
 _atom_site_fract_z
 _atom_site_occupancy
  Tb  Tb0  1  0.811584  0.303071  0.297879  1
  Th  Th1  1  0.301786  0.810602  0.295721  1
  Th  Th2  1  0.187392  0.698770  0.702450  1
  Th  Th3  1  0.698548  0.189868  0.700533  1
  Th  Th4  1  0.206561  0.206321  0.539786  1
  Th  Th5  1  0.792584  0.795076  0.456073  1
  Th  Th6  1  0.685226  0.680320  0.979449  1
  Th  Th7  1  0.315828  0.316499  0.025439  1
  Sc  Sc8  1  0.998116  0.003533  0.001813  1
  S  S9  1  0.825939  0.428419  0.529800  1
  S  S10  1  0.430376  0.822362  0.530475  1
  S  S11  1  0.175428  0.569833  0.468541  1
  S  S12  1  0.571647  0.176598  0.469321  1
  S  S13  1  0.941623  0.328194  0.034433  1
  S  S14  1  0.328357  0.940912  0.031748  1
  S  S15  1  0.059668  0.672981  0.966744  1
  S  S16  1  0.671831  0.059630  0.965938  1
  S  S17  1  0.205998  0.204166  0.278651  1
  S  S18  1  0.793116  0.792652  0.722101  1
  S  S19  1  0.062150  0.062140  0.769186  1
  S  S20  1  0.937764  0.942340  0.232446  1
  S  S21  1  0.305075  0.304990  0.754123  1
  S  S22  1  0.692783  0.694649  0.245789  1
  S  S23  1  0.520431  0.521763  0.831716  1
  S  S24  1  0.478135  0.479351  0.166144  1
  S  S25  1  0.002050  0.994959  0.503702  1
