# generated using pymatgen
data_GaFePdI8
_symmetry_space_group_name_H-M   'P 1'
_cell_length_a   8.53684090
_cell_length_b   8.53681236
_cell_length_c   7.97368485
_cell_angle_alpha   82.62920818
_cell_angle_beta   82.62930385
_cell_angle_gamma   66.70470423
_symmetry_Int_Tables_number   1
_chemical_formula_structural   GaFePdI8
_chemical_formula_sum   'Ga1 Fe1 Pd1 I8'
_cell_volume   527.39708161
_cell_formula_units_Z   1
loop_
 _symmetry_equiv_pos_site_id
 _symmetry_equiv_pos_as_xyz
  1  'x, y, z'
loop_
 _atom_site_type_symbol
 _atom_site_label
 _atom_site_symmetry_multiplicity
 _atom_site_fract_x
 _atom_site_fract_y
 _atom_site_fract_z
 _atom_site_occupancy
  Ga  Ga0  1  0.210810  0.210811  0.659763  1
  Fe  Fe1  1  0.795386  0.795389  0.331126  1
  Pd  Pd2  1  0.997416  0.997415  0.005876  1
  I  I3  1  0.310792  0.912647  0.853576  1
  I  I4  1  0.090670  0.678887  0.151148  1
  I  I5  1  0.824812  0.824811  0.633543  1
  I  I6  1  0.171656  0.171656  0.360286  1
  I  I7  1  0.912647  0.310792  0.853575  1
  I  I8  1  0.678888  0.090670  0.151146  1
  I  I9  1  0.622903  0.622902  0.309678  1
  I  I10  1  0.384020  0.384021  0.690284  1
