# generated using pymatgen
data_ErFe3NiP3Ru
_symmetry_space_group_name_H-M   'P 1'
_cell_length_a   3.70922800
_cell_length_b   10.20809200
_cell_length_c   11.97896800
_cell_angle_alpha   90.00000000
_cell_angle_beta   90.00000000
_cell_angle_gamma   90.00000000
_symmetry_Int_Tables_number   1
_chemical_formula_structural   ErFe3NiP3Ru
_chemical_formula_sum   'Er4 Fe12 Ni4 P12 Ru4'
_cell_volume   453.57332947
_cell_formula_units_Z   4
loop_
 _symmetry_equiv_pos_site_id
 _symmetry_equiv_pos_as_xyz
  1  'x, y, z'
loop_
 _atom_site_type_symbol
 _atom_site_label
 _atom_site_symmetry_multiplicity
 _atom_site_fract_x
 _atom_site_fract_y
 _atom_site_fract_z
 _atom_site_occupancy
  Er  Er0  1  0.250000  0.581894  0.707260  1
  Er  Er1  1  0.250000  0.918106  0.207260  1
  Er  Er2  1  0.750000  0.418106  0.292740  1
  Er  Er3  1  0.750000  0.081894  0.792740  1
  Fe  Fe4  1  0.250000  0.221727  0.170447  1
  Fe  Fe5  1  0.250000  0.278273  0.670447  1
  Fe  Fe6  1  0.750000  0.778273  0.829553  1
  Fe  Fe7  1  0.750000  0.721727  0.329553  1
  Fe  Fe8  1  0.250000  0.883073  0.700468  1
  Fe  Fe9  1  0.250000  0.616927  0.200468  1
  Fe  Fe10  1  0.750000  0.116927  0.299532  1
  Fe  Fe11  1  0.750000  0.383073  0.799532  1
  Fe  Fe12  1  0.250000  0.463069  0.934801  1
  Fe  Fe13  1  0.250000  0.036931  0.434801  1
  Fe  Fe14  1  0.750000  0.536931  0.065199  1
  Fe  Fe15  1  0.750000  0.963069  0.565199  1
  Ni  Ni16  1  0.250000  0.408631  0.484573  1
  Ni  Ni17  1  0.250000  0.091370  0.984573  1
  Ni  Ni18  1  0.750000  0.591369  0.515427  1
  Ni  Ni19  1  0.750000  0.908631  0.015427  1
  P  P20  1  0.250000  0.424035  0.113195  1
  P  P21  1  0.250000  0.075965  0.613195  1
  P  P22  1  0.750000  0.575965  0.886805  1
  P  P23  1  0.750000  0.924035  0.386805  1
  P  P24  1  0.250000  0.273792  0.855731  1
  P  P25  1  0.250000  0.226208  0.355731  1
  P  P26  1  0.750000  0.726208  0.144269  1
  P  P27  1  0.750000  0.773792  0.644269  1
  P  P28  1  0.250000  0.603150  0.384393  1
  P  P29  1  0.250000  0.896850  0.884393  1
  P  P30  1  0.750000  0.396850  0.615607  1
  P  P31  1  0.750000  0.103150  0.115607  1
  Ru  Ru32  1  0.250000  0.709502  0.991967  1
  Ru  Ru33  1  0.250000  0.790498  0.491967  1
  Ru  Ru34  1  0.750000  0.290498  0.008033  1
  Ru  Ru35  1  0.750000  0.209502  0.508033  1
